158

Mg 1.60300 -0.92900 44.12800
C  4.89100 0.10900 43.62000
C  0.46500 1.79400 42.52000
C  -1.43900 -2.51500 44.00900
C  3.04300 -4.11300 45.05300
N  2.55700 0.63200 43.10200
C  3.88600 0.96000 43.21400
C  4.11300 2.48200 42.76300
C  2.65500 2.98300 42.47300
C  1.82800 1.71600 42.70200
C  2.22400 4.25200 43.20700
C  4.98500 2.51100 41.45500
C  5.15300 1.32100 40.41600
H  6.45900 1.25200 39.68600
N  -0.28100 -0.37600 43.35400
C  -0.49500 0.82100 42.80000
C  -1.91400 0.82300 42.46500
C  -2.52100 -0.33900 42.93000
C  -1.38200 -1.15500 43.42000
C  -2.46200 1.95100 41.81600
C  -3.97400 -0.75500 42.75800
O  -4.80000 0.00800 42.30800
C  -4.52600 -2.11800 43.01700
N  0.92500 -2.95700 44.50300
C  -0.39700 -3.31300 44.45000
C  -0.60600 -4.76400 44.97300
C  0.80300 -5.25000 45.19200
C  1.64900 -4.04200 44.88100
C  -1.49700 -4.83700 46.24100
C  1.16600 -6.60100 44.55100
C  0.88300 -7.86100 45.43200
N  3.61000 -1.90600 44.28700
C  3.97200 -3.14700 44.72700
C  5.39600 -3.15400 44.83700
C  5.80300 -1.85400 44.47700
C  4.70100 -1.18900 43.95300
C  6.19800 -4.23300 45.31700
C  6.95200 -0.93700 44.40600
O  8.12600 -1.16300 44.82500
C  6.36100 0.41100 43.87200
C  6.40400 1.38700 44.99900
O  5.85200 1.38200 46.07600
O  7.29900 2.45500 44.64300
C  7.65400 3.48300 45.61100
H  0.16400 2.73100 42.04800
H  -2.42000 -2.97700 44.13800
H  3.42800 -5.05800 45.44000
H  4.57500 3.05900 43.56400
H  2.53800 3.23300 41.41800
H  1.45300 4.03500 43.94600
H  1.80200 4.95600 42.49000
H  3.04600 4.65500 43.79900
H  5.89200 2.86400 41.94600
H  4.70900 3.44500 40.96500
H  4.38400 1.54300 39.67700
H  4.86000 0.39700 40.91500
H  -2.08700 1.80500 40.80300
H  -2.27300 2.86900 42.37100
H  -3.52700 1.86100 41.60200
H  -4.07400 -2.93600 42.45600
H  -5.57600 -2.10300 42.72400
H  -4.45000 -2.36900 44.07500
H  -0.98800 -5.29900 44.10300
H  0.95600 -5.39700 46.26100
H  -2.13900 -3.96100 46.32500
H  -0.96900 -4.86100 47.19400
H  -2.29000 -5.58300 46.18800
H  2.22800 -6.64700 44.30800
H  0.70200 -6.74400 43.57500
H  0.48900 -8.74900 44.93700
H  0.13100 -7.61000 46.18000
H  1.81500 -8.13100 45.92800
H  5.67900 -4.53500 46.22600
H  7.17300 -3.80900 45.56000
H  6.26300 -5.12200 44.69100
H  7.05500 0.75900 43.10700
H  6.92500 3.51300 46.42100
H  7.65100 4.39700 45.01800
H  8.64700 3.23300 45.98300
Mg 1.24500 8.01300 27.41200
C  1.59200 10.42200 29.86800
C  1.11100 5.63500 29.91700
C  0.95300 5.80000 24.99400
C  1.22600 10.65200 25.02900
N  1.15200 8.04100 29.70600
C  1.33600 9.15400 30.47800
C  1.20500 8.76600 31.97400
C  1.45300 7.19300 31.91900
C  1.18900 6.89900 30.42100
C  2.82300 6.65400 32.39400
C  -0.22600 9.07700 32.52400
C  -0.62200 8.66400 33.93000
H  0.51300 8.34200 34.86300
N  1.13000 5.94100 27.41200
C  1.09700 5.11100 28.57200
C  0.98700 3.78300 28.12600
C  0.87000 3.80300 26.71500
C  1.01100 5.25400 26.27400
C  0.77700 2.55700 29.01200
C  0.54500 2.71900 25.71000
O  0.38300 2.97800 24.52100
C  0.28300 1.32400 26.11100
N  1.14200 8.23200 25.38700
C  0.98000 7.13600 24.57300
C  0.79200 7.47300 23.04300
C  0.51600 9.02200 23.15000
C  0.87700 9.35700 24.65200
C  2.08500 7.01500 22.19200
C  -0.89000 9.44600 22.75700
C  -1.08300 10.00600 21.33700
N  1.40900 10.16000 27.37400
C  1.47700 11.08400 26.37000
C  1.72600 12.45000 26.89900
C  1.69400 12.24100 28.29700
C  1.57600 10.81300 28.50200
C  1.91000 13.79600 26.10500
C  1.90400 12.86100 29.55100
O  2.23700 14.02900 29.74200
C  1.69100 11.71800 30.66500
C  2.63600 11.74100 31.71800
O  3.83800 11.49900 31.65300
O  2.09300 12.23700 32.91600
C  2.96900 12.32000 34.05100
H  1.04600 4.86000 30.68300
H  0.73300 5.09500 24.19000
H  1.21500 11.49300 24.33300
H  2.00400 9.23800 32.54600
H  0.68300 6.79300 32.57900
H  3.12900 5.93300 31.63600
H  2.74700 6.12500 33.34400
H  3.56700 7.44700 32.47500
H  -0.99600 8.77200 31.81500
H  -0.30000 10.15700 32.39800
H  -1.30100 7.81100 33.90300
H  -1.15700 9.51400 34.35300
H  1.38700 1.71500 28.68600
H  -0.26200 2.22600 29.01300
H  1.00100 2.77700 30.05600
H  1.14400 0.92600 26.64800
H  0.31100 0.66200 25.24600
H  -0.52800 1.15800 26.82100
H  -0.07400 6.88800 22.73500
H  1.10500 9.64800 22.48000
H  1.62900 6.19200 21.64200
H  2.88600 6.64700 22.83400
H  2.38800 7.82400 21.52700
H  -1.14600 10.31100 23.36900
H  -1.53600 8.57700 22.88100
H  -0.37200 10.79700 21.09700
H  -2.05700 10.49600 21.33200
H  -0.95900 9.22100 20.59200
H  1.81600 13.69700 25.02400
H  2.92700 14.09800 26.35400
H  1.22500 14.60800 26.35100
H  0.73800 11.85700 31.17700
H  2.35000 12.26100 34.94600
H  3.46000 13.28900 34.15100
H  3.73900 11.56100 34.18600

