158

Mg 34.83700 49.31300 25.04600
C  34.90600 47.52200 28.07000
C  32.93200 51.81000 26.69900
C  34.72100 51.10300 22.31300
C  36.19500 46.55100 23.42400
N  34.06900 49.67700 27.10100
C  34.37500 48.87700 28.20100
C  34.09600 49.57600 29.52800
C  33.24200 50.77800 29.07600
C  33.46800 50.78600 27.53500
C  31.76800 50.70800 29.37300
C  35.35700 49.75100 30.43800
C  35.20700 49.50000 31.90900
H  33.75700 49.44000 32.46800
N  33.90600 51.21100 24.52200
C  33.16000 52.03800 25.34500
C  32.79900 53.19100 24.60600
C  33.37100 52.97800 23.30100
C  33.96800 51.70500 23.34100
C  32.11500 54.30400 25.20200
C  33.24800 53.84000 22.01900
O  33.77600 53.64500 20.90300
C  32.32200 54.99800 22.13800
N  35.42900 48.87400 23.14400
C  35.28500 49.81800 22.20300
C  35.58900 49.13700 20.85500
C  36.28300 47.77300 21.22600
C  35.93800 47.71700 22.63500
C  34.32500 49.07200 19.91600
C  37.82200 47.60100 20.88300
C  38.83500 48.12800 21.89300
N  35.40500 47.45600 25.60200
C  36.03600 46.41400 24.83100
C  36.24800 45.22900 25.67700
C  35.79300 45.65900 26.94900
C  35.39300 47.01100 26.85700
C  36.72600 43.90600 25.28500
C  35.55200 45.17800 28.21700
O  35.71600 44.09000 28.66800
C  35.09100 46.38900 29.11000
C  33.85100 45.91100 29.79700
O  32.79400 45.70800 29.24000
O  34.06600 45.74700 31.08700
C  32.92600 45.37000 31.87600
H  32.37900 52.60500 27.20300
H  34.79600 51.63500 21.36300
H  36.63700 45.77000 22.80200
H  33.41200 48.85000 29.96700
H  33.57100 51.75300 29.43600
H  31.58400 49.85600 30.02800
H  31.02700 50.58300 28.58400
H  31.53700 51.59600 29.96100
H  35.80400 50.70100 30.14300
H  36.05700 49.00900 30.05400
H  35.80700 50.29700 32.34800
H  35.53700 48.46500 32.00600
H  32.51200 55.28100 24.92600
H  31.93900 54.28500 26.27800
H  31.03800 54.30600 25.03100
H  31.41000 54.77600 22.69100
H  32.00900 55.34600 21.15400
H  32.83300 55.83500 22.61400
H  36.30400 49.79300 20.35800
H  35.73100 47.05100 20.62500
H  34.39000 49.75900 19.07300
H  33.43800 49.29100 20.51200
H  34.26800 48.06600 19.50000
H  37.82200 48.13800 19.93400
H  37.99800 46.53000 20.78800
H  39.38500 48.97200 21.47500
H  39.53200 47.34500 22.19000
H  38.31800 48.56600 22.74700
H  36.08300 43.39500 24.56800
H  36.80500 43.22900 26.13500
H  37.73300 44.01200 24.88100
H  35.83600 46.65900 29.85900
H  32.65600 44.36300 31.55600
H  32.12500 46.10600 31.80500
H  33.34300 45.49300 32.87500
Mg -3.10500 34.52000 26.51500
C  -4.28900 33.17200 29.62300
C  -1.21200 36.69700 28.43100
C  -2.65200 36.28100 23.66200
C  -4.84100 32.08500 24.88000
N  -2.85400 34.92200 28.77600
C  -3.29300 34.14700 29.84700
C  -2.67300 34.58900 31.16500
C  -1.91200 35.86300 30.80900
C  -1.97200 35.84300 29.26800
C  -2.41600 37.17100 31.48100
C  -1.87000 33.45800 31.95600
C  -2.45800 33.12800 33.39300
H  -1.48200 33.02200 34.55500
N  -2.08500 36.29800 26.13900
C  -1.29300 36.92800 27.02800
C  -0.56000 37.92700 26.21400
C  -1.04100 37.84100 24.89700
C  -1.92800 36.70500 24.82000
C  0.39000 38.86200 26.88600
C  -0.68400 38.74100 23.73200
O  -0.84900 38.37300 22.56800
C  -0.07200 40.17600 23.96200
N  -3.74300 34.38200 24.57100
C  -3.39600 35.12100 23.51700
C  -3.93800 34.48700 22.18300
C  -4.23500 33.01000 22.60600
C  -4.26300 33.15400 24.12800
C  -5.17900 35.21900 21.59800
C  -3.22900 31.92000 22.14000
C  -3.98000 30.61300 21.83500
N  -4.43100 33.01500 27.08700
C  -4.88200 31.98600 26.28200
C  -5.55900 30.97000 27.16500
C  -5.37200 31.37800 28.44300
C  -4.70300 32.63600 28.38100
C  -6.36000 29.83500 26.63900
C  -5.56500 31.06900 29.88000
O  -6.16800 30.14700 30.41500
C  -4.88300 32.21400 30.62600
C  -5.86600 32.88900 31.49100
O  -6.63300 33.78000 31.16800
O  -5.74600 32.36300 32.76900
C  -6.48300 32.92300 33.80900
H  -0.55900 37.43200 28.90700
H  -2.63700 36.91700 22.77500
H  -5.29200 31.14400 24.55800
H  -3.50100 34.84900 31.82500
H  -0.89000 35.77900 31.17800
H  -2.18300 37.12700 32.54500
H  -3.50300 37.18300 31.40000
H  -1.92400 38.04300 31.05000
H  -0.86100 33.84400 32.10200
H  -1.74400 32.50700 31.43700
H  -2.96900 32.16600 33.37400
H  -3.14800 33.89300 33.74700
H  1.07300 39.22800 26.11900
H  1.02100 38.33300 27.60000
H  -0.13700 39.59800 27.49400
H  -0.47800 40.77100 23.14300
H  1.00300 40.04500 23.84300
H  -0.26400 40.55400 24.96600
H  -3.11700 34.65300 21.48500
H  -5.29000 32.80300 22.43200
H  -5.01000 35.73300 20.65200
H  -5.47400 36.04900 22.24100
H  -6.02200 34.55000 21.42500
H  -2.58300 31.75200 23.00200
H  -2.84400 32.31800 21.20100
H  -3.39300 30.06900 21.09500
H  -4.92500 30.90200 21.37600
H  -4.10000 29.96400 22.70300
H  -6.31200 28.91000 27.21300
H  -6.15000 29.64100 25.58700
H  -7.38800 30.15900 26.79700
H  -4.03600 31.84400 31.20400
H  -5.81000 33.65100 34.26100
H  -6.79700 32.22100 34.58100
H  -7.36900 33.36000 33.34700

