158

Mg 23.83100 -5.17900 46.20200
C  25.71500 -2.66300 44.47200
C  21.07000 -4.25600 44.42200
C  22.51900 -8.13600 46.92500
C  26.87800 -6.28600 47.44700
N  23.52400 -3.65100 44.60800
C  24.38300 -2.63000 44.11700
C  23.58300 -1.72900 43.20000
C  22.08100 -2.10900 43.59100
C  22.22200 -3.41100 44.26000
C  21.43700 -0.97500 44.49600
C  23.98100 -1.90800 41.69500
C  24.57300 -0.64000 40.99100
H  24.66300 -0.75600 39.44500
N  21.95500 -6.01900 45.79400
C  20.96000 -5.46100 45.06500
C  19.84600 -6.36500 44.99100
C  20.18200 -7.53200 45.74500
C  21.64600 -7.29500 46.17300
C  18.56600 -6.01800 44.24100
C  19.20900 -8.72300 45.95300
O  18.13800 -8.70700 45.44400
C  19.59700 -9.90400 46.80100
N  24.57900 -6.86800 47.20000
C  23.79500 -8.00100 47.36000
C  24.58500 -9.24200 47.92200
C  25.99900 -8.49400 48.28700
C  25.84600 -7.13900 47.57000
C  23.89600 -9.76900 49.21600
C  27.18900 -9.33400 47.78200
C  28.23500 -9.61300 48.82900
N  25.93200 -4.48900 46.26100
C  27.00100 -5.01300 46.86000
C  28.17400 -4.22100 46.57700
C  27.74600 -3.21900 45.73700
C  26.38800 -3.49800 45.43800
C  29.58700 -4.44900 47.13500
C  28.07000 -2.06900 44.95600
O  29.14400 -1.45000 44.93500
C  26.77300 -1.67800 44.21900
C  26.38700 -0.23000 44.57000
O  25.52400 0.02200 45.43400
O  27.23300 0.64500 43.94800
C  26.99900 2.04300 44.46000
H  20.25000 -3.84100 43.83300
H  22.03800 -9.06500 47.23700
H  27.86400 -6.48600 47.87200
H  23.79000 -0.68100 43.41700
H  21.45300 -2.12400 42.70000
H  21.99300 -0.03900 44.55100
H  21.32600 -1.39800 45.49400
H  20.51900 -0.66500 43.99600
H  23.13300 -2.29800 41.13100
H  24.84500 -2.56700 41.60300
H  25.55000 -0.27100 41.30300
H  23.88700 0.16500 41.25600
H  18.90600 -5.57000 43.30700
H  17.98400 -5.32900 44.85200
H  17.96300 -6.88600 43.97100
H  18.67800 -10.28800 47.24400
H  20.19100 -9.59100 47.66000
H  20.08900 -10.64200 46.16800
H  24.72300 -10.07400 47.23100
H  26.06400 -8.16100 49.32300
H  22.87900 -9.37900 49.26700
H  24.53400 -9.61500 50.08600
H  23.75400 -10.81300 48.93600
H  27.64400 -9.01000 46.84600
H  26.78800 -10.29200 47.45100
H  28.72100 -10.56100 48.59600
H  27.86000 -9.48800 49.84500
H  29.02400 -8.87400 48.69200
H  30.37100 -3.72300 46.91600
H  29.98100 -5.45000 46.96100
H  29.45500 -4.48700 48.21600
H  27.02200 -1.81700 43.16700
H  27.92000 2.50900 44.11100
H  26.99300 2.08500 45.54900
H  26.04900 2.38500 44.04900
Mg -11.68700 15.66300 41.35600
C  -8.88000 13.91200 41.09000
C  -10.19600 18.46300 39.98100
C  -14.69500 17.30400 41.29400
C  -13.45700 12.73700 42.48200
N  -9.77200 16.02900 40.56400
C  -8.73000 15.20600 40.57000
C  -7.50400 15.95200 40.07800
C  -7.97100 17.46100 39.84100
C  -9.43700 17.35100 40.19900
C  -7.15100 18.56600 40.58700
C  -7.02000 15.13700 38.84500
C  -5.47800 15.10500 38.64500
H  -5.04100 16.06700 37.56200
N  -12.30900 17.64200 40.76400
C  -11.57900 18.63500 40.18700
C  -12.38100 19.79500 39.84500
C  -13.68300 19.47000 40.26800
C  -13.65300 18.09500 40.82100
C  -11.91400 20.97900 39.02800
C  -14.91100 20.45200 40.11800
O  -14.74100 21.54200 39.58400
C  -16.36500 19.98900 40.46900
N  -13.84900 15.08700 41.73800
C  -14.87300 15.95400 41.71100
C  -16.20400 15.25700 42.08900
C  -15.67700 14.02300 42.91800
C  -14.23000 13.90000 42.30800
C  -17.23700 16.07700 42.82100
C  -16.49500 12.68900 42.83200
C  -17.14800 12.13700 44.10200
N  -11.29600 13.69600 41.56800
C  -12.08700 12.62200 42.09200
C  -11.20000 11.46300 42.11900
C  -9.89500 11.97400 41.84200
C  -10.07500 13.31200 41.41900
C  -11.56600 10.09800 42.55000
C  -8.57900 11.62400 41.83100
O  -7.97800 10.52600 42.05400
C  -7.81300 12.87600 41.28200
C  -6.68500 13.24100 42.13700
O  -6.74900 13.34400 43.32500
O  -5.45300 13.22100 41.35900
C  -4.32800 13.42100 42.35600
H  -9.72500 19.39300 39.65600
H  -15.70100 17.72900 41.27100
H  -13.90900 11.85800 42.94800
H  -6.66900 15.83900 40.77000
H  -7.82400 17.73900 38.79700
H  -7.15000 19.47300 39.98200
H  -6.14900 18.15900 40.72200
H  -7.59600 18.71400 41.57100
H  -7.39900 15.59300 37.93100
H  -7.38400 14.11400 38.74700
H  -5.16600 14.12500 38.28500
H  -4.83200 15.36100 39.48500
H  -12.12900 21.91200 39.54900
H  -12.56400 21.01200 38.15400
H  -10.86000 21.05000 38.75900
H  -17.10200 20.77700 40.31900
H  -16.48800 19.71700 41.51800
H  -16.41200 19.17000 39.75100
H  -16.71500 14.88500 41.20200
H  -15.40000 14.27600 43.94200
H  -18.15000 16.17100 42.23300
H  -16.86200 17.09300 42.94800
H  -17.56100 15.54400 43.71400
H  -15.90400 11.89000 42.38300
H  -17.27400 12.87400 42.09200
H  -16.50200 11.42600 44.61800
H  -18.00900 11.56700 43.75300
H  -17.45600 12.96700 44.73900
H  -10.74600 9.39300 42.68200
H  -12.28900 9.62800 41.88400
H  -12.11400 10.15000 43.49200
H  -7.38500 12.70900 40.29300
H  -3.37400 13.43000 41.82800
H  -4.10300 12.67200 43.11600
H  -4.45000 14.35900 42.89800

