158

Mg 1.25000 -2.60900 44.84400
C  4.39400 -1.47400 43.76300
C  -0.24300 -0.06900 43.02600
C  -1.75700 -4.02800 45.43800
C  2.77200 -5.32300 46.08900
N  2.04900 -1.03000 43.48700
C  3.39600 -0.71000 43.20600
C  3.49600 0.58900 42.41300
C  1.96400 1.03100 42.32600
C  1.18500 -0.11000 43.04400
C  1.72800 2.45700 42.79300
C  4.24900 0.37200 41.04700
C  5.48300 1.31800 40.85600
H  6.47200 1.21000 39.64400
N  -0.73300 -2.10300 44.28500
C  -1.13700 -1.01700 43.57800
C  -2.56100 -0.87800 43.56600
C  -2.99100 -2.01200 44.34000
C  -1.82800 -2.75900 44.72000
C  -3.36200 0.08900 42.78200
C  -4.47500 -2.34400 44.66800
O  -5.27600 -1.56500 44.20300
C  -4.95400 -3.57900 45.41900
N  0.55700 -4.43300 45.64500
C  -0.70600 -4.79700 45.85000
C  -0.87700 -6.28500 46.36500
C  0.58500 -6.61900 46.70100
C  1.35900 -5.40500 46.13000
C  -1.97800 -6.46300 47.50200
C  1.13700 -7.95000 46.06800
C  1.70100 -8.96000 47.15500
N  3.14200 -3.29100 45.00300
C  3.61700 -4.38500 45.56800
C  5.05900 -4.32400 45.61500
C  5.41200 -3.19400 44.93900
C  4.19700 -2.67000 44.51300
C  6.05600 -5.26200 46.34100
C  6.51500 -2.42500 44.48700
O  7.73500 -2.67000 44.74400
C  5.89900 -1.17400 43.69800
C  6.13000 0.11600 44.38000
O  5.27400 0.77900 44.96000
O  7.42800 0.41700 44.34900
C  7.89400 1.56200 45.16200
H  -0.72200 0.77000 42.51600
H  -2.71000 -4.52500 45.62900
H  3.26500 -6.23100 46.44100
H  4.05200 1.34600 42.96600
H  1.61000 1.07400 41.29600
H  2.65100 2.97700 43.04900
H  1.04600 2.40000 43.64200
H  1.22400 3.02400 42.01000
H  3.55600 0.62100 40.24300
H  4.53100 -0.68000 41.02000
H  6.12200 1.12400 41.71800
H  5.06300 2.31400 40.98900
H  -3.67800 -0.59600 41.99600
H  -2.74000 0.95400 42.54900
H  -4.25300 0.50600 43.25100
H  -4.75900 -4.53500 44.93300
H  -6.04200 -3.55600 45.46700
H  -4.66800 -3.62100 46.47000
H  -1.22800 -6.91800 45.55000
H  0.73200 -6.64400 47.78100
H  -2.13300 -5.51800 48.02200
H  -1.60000 -7.13700 48.27100
H  -2.88000 -6.92900 47.10400
H  1.97900 -7.84600 45.38400
H  0.30900 -8.42000 45.53700
H  2.76100 -9.08000 46.92900
H  1.20900 -9.92700 47.25200
H  1.65800 -8.63300 48.19400
H  5.66200 -6.26900 46.20300
H  6.01600 -5.02000 47.40300
H  7.03800 -5.28400 45.86800
H  6.24200 -1.18600 42.66400
H  8.93800 1.28500 45.30500
H  7.45000 1.57400 46.15800
H  7.90400 2.53100 44.66300
Mg 40.06400 9.56700 29.56400
C  42.17300 11.03200 32.03700
C  37.92800 8.61600 32.17600
C  38.22300 8.07800 27.29500
C  42.51000 10.36900 27.10100
N  40.14100 9.77800 31.85600
C  41.01900 10.50000 32.58100
C  40.64000 10.40600 34.07800
C  39.36800 9.47400 34.13100
C  39.12300 9.23400 32.63900
C  39.63700 8.20800 35.05000
C  40.34500 11.88700 34.64600
C  39.53400 11.95100 35.99500
H  40.13200 12.83800 37.13100
N  38.43500 8.41000 29.74000
C  37.61400 8.20500 30.80900
C  36.51200 7.39700 30.43200
C  36.49000 7.33700 29.01900
C  37.72000 8.02600 28.66300
C  35.56800 6.67600 31.43300
C  35.42700 6.67200 28.03500
O  35.51200 6.64300 26.80300
C  34.16300 6.13200 28.70900
N  40.55500 8.97300 27.55200
C  39.45100 8.53300 26.82500
C  39.69500 8.73200 25.32700
C  41.04300 9.48000 25.18200
C  41.45800 9.62300 26.65300
C  39.61100 7.42700 24.46100
C  40.98700 10.76100 24.37100
C  40.60600 12.08000 25.05700
N  41.92600 10.55200 29.45500
C  42.83100 10.74400 28.42800
C  43.99100 11.57100 28.86200
C  43.74900 11.65900 30.26000
C  42.49000 11.05000 30.58100
C  45.18300 12.03500 28.08600
C  44.33100 12.17900 31.46700
O  45.43100 12.67600 31.69000
C  43.47700 11.66900 32.69800
C  44.15200 10.63200 33.58400
O  44.08800 9.44000 33.44000
O  44.78700 11.24700 34.65900
C  45.34600 10.27100 35.62300
H  37.20100 8.51800 32.98400
H  37.62400 7.69500 26.46600
H  43.04300 10.95200 26.34600
H  41.36700 9.89700 34.71100
H  38.47600 9.96400 34.51900
H  38.68100 8.09300 35.56100
H  40.37700 8.50600 35.79200
H  39.99800 7.32200 34.52800
H  40.05400 12.64300 33.91700
H  41.32100 12.35500 34.77700
H  39.17200 11.00400 36.39500
H  38.67600 12.49200 35.59600
H  36.03300 6.61700 32.41700
H  35.35800 5.62400 31.23700
H  34.63400 7.22600 31.54600
H  33.86600 6.98600 29.31700
H  34.40400 5.25100 29.30500
H  33.42000 5.96400 27.93000
H  38.97700 9.49800 25.03300
H  41.78100 8.81200 24.73900
H  39.81700 6.56100 25.09100
H  40.32700 7.38900 23.63900
H  38.64700 7.33900 23.96100
H  40.21800 10.65500 23.60600
H  41.96700 10.88500 23.91000
H  40.47300 12.03000 26.13800
H  39.69800 12.48300 24.60900
H  41.44700 12.73700 24.83300
H  45.08900 13.07800 27.78100
H  45.23500 11.38600 27.21100
H  46.02200 11.98800 28.78000
H  43.19700 12.47200 33.38000
H  44.50900 9.70600 36.03400
H  45.94000 10.86800 36.31500
H  45.95300 9.57200 35.04700

