158

Mg 47.40100 16.00900 28.19300
C  45.68100 15.37300 31.20100
C  49.73700 17.75100 30.11200
C  48.99600 16.80000 25.42100
C  45.01600 14.26100 26.39500
N  47.62800 16.46900 30.43700
C  46.82500 16.05800 31.46300
C  47.20600 16.69400 32.78000
C  48.50300 17.55100 32.36500
C  48.70900 17.25600 30.83500
C  48.59500 19.05900 32.72800
C  47.33700 15.66000 34.01000
C  48.52200 15.81200 34.96700
H  48.61300 17.12600 35.74900
N  49.10900 17.25100 27.80300
C  49.94700 17.82900 28.71100
C  50.96000 18.62000 27.96500
C  50.59300 18.47100 26.57500
C  49.49300 17.49600 26.52700
C  51.99200 19.47100 28.60100
C  51.08900 19.17100 25.34800
O  50.66600 18.83800 24.22200
C  52.12700 20.19800 25.47300
N  47.07300 15.45900 26.19300
C  47.89400 15.94200 25.23700
C  47.32300 15.60800 23.78500
C  46.05200 14.64600 24.11400
C  46.07400 14.76400 25.65800
C  46.97400 16.80100 22.87500
C  46.04800 13.25300 23.48700
C  45.36300 13.19900 22.09800
N  45.75000 14.90900 28.64200
C  44.85600 14.29200 27.79200
C  43.74200 13.84700 28.62500
C  44.00600 14.16200 29.95900
C  45.27200 14.81700 29.92900
C  42.52400 13.20900 28.17900
C  43.52300 14.10400 31.27600
O  42.46600 13.65200 31.69500
C  44.55100 14.86600 32.12500
C  43.84100 15.96200 32.83300
O  43.29900 16.89300 32.34100
O  43.89300 15.88000 34.24500
C  43.37900 16.93400 35.06600
H  50.48700 18.34100 30.64300
H  49.34800 16.97000 24.40200
H  44.17500 13.95600 25.76900
H  46.45800 17.47200 32.93100
H  49.33400 17.00200 32.80800
H  47.78900 19.58000 32.21100
H  49.62000 19.28300 32.43000
H  48.43200 19.19500 33.79700
H  47.51000 14.72500 33.47700
H  46.39900 15.79200 34.54900
H  49.45000 15.68900 34.40800
H  48.55700 14.93400 35.61200
H  52.92100 19.43800 28.03000
H  52.03100 19.17100 29.64800
H  51.68000 20.51300 28.66800
H  51.77100 20.97100 26.15500
H  52.09800 20.73600 24.52600
H  53.11200 19.80600 25.72600
H  48.11600 14.97200 23.39300
H  45.09200 15.04900 23.79100
H  47.18200 17.75300 23.36500
H  45.93500 16.82000 22.54600
H  47.59700 16.81500 21.98100
H  45.65400 12.59700 24.26400
H  47.08500 12.92800 23.41100
H  46.18600 13.15700 21.38300
H  44.73500 14.06300 21.88200
H  44.71700 12.32100 22.11700
H  42.49300 12.93500 27.12400
H  41.61500 13.77500 28.38100
H  42.40900 12.32600 28.80800
H  44.93900 14.14500 32.84400
H  43.16300 17.84100 34.50200
H  44.14500 17.10800 35.82100
H  42.50600 16.69100 35.67100
Mg -4.73400 25.77200 26.23100
C  -3.34100 27.39800 28.80200
C  -6.70200 23.88100 28.38400
C  -5.62700 23.73100 23.64700
C  -2.74600 27.52000 23.94300
N  -4.93200 25.55200 28.38100
C  -4.33900 26.48500 29.25700
C  -4.69600 26.06000 30.71600
C  -5.59600 24.80800 30.47900
C  -5.80200 24.79900 28.96600
C  -4.91800 23.44100 30.94900
C  -5.36700 27.15900 31.50900
C  -4.99200 27.22900 33.01100
H  -4.70800 25.95400 33.70600
N  -5.98800 24.01600 26.05600
C  -6.80200 23.49600 27.01200
C  -7.65900 22.45000 26.48100
C  -7.31100 22.31000 25.11800
C  -6.29900 23.37000 24.88600
C  -8.80000 21.81000 27.31200
C  -7.92000 21.35600 24.18800
O  -7.56500 21.38200 22.99000
C  -8.90000 20.34500 24.55900
N  -4.20900 25.62600 24.14500
C  -4.71600 24.73800 23.32300
C  -4.37600 25.02000 21.80200
C  -3.53900 26.32300 21.95600
C  -3.53200 26.51600 23.42400
C  -3.64200 23.79900 21.24000
C  -4.05100 27.55000 21.17000
C  -3.02000 28.06200 20.17900
N  -3.37200 27.25200 26.29500
C  -2.65400 27.91300 25.27700
C  -1.68900 28.76300 25.99600
C  -1.91100 28.55300 27.33500
C  -2.96600 27.64600 27.46200
C  -0.63000 29.65700 25.22800
C  -1.47700 28.95600 28.58100
O  -0.55200 29.67900 28.89500
C  -2.38200 28.25100 29.62700
C  -1.57000 27.41900 30.51100
O  -0.84400 26.57100 30.11600
O  -1.80500 27.66900 31.83600
C  -1.09400 26.73900 32.79900
H  -7.24700 23.28200 29.11700
H  -5.93700 23.11700 22.79900
H  -1.92000 27.94200 23.36700
H  -3.73300 25.71800 31.09300
H  -6.53700 24.90600 31.02000
H  -3.88100 23.64500 31.21400
H  -5.02900 22.66800 30.18800
H  -5.42900 23.08700 31.84400
H  -6.45300 27.07500 31.45700
H  -5.17400 28.11400 31.02000
H  -5.88900 27.67700 33.43800
H  -4.18300 27.93400 33.20100
H  -8.75400 20.72700 27.19000
H  -9.76800 22.23200 27.04600
H  -8.68400 21.87600 28.39400
H  -9.38200 19.88500 23.69600
H  -9.75700 20.86600 24.98600
H  -8.59100 19.59000 25.28200
H  -5.32500 25.21000 21.30000
H  -2.51400 26.12900 21.64000
H  -4.41200 23.12900 20.85500
H  -2.98800 23.46800 22.04600
H  -3.08000 24.06000 20.34300
H  -4.36200 28.34100 21.85200
H  -4.98900 27.29700 20.67500
H  -3.39800 28.80300 19.47400
H  -2.40100 27.32900 19.66000
H  -2.31500 28.56400 20.84200
H  -1.15400 30.54900 24.88400
H  -0.29200 29.15900 24.31900
H  0.13800 29.86500 25.97300
H  -2.99900 29.03600 30.06400
H  -0.91600 27.18100 33.78000
H  -0.09400 26.51700 32.42800
H  -1.78700 25.89800 32.78400

