158

Mg 35.31100 3.07000 30.43800
C  33.11700 3.88900 33.05600
C  37.76200 2.90300 32.88400
C  37.44900 2.14500 27.97600
C  32.80000 3.27000 28.14200
N  35.42600 3.46700 32.74200
C  34.35000 3.65900 33.55300
C  34.78400 3.59400 35.03000
C  36.35200 3.47200 34.97300
C  36.51200 3.21900 33.46400
C  36.97800 4.75800 35.55500
C  34.21400 2.39800 35.78800
C  33.77500 2.63200 37.26100
H  34.75900 3.24600 38.30900
N  37.27500 2.56200 30.50500
C  38.18800 2.54500 31.57300
C  39.50000 2.15500 31.14500
C  39.35700 1.74700 29.77300
C  37.97700 2.14000 29.34400
C  40.77100 2.16700 31.99800
C  40.43200 1.14200 28.83900
O  40.21700 0.95300 27.66500
C  41.86100 0.91400 29.32500
N  35.20900 2.76800 28.33000
C  36.15700 2.33300 27.53400
C  35.71100 2.12800 26.12500
C  34.18500 2.56300 26.24100
C  34.01700 2.85700 27.68600
C  36.35500 2.99800 25.03600
C  33.14500 1.61100 25.62400
C  32.99900 0.30800 26.39600
N  33.41900 3.52100 30.52900
C  32.47400 3.61400 29.51900
C  31.20200 3.93200 30.01100
C  31.39600 3.98400 31.37700
C  32.74100 3.76200 31.67900
C  29.91200 4.09300 29.26000
C  30.74600 4.30700 32.64500
O  29.61000 4.73400 32.89500
C  31.86000 4.08700 33.80400
C  31.72300 5.21100 34.76700
O  32.11700 6.33400 34.61800
O  31.14500 4.72000 35.93700
C  30.79500 5.76900 36.90600
H  38.63100 2.92300 33.54600
H  38.06900 1.77000 27.15900
H  31.94400 3.43500 27.48400
H  34.60000 4.51900 35.57600
H  36.81400 2.66500 35.54100
H  36.29600 5.34300 36.17200
H  37.25500 5.40000 34.71800
H  37.78100 4.42800 36.21400
H  34.99500 1.65400 35.94100
H  33.39200 1.86000 35.31600
H  33.50800 1.61100 37.53100
H  32.86700 3.23500 37.27600
H  41.30400 1.22600 32.13600
H  40.52900 2.58700 32.97400
H  41.53900 2.72700 31.46500
H  42.37900 0.11700 28.79200
H  41.76500 0.36200 30.26000
H  42.52600 1.77500 29.38200
H  35.89500 1.13700 25.71200
H  34.02500 3.55000 25.80700
H  36.68100 3.93800 25.48200
H  35.62400 3.26100 24.27200
H  37.24800 2.49700 24.66100
H  33.53800 1.25200 24.67200
H  32.20500 2.13900 25.46600
H  32.57700 -0.44300 25.72900
H  32.20000 0.35500 27.13600
H  33.94100 -0.01700 26.83800
H  29.90900 5.00000 28.65600
H  29.02800 4.13700 29.89600
H  29.81300 3.30200 28.51700
H  31.70700 3.12200 34.28700
H  31.23100 5.31400 37.79500
H  29.71100 5.76600 37.01800
H  31.12900 6.80300 36.82700
Mg -11.69100 37.63700 42.45500
C  -9.54700 34.95600 41.47700
C  -9.52200 39.73500 41.06800
C  -14.04700 40.02200 42.85500
C  -14.05400 35.14800 43.41300
N  -9.87800 37.30800 41.16800
C  -9.12300 36.19100 41.02300
C  -7.87200 36.48800 40.26900
C  -7.73600 38.08600 40.36700
C  -9.14700 38.37700 40.94100
C  -6.50300 38.70000 41.18200
C  -7.89100 35.85300 38.82400
C  -6.49300 35.33700 38.51400
H  -5.87300 36.09100 37.35100
N  -11.78100 39.67600 41.99800
C  -10.73400 40.34300 41.45100
C  -11.18600 41.65200 41.22400
C  -12.49500 41.80900 41.72300
C  -12.87800 40.52400 42.23100
C  -10.33400 42.70700 40.62800
C  -13.33800 43.06300 41.67600
O  -12.99400 43.99300 40.95300
C  -14.74200 43.16500 42.26600
N  -13.75000 37.59800 42.95500
C  -14.44600 38.77300 43.16200
C  -15.88300 38.52200 43.81800
C  -15.77600 37.00000 44.04300
C  -14.43400 36.55600 43.42500
C  -16.13400 39.38600 45.12900
C  -16.99000 36.27800 43.39400
C  -17.06400 36.13300 41.89700
N  -11.81700 35.53700 42.50700
C  -12.80200 34.69700 42.94800
C  -12.33300 33.30200 42.92700
C  -11.05000 33.39000 42.40400
C  -10.84500 34.71800 41.99000
C  -12.97800 32.04300 43.51300
C  -9.77900 32.58900 42.15100
O  -9.53200 31.40800 42.37800
C  -8.77100 33.60400 41.44700
C  -7.55800 33.72300 42.26400
O  -7.48900 34.38000 43.29900
O  -6.45600 33.04300 41.72100
C  -5.15400 33.15100 42.47700
H  -8.70700 40.39500 40.76600
H  -14.88900 40.71400 42.92400
H  -14.66200 34.42500 43.96000
H  -6.97100 36.13100 40.76700
H  -7.70400 38.53600 39.37500
H  -5.69800 38.02200 41.46500
H  -6.81200 39.40800 41.95200
H  -5.92300 39.31700 40.49600
H  -8.18400 36.62600 38.11400
H  -8.54600 34.98600 38.73800
H  -6.56800 34.29700 38.19500
H  -5.87000 35.36800 39.40800
H  -9.29700 42.36900 40.61100
H  -10.37500 43.63500 41.19900
H  -10.72300 42.95900 39.64200
H  -14.95600 44.23300 42.23200
H  -14.51200 42.86100 43.28700
H  -15.50900 42.63500 41.70000
H  -16.64000 38.85200 43.10600
H  -15.82700 36.89800 45.12700
H  -17.13200 39.81800 45.05300
H  -15.29100 40.07500 45.17600
H  -16.23700 38.69100 45.96200
H  -17.86500 36.89700 43.58900
H  -17.30300 35.37200 43.91300
H  -17.31900 35.11200 41.61300
H  -16.17500 36.30100 41.28900
H  -17.83000 36.84400 41.58900
H  -14.04400 32.20900 43.66300
H  -12.56000 31.48900 44.35400
H  -12.82400 31.39200 42.65200
H  -8.51600 33.22600 40.45800
H  -5.30100 33.01500 43.54800
H  -4.75800 34.15100 42.30500
H  -4.46600 32.42300 42.04600

