158

Mg 35.66500 48.64500 24.73200
C  35.83400 47.12400 27.90500
C  34.47500 51.47900 26.28400
C  35.48300 50.11000 21.71500
C  36.31300 45.61300 23.24300
N  35.04100 49.18700 26.77400
C  35.35600 48.47200 27.92900
C  35.14600 49.29300 29.20100
C  34.52500 50.68400 28.68100
C  34.57900 50.42700 27.15200
C  33.11500 51.04200 29.19000
C  36.48700 49.52200 29.98900
C  36.52500 49.33500 31.45800
H  35.22800 49.12400 32.26100
N  35.06700 50.57600 24.07600
C  34.63400 51.58300 24.89400
C  34.50300 52.81000 24.11800
C  34.65100 52.43600 22.71100
C  35.04300 50.97700 22.76100
C  34.24900 54.15700 24.72600
C  34.52200 53.20800 21.43100
O  34.85600 52.73100 20.31500
C  34.03400 54.62700 21.49000
N  35.82000 47.94800 22.76900
C  35.78900 48.74800 21.68100
C  36.11200 48.06800 20.38500
C  36.62700 46.67000 20.93000
C  36.22700 46.73000 22.41800
C  34.83000 47.90600 19.49000
C  38.11700 46.41500 20.75200
C  39.19500 47.52500 20.88900
N  35.88700 46.70500 25.41100
C  36.22400 45.56600 24.72200
C  36.41300 44.45000 25.62000
C  36.23000 44.98200 26.90700
C  35.97700 46.38500 26.74700
C  36.86000 43.01400 25.31600
C  36.17700 44.69600 28.35600
O  36.25500 43.62500 29.01600
C  35.98500 46.14200 29.08400
C  34.77800 45.97600 30.00500
O  33.65800 46.32000 29.72700
O  35.11400 45.19400 31.05700
C  33.95300 44.59800 31.74300
H  34.22200 52.41200 26.79400
H  35.49300 50.52500 20.70500
H  36.59700 44.68400 22.74400
H  34.33600 48.95500 29.84700
H  35.20900 51.52000 28.82800
H  33.27300 52.01400 29.65800
H  32.72600 50.34600 29.93300
H  32.37700 51.31000 28.43300
H  36.62800 50.59900 29.89900
H  37.31400 48.97100 29.54200
H  37.06500 50.19400 31.85900
H  37.10000 48.41100 31.51400
H  34.53600 54.99800 24.09500
H  34.53400 54.22500 25.77600
H  33.16100 54.11500 24.67500
H  33.61500 54.87500 20.51500
H  34.91400 55.23400 21.70400
H  33.23300 54.59800 22.22900
H  36.79100 48.63500 19.74700
H  36.14300 45.90200 20.32700
H  34.26200 48.83000 19.60000
H  34.26800 47.04000 19.84000
H  35.16700 47.92600 18.45400
H  38.29500 45.99000 19.76400
H  38.49200 45.57000 21.33000
H  39.46300 47.35400 21.93200
H  39.00400 48.57000 20.64400
H  40.15500 47.39100 20.39000
H  37.86200 42.79700 25.68500
H  36.86300 42.76100 24.25500
H  36.13600 42.32300 25.74700
H  36.91900 46.33500 29.61200
H  33.30300 43.94700 31.15700
H  33.32500 45.28600 32.30900
H  34.45200 44.05500 32.54600
Mg -10.28600 39.81200 42.12100
C  -9.36400 36.47700 41.56600
C  -7.30500 40.86800 41.05300
C  -11.70000 42.76500 41.89700
C  -13.66100 38.54200 42.97300
N  -8.52600 38.74700 41.52300
C  -8.39100 37.44700 41.29700
C  -7.03000 37.21400 40.46600
C  -6.25800 38.50600 40.74000
C  -7.40300 39.47200 41.13700
C  -5.14500 38.44600 41.90700
C  -7.23400 37.04200 38.93200
C  -6.65500 35.78900 38.25700
H  -5.62800 36.12800 37.16700
N  -9.52400 41.59500 41.74600
C  -8.28000 41.87200 41.20300
C  -8.13100 43.28900 40.95300
C  -9.46700 43.83600 41.13500
C  -10.31800 42.76000 41.62600
C  -6.81000 43.89300 40.46600
C  -9.82000 45.29600 40.80700
O  -8.88000 46.06300 40.67700
C  -11.19500 45.82900 40.76200
N  -12.43900 40.48900 42.35100
C  -12.63600 41.81200 42.24800
C  -14.12800 42.18700 42.60700
C  -14.76000 40.76200 42.96800
C  -13.50700 39.87100 42.90800
C  -14.44900 43.32700 43.68800
C  -15.92200 40.30600 42.05000
C  -17.18500 39.82200 42.78900
N  -11.31900 37.87800 42.34400
C  -12.63100 37.56200 42.74400
C  -12.72800 36.08400 42.70300
C  -11.46600 35.60000 42.29400
C  -10.63700 36.74000 42.14400
C  -14.01800 35.27400 42.94900
C  -10.70400 34.41900 41.90700
O  -10.98300 33.24700 42.05800
C  -9.30800 34.96100 41.41700
C  -8.27300 34.34900 42.33800
O  -8.23500 34.34200 43.52900
O  -7.22400 33.91900 41.53300
C  -5.90600 33.59700 42.19500
H  -6.29700 41.21300 40.81300
H  -12.23300 43.71700 41.92400
H  -14.65300 38.12500 43.16000
H  -6.45400 36.34900 40.79400
H  -5.75100 38.98500 39.90300
H  -5.29900 39.27200 42.60200
H  -4.14400 38.49000 41.47800
H  -5.16600 37.52200 42.48400
H  -7.00900 37.88500 38.28000
H  -8.32100 36.98000 38.89200
H  -7.50000 35.31400 37.75900
H  -6.19300 35.04600 38.90600
H  -6.02700 43.86400 41.22200
H  -6.87600 44.92300 40.11400
H  -6.41100 43.26400 39.67000
H  -11.89400 45.05600 40.44600
H  -11.16700 46.61400 40.00600
H  -11.46900 46.16800 41.76200
H  -14.44400 42.50800 41.61500
H  -15.06900 40.92000 44.00100
H  -14.99100 44.15000 43.22100
H  -13.49300 43.68100 44.07300
H  -15.10500 43.05400 44.51500
H  -15.45100 39.57600 41.39300
H  -16.24600 41.06000 41.33200
H  -18.09600 40.22200 42.34400
H  -17.14700 39.85600 43.87800
H  -17.24000 38.74700 42.61800
H  -14.60000 35.23500 42.02800
H  -14.59500 35.49700 43.84700
H  -13.69400 34.24200 43.08100
H  -9.12600 34.61400 40.39900
H  -5.93900 32.77300 42.90800
H  -5.46500 34.47200 42.67200
H  -5.25800 33.13400 41.45000

