158

Mg 40.35200 10.17700 29.32000
C  42.13900 11.31900 32.25000
C  38.07100 8.64700 31.46300
C  38.89300 8.74100 26.66200
C  43.06800 11.05200 27.53100
N  40.08200 10.08300 31.55600
C  40.87100 10.67300 32.56100
C  40.33000 10.36300 33.98400
C  39.06500 9.38700 33.69700
C  39.04600 9.35200 32.11000
C  39.17600 7.96000 34.33900
C  39.98800 11.66700 34.65600
C  39.91500 11.38900 36.17700
H  40.68600 12.26100 37.16800
N  38.59200 9.02600 29.08900
C  37.79900 8.50900 30.06500
C  36.61200 7.86600 29.50900
C  36.78700 8.07800 28.07200
C  38.14300 8.63500 27.88800
C  35.54200 7.12300 30.32300
C  35.87100 7.65600 26.89500
O  36.25000 7.84700 25.74600
C  34.45900 7.20800 27.28100
N  40.97800 9.76300 27.41600
C  40.22000 9.18700 26.45700
C  41.02600 9.14800 25.09600
C  42.28900 9.96000 25.37600
C  42.10500 10.28600 26.84000
C  41.14100 7.73100 24.58800
C  42.37100 11.27500 24.60900
C  41.30200 12.41700 24.69200
N  42.18900 11.07900 29.69900
C  43.12400 11.48800 28.86000
C  44.20300 12.23700 29.54100
C  43.81600 12.15800 30.90300
C  42.61600 11.50500 30.93200
C  45.45400 12.86000 29.04600
C  44.22000 12.47400 32.21500
O  45.24200 13.02700 32.60900
C  43.14200 11.98800 33.18400
C  43.81000 11.00300 34.15800
O  44.03700 9.82500 33.94600
O  44.21600 11.65400 35.27000
C  44.77400 10.73000 36.29600
H  37.32500 8.33400 32.19600
H  38.43600 8.37600 25.74000
H  43.84000 11.43600 26.86100
H  41.22600 9.85300 34.33700
H  38.11400 9.82500 34.00000
H  39.66200 8.14800 35.29600
H  39.70700 7.27600 33.67700
H  38.17200 7.58600 34.53700
H  38.96400 11.92500 34.38300
H  40.67500 12.50500 34.54300
H  40.19700 10.34900 36.34100
H  38.85300 11.37500 36.41900
H  35.62300 7.17900 31.40800
H  35.48100 6.11500 29.91100
H  34.59200 7.65400 30.26600
H  33.93900 7.84900 27.99200
H  34.57500 6.23700 27.76200
H  33.83200 7.10900 26.39500
H  40.45500 9.72800 24.37100
H  43.12500 9.26200 25.34800
H  40.86200 6.98800 25.33600
H  42.17200 7.42200 24.41700
H  40.43200 7.51200 23.78900
H  42.35900 10.97400 23.56200
H  43.37800 11.67400 24.72700
H  40.85500 12.44200 23.69900
H  41.69700 13.43000 24.77500
H  40.50000 12.22500 25.40500
H  45.47900 12.72500 27.96500
H  46.36800 12.33400 29.32200
H  45.53800 13.91100 29.32300
H  42.60600 12.83300 33.61500
H  44.12900 9.90800 36.60700
H  44.86500 11.33700 37.19700
H  45.72200 10.34300 35.92300
Mg -12.02800 37.89400 43.10800
C  -10.10600 35.19700 42.21800
C  -10.09100 39.76800 40.97000
C  -14.30300 40.40500 43.13000
C  -14.19400 35.76900 44.63000
N  -10.28900 37.50800 41.68300
C  -9.65100 36.32900 41.60600
C  -8.36400 36.52500 40.82500
C  -8.42200 37.94400 40.25100
C  -9.67700 38.45900 41.00500
C  -7.12600 38.87400 40.41400
C  -8.11700 35.47200 39.67200
C  -6.64100 35.05200 39.49800
H  -5.83500 35.57500 38.27600
N  -12.12100 39.88700 42.28200
C  -11.15700 40.48000 41.51400
C  -11.49400 41.88700 41.30900
C  -12.67200 42.11800 42.00000
C  -13.13100 40.77500 42.49800
C  -10.68300 42.76600 40.41400
C  -13.33000 43.42500 42.11800
O  -12.73200 44.42000 41.73800
C  -14.69000 43.65000 42.67200
N  -13.90200 38.02900 43.71400
C  -14.63700 39.19100 43.74100
C  -16.07600 38.99700 44.27500
C  -16.07500 37.45400 44.56800
C  -14.59100 37.03800 44.35600
C  -16.35300 40.00500 45.42500
C  -17.15300 36.67600 43.71900
C  -17.77500 35.45500 44.39600
N  -12.12400 35.85900 43.48300
C  -13.06700 35.15300 44.17000
C  -12.60100 33.77000 44.30300
C  -11.35900 33.75200 43.58000
C  -11.25300 35.02900 43.00800
C  -13.27900 32.63400 45.05100
C  -10.21900 32.93300 43.20500
O  -9.92300 31.78300 43.44000
C  -9.42400 33.77600 42.28100
C  -8.06500 33.84300 42.85900
O  -7.14200 33.23400 42.43600
O  -7.99600 34.72500 43.88800
C  -6.57000 34.90400 44.41700
H  -9.51100 40.49200 40.39500
H  -14.95800 41.25600 43.32900
H  -14.94400 35.13900 45.11200
H  -7.51000 36.32700 41.47300
H  -8.61500 38.00600 39.18000
H  -7.34600 39.72300 41.06200
H  -6.80700 39.21900 39.43000
H  -6.24800 38.31100 40.73200
H  -8.40000 35.96100 38.74000
H  -8.88500 34.70500 39.77100
H  -6.60000 33.97900 39.30800
H  -6.13300 35.05200 40.46200
H  -11.37500 43.39800 39.85700
H  -9.97000 42.40700 39.67200
H  -10.03700 43.47900 40.92500
H  -15.33900 43.07100 42.01500
H  -14.96800 44.67300 42.42000
H  -14.74500 43.38700 43.72800
H  -16.76100 39.10100 43.43300
H  -16.41000 37.41100 45.60400
H  -15.44200 40.33000 45.92700
H  -16.98300 39.53200 46.17800
H  -16.90200 40.90500 45.14800
H  -16.52300 36.38300 42.87900
H  -17.92300 37.38000 43.40600
H  -18.82100 35.68100 44.60400
H  -17.23700 35.10900 45.27900
H  -17.77300 34.63400 43.67900
H  -14.35100 32.60700 44.85800
H  -13.05100 32.71400 46.11400
H  -12.76600 31.77900 44.61100
H  -9.46200 33.31500 41.29400
H  -6.39300 35.70800 45.13200
H  -5.84400 35.10800 43.63000
H  -6.24300 33.97400 44.88100

