158

Mg 25.82000 0.89300 29.44000
C  27.69000 0.39800 32.35800
C  23.16200 1.45300 31.40300
C  24.08700 1.06100 26.63100
C  28.66900 -0.07300 27.62800
N  25.38800 0.70100 31.68800
C  26.35700 0.53700 32.68200
C  25.73500 0.79700 34.07300
C  24.27700 1.14800 33.67000
C  24.28300 1.14100 32.18000
C  23.18300 0.22100 34.30800
C  26.49600 1.91600 34.92200
C  27.04200 1.62700 36.34100
H  26.92500 2.70600 37.47800
N  23.93700 1.22300 29.07500
C  22.92500 1.45000 30.03000
C  21.62000 1.64800 29.35400
C  21.95800 1.67400 27.96700
C  23.38200 1.27900 27.83900
C  20.32000 1.74700 30.18700
C  21.02900 1.77700 26.78900
O  21.34600 1.56000 25.60900
C  19.62900 2.24500 27.02500
N  26.32400 0.44300 27.40300
C  25.41500 0.63000 26.39300
C  26.05200 0.59700 25.03900
C  27.56300 0.31600 25.43300
C  27.54600 0.25700 26.88000
C  25.63700 -0.42700 23.94800
C  28.60100 1.30500 24.89800
C  29.76100 0.61600 24.03900
N  27.73900 0.26600 29.85500
C  28.82300 -0.01100 29.02100
C  30.05900 -0.18100 29.80900
C  29.58800 0.01600 31.13100
C  28.21600 0.20700 31.13400
C  31.26800 -0.67400 29.29600
C  30.07400 -0.08800 32.44400
O  31.23600 -0.37700 32.83600
C  28.86500 0.16900 33.29200
C  28.62100 -1.09200 34.00200
O  27.93000 -1.99600 33.60500
O  29.23100 -0.97100 35.20400
C  28.70400 -1.71900 36.36000
H  22.29400 1.78300 31.97800
H  23.56400 0.99000 25.67600
H  29.53900 -0.36000 27.03400
H  25.77700 -0.19500 34.52300
H  23.93400 2.13400 33.98500
H  22.81400 0.67700 35.22700
H  23.68600 -0.71600 34.54800
H  22.29500 -0.05900 33.74100
H  25.77800 2.73500 34.98000
H  27.19600 2.33000 34.19600
H  28.12300 1.49600 36.28700
H  26.67600 0.64500 36.63800
H  20.36700 1.20600 31.13200
H  19.65600 1.15200 29.56100
H  19.99100 2.75400 30.44500
H  19.12200 1.48500 27.61900
H  19.17600 2.46900 26.05900
H  19.63400 3.21500 27.52400
H  25.96200 1.60600 24.63800
H  27.94600 -0.68500 25.23500
H  24.64600 -0.77400 24.24000
H  26.43300 -1.17100 23.93100
H  25.53000 -0.10200 22.91300
H  29.16000 1.71800 25.73700
H  28.15500 2.14400 24.36300
H  29.42400 0.86800 23.03300
H  29.88800 -0.45000 24.22800
H  30.71500 1.11700 24.20400
H  31.43200 -1.67000 28.88400
H  31.96100 -0.61300 30.13500
H  31.68200 -0.00500 28.54100
H  29.06300 0.98300 33.99000
H  27.77900 -1.25600 36.70500
H  29.43800 -1.83100 37.15800
H  28.56700 -2.77400 36.12200
Mg 48.08700 34.00100 26.48000
C  46.45800 32.84400 29.17600
C  48.98900 36.88800 28.17800
C  49.53000 35.23500 23.65100
C  47.03600 31.23300 24.63600
N  47.70300 34.77900 28.41500
C  47.17100 34.01700 29.45600
C  47.23800 34.76200 30.71400
C  47.78100 36.19900 30.33700
C  48.19200 35.97100 28.90000
C  46.65700 37.23100 30.35900
C  48.32400 34.04100 31.62400
C  48.31500 34.32100 33.10100
H  47.11700 35.12500 33.65900
N  49.12800 35.90700 25.96200
C  49.42300 36.90600 26.86700
C  50.28800 37.82600 26.15300
C  50.42500 37.33600 24.85000
C  49.70700 36.10200 24.76700
C  50.92700 39.03800 26.81100
C  51.25800 37.93800 23.67700
O  51.32100 37.42000 22.55500
C  52.16300 39.19500 23.92100
N  48.37400 33.29300 24.51400
C  49.01500 33.98300 23.56300
C  49.05900 33.29800 22.21100
C  48.59000 31.85300 22.59000
C  47.90000 32.10100 23.92500
C  48.24300 33.94600 21.07400
C  49.59400 30.69500 22.68300
C  50.02600 30.00200 21.40900
N  46.86400 32.42600 26.70300
C  46.56300 31.36200 25.90900
C  45.71300 30.46500 26.73200
C  45.57600 31.07500 27.92800
C  46.38300 32.19700 27.89200
C  45.05700 29.11900 26.36000
C  45.03800 30.83600 29.25000
O  44.55500 29.78100 29.64600
C  45.45100 32.08000 30.15500
C  45.86000 31.67500 31.49500
O  46.87400 31.04600 31.75200
O  44.87500 31.99500 32.35500
C  44.77000 31.22000 33.60700
H  49.29000 37.80500 28.68800
H  50.07500 35.48300 22.73700
H  46.72600 30.28800 24.18700
H  46.33400 34.88000 31.31200
H  48.63400 36.58900 30.89300
H  45.93000 37.09600 29.55800
H  47.17100 38.17400 30.17500
H  46.14900 37.27300 31.32300
H  49.19000 34.59700 31.26500
H  48.46700 32.98600 31.38800
H  49.28100 34.62500 33.50300
H  48.24100 33.33600 33.56100
H  50.37300 39.84300 26.32900
H  51.99800 39.10500 26.62100
H  50.69400 39.05400 27.87500
H  52.52200 39.38100 22.90900
H  52.95000 38.93500 24.62900
H  51.56400 40.05000 24.23300
H  50.06100 33.30700 21.78100
H  47.89100 31.38100 21.89900
H  47.40100 33.33300 20.75100
H  48.91100 34.14300 20.23600
H  47.76200 34.85800 21.43000
H  49.19000 29.98300 23.40300
H  50.41900 31.14500 23.23600
H  49.51600 30.48400 20.57500
H  49.71500 28.96800 21.56300
H  51.10300 30.16500 21.43200
H  44.38200 29.24200 25.51400
H  44.54900 28.67500 27.21600
H  45.79500 28.37100 26.07200
H  44.53300 32.66400 30.21700
H  45.31800 30.28300 33.69900
H  43.70500 31.10900 33.81200
H  45.13400 31.82000 34.44100

