158

Mg 9.26700 3.79600 26.72400
C  10.49500 2.32300 29.58400
C  7.14100 5.68200 28.61800
C  7.99900 5.07300 23.85000
C  10.82500 1.26000 24.80300
N  8.76700 3.82100 28.82600
C  9.50600 3.26600 29.86900
C  9.05800 3.75000 31.28500
C  7.96400 4.82500 30.95800
C  7.90400 4.71500 29.38800
C  6.65200 4.61300 31.71300
C  10.31100 4.14800 32.14900
C  10.24700 5.16700 33.24800
H  11.02400 4.77600 34.54000
N  7.87400 5.22400 26.30500
C  7.14700 5.94600 27.21300
C  6.38000 6.95900 26.57800
C  6.60400 6.76100 25.13900
C  7.54500 5.64600 25.07700
C  5.39800 7.88300 27.22600
C  5.88800 7.43100 23.94000
O  6.06100 7.12600 22.81100
C  4.88400 8.52500 24.10700
N  9.32000 3.16500 24.66500
C  8.81200 3.94800 23.67300
C  9.19900 3.43800 22.26300
C  10.06000 2.20400 22.59700
C  10.07700 2.20000 24.10000
C  8.00600 3.27400 21.31100
C  11.48300 2.04700 22.03800
C  11.91700 3.05100 20.92700
N  10.52100 2.13400 27.07900
C  11.03200 1.14800 26.15700
C  11.77100 0.13000 26.96300
C  11.72500 0.63400 28.30600
C  10.90600 1.74300 28.33700
C  12.41200 -1.12900 26.45700
C  12.16600 0.57900 29.72000
O  13.04300 -0.11400 30.18500
C  11.28400 1.56400 30.56400
C  10.40400 0.75000 31.49000
O  9.25200 0.48200 31.23700
O  11.06600 0.49800 32.68400
C  10.20100 -0.17500 33.67000
H  6.63900 6.43500 29.22800
H  7.63200 5.35000 22.86000
H  11.35800 0.46500 24.27800
H  8.73200 2.86100 31.82500
H  8.29400 5.85000 31.13000
H  5.87100 4.11900 31.13600
H  6.29000 5.61400 31.94600
H  6.86000 4.10900 32.65600
H  11.23600 4.32300 31.60100
H  10.51700 3.18100 32.60800
H  9.20000 5.27700 33.53000
H  10.63300 6.11700 32.88000
H  5.62200 8.12900 28.26400
H  4.41200 7.43000 27.33000
H  5.16500 8.81300 26.70600
H  4.72500 9.07500 23.18000
H  5.10600 9.38000 24.74700
H  3.96800 8.00900 24.39300
H  9.87400 4.20500 21.88400
H  9.49000 1.30400 22.36800
H  7.92200 2.21200 21.07800
H  8.21100 3.97200 20.49900
H  7.10600 3.41000 21.91000
H  11.65000 0.99000 21.83100
H  12.26300 2.22800 22.77800
H  11.13600 3.08900 20.16800
H  12.81500 2.73000 20.39900
H  12.11500 4.06100 21.28400
H  12.22500 -1.99700 27.08900
H  13.49700 -1.03100 26.41500
H  12.13200 -1.32900 25.42200
H  11.95700 2.18200 31.15800
H  9.35600 0.35900 34.10400
H  10.72700 -0.52100 34.56000
H  9.72500 -1.07800 33.28700
Mg -11.18600 17.30900 42.20200
C  -7.92400 18.30600 42.24800
C  -12.14300 20.64500 41.94500
C  -14.51500 16.36500 41.93300
C  -10.27900 13.95700 41.99300
N  -10.16000 19.21900 42.17300
C  -8.83000 19.37000 42.13900
C  -8.39400 20.86700 42.02800
C  -9.71900 21.61700 42.28600
C  -10.76900 20.43800 42.12100
C  -9.72200 22.43800 43.56800
C  -7.77900 21.15000 40.64700
C  -6.38100 21.84800 40.78300
H  -5.35700 21.14800 39.87800
N  -13.01300 18.36400 41.83300
C  -13.20000 19.72600 41.76400
C  -14.55600 20.06100 41.50100
C  -15.28200 18.80400 41.56900
C  -14.25000 17.75000 41.73600
C  -15.15000 21.48000 41.23300
C  -16.78300 18.73400 41.46900
O  -17.46400 19.76000 41.59100
C  -17.46200 17.45900 41.36200
N  -12.27100 15.52200 41.78600
C  -13.59100 15.33700 42.02100
C  -14.03700 13.93300 42.13800
C  -12.72900 13.15900 42.05300
C  -11.67500 14.28700 41.95500
C  -14.86200 13.64400 43.35400
C  -12.70000 12.23000 40.68600
C  -12.62200 10.68900 40.94100
N  -9.43600 16.28800 42.15700
C  -9.15400 14.92300 42.07000
C  -7.76200 14.73400 42.11800
C  -7.19100 16.06100 42.14500
C  -8.28200 16.93500 42.25600
C  -7.03700 13.47300 42.16500
C  -5.97500 16.77800 42.13800
O  -4.83200 16.28600 42.01800
C  -6.36400 18.30300 42.35400
C  -5.83600 18.82800 43.64400
O  -6.11800 18.41000 44.77800
O  -4.91900 19.76600 43.32500
C  -4.12000 20.36100 44.44000
H  -12.55800 21.63000 41.72400
H  -15.57700 16.11400 41.98000
H  -9.99100 12.90800 41.89600
H  -7.79400 21.24400 42.85700
H  -10.04600 22.28200 41.48700
H  -9.07600 23.28800 43.35200
H  -9.43000 21.84000 44.43200
H  -10.76600 22.73600 43.66400
H  -8.43100 21.80700 40.07100
H  -7.69100 20.29600 39.97500
H  -6.05200 21.84400 41.82200
H  -6.45200 22.91100 40.55200
H  -16.11500 21.51300 40.72800
H  -14.32700 21.93900 40.68500
H  -15.25600 21.93600 42.21700
H  -18.39100 17.64500 40.82400
H  -17.49300 17.00400 42.35200
H  -16.87500 16.79100 40.73100
H  -14.75600 13.76000 41.33700
H  -12.62100 12.57000 42.96400
H  -14.77500 14.50400 44.01800
H  -14.59900 12.77700 43.96000
H  -15.89000 13.50500 43.01900
H  -11.87500 12.53800 40.04400
H  -13.59200 12.30600 40.06500
H  -12.55100 10.58400 42.02300
H  -11.76800 10.31200 40.37800
H  -13.43800 10.11500 40.50300
H  -5.99000 13.60200 42.43900
H  -7.10200 12.96200 41.20400
H  -7.55300 12.84200 42.88800
H  -5.83800 18.72400 41.49700
H  -3.50700 21.12900 43.96900
H  -3.43600 19.65000 44.90500
H  -4.77400 20.78300 45.20300

