158

Mg 16.54500 52.50700 26.02000
C  18.19900 51.11100 28.97400
C  13.90400 53.24500 28.05900
C  14.88500 53.32400 23.25800
C  19.29500 51.36900 24.25400
N  16.13600 52.12800 28.30100
C  16.91400 51.63300 29.32900
C  16.25100 51.79500 30.72600
C  14.80400 52.38200 30.31400
C  14.94700 52.62200 28.74500
C  13.46500 51.55800 30.69300
C  17.03000 52.77500 31.64400
C  16.43800 52.82900 33.09500
H  15.18800 52.02700 33.56300
N  14.64400 53.23400 25.66400
C  13.69900 53.47100 26.63100
C  12.55700 54.13700 26.07100
C  12.84400 54.22400 24.64100
C  14.21500 53.60600 24.44600
C  11.43100 54.74700 26.87300
C  12.02000 54.68800 23.37900
O  12.48800 54.66000 22.22700
C  10.64800 55.26600 23.52700
N  17.01400 52.32800 24.08400
C  16.14600 52.76500 23.11300
C  16.83400 52.64600 21.78400
C  18.27700 52.15800 22.15700
C  18.25900 52.02000 23.62500
C  15.98200 51.70500 20.89700
C  19.48500 53.07400 21.64000
C  19.33600 54.57000 21.81600
N  18.27300 51.37100 26.43700
C  19.27100 50.99200 25.63400
C  20.23300 50.12300 26.26200
C  19.85100 50.23600 27.58600
C  18.69300 50.99400 27.65100
C  21.40500 49.42800 25.66900
C  20.37200 49.92100 28.90400
O  21.41600 49.46600 29.34200
C  19.25900 50.47600 29.94200
C  18.64100 49.30300 30.65900
O  18.49800 48.17400 30.19600
O  18.30600 49.62700 31.95700
C  17.95900 48.50100 32.81900
H  13.00900 53.53600 28.61400
H  14.40800 53.49500 22.29000
H  20.00000 50.91100 23.55700
H  16.17600 50.81000 31.18800
H  14.56900 53.34900 30.75900
H  12.98200 51.15400 29.80400
H  12.72800 52.23500 31.12500
H  13.66900 50.73600 31.37900
H  16.94600 53.76400 31.19400
H  18.06600 52.45400 31.74500
H  16.29500 53.87600 33.36200
H  17.31900 52.52900 33.66300
H  11.07400 55.68600 26.45000
H  11.76800 54.90900 27.89600
H  10.56000 54.10000 26.98300
H  10.61500 56.16000 24.15100
H  9.97200 54.43600 23.73500
H  10.37500 55.53800 22.50800
H  16.77400 53.62700 21.31300
H  18.49800 51.18800 21.71200
H  16.07300 50.67400 21.23900
H  16.35800 51.81900 19.88000
H  14.93900 52.02100 20.91300
H  19.55200 52.90300 20.56500
H  20.40100 52.82600 22.17700
H  18.95600 55.21800 21.02600
H  20.28000 54.98500 22.16600
H  18.61600 54.74600 22.61500
H  21.19900 49.02900 24.67600
H  21.76000 48.61900 26.30700
H  22.11400 50.24500 25.53900
H  19.82400 51.14200 30.59400
H  16.92400 48.25600 32.58000
H  17.90100 48.79200 33.86800
H  18.67500 47.68300 32.73300
Mg -9.70400 39.33900 40.20500
C  -9.10200 35.97600 39.66800
C  -6.50600 40.04300 39.18700
C  -10.46200 42.60300 39.98400
C  -13.16800 38.59200 40.70600
N  -8.00100 38.11300 39.41000
C  -7.95500 36.74000 39.34300
C  -6.54000 36.19400 38.97600
C  -5.71500 37.54600 39.21100
C  -6.78100 38.63800 39.29100
C  -4.79900 37.37200 40.48700
C  -6.54600 35.59000 37.50600
C  -6.95700 36.47700 36.35100
H  -8.23600 36.10900 35.56600
N  -8.63800 41.11000 39.70900
C  -7.35800 41.22000 39.27600
C  -7.00900 42.62200 38.97500
C  -8.19400 43.39600 39.19700
C  -9.14800 42.40800 39.66700
C  -5.65800 43.08500 38.49100
C  -8.29500 44.84500 38.95300
O  -7.30000 45.48500 38.60200
C  -9.60200 45.59600 39.24100
N  -11.55600 40.38700 40.34400
C  -11.48400 41.77500 40.39300
C  -12.89300 42.40100 40.66300
C  -13.84300 41.14300 40.71000
C  -12.84900 39.96400 40.59000
C  -12.91300 43.27500 41.97200
C  -14.82800 41.11300 39.47700
C  -16.13900 40.27900 39.70100
N  -10.89500 37.66000 40.46600
C  -12.27100 37.48900 40.60200
C  -12.54100 36.06200 40.64100
C  -11.35700 35.46400 40.26300
C  -10.41700 36.47800 40.11800
C  -13.92700 35.49500 40.96600
C  -10.69700 34.10000 39.87500
O  -11.04000 32.91400 39.73900
C  -9.21500 34.42600 39.39000
C  -8.25700 33.46600 40.05100
O  -8.33600 33.26800 41.21500
O  -7.33600 32.92200 39.15400
C  -6.23700 32.27500 39.87200
H  -5.46800 40.27600 38.93800
H  -10.82600 43.62000 40.14200
H  -14.21700 38.38500 40.93000
H  -6.34100 35.37800 39.67000
H  -5.06500 37.74300 38.35800
H  -4.97800 36.42300 40.99300
H  -5.02400 38.11100 41.25600
H  -3.77100 37.39300 40.12500
H  -7.15200 34.68900 37.41600
H  -5.51100 35.36600 37.25000
H  -6.13900 36.63000 35.64700
H  -7.18300 37.44400 36.80000
H  -5.73500 43.42900 37.46000
H  -4.90900 42.29800 38.58200
H  -5.25900 43.86200 39.14400
H  -9.91500 45.52700 40.28300
H  -10.42700 45.22300 38.63400
H  -9.44900 46.62900 38.93100
H  -13.15400 43.04000 39.82000
H  -14.36000 40.98800 41.65700
H  -13.33800 42.79800 42.85500
H  -13.53900 44.12500 41.70300
H  -11.91600 43.61500 42.25200
H  -14.32700 40.78400 38.56700
H  -15.11000 42.16000 39.36400
H  -16.26900 40.04300 40.75800
H  -16.05600 39.38400 39.08400
H  -16.98500 40.87300 39.35600
H  -14.45100 35.99200 41.78300
H  -13.72300 34.44600 41.18200
H  -14.56300 35.49000 40.08100
H  -9.25000 34.24600 38.31600
H  -5.32300 32.58200 39.36200
H  -6.40500 31.19900 39.83300
H  -6.10500 32.51100 40.92800

