158

Mg 1.06500 -1.79700 44.80000
C  4.47300 -1.39100 44.01900
C  0.41000 0.78100 42.53900
C  -2.23700 -2.61900 44.97000
C  1.87000 -4.78300 46.36000
N  2.32900 -0.62500 43.17900
C  3.68900 -0.57700 43.22800
C  4.21500 0.44000 42.13100
C  2.82800 1.22200 41.78600
C  1.78400 0.47400 42.50800
C  2.96100 2.76000 41.99600
C  4.88700 -0.32100 40.94100
C  6.27300 0.30900 40.55000
H  6.35000 1.50800 39.53100
N  -0.70200 -0.97900 43.88400
C  -0.71200 0.10300 43.08200
C  -2.09300 0.54900 42.89600
C  -3.00400 -0.42500 43.60000
C  -1.99100 -1.38900 44.23200
C  -2.50100 1.79100 42.06600
C  -4.53900 -0.44600 43.69300
O  -5.12300 0.48500 43.12300
C  -5.32000 -1.42500 44.40000
N  0.00700 -3.46600 45.66000
C  -1.36500 -3.52700 45.61600
C  -1.87600 -4.82300 46.35200
C  -0.55900 -5.54900 46.88500
C  0.47300 -4.62900 46.16700
C  -3.00100 -4.48700 47.45100
C  -0.36500 -7.10700 46.75500
C  -1.47200 -8.01500 47.31800
N  2.73800 -2.82900 45.24100
C  2.97800 -4.05600 45.86200
C  4.40200 -4.27600 46.16000
C  4.96900 -3.21400 45.46600
C  3.96900 -2.44300 44.90100
C  5.09700 -5.38700 46.90200
C  6.34000 -2.63600 45.09100
O  7.46800 -3.01200 45.36400
C  5.96200 -1.46900 44.13600
C  6.45100 -0.15200 44.67500
O  6.21300 0.19600 45.80700
O  7.29800 0.45700 43.79000
C  7.90500 1.72000 44.20500
H  0.14200 1.66700 41.95900
H  -3.28600 -2.80300 45.21100
H  2.25000 -5.56500 47.02100
H  4.93100 1.14400 42.55300
H  2.67800 1.18800 40.70700
H  3.89700 2.97200 42.51300
H  2.13500 3.09400 42.62300
H  2.95200 3.38800 41.10500
H  4.19200 -0.28700 40.10200
H  5.11700 -1.37700 41.07600
H  6.76700 -0.58300 40.16400
H  6.77400 0.58500 41.47800
H  -2.81500 1.46500 41.07500
H  -1.77500 2.60100 41.99400
H  -3.38200 2.18000 42.57700
H  -6.39700 -1.36800 44.24000
H  -5.11900 -1.28300 45.46100
H  -5.00200 -2.44600 44.18700
H  -2.26300 -5.49100 45.58200
H  -0.54600 -5.43700 47.96900
H  -3.86700 -5.13100 47.29400
H  -3.26500 -3.43300 47.36500
H  -2.71100 -4.61600 48.49400
H  0.55000 -7.39800 47.27200
H  -0.23200 -7.38700 45.71000
H  -1.83100 -8.60500 46.47500
H  -2.22400 -7.40600 47.81900
H  -1.09000 -8.77300 48.00200
H  5.31800 -6.22200 46.23900
H  4.56200 -5.68400 47.80500
H  6.00300 -4.87400 47.22600
H  6.46700 -1.62800 43.18300
H  8.93100 1.43300 44.43700
H  7.46700 2.03000 45.15300
H  7.73800 2.49500 43.45700
Mg 17.43300 -2.83100 27.95600
C  16.42400 -0.60800 30.41500
C  19.65000 -4.38400 30.27200
C  19.14200 -4.41300 25.43100
C  15.98900 -0.72600 25.56300
N  17.94200 -2.50900 30.05800
C  17.36200 -1.52800 30.87600
C  17.80300 -1.63300 32.38000
C  18.78500 -2.82100 32.24900
C  18.87500 -3.22700 30.73700
C  20.12600 -2.43800 32.84600
C  16.53400 -1.91900 33.30900
C  16.72600 -2.42600 34.79600
H  18.03700 -2.08400 35.48700
N  18.96500 -4.31900 27.86300
C  19.66600 -4.89000 28.88700
C  20.34300 -6.03600 28.36900
C  20.14700 -6.09500 26.98200
C  19.42000 -4.87900 26.70300
C  21.24600 -6.78700 29.23900
C  20.62200 -7.13200 26.01700
O  20.42800 -7.11500 24.79600
C  21.49700 -8.24900 26.51500
N  17.64900 -2.49700 25.83600
C  18.40800 -3.32600 25.03600
C  18.06700 -3.09600 23.49900
C  16.96700 -1.95400 23.60100
C  16.77900 -1.73200 25.10400
C  19.19400 -2.63100 22.48400
C  15.58400 -2.49300 22.99600
C  14.45100 -2.93400 23.87500
N  16.30800 -1.06400 27.87800
C  15.80200 -0.33400 26.87100
C  15.01800 0.75900 27.42600
C  15.21600 0.67000 28.80500
C  16.03000 -0.43500 29.05400
C  14.12100 1.64800 26.53300
C  14.94800 1.34100 30.07200
O  14.29300 2.33300 30.29200
C  15.80100 0.56700 31.13300
C  16.72100 1.55400 31.81400
O  17.81900 1.89500 31.42700
O  16.11600 2.00800 33.04500
C  16.89000 2.91200 33.87500
H  20.22400 -4.86400 31.06600
H  19.51600 -4.88000 24.51800
H  15.31300 -0.23500 24.85900
H  18.25800 -0.70300 32.72100
H  18.45400 -3.69300 32.81300
H  20.14700 -1.58700 33.52700
H  20.82500 -2.34000 32.01600
H  20.52800 -3.26900 33.42600
H  15.94600 -2.63500 32.73500
H  15.97600 -1.00900 33.52900
H  16.65600 -3.51400 34.82800
H  15.85900 -2.05800 35.34400
H  21.71400 -6.26000 30.07100
H  22.20100 -7.07200 28.79900
H  20.72800 -7.62800 29.69900
H  22.55200 -7.97600 26.47100
H  21.42200 -9.08400 25.81900
H  21.26300 -8.66700 27.49400
H  17.71000 -4.03100 23.06700
H  17.33700 -1.00100 23.22400
H  19.42500 -3.31400 21.66700
H  20.04000 -2.34300 23.10900
H  18.76400 -1.85100 21.85600
H  15.71100 -3.32300 22.30100
H  15.13000 -1.63700 22.49500
H  14.51700 -3.25400 24.91400
H  13.93400 -3.71900 23.32300
H  13.76300 -2.09700 23.75700
H  13.19900 1.94900 27.02900
H  13.84400 1.06800 25.65200
H  14.57700 2.62700 26.38500
H  15.09400 0.20900 31.88100
H  16.34900 3.82500 34.12400
H  17.90400 3.07400 33.51000
H  17.04100 2.35400 34.79900

