158

Mg 45.70400 17.34100 29.17700
C  43.65800 16.90400 31.93300
C  47.61100 19.47400 31.23900
C  47.50900 18.45400 26.37800
C  43.39900 15.86600 27.06000
N  45.55700 18.18800 31.35200
C  44.78400 17.57000 32.31000
C  45.18600 17.97400 33.66300
C  46.27100 19.03900 33.34200
C  46.50600 18.87800 31.87200
C  46.05600 20.46500 33.80300
C  45.55100 16.85000 34.65200
C  46.30100 17.19300 35.84600
H  46.07000 18.57900 36.60200
N  47.30800 18.67300 28.91600
C  47.90100 19.47300 29.90200
C  48.95900 20.16900 29.30900
C  48.95000 20.01000 27.86300
C  47.91600 18.99600 27.65100
C  50.00200 21.01900 30.12400
C  49.77600 20.66200 26.82300
O  49.69300 20.44900 25.62800
C  50.78600 21.71900 27.25300
N  45.60200 17.08900 26.91700
C  46.43400 17.61000 26.07000
C  46.08500 17.19400 24.64500
C  44.87200 16.31900 24.87500
C  44.56800 16.41100 26.36600
C  45.89900 18.34000 23.54000
C  45.02000 14.90900 24.46900
C  45.68800 13.95700 25.49200
N  43.93700 16.54000 29.34600
C  43.13700 15.92000 28.43200
C  41.98300 15.50000 29.12800
C  42.17800 15.74300 30.45600
C  43.36300 16.43800 30.58900
C  40.77500 14.81400 28.61400
C  41.49200 15.66000 31.75100
O  40.39900 15.19500 32.05900
C  42.54000 16.33300 32.75600
C  41.88400 17.29900 33.67700
O  41.14600 18.26400 33.38900
O  42.18400 16.94500 34.93900
C  41.58800 17.76300 36.07000
H  48.12600 20.05600 32.00700
H  47.90200 18.83500 25.43300
H  42.57200 15.39300 26.52700
H  44.29200 18.42500 34.09200
H  47.24800 18.75900 33.73400
H  45.85900 21.07800 32.92400
H  46.94000 20.72900 34.38400
H  45.19700 20.46700 34.47300
H  46.02300 16.08600 34.03200
H  44.61000 16.44500 35.02400
H  47.36700 17.02100 35.70300
H  45.99700 16.42100 36.55300
H  49.84000 22.09500 30.05500
H  51.07900 20.97400 29.96500
H  49.82500 20.84100 31.18500
H  51.28000 22.11100 26.36400
H  51.65700 21.37400 27.81000
H  50.26800 22.59200 27.64800
H  46.84200 16.48800 24.30500
H  44.03400 16.71300 24.30000
H  46.00500 19.35500 23.92100
H  44.87800 18.24900 23.16800
H  46.60800 18.24400 22.71700
H  45.42100 14.83500 23.45800
H  44.05000 14.43200 24.33000
H  44.95800 13.28700 25.94400
H  46.28500 14.35400 26.31300
H  46.31700 13.17900 25.05800
H  40.79500 13.74300 28.81300
H  40.70200 15.08600 27.56100
H  39.90100 15.29500 29.05400
H  43.01200 15.52100 33.30900
H  40.86900 17.08900 36.53400
H  41.12200 18.67500 35.69700
H  42.38500 18.00800 36.77300
Mg -11.35500 37.40800 42.64900
C  -9.20900 34.76900 41.72600
C  -9.00300 39.66600 41.29600
C  -13.59500 39.79300 42.95500
C  -13.75500 34.99200 43.44900
N  -9.50800 37.26200 41.57000
C  -8.85300 36.05200 41.27000
C  -7.53600 36.27700 40.38100
C  -7.26800 37.83000 40.63000
C  -8.70700 38.33000 41.20400
C  -6.11300 38.14500 41.60500
C  -7.68200 35.83200 38.88100
C  -6.75200 34.68300 38.37800
H  -5.91100 35.01200 37.11900
N  -11.21600 39.48300 42.35800
C  -10.21600 40.17700 41.79200
C  -10.58900 41.60600 41.71700
C  -11.91600 41.70000 42.11400
C  -12.33100 40.29700 42.50300
C  -9.68000 42.65100 41.24700
C  -12.68100 43.02200 41.95500
O  -12.12800 44.07800 41.63100
C  -14.18300 42.99500 42.18100
N  -13.38600 37.39400 43.21300
C  -14.06000 38.54800 43.36400
C  -15.53200 38.33400 43.91200
C  -15.61700 36.78000 43.98900
C  -14.20300 36.33100 43.52700
C  -15.93600 39.06300 45.20100
C  -16.69500 36.05600 43.17500
C  -17.47900 34.90900 43.90300
N  -11.47100 35.30800 42.63800
C  -12.45800 34.49900 43.05500
C  -11.97600 33.14700 43.10400
C  -10.65000 33.24100 42.63400
C  -10.43200 34.57400 42.22800
C  -12.72300 31.86300 43.65000
C  -9.45400 32.45800 42.33100
O  -9.20700 31.25300 42.51100
C  -8.45900 33.37900 41.66100
C  -7.14300 33.28100 42.38000
O  -6.21900 32.69400 41.85000
O  -7.12500 33.92900 43.60000
C  -5.81800 34.13000 44.16000
H  -8.22600 40.42400 41.18200
H  -14.25900 40.63300 43.16900
H  -14.49900 34.28300 43.82000
H  -6.68900 35.67600 40.71100
H  -7.05000 38.28700 39.66500
H  -5.29100 38.46200 40.96400
H  -5.85900 37.25600 42.18200
H  -6.35200 38.98200 42.26100
H  -7.53500 36.63400 38.15800
H  -8.68900 35.46900 38.67600
H  -7.26900 33.72500 38.32300
H  -6.08100 34.46900 39.21000
H  -8.60700 42.54900 41.08600
H  -9.70700 43.54500 41.87100
H  -10.17100 42.83400 40.29100
H  -14.71200 43.80600 41.67900
H  -14.45600 42.92300 43.23300
H  -14.66400 42.10500 41.77600
H  -16.20400 38.79900 43.19000
H  -15.68300 36.55900 45.05400
H  -14.97900 39.33000 45.65000
H  -16.54200 38.40600 45.82500
H  -16.42800 40.02100 45.03200
H  -16.29000 35.78600 42.20000
H  -17.44300 36.80500 42.91400
H  -18.51700 35.23200 43.98500
H  -16.98700 34.68400 44.84900
H  -17.32600 33.99300 43.33200
H  -12.50200 31.54000 44.66700
H  -12.41100 31.10400 42.93200
H  -13.79600 32.04800 43.58600
H  -8.28400 33.01600 40.64800
H  -5.13500 33.36900 43.78300
H  -5.86600 34.09400 45.24800
H  -5.39100 35.12100 44.00000

