158

Mg 48.15100 16.03300 28.09100
C  46.50100 15.54800 31.11300
C  50.23200 18.27800 29.72400
C  49.86000 16.26400 25.27700
C  45.71200 14.02200 26.57000
N  48.29000 16.94800 30.20800
C  47.58900 16.46900 31.24100
C  48.22800 17.01400 32.55800
C  49.22700 18.11600 32.12500
C  49.21200 17.81900 30.58700
C  49.04600 19.62200 32.52900
C  48.84600 15.97500 33.56900
C  48.33400 16.08200 34.98800
H  47.91000 17.41400 35.62200
N  49.84200 17.01400 27.59000
C  50.51700 17.97800 28.35400
C  51.62600 18.52600 27.51000
C  51.62600 17.83500 26.30800
C  50.38900 16.99700 26.31100
C  52.53000 19.58800 27.97900
C  52.52100 17.85300 25.12300
O  52.38200 17.12600 24.17000
C  53.67200 18.81500 25.11300
N  47.85400 15.24400 26.18600
C  48.75300 15.45600 25.17700
C  48.29000 14.93300 23.81700
C  46.88800 14.29600 24.22100
C  46.82400 14.48800 25.74700
C  48.21700 15.96600 22.71100
C  46.77000 12.84000 23.85900
C  45.58900 12.46800 23.00600
N  46.34200 15.09100 28.64100
C  45.45200 14.30800 27.93400
C  44.47200 13.75200 28.83600
C  44.82400 14.17300 30.07800
C  45.95700 15.04000 29.87000
C  43.39900 12.73600 28.43600
C  44.53200 14.06500 31.49800
O  43.65600 13.42600 32.05400
C  45.54800 15.06200 32.19200
C  44.73300 16.19700 32.83100
O  44.07000 17.01700 32.23100
O  44.61100 15.95000 34.16400
C  43.46500 16.64100 34.78700
H  50.81500 19.03700 30.25100
H  50.24900 16.52800 24.29200
H  45.12500 13.26800 26.04100
H  47.37500 17.54300 32.98400
H  50.23600 17.91600 32.48700
H  49.10300 20.34600 31.71600
H  49.69600 19.81600 33.38200
H  48.09700 19.80900 33.03000
H  49.92800 16.06700 33.65700
H  48.64400 14.94800 33.26400
H  49.15200 15.64600 35.56300
H  47.54400 15.33300 35.05100
H  53.57600 19.32100 28.13100
H  52.24400 19.87400 28.99100
H  52.56000 20.51600 27.40900
H  53.85300 18.93300 24.04500
H  54.49600 18.49100 25.74900
H  53.44800 19.84100 25.40500
H  48.96500 14.18300 23.40300
H  46.03200 14.79400 23.76500
H  48.43500 16.99900 22.98100
H  47.26300 15.87300 22.19200
H  49.01300 15.62100 22.05100
H  46.73200 12.18200 24.72800
H  47.63200 12.47800 23.29800
H  44.65600 12.86000 23.41300
H  45.51700 11.38500 22.91400
H  45.61500 12.93200 22.02000
H  43.16400 11.93500 29.13700
H  43.76600 12.21000 27.55400
H  42.47400 13.29200 28.28900
H  46.04800 14.58000 33.03200
H  43.33100 17.68300 34.49700
H  43.47600 16.57300 35.87500
H  42.67000 15.99300 34.41600
Mg -11.60400 38.19300 43.45200
C  -9.03500 35.97900 42.46100
C  -10.41200 40.46800 41.31700
C  -14.50700 39.93600 43.78400
C  -13.17200 35.39200 44.90600
N  -9.83900 38.15500 42.05200
C  -8.92700 37.19500 41.77000
C  -7.89700 37.70400 40.85100
C  -8.25900 39.21500 40.58800
C  -9.59100 39.32700 41.41300
C  -7.20800 40.30400 40.77900
C  -7.85400 36.82700 39.51200
C  -6.68000 35.85000 39.39200
H  -5.49000 36.39000 38.58600
N  -12.25100 39.94800 42.74100
C  -11.61100 40.81300 41.91800
C  -12.29800 42.07000 41.81600
C  -13.48800 41.94500 42.56800
C  -13.42900 40.55800 43.12500
C  -11.76400 43.26300 40.99400
C  -14.59200 42.94900 42.64800
O  -14.40500 43.94000 41.94900
C  -15.80900 42.87100 43.51000
N  -13.58500 37.72300 44.15500
C  -14.58500 38.62900 44.17500
C  -15.85900 38.01600 44.74200
C  -15.39000 36.60600 45.12700
C  -13.97300 36.58000 44.69800
C  -16.44900 38.81500 45.90300
C  -16.12900 35.48600 44.45100
C  -16.36800 34.10300 45.25900
N  -11.17500 36.26400 43.78200
C  -11.77700 35.26200 44.56200
C  -11.01900 34.05700 44.63600
C  -9.84800 34.32800 43.95200
C  -10.05500 35.58400 43.33800
C  -11.24300 32.88600 45.46500
C  -8.57000 33.82000 43.56600
O  -7.94300 32.78800 43.85900
C  -7.97200 34.79500 42.52300
C  -6.62900 35.15300 42.97400
O  -5.71400 34.34400 42.99800
O  -6.44900 36.43500 43.44700
C  -5.07100 36.71300 43.97100
H  -10.01800 41.19000 40.59900
H  -15.48400 40.41300 43.67700
H  -13.59700 34.51500 45.40000
H  -6.92800 37.64200 41.34700
H  -8.72900 39.33500 39.61200
H  -7.16400 41.00400 39.94400
H  -6.25600 39.81600 40.98700
H  -7.42500 41.04200 41.55100
H  -7.78100 37.60500 38.75300
H  -8.78000 36.26400 39.39700
H  -7.06800 34.88700 39.06200
H  -6.24100 35.68700 40.37600
H  -12.27700 43.27000 40.03300
H  -10.69400 43.10000 40.86700
H  -11.91600 44.13300 41.63400
H  -16.54500 42.20600 43.05700
H  -16.27400 43.85600 43.55500
H  -15.51800 42.60700 44.52600
H  -16.60600 37.98700 43.94900
H  -15.43400 36.31000 46.17500
H  -16.64100 38.29600 46.84300
H  -17.40000 39.26400 45.61600
H  -15.79200 39.62200 46.22800
H  -15.63300 35.19500 43.52500
H  -17.14800 35.73800 44.15800
H  -15.99400 33.28500 44.64400
H  -17.42700 33.89200 45.40900
H  -15.89100 34.28400 46.22200
H  -12.02200 33.08700 46.20100
H  -10.37500 32.66800 46.08700
H  -11.38400 32.03800 44.79500
H  -7.92600 34.28800 41.56000
H  -4.43800 36.80100 43.08700
H  -4.57100 35.92400 44.53300
H  -5.09800 37.65800 44.51300

