158

Mg -2.10800 17.58600 26.94000
C  -2.48300 15.29900 29.55600
C  -2.89100 20.19200 28.94000
C  -2.22000 19.50400 24.19200
C  -2.11200 14.65300 24.74800
N  -2.60100 17.72000 28.95300
C  -2.51600 16.65500 29.89200
C  -2.79100 17.04600 31.30300
C  -3.24200 18.49400 31.04700
C  -2.97600 18.89600 29.50700
C  -4.62000 19.01100 31.58300
C  -1.71900 16.66400 32.37300
C  -1.46300 17.56000 33.61900
H  -1.35500 16.86600 35.01400
N  -2.35300 19.67500 26.60600
C  -2.56500 20.55000 27.60900
C  -2.38000 21.87900 27.02700
C  -2.25300 21.74100 25.59800
C  -2.31200 20.29100 25.39400
C  -2.57400 23.12500 27.91500
C  -2.12700 22.78600 24.44400
O  -2.14200 22.47300 23.25800
C  -1.97200 24.21000 24.76900
N  -2.44200 17.15600 24.78500
C  -2.28900 18.16500 23.92900
C  -2.21300 17.69000 22.50800
C  -2.32100 16.16300 22.65100
C  -2.20200 15.98200 24.16800
C  -3.24700 18.31800 21.46900
C  -1.24600 15.30100 21.84400
C  0.22800 15.46900 22.17900
N  -2.18200 15.40000 27.03700
C  -2.15700 14.35800 26.07100
C  -2.36500 13.07400 26.72400
C  -2.40000 13.36600 28.13400
C  -2.30400 14.76300 28.24700
C  -2.43500 11.77600 26.09300
C  -2.52600 12.83800 29.47100
O  -2.55000 11.66400 29.81400
C  -2.63700 14.02500 30.46600
C  -1.47700 13.77800 31.29500
O  -0.30600 14.16900 31.15700
O  -1.94200 12.99900 32.28800
C  -0.91800 12.73900 33.32700
H  -3.01100 20.94100 29.72600
H  -2.02000 20.13000 23.31900
H  -2.05500 13.76600 24.11400
H  -3.71800 16.58300 31.64200
H  -2.47400 19.12100 31.50000
H  -5.26500 19.26800 30.74200
H  -4.54100 19.95400 32.12400
H  -5.03300 18.34200 32.33800
H  -0.77800 16.56800 31.83100
H  -1.89900 15.69600 32.84100
H  -2.31300 18.24200 33.61600
H  -0.51600 18.07600 33.46700
H  -3.18100 22.82100 28.76800
H  -3.16300 23.81000 27.30500
H  -1.74000 23.74500 28.24500
H  -1.13500 24.46600 25.41900
H  -2.82600 24.47700 25.39200
H  -1.81400 24.83100 23.88800
H  -1.20700 17.80900 22.10500
H  -3.29600 15.75800 22.38100
H  -3.90000 17.51500 21.12900
H  -2.66300 18.53200 20.57400
H  -3.79800 19.21400 21.75500
H  -1.46900 15.52700 20.80100
H  -1.50900 14.26400 22.05100
H  0.51800 16.09100 21.33200
H  0.83600 14.57900 22.01700
H  0.45000 15.95200 23.13000
H  -3.50900 11.65600 25.95500
H  -2.07900 11.09100 26.86200
H  -1.78900 11.85900 25.21900
H  -3.58800 14.00800 30.99800
H  0.03900 13.19700 33.08000
H  -0.78800 11.66200 33.43500
H  -1.32000 13.23900 34.20800
Mg 16.54400 51.34800 26.23800
C  18.51200 49.74900 28.79400
C  14.30000 52.01700 28.74000
C  14.74300 52.61600 23.91600
C  18.82500 49.91000 23.95100
N  16.45400 50.90400 28.47700
C  17.41400 50.33300 29.30100
C  17.10400 50.66800 30.79400
C  15.61000 51.19400 30.73200
C  15.37800 51.33400 29.18100
C  14.48300 50.35400 31.40300
C  18.04700 51.72900 31.42800
C  18.74400 51.37800 32.73600
H  18.12100 52.01200 33.92000
N  14.68600 52.21500 26.29000
C  13.98100 52.51600 27.43900
C  12.91500 53.43600 26.95200
C  12.96900 53.55000 25.52100
C  14.11700 52.70800 25.18000
C  11.94700 54.07600 27.83100
C  12.16100 54.34000 24.51100
O  12.41700 54.46600 23.32900
C  10.91700 55.05500 25.07000
N  16.76900 51.26500 24.27000
C  15.88800 51.92900 23.51800
C  16.25100 51.81700 22.02900
C  17.54900 50.96900 22.01700
C  17.78800 50.70400 23.46600
C  15.15400 51.19400 21.19400
C  18.71500 51.65600 21.19200
C  19.61500 52.70200 21.95200
N  18.22200 49.99800 26.26500
C  19.06600 49.54800 25.28400
C  20.16900 48.74700 25.86800
C  19.96400 48.84100 27.22400
C  18.81800 49.60800 27.46700
C  21.27800 48.00500 25.09900
C  20.44900 48.42600 28.49600
O  21.45000 47.77700 28.81500
C  19.57200 49.05700 29.56800
C  19.23300 48.05900 30.63100
O  18.45800 47.08500 30.49300
O  19.92000 48.42600 31.73800
C  19.54200 47.70100 32.97200
H  13.50900 52.20500 29.46900
H  14.26900 53.09400 23.05600
H  19.51200 49.51800 23.19700
H  17.21000 49.73200 31.34400
H  15.49300 52.20200 31.13000
H  13.86900 50.86500 32.14500
H  14.98000 49.62500 32.04300
H  13.84000 49.92800 30.63200
H  17.58700 52.71400 31.50200
H  18.85500 51.85300 30.70700
H  19.76200 51.71300 32.53800
H  18.73700 50.33000 33.03500
H  12.05300 55.16100 27.82500
H  12.04900 53.76300 28.87000
H  11.01500 53.65400 27.45500
H  10.32300 55.57300 24.31600
H  11.47600 55.77000 25.67400
H  10.33400 54.37800 25.69400
H  16.59900 52.78400 21.66600
H  17.45600 49.96500 21.60300
H  14.47200 50.84100 21.96800
H  15.37100 50.27800 20.64500
H  14.72200 51.90300 20.48700
H  18.36300 52.15500 20.29000
H  19.32800 50.78300 20.96600
H  20.61600 52.36100 22.21800
H  19.16900 53.14100 22.84400
H  19.74000 53.59700 21.34300
H  20.69000 47.19900 24.66000
H  21.99600 47.64100 25.83500
H  21.67100 48.67100 24.33100
H  20.18800 49.79500 30.08200
H  19.33200 46.66700 32.69800
H  18.72900 48.24800 33.44800
H  20.45100 47.52200 33.54700

