158

Mg -12.82200 39.36800 42.78100
C  -11.11100 36.36600 41.76100
C  -10.42500 41.10900 41.04000
C  -14.61900 41.99500 43.26100
C  -15.46200 37.22200 43.82600
N  -10.92300 38.71300 41.54700
C  -10.45600 37.43700 41.31700
C  -9.19500 37.52200 40.34000
C  -8.87300 39.06500 40.30600
C  -10.09300 39.70700 40.97900
C  -7.55800 39.51800 40.95400
C  -9.34200 36.87400 38.97700
C  -8.14700 36.02700 38.43600
H  -7.23200 36.75300 37.56900
N  -12.51100 41.31300 42.33000
C  -11.50600 41.85300 41.55100
C  -11.75800 43.26300 41.39000
C  -12.88600 43.60100 42.23200
C  -13.41400 42.29500 42.65700
C  -10.75700 44.25400 40.66700
C  -13.40600 45.04000 42.59200
O  -12.90200 45.97700 41.94300
C  -14.29100 45.25900 43.69600
N  -14.80300 39.52900 43.34300
C  -15.27200 40.80600 43.58100
C  -16.58000 40.75700 44.35300
C  -16.82300 39.19300 44.63900
C  -15.63500 38.63000 43.87500
C  -16.73100 41.71900 45.56700
C  -18.17800 38.69200 44.14400
C  -19.12100 38.41200 45.43300
N  -13.23200 37.20400 42.77600
C  -14.34800 36.53700 43.22200
C  -14.07700 35.12700 43.29800
C  -12.79800 34.99700 42.67500
C  -12.37200 36.29200 42.42800
C  -14.94700 34.07200 43.90900
C  -11.74600 34.05000 42.38600
O  -11.72600 32.79600 42.49000
C  -10.67700 34.90800 41.66000
C  -9.33100 34.62800 42.20800
O  -8.90000 35.00300 43.25000
O  -8.78200 33.48900 41.60600
C  -7.53900 32.88200 42.13000
H  -9.65000 41.65600 40.49900
H  -15.17900 42.91100 43.46300
H  -16.29200 36.57400 44.11500
H  -8.42100 36.88700 40.77100
H  -8.74600 39.39100 39.27400
H  -7.13600 38.78000 41.63700
H  -7.63600 40.35100 41.65200
H  -6.88900 39.83400 40.15300
H  -9.36800 37.62100 38.18400
H  -10.28600 36.33600 38.88300
H  -8.64100 35.22400 37.88900
H  -7.74300 35.38000 39.21500
H  -10.29100 45.05400 41.24200
H  -11.25300 44.73200 39.82200
H  -9.83100 43.85200 40.25600
H  -15.32500 45.34200 43.36000
H  -14.14100 46.23100 44.16600
H  -14.12000 44.54600 44.50200
H  -17.37100 41.09700 43.68500
H  -16.69300 38.99700 45.70400
H  -16.82700 41.26000 46.55100
H  -17.65700 42.27000 45.40900
H  -15.91600 42.44100 45.62300
H  -18.03800 37.77900 43.56600
H  -18.64700 39.44600 43.51300
H  -20.05900 38.92700 45.22700
H  -18.72100 39.01300 46.25000
H  -19.23500 37.38700 45.78700
H  -15.21000 34.47100 44.88900
H  -14.69200 33.01500 43.97700
H  -15.90600 34.23500 43.41700
H  -10.65900 34.56900 40.62400
H  -6.68800 33.54200 42.29600
H  -7.17800 32.21900 41.34500
H  -7.72400 32.31300 43.04200
Mg -3.35400 34.74800 26.88600
C  -4.88400 33.02500 29.49800
C  -1.86500 36.78400 29.28300
C  -2.45200 36.97800 24.45400
C  -5.61500 33.20600 24.61000
N  -3.50000 34.98700 29.18000
C  -3.97600 33.96900 29.97300
C  -3.63400 34.26200 31.43500
C  -2.77600 35.54800 31.42000
C  -2.69200 35.87600 29.87900
C  -3.22400 36.68300 32.32000
C  -2.96500 33.00900 32.13400
C  -3.53900 32.68800 33.49000
H  -2.58500 33.12000 34.59700
N  -2.25800 36.47000 26.83800
C  -1.67400 37.11900 27.95500
C  -0.80900 38.21500 27.46600
C  -0.92800 38.20900 26.05100
C  -1.95300 37.22100 25.70300
C  0.00200 39.05700 28.41700
C  -0.15100 39.14800 25.03600
O  -0.21200 39.04200 23.81900
C  0.86100 40.03400 25.49400
N  -3.90200 35.01200 24.85200
C  -3.39500 35.99700 24.01700
C  -4.12900 36.02400 22.62500
C  -5.00300 34.69900 22.67100
C  -4.84100 34.25600 24.12100
C  -4.91700 37.39200 22.60300
C  -4.47000 33.63000 21.66300
C  -3.20700 32.69100 22.03500
N  -4.79100 33.19500 26.91300
C  -5.68800 32.70200 25.95000
C  -6.40700 31.63900 26.56100
C  -6.08900 31.72400 27.89300
C  -5.18700 32.74300 28.11700
C  -7.38300 30.73600 25.83500
C  -6.36600 31.09400 29.16800
O  -7.00600 30.13700 29.34700
C  -5.63700 31.91000 30.30100
C  -6.71900 32.51600 31.11300
O  -7.72800 33.09000 30.75700
O  -6.46200 32.24400 32.37300
C  -7.50200 32.48600 33.43700
H  -1.19200 37.30500 29.96700
H  -2.18600 37.73500 23.71300
H  -6.39300 32.82100 23.94800
H  -4.55700 34.45700 31.98100
H  -1.74100 35.30200 31.66000
H  -4.10100 36.33300 32.86400
H  -3.41700 37.63600 31.82900
H  -2.35900 36.80900 32.97200
H  -1.95000 33.35900 32.32300
H  -2.81900 32.08900 31.56700
H  -3.64200 31.60400 33.53900
H  -4.49100 33.21000 33.59000
H  1.06300 39.08500 28.17100
H  -0.00200 38.86200 29.49000
H  -0.28900 40.08500 28.20100
H  1.42200 40.39500 24.63100
H  1.63200 39.47800 26.02700
H  0.33700 40.73600 26.14300
H  -3.32600 36.05700 21.88900
H  -6.04700 34.98400 22.53800
H  -5.95000 37.19700 22.31700
H  -4.45800 38.07000 21.88300
H  -5.08800 37.88400 23.56100
H  -4.25800 34.21600 20.76900
H  -5.41100 33.11400 21.47500
H  -2.71600 33.07000 22.93200
H  -2.45700 32.67000 21.24500
H  -3.61500 31.71900 22.31300
H  -8.16300 30.41900 26.52700
H  -6.91900 29.82100 25.46700
H  -7.80400 31.27100 24.98400
H  -4.97400 31.35400 30.96300
H  -6.89200 32.57300 34.33600
H  -8.18000 31.64900 33.59900
H  -8.12900 33.35800 33.25000

