158

Mg -0.13400 7.04900 25.68200
C  0.79300 9.06000 28.55000
C  -0.15400 4.42000 27.78700
C  -0.57100 5.07200 23.08200
C  0.54000 9.75200 23.73000
N  0.58600 6.75600 27.88500
C  0.61100 7.70800 28.88300
C  0.63700 7.09800 30.31300
C  0.57500 5.63800 29.96300
C  0.36400 5.53700 28.47600
C  1.79600 4.76600 30.36100
C  -0.43300 7.59300 31.30200
C  0.10300 7.97700 32.73300
H  1.30500 7.23400 33.31300
N  -0.43700 5.01000 25.46600
C  -0.43900 4.07800 26.46900
C  -0.81100 2.79700 25.92500
C  -0.91300 2.92700 24.55300
C  -0.65100 4.34200 24.31200
C  -1.12000 1.64500 26.70700
C  -1.21800 1.87100 23.50700
O  -1.20100 2.21700 22.31500
C  -1.65200 0.38100 23.70500
N  0.15200 7.28000 23.74800
C  -0.32900 6.38300 22.87300
C  -0.38300 7.04400 21.45300
C  0.07700 8.49700 21.66900
C  0.19600 8.51800 23.18700
C  0.45800 6.36500 20.36400
C  -0.85400 9.54600 21.12300
C  -2.03000 9.96000 21.87600
N  0.51800 9.04600 26.03100
C  0.74800 10.03600 25.09100
C  1.04800 11.27200 25.74600
C  1.07300 10.97100 27.13500
C  0.82300 9.57700 27.25100
C  1.31000 12.67500 25.03800
C  1.30500 11.44100 28.47500
O  1.74100 12.51600 28.77800
C  0.98600 10.24600 29.47200
C  2.15900 10.12900 30.36000
O  3.09800 9.33800 30.23500
O  2.09100 11.05600 31.41900
C  3.33000 10.95400 32.25600
H  -0.21300 3.56000 28.45800
H  -0.58400 4.47400 22.16900
H  0.63500 10.59500 23.04100
H  1.62900 7.33600 30.69800
H  -0.28800 5.08900 30.34000
H  2.44200 4.69900 29.48500
H  1.57000 3.72600 30.59400
H  2.38400 5.23200 31.15200
H  -1.22900 6.85600 31.40900
H  -0.92800 8.43800 30.82300
H  -0.75400 7.94700 33.40600
H  0.49400 8.99400 32.71500
H  -2.13700 1.69000 27.09800
H  -0.33400 1.64400 27.46300
H  -0.98300 0.67100 26.23600
H  -1.05000 -0.14100 24.44900
H  -1.51500 -0.10600 22.74000
H  -2.67100 0.43400 24.08900
H  -1.40500 7.14500 21.08600
H  1.09100 8.67900 21.31100
H  0.67100 5.30800 20.52300
H  1.39000 6.93100 20.34900
H  0.00500 6.45900 19.37700
H  -1.20800 9.22100 20.14500
H  -0.29100 10.46200 20.94700
H  -1.96800 10.98100 22.25300
H  -2.22300 9.28500 22.71000
H  -2.91700 9.91600 21.24400
H  0.30300 13.06800 24.90200
H  1.89400 12.57000 24.12400
H  1.84300 13.37400 25.68200
H  0.05600 10.38000 30.02600
H  4.27000 11.23400 31.78100
H  3.35200 9.94500 32.66800
H  3.16500 11.71700 33.01700
Mg 8.61300 3.17300 27.39600
C  9.65600 1.78000 30.44500
C  6.24300 5.02900 29.12400
C  7.59300 4.46700 24.55000
C  10.32700 0.71700 25.81200
N  8.03500 3.29200 29.48400
C  8.64400 2.74100 30.55700
C  8.06400 3.16000 31.91800
C  6.90800 4.06200 31.42000
C  7.05200 4.16400 29.86000
C  5.44000 3.84200 31.91000
C  8.99600 3.91800 32.81600
C  8.51900 4.73000 34.02100
H  9.11800 4.55700 35.35700
N  7.06600 4.56200 26.85200
C  6.31600 5.32500 27.76000
C  5.52500 6.23700 26.98600
C  5.93900 6.19900 25.65000
C  6.91800 5.03000 25.56500
C  4.48700 7.16900 27.66900
C  5.61400 7.05700 24.43200
O  6.07900 6.86300 23.28500
C  4.59900 8.15900 24.64900
N  8.86100 2.65500 25.43400
C  8.58900 3.49600 24.44800
C  9.17400 2.97600 23.15000
C  9.87300 1.72200 23.49300
C  9.67200 1.71300 25.01400
C  8.13000 2.74400 22.03400
C  11.34700 1.54300 23.01400
C  11.48500 0.77200 21.66200
N  9.79100 1.58200 27.97100
C  10.43600 0.66800 27.21500
C  11.26200 -0.19900 28.02400
C  10.97700 0.19900 29.31500
C  10.02500 1.26200 29.22000
C  12.18200 -1.26600 27.45700
C  11.21100 0.00600 30.73800
O  11.85200 -0.89100 31.23400
C  10.34300 0.96400 31.53800
C  9.55100 0.05200 32.53800
O  8.73700 -0.80700 32.32300
O  10.10600 0.29900 33.75800
C  9.64800 -0.33400 34.97700
H  5.57300 5.62000 29.75300
H  7.35200 4.90300 23.57800
H  10.91800 -0.04600 25.30200
H  7.66700 2.28300 32.42800
H  7.13400 5.09300 31.69500
H  4.91400 3.33000 31.10500
H  5.02500 4.78000 32.28100
H  5.52900 3.30200 32.85300
H  9.57300 4.62000 32.21300
H  9.76400 3.20100 33.10700
H  7.46400 4.46800 34.09600
H  8.65700 5.76500 33.70800
H  3.55500 7.19200 27.10300
H  4.72500 8.23300 27.66600
H  4.22100 6.89100 28.68900
H  4.35700 8.71200 23.74200
H  5.03300 8.91900 25.29900
H  3.68600 7.68600 25.01100
H  9.85900 3.73100 22.76500
H  9.17600 0.92500 23.23200
H  7.85500 1.71300 21.81000
H  8.63600 3.01300 21.10600
H  7.34500 3.49000 22.15100
H  11.94300 1.20500 23.86100
H  11.66100 2.52800 22.66800
H  10.52200 0.50100 21.22900
H  12.09800 -0.11300 21.83400
H  11.84200 1.48700 20.92100
H  12.29900 -1.14300 26.38000
H  11.94700 -2.30400 27.69400
H  13.14200 -1.07700 27.93700
H  11.13600 1.52800 32.02900
H  9.42700 0.55000 35.57600
H  10.50900 -0.89700 35.33500
H  8.75500 -0.93900 34.82100

