158

Mg 1.87300 -1.96500 44.66900
C  5.33500 -1.23400 44.22300
C  1.31100 0.97300 42.87500
C  -1.26800 -2.81300 44.53400
C  2.83900 -5.22700 45.52200
N  3.17800 -0.35100 43.75600
C  4.50800 -0.29800 43.62100
C  4.97900 0.89600 42.76000
C  3.73100 1.79700 42.80600
C  2.64300 0.78600 43.20700
C  3.83800 3.05100 43.70500
C  5.51500 0.49200 41.35700
C  6.59600 1.26600 40.72800
H  6.36900 1.89200 39.33700
N  0.23400 -0.94100 43.92100
C  0.20000 0.20400 43.13100
C  -1.13900 0.45500 42.69500
C  -1.90000 -0.62400 43.17900
C  -0.99200 -1.54400 43.95800
C  -1.51900 1.64900 41.89800
C  -3.40400 -0.60100 43.23800
O  -3.97300 0.19000 42.54700
C  -4.25500 -1.47900 44.05900
N  0.96700 -3.84300 44.80500
C  -0.39800 -3.84400 44.88200
C  -0.85900 -5.21500 45.52500
C  0.46500 -6.01700 45.81500
C  1.50300 -5.02100 45.35200
C  -1.78400 -5.10000 46.76200
C  0.55900 -7.43100 45.02100
C  0.37000 -8.65900 45.90000
N  3.63100 -3.05400 44.93500
C  3.90000 -4.31300 45.31700
C  5.28500 -4.47500 45.61200
C  5.88400 -3.23800 45.24400
C  4.83700 -2.42700 44.81100
C  5.96400 -5.76100 46.12400
C  7.15100 -2.48900 45.22300
O  8.27000 -2.80600 45.65300
C  6.78900 -1.18000 44.47100
C  7.33800 0.07300 45.17000
O  7.19900 0.41000 46.35000
O  7.91400 0.76100 44.18500
C  8.47200 2.07700 44.43300
H  1.27500 1.85500 42.23300
H  -2.31700 -3.08400 44.67100
H  3.16500 -6.13100 46.04000
H  5.80500 1.44400 43.21200
H  3.64900 2.26000 41.82300
H  2.82100 3.24100 44.04900
H  4.11500 3.96700 43.18300
H  4.59200 2.95600 44.48700
H  4.68300 0.60200 40.66200
H  5.93900 -0.51000 41.43100
H  7.35200 0.50500 40.53500
H  6.90700 2.04400 41.42600
H  -0.71900 2.37300 41.74000
H  -2.28200 2.09300 42.53900
H  -1.76400 1.36300 40.87600
H  -4.27900 -2.50400 43.69000
H  -5.26300 -1.10000 44.22500
H  -3.95600 -1.50700 45.10600
H  -1.37500 -5.68800 44.69000
H  0.53700 -6.11400 46.89900
H  -2.76300 -5.39500 46.38500
H  -1.83400 -4.07900 47.14200
H  -1.46700 -5.75500 47.57400
H  1.54300 -7.58500 44.57800
H  -0.14600 -7.45600 44.19000
H  1.26700 -9.27300 45.98300
H  -0.59600 -9.13200 45.72600
H  0.16800 -8.31000 46.91200
H  6.49200 -5.48800 47.03800
H  6.54800 -6.19900 45.31500
H  5.15500 -6.44600 46.37800
H  7.32100 -1.29800 43.52700
H  7.59300 2.70700 44.56600
H  8.98600 2.39800 43.52700
H  9.19200 2.16100 45.24700
Mg 49.87700 35.33900 27.32800
C  47.75800 34.11300 29.70000
C  49.98400 38.47000 29.10200
C  51.62200 36.69900 24.79700
C  48.88100 32.77500 25.17100
N  49.10400 36.10500 29.23200
C  48.33300 35.35600 30.07300
C  48.25700 36.10800 31.46500
C  48.55800 37.58200 31.11500
C  49.30900 37.39900 29.77200
C  47.34800 38.55900 31.13400
C  49.27700 35.44500 32.49600
C  48.65600 34.92300 33.76800
H  49.10000 35.74400 35.04400
N  50.87400 37.26500 27.08700
C  50.79300 38.32000 27.89500
C  51.52700 39.45700 27.23500
C  52.14800 38.91900 26.05500
C  51.56800 37.56700 25.91800
C  51.64600 40.85100 27.88900
C  53.13400 39.57600 25.13400
O  53.65800 38.90200 24.24000
C  53.50300 40.94500 25.43400
N  49.97900 34.96000 25.13700
C  50.94200 35.59600 24.42400
C  51.26300 34.85100 23.10400
C  50.47900 33.49400 23.29000
C  49.73100 33.75800 24.64700
C  50.95700 35.68700 21.88100
C  51.27000 32.19200 23.45300
C  51.76900 31.65000 22.01800
N  48.69900 33.62100 27.40500
C  48.32000 32.75200 26.44800
C  47.28700 31.82400 26.99300
C  47.04200 32.31000 28.27300
C  47.94900 33.43900 28.49600
C  46.72700 30.67200 26.17600
C  46.25700 32.15000 29.50500
O  45.47400 31.29400 29.90800
C  46.66200 33.41200 30.42100
C  46.99700 32.79400 31.72200
O  48.07400 32.21700 31.97200
O  45.88500 32.93300 32.51400
C  45.93000 32.28200 33.84100
H  50.05000 39.46900 29.53800
H  52.26000 37.01500 23.96900
H  48.69200 31.81300 24.69000
H  47.26400 35.91500 31.87200
H  49.27100 38.07100 31.78000
H  46.39400 38.09300 31.38200
H  47.13400 38.96200 30.14400
H  47.61300 39.34500 31.84000
H  50.01500 36.20400 32.75600
H  49.74300 34.61300 31.96800
H  49.10000 33.93400 33.88200
H  47.57400 34.79100 33.77600
H  52.49800 40.93900 28.56400
H  50.72700 40.99600 28.45700
H  51.58700 41.58300 27.08300
H  54.43700 40.94900 24.87300
H  53.79300 40.92400 26.48400
H  52.65500 41.53000 25.07500
H  52.32500 34.71900 23.31400
H  49.79000 33.22500 22.48900
H  51.79200 35.99300 21.25000
H  50.32000 36.55100 22.07500
H  50.41100 34.99500 21.24000
H  50.71100 31.42300 23.98500
H  52.06000 32.29700 24.19700
H  51.34600 30.66200 21.83700
H  52.85700 31.58500 21.98900
H  51.38600 32.30300 21.23400
H  46.08500 31.08600 25.39900
H  46.08200 30.00100 26.74500
H  47.54000 30.01900 25.85900
H  45.79300 34.06100 30.52500
H  45.65500 33.07400 34.53800
H  46.92100 31.93700 34.13600
H  45.20400 31.49100 33.65000

