158

Mg 47.27700 16.60900 28.14500
C  45.48700 16.25100 31.15400
C  49.83700 18.02300 29.81100
C  48.75800 17.03600 25.21300
C  44.56100 15.11700 26.48900
N  47.60100 17.11300 30.23500
C  46.71400 16.98600 31.29900
C  47.26700 17.74700 32.55800
C  48.66400 18.13100 32.08400
C  48.78300 17.65700 30.60000
C  48.99000 19.62400 32.21200
C  47.15700 16.93400 33.85300
C  46.78900 17.72000 35.17400
H  46.98100 19.26100 35.21300
N  48.98400 17.61100 27.55500
C  49.92600 18.05700 28.39800
C  51.12700 18.51900 27.67400
C  50.86400 18.22200 26.24400
C  49.51800 17.60300 26.28800
C  52.39300 19.02600 28.27500
C  51.70400 18.48000 25.03800
O  51.33500 18.37600 23.88000
C  53.11900 18.95000 25.28400
N  46.62300 16.38300 26.17400
C  47.50600 16.54500 25.18100
C  46.99200 16.03400 23.76500
C  45.71000 15.32500 24.22900
C  45.63000 15.57900 25.70700
C  46.85600 17.24700 22.83600
C  45.75200 13.74300 24.00400
C  44.89700 13.16600 22.82300
N  45.43100 15.90400 28.65800
C  44.40600 15.32900 27.86100
C  43.27600 14.84500 28.67500
C  43.64600 15.23600 29.97800
C  44.95800 15.80000 29.93100
C  42.07000 14.15000 28.28500
C  43.16300 15.36600 31.36400
O  42.07800 15.09400 31.86600
C  44.39100 16.01800 32.15800
C  43.83300 17.22100 32.79000
O  43.88600 18.33700 32.36000
O  43.40000 16.85100 34.02300
C  42.91800 17.88100 34.98900
H  50.64400 18.51700 30.35600
H  49.26400 17.13000 24.25000
H  43.72900 14.64400 25.96200
H  46.63400 18.61500 32.74000
H  49.38600 17.55300 32.66100
H  48.89900 20.16700 31.27200
H  50.04500 19.61100 32.48500
H  48.51900 20.09100 33.07800
H  48.14700 16.55600 34.10800
H  46.46100 16.09600 33.80500
H  47.32400 17.26000 36.00500
H  45.74900 17.62600 35.48700
H  52.64000 19.97800 27.80500
H  53.17900 18.27000 28.29400
H  52.15800 19.27200 29.31100
H  53.72400 18.35000 25.96300
H  52.97700 19.98900 25.58200
H  53.56300 18.94300 24.28900
H  47.81000 15.43100 23.37300
H  44.82600 15.65700 23.68400
H  45.78800 17.39000 22.67100
H  47.46000 17.18700 21.93000
H  47.04400 18.14600 23.42400
H  45.63700 13.30300 24.99500
H  46.74500 13.54500 23.60200
H  45.44900 13.28400 21.89100
H  44.07400 13.87100 22.70300
H  44.49900 12.15600 22.92400
H  42.36000 13.44700 27.50500
H  41.17700 14.75400 28.12500
H  41.71800 13.58800 29.15000
H  44.66400 15.26200 32.89500
H  41.83600 17.98800 34.92500
H  43.20100 18.86900 34.62700
H  43.21800 17.85600 36.03600
Mg -11.60200 15.33200 41.32800
C  -8.34300 14.02600 41.23500
C  -10.42600 18.21800 39.84200
C  -14.80900 16.41900 40.87800
C  -12.78200 12.13700 42.32900
N  -9.53100 16.02300 40.65500
C  -8.38600 15.32200 40.74500
C  -7.24400 16.13200 40.07400
C  -7.83100 17.53000 39.92300
C  -9.34500 17.25800 40.10800
C  -7.26300 18.59900 40.97500
C  -6.65400 15.61600 38.72200
C  -5.14600 15.76500 38.56100
H  -4.78800 16.06000 37.12500
N  -12.43800 17.17100 40.65600
C  -11.79300 18.20300 40.13200
C  -12.75100 19.28500 39.89000
C  -13.99800 18.88600 40.33200
C  -13.81700 17.38700 40.59200
C  -12.46500 20.63400 39.39600
C  -15.31000 19.70100 40.39800
O  -15.30300 20.88300 40.04800
C  -16.59100 19.20800 40.92300
N  -13.51300 14.43600 41.67500
C  -14.71200 15.08100 41.44200
C  -15.92700 14.18000 41.69100
C  -15.26200 12.84800 42.12000
C  -13.78500 13.10300 42.02400
C  -16.92800 14.88300 42.65100
C  -15.66200 11.72300 41.10500
C  -16.16200 10.35800 41.71400
N  -10.82800 13.38500 41.69800
C  -11.38500 12.21500 42.10800
C  -10.24700 11.30700 42.43100
C  -9.06300 11.98300 42.02800
C  -9.42400 13.23600 41.59700
C  -10.42000 9.92400 42.99800
C  -7.60300 11.81700 41.98500
O  -6.85400 10.85200 42.23300
C  -7.12500 13.08300 41.31100
C  -6.08800 13.73200 42.19000
O  -6.27300 14.42400 43.21500
O  -4.82100 13.42600 41.70900
C  -3.70700 13.98000 42.39600
H  -10.02000 19.10700 39.35500
H  -15.81800 16.76200 40.63900
H  -13.13400 11.19600 42.75800
H  -6.36000 16.22500 40.70500
H  -7.61900 17.86700 38.90800
H  -8.05500 19.19400 41.42800
H  -6.63500 19.30400 40.43100
H  -6.72300 18.05000 41.74600
H  -7.08700 16.09800 37.84500
H  -6.89200 14.55400 38.67700
H  -4.66800 14.83700 38.87500
H  -4.76200 16.58900 39.16200
H  -11.52700 20.72400 38.84800
H  -12.36300 21.36300 40.20000
H  -13.33100 20.99800 38.84400
H  -16.97000 18.57400 40.12100
H  -17.14900 20.07700 41.27100
H  -16.34500 18.52600 41.73700
H  -16.38800 14.01900 40.71600
H  -15.49900 12.69300 43.17200
H  -16.93700 14.43300 43.64300
H  -17.88700 15.01100 42.14900
H  -16.53100 15.88700 42.79700
H  -14.80300 11.38500 40.52400
H  -16.47100 12.04400 40.44900
H  -17.14100 10.16500 41.27500
H  -16.08000 10.35100 42.80100
H  -15.38800 9.65500 41.40300
H  -10.72100 9.82200 44.04100
H  -9.47100 9.43600 42.77700
H  -11.05100 9.31900 42.34600
H  -6.63700 12.83800 40.36700
H  -3.54300 15.01700 42.10000
H  -2.88700 13.33800 42.07200
H  -3.87200 13.96200 43.47300

