158

Mg 35.85500 1.38700 29.55400
C  33.78500 2.22100 32.17100
C  38.54800 1.54700 31.63700
C  37.70200 0.93300 26.87700
C  33.01400 2.11300 27.32500
N  36.04100 1.69700 31.64100
C  35.09600 1.90800 32.59900
C  35.68600 2.14100 33.98600
C  37.21300 2.09000 33.73100
C  37.28800 1.82100 32.24900
C  37.99700 3.33900 34.27600
C  35.19100 1.01900 34.97200
C  34.83100 1.49100 36.43800
H  35.60800 2.66000 36.94700
N  37.84900 1.11900 29.25300
C  38.80900 1.25800 30.26400
C  40.09300 0.96900 29.71000
C  39.84800 0.67700 28.33200
C  38.38800 0.85200 28.12100
C  41.44800 1.09500 30.47300
C  40.86800 0.45900 27.20400
O  40.55500 0.29700 26.03100
C  42.31400 0.43500 27.54700
N  35.47100 1.58000 27.43500
C  36.43000 1.26700 26.55100
C  35.92500 1.24300 25.09900
C  34.43500 1.54100 25.29400
C  34.24700 1.77400 26.73100
C  36.54200 2.18600 24.05100
C  33.48500 0.35800 24.82500
C  33.23500 -0.79100 25.87100
N  33.86300 2.11800 29.61200
C  32.82400 2.30900 28.70400
C  31.62800 2.66800 29.43600
C  31.98500 2.61500 30.77300
C  33.35100 2.29800 30.80600
C  30.45700 3.01400 28.81500
C  31.54500 2.94100 32.10400
O  30.48700 3.45900 32.44700
C  32.66800 2.66000 33.10600
C  32.97700 3.85200 33.81800
O  33.44000 4.88100 33.32500
O  32.62400 3.67000 35.12000
C  32.34800 4.81000 35.93600
H  39.38100 1.58300 32.34200
H  38.25400 0.66400 25.97400
H  32.12800 2.38500 26.74700
H  35.34800 3.15600 34.19500
H  37.60200 1.23400 34.28300
H  38.63100 3.14900 35.14200
H  37.34300 4.15400 34.58400
H  38.60600 3.86900 33.54400
H  36.05000 0.37000 35.14400
H  34.41300 0.49600 34.41600
H  34.94500 0.70000 37.17900
H  33.74900 1.62400 36.42400
H  41.27400 1.27600 31.53400
H  42.05100 1.95000 30.16500
H  42.01000 0.16100 30.45600
H  42.40300 -0.33500 28.31300
H  42.60100 1.33300 28.09300
H  42.81600 0.19900 26.60800
H  36.15600 0.19600 24.90700
H  34.19000 2.46500 24.76900
H  37.21900 2.94800 24.43600
H  35.86700 2.72300 23.38500
H  37.13800 1.61600 23.33900
H  34.10000 -0.20700 24.12400
H  32.53800 0.70600 24.41200
H  33.45000 -0.62700 26.92600
H  33.99400 -1.55000 25.67800
H  32.26500 -1.26900 25.73500
H  30.65600 3.82300 28.11200
H  29.74700 3.43700 29.52600
H  30.17700 2.06500 28.35800
H  32.42900 1.83300 33.77400
H  32.97400 4.68400 36.81900
H  31.29700 4.81500 36.22600
H  32.57600 5.78900 35.51300
Mg -5.66300 24.99400 27.72100
C  -3.78100 26.86200 30.11200
C  -6.64800 22.84300 30.13300
C  -7.16300 23.01100 25.26300
C  -4.19900 26.83300 25.23200
N  -5.18000 24.87900 29.77300
C  -4.53500 25.78900 30.64300
C  -4.83800 25.54300 32.12900
C  -5.67100 24.15400 32.07100
C  -5.79900 23.85500 30.56700
C  -5.03200 23.03100 32.85100
C  -5.66000 26.69800 32.74100
C  -5.34100 27.00700 34.17100
H  -6.39900 26.71600 35.21100
N  -6.85700 23.17700 27.75500
C  -7.12300 22.46100 28.82800
C  -7.77100 21.24300 28.41200
C  -7.91000 21.19200 27.01300
C  -7.24100 22.45700 26.61900
C  -8.27100 20.26200 29.45600
C  -8.57700 20.12900 26.12100
O  -8.58400 20.17400 24.87000
C  -9.35100 19.02500 26.80000
N  -5.68400 24.89000 25.58100
C  -6.41200 24.04600 24.78800
C  -6.30800 24.33100 23.27500
C  -5.31300 25.61300 23.30000
C  -5.08500 25.85300 24.80100
C  -5.73900 23.14700 22.48800
C  -5.93300 26.92900 22.63200
C  -5.02400 27.73700 21.78700
N  -4.28400 26.55100 27.65900
C  -3.90800 27.22100 26.57400
C  -2.89800 28.21000 27.00700
C  -2.90800 28.20000 28.37200
C  -3.65100 27.09200 28.73500
C  -2.30000 29.21900 26.14000
C  -2.36900 28.74400 29.60200
O  -1.59100 29.68500 29.76600
C  -3.00500 27.96200 30.78800
C  -1.83100 27.50600 31.61900
O  -0.79500 26.97500 31.26200
O  -2.11800 27.90200 32.88500
C  -0.97400 27.72000 33.79800
H  -6.92100 22.12800 30.91200
H  -7.59300 22.32300 24.53300
H  -3.86800 27.55600 24.48400
H  -3.87900 25.36700 32.61700
H  -6.67300 24.21300 32.49700
H  -5.78400 22.37400 33.28800
H  -4.36300 23.33300 33.65600
H  -4.46100 22.41500 32.15700
H  -6.67500 26.30800 32.66500
H  -5.78500 27.60000 32.14300
H  -5.10200 28.06800 34.24800
H  -4.45000 26.44400 34.45100
H  -9.34500 20.09000 29.38500
H  -7.99800 20.54000 30.47400
H  -7.64000 19.38600 29.30800
H  -9.95900 18.51100 26.05500
H  -10.09900 19.38400 27.50800
H  -8.53900 18.52600 27.32900
H  -7.30600 24.51300 22.87600
H  -4.32100 25.33700 22.94200
H  -4.94600 23.46200 21.80900
H  -6.53000 22.63300 21.94100
H  -5.34800 22.39500 23.17200
H  -6.27100 27.58300 23.43600
H  -6.83700 26.67700 22.07900
H  -5.49100 27.88900 20.81400
H  -4.03300 27.28700 21.72400
H  -4.81400 28.72400 22.19800
H  -1.75800 28.62100 25.40800
H  -1.43600 29.67300 26.62600
H  -2.98500 29.96100 25.72800
H  -3.70400 28.59500 31.33400
H  -0.07800 28.13500 33.33600
H  -0.68900 26.67200 33.89100
H  -1.16800 28.13800 34.78600

