158

Mg 48.39500 45.50500 43.64200
C  45.02700 45.86300 42.54400
C  48.49900 42.39400 42.53400
C  51.73200 45.83800 43.65100
C  48.18400 49.02900 44.31100
N  46.92900 44.38600 42.57900
C  45.61300 44.59100 42.26900
C  44.87000 43.34200 41.67200
C  45.91800 42.24400 41.94800
C  47.19600 43.01800 42.39200
C  45.52900 41.22300 43.02000
C  44.35600 43.54800 40.16900
C  45.14500 44.44200 39.14400
H  46.20000 43.63200 38.37900
N  49.94700 44.29000 43.23700
C  49.75100 43.03100 42.82200
C  51.05500 42.33600 42.73700
C  52.01800 43.31400 43.13600
C  51.27000 44.57300 43.29000
C  51.16400 40.80300 42.54400
C  53.50500 42.94500 43.24200
O  53.85200 41.80500 42.93600
C  54.44500 43.92800 43.78400
N  49.81400 47.21300 43.93100
C  51.15100 47.00500 43.94200
C  51.92000 48.36200 44.16200
C  50.78900 49.26700 44.81000
C  49.46400 48.49500 44.31000
C  53.15200 48.18400 45.14100
C  50.92300 50.77500 44.63500
C  50.66300 51.62500 45.81800
N  46.85000 47.08500 43.76400
C  46.94100 48.44900 44.01600
C  45.62000 49.07600 43.91400
C  44.88100 48.04800 43.36700
C  45.69100 46.88600 43.23600
C  45.36200 50.59800 44.00400
C  43.63100 47.80400 42.82000
O  42.64700 48.54700 42.79000
C  43.63200 46.33100 42.25000
C  42.44100 45.64500 42.91000
O  41.56700 45.02100 42.30800
O  42.54700 45.76700 44.28600
C  41.36700 45.39000 45.02100
H  48.51500 41.31000 42.39800
H  52.82400 45.82900 43.67100
H  48.11000 50.11500 44.39200
H  43.99400 43.18400 42.30100
H  46.01900 41.75300 40.98000
H  45.94500 41.52600 43.98100
H  45.77500 40.23200 42.63800
H  44.44800 41.29300 43.13600
H  43.36900 44.00700 40.21900
H  44.20600 42.52700 39.81800
H  45.68000 45.26200 39.62300
H  44.38400 44.90800 38.51800
H  52.08100 40.53400 42.01900
H  50.32100 40.34100 42.03200
H  51.19600 40.34600 43.53400
H  54.53800 44.74300 43.06700
H  55.37000 43.39600 44.00600
H  54.02800 44.37900 44.68500
H  52.23100 48.73900 43.18700
H  50.93300 49.10900 45.87800
H  53.00100 47.26800 45.71200
H  53.28300 48.89800 45.95400
H  53.98000 48.05800 44.44400
H  50.27400 51.10800 43.82500
H  51.91300 50.89500 44.19500
H  51.46400 51.71500 46.55100
H  49.76400 51.30700 46.34600
H  50.53800 52.62500 45.40100
H  45.90600 51.06400 43.18200
H  45.60200 51.07200 44.95600
H  44.29300 50.74900 43.85200
H  43.47300 46.31600 41.17200
H  40.89600 44.46100 44.69900
H  40.67300 46.20400 44.81300
H  41.52000 45.26600 46.09300
Mg 1.29500 41.87900 25.73500
C  3.05200 42.06300 28.71100
C  -1.27100 40.58700 27.47600
C  -0.29000 41.44900 22.72400
C  4.19700 42.48300 23.91200
N  0.86400 41.67200 27.83200
C  1.71500 41.84600 28.89300
C  1.14000 41.65100 30.24800
C  -0.26300 41.02800 29.89400
C  -0.27500 41.03200 28.30500
C  -0.59000 39.57000 30.44000
C  1.10800 43.07600 30.92100
C  1.53100 43.16000 32.40100
H  1.29200 41.90200 33.34700
N  -0.53900 41.14700 25.18300
C  -1.50700 40.65100 26.01300
C  -2.72000 40.18300 25.24600
C  -2.35200 40.36500 23.87000
C  -1.00500 41.01700 23.87100
C  -4.12300 39.79500 25.79300
C  -3.05900 40.01800 22.57500
O  -2.70300 40.33000 21.41400
C  -4.36500 39.22300 22.62900
N  1.83200 42.02500 23.60200
C  0.97900 41.93600 22.64800
C  1.69900 42.01800 21.26400
C  3.11200 42.62200 21.63100
C  3.03400 42.31300 23.16500
C  1.83200 40.65500 20.46700
C  3.16200 44.20300 21.39400
C  4.03200 44.75500 20.20900
N  3.22500 42.09500 26.09300
C  4.34800 42.36800 25.30400
C  5.49000 42.54300 26.16500
C  4.97700 42.37700 27.44100
C  3.62000 42.12100 27.40200
C  6.86300 43.06300 25.73600
C  5.41100 42.51700 28.79900
O  6.58600 42.62600 29.18900
C  4.23700 42.33100 29.69100
C  4.69100 41.22200 30.62200
O  4.50800 40.03200 30.43800
O  5.22800 41.71700 31.73300
C  5.50100 40.79800 32.81800
H  -2.06700 40.02700 27.97200
H  -0.59500 41.28000 21.68900
H  5.07000 42.72000 23.30000
H  1.74700 40.86100 30.69000
H  -1.08800 41.65000 30.24100
H  0.33100 38.98700 30.43300
H  -1.30000 39.02800 29.81600
H  -0.97400 39.61400 31.45900
H  0.08000 43.43100 30.84400
H  1.67400 43.76600 30.29600
H  0.93600 44.00200 32.75400
H  2.60000 43.36000 32.46600
H  -4.48400 38.85700 25.37300
H  -4.66000 40.67200 25.43100
H  -4.31200 39.68400 26.86100
H  -5.16900 39.66300 23.21900
H  -3.95300 38.24700 22.88700
H  -4.88500 39.04800 21.68700
H  1.15100 42.78400 20.71400
H  3.93200 42.11300 21.12500
H  1.47900 39.80100 21.04400
H  2.89800 40.47800 20.32500
H  1.29600 40.74800 19.52200
H  3.51100 44.71500 22.29200
H  2.14100 44.57000 21.28500
H  3.42800 45.35400 19.52700
H  4.51100 43.95900 19.63900
H  4.79300 45.41800 20.62000
H  7.48300 42.22900 25.40600
H  7.34000 43.68200 26.49600
H  6.62300 43.74900 24.92400
H  4.10200 43.22200 30.30400
H  6.43800 40.24400 32.76000
H  4.72000 40.10500 33.13000
H  5.56100 41.51300 33.63900

