158

Mg 39.75600 9.98400 29.32500
C  41.86000 10.75600 32.09000
C  37.76000 8.20000 31.53700
C  37.84500 9.15000 26.85500
C  42.04300 11.41000 27.26100
N  39.83600 9.68500 31.55100
C  40.66000 10.22000 32.46200
C  40.10900 10.00500 33.86800
C  38.99600 8.99300 33.74000
C  38.82000 8.91500 32.19100
C  39.21500 7.58800 34.44200
C  39.65300 11.39000 34.55700
C  39.44300 11.40500 36.11400
H  40.55900 12.04300 36.92500
N  37.92700 8.91700 29.23300
C  37.26100 8.26100 30.20500
C  36.06200 7.65500 29.69700
C  36.03700 7.91600 28.29400
C  37.34300 8.65500 28.07300
C  35.06000 6.83100 30.51400
C  35.01800 7.51500 27.18600
O  35.29500 7.82600 26.01700
C  33.59200 7.06700 27.63700
N  39.91900 10.23300 27.34500
C  38.96600 9.85700 26.52000
C  39.23700 10.33300 25.06400
C  40.50200 11.22100 25.24500
C  40.88600 10.88800 26.71200
C  39.35800 9.17600 24.03800
C  40.28200 12.70800 24.99300
C  39.35600 13.40300 26.00700
N  41.62000 10.92000 29.52200
C  42.43800 11.37200 28.58100
C  43.73500 11.80200 29.21100
C  43.45400 11.65700 30.63800
C  42.24500 11.04700 30.73100
C  44.95200 12.30700 28.53400
C  43.95100 11.87000 31.99400
O  44.91200 12.48800 32.48300
C  43.01300 11.22300 32.95900
C  43.53200 10.16400 33.85000
O  43.61300 8.99900 33.53100
O  43.96600 10.61700 35.05200
C  44.61000 9.73400 36.03000
H  37.12700 7.62000 32.21200
H  37.29600 8.79600 25.98000
H  42.80600 11.86800 26.62700
H  40.85900 9.57600 34.53300
H  38.15500 9.57000 34.12400
H  40.16800 7.47600 34.95900
H  39.12200 6.75700 33.74300
H  38.49200 7.57600 35.25700
H  38.70200 11.78500 34.20100
H  40.40200 12.14300 34.30900
H  39.38900 10.35700 36.40700
H  38.52000 11.89600 36.42100
H  34.83200 5.91400 29.97000
H  34.12500 7.39000 30.49400
H  35.47500 6.59000 31.49300
H  33.24900 7.92100 28.22100
H  33.59800 6.27200 28.38200
H  32.95200 6.87900 26.77500
H  38.38800 10.96200 24.79700
H  41.37300 11.04900 24.61200
H  38.61300 9.29700 23.25100
H  39.28700 8.21100 24.54000
H  40.36300 9.11200 23.62100
H  39.73900 12.86000 24.06100
H  41.28500 13.13400 24.98400
H  38.87300 12.64600 26.62500
H  38.63400 14.03500 25.49000
H  39.99700 14.01100 26.64500
H  44.63300 12.77100 27.60100
H  45.67400 11.49900 28.41400
H  45.41800 13.07100 29.15600
H  42.61000 11.89600 33.71600
H  43.80400 9.88900 36.74700
H  45.58400 10.04100 36.41000
H  44.61200 8.71700 35.63700
Mg 28.38200 56.99800 41.39700
C  25.75100 54.99800 40.42300
C  30.55200 54.85700 39.62500
C  30.81100 59.39300 41.54900
C  26.06900 59.27900 42.81800
N  28.19300 55.11000 40.14900
C  26.99200 54.53800 39.88300
C  27.08400 53.37800 38.84700
C  28.61400 53.04200 39.11400
C  29.17300 54.44700 39.55800
C  28.82800 51.99000 40.26300
C  26.88900 54.00100 37.45300
C  26.48000 53.06500 36.27300
H  27.04500 53.42500 34.90800
N  30.44300 57.11200 40.76100
C  31.16200 56.07100 40.19100
C  32.56400 56.47700 40.02100
C  32.60300 57.74800 40.51700
C  31.27100 58.13200 40.96400
C  33.59400 55.67000 39.42600
C  33.82000 58.61200 40.56500
O  34.94600 58.14100 40.29200
C  33.83400 60.04300 41.03400
N  28.35200 59.02500 42.07100
C  29.53200 59.71300 42.04600
C  29.26800 61.15600 42.61400
C  27.90000 61.02200 43.39400
C  27.37000 59.69000 42.70900
C  30.40000 61.84000 43.49100
C  26.89100 62.18200 43.35300
C  26.15700 62.54900 44.64500
N  26.30000 57.10100 41.67600
C  25.54200 58.08100 42.26300
C  24.13900 57.62900 42.25800
C  24.16200 56.43400 41.48300
C  25.49500 56.17700 41.15800
C  22.99800 58.08400 43.04000
C  23.35700 55.36700 40.85400
O  22.16400 55.14400 40.87200
C  24.36100 54.34600 40.20600
C  24.31300 53.05600 40.91200
O  24.99000 52.69000 41.89200
O  23.39800 52.20600 40.33900
C  23.49600 50.85900 40.82200
H  31.29700 54.28100 39.07400
H  31.53000 60.21400 41.53300
H  25.40500 60.01300 43.27900
H  26.36200 52.60200 39.10200
H  28.94200 52.58100 38.18200
H  29.29200 52.39600 41.16200
H  29.43700 51.18100 39.85900
H  27.96900 51.49100 40.71400
H  27.82700 54.46100 37.14100
H  26.17900 54.82800 37.45700
H  25.39900 53.16600 36.18000
H  26.54600 52.02200 36.58000
H  33.57900 55.72100 38.33800
H  33.37000 54.62200 39.63000
H  34.58900 55.81100 39.84800
H  33.17800 60.63700 40.39800
H  34.82500 60.48400 40.92500
H  33.64700 59.95600 42.10400
H  29.04900 61.78300 41.75000
H  28.13200 60.80600 44.43700
H  30.45800 62.87900 43.17000
H  31.39800 61.45700 43.27800
H  30.19800 61.94400 44.55700
H  26.11700 61.89300 42.64200
H  27.34400 63.10500 42.99500
H  25.10700 62.30000 44.49300
H  26.11800 63.63800 44.66100
H  26.57600 62.05400 45.52100
H  23.15000 57.92600 44.10800
H  22.06500 57.62700 42.70800
H  22.87100 59.15200 42.86400
H  24.05300 54.25300 39.16500
H  23.18100 50.81000 41.86400
H  24.43800 50.34400 40.63500
H  22.83400 50.33100 40.13600

