158

Mg 16.13300 -1.93300 27.42800
C  15.50500 0.13000 30.14500
C  18.50400 -3.59600 29.46400
C  17.59200 -3.35900 24.81900
C  14.76500 0.39500 25.32600
N  16.80600 -1.83900 29.66300
C  16.31900 -0.95000 30.58100
C  16.96300 -1.24400 31.95900
C  18.09900 -2.32000 31.61100
C  17.80000 -2.62600 30.14200
C  19.56900 -1.78000 31.84700
C  15.86100 -1.87400 32.86600
C  15.54700 -1.23600 34.23800
H  16.66100 -0.31700 34.90500
N  17.58600 -3.49200 27.15800
C  18.44500 -4.02900 28.13000
C  19.15700 -5.12200 27.49700
C  18.75800 -5.17800 26.13900
C  17.93600 -4.00600 25.95000
C  20.24400 -5.94600 28.17200
C  19.20200 -6.04000 24.96800
O  18.79300 -5.88300 23.84100
C  20.27600 -7.09100 25.21000
N  16.20300 -1.53400 25.39800
C  16.78400 -2.30100 24.48900
C  16.68700 -1.75300 23.09500
C  15.64400 -0.63100 23.30400
C  15.49700 -0.60100 24.76900
C  17.99300 -1.21700 22.52300
C  14.23400 -0.93800 22.69000
C  13.44400 0.28600 22.13000
N  15.19100 -0.12200 27.64400
C  14.59900 0.66500 26.70000
C  13.87900 1.79100 27.41700
C  14.17400 1.52700 28.74800
C  15.04400 0.42700 28.83900
C  13.04100 2.77700 26.72800
C  13.94700 2.02200 30.05400
O  13.26500 2.93600 30.45300
C  14.76200 1.14600 30.98700
C  15.75600 2.03600 31.70500
O  16.95200 2.20000 31.36700
O  15.12800 2.66100 32.72200
C  15.89600 3.72800 33.36100
H  19.30400 -4.11000 30.00000
H  17.87600 -3.81500 23.86800
H  14.32300 1.13200 24.65200
H  17.39300 -0.30000 32.29400
H  18.04500 -3.24900 32.17800
H  19.51700 -0.78600 32.29100
H  20.07000 -1.71400 30.88100
H  20.08900 -2.53600 32.43600
H  16.15100 -2.92200 32.94600
H  14.91800 -1.70100 32.34700
H  15.17200 -2.04400 34.86600
H  14.64900 -0.63000 34.11700
H  21.09800 -5.91700 27.49600
H  19.89200 -6.97700 28.20700
H  20.55200 -5.68000 29.18400
H  19.91700 -7.72800 26.01900
H  21.24200 -6.61900 25.38800
H  20.42000 -7.67700 24.30300
H  16.29500 -2.47500 22.37900
H  15.99400 0.30800 22.87600
H  18.09600 -0.13300 22.54800
H  18.06200 -1.51200 21.47600
H  18.94400 -1.38800 23.02700
H  13.61200 -1.36400 23.47700
H  14.22300 -1.71500 21.92500
H  13.14900 0.24600 21.08100
H  14.07200 1.14500 22.36400
H  12.57300 0.47900 22.75700
H  12.46500 2.15600 26.04200
H  13.66500 3.34400 26.03800
H  12.42500 3.34000 27.42800
H  14.14400 0.80000 31.81500
H  15.94000 4.64700 32.77700
H  16.93300 3.43900 33.53300
H  15.52900 3.90800 34.37200
Mg 27.11500 50.27400 25.46500
C  25.09100 51.45900 28.17200
C  29.25300 49.05600 27.71300
C  29.27600 49.70700 22.93500
C  25.05400 52.12100 23.34700
N  27.13500 50.16000 27.72900
C  26.17000 50.72000 28.64400
C  26.52800 50.24300 30.03200
C  28.03600 49.71800 29.87300
C  28.17800 49.61400 28.32900
C  29.09000 50.70200 30.48300
C  25.50500 49.12000 30.49900
C  25.04700 49.29500 31.98300
H  25.87900 49.99700 33.04300
N  28.99700 49.40300 25.35400
C  29.72200 48.94100 26.39800
C  31.04600 48.49100 25.90500
C  31.04900 48.62800 24.47800
C  29.75800 49.34700 24.20900
C  31.97000 47.76200 26.78800
C  32.08300 48.21000 23.43900
O  31.92000 48.48900 22.26100
C  33.37200 47.44800 23.81600
N  27.22900 50.94000 23.42200
C  28.17200 50.47400 22.52300
C  27.80700 50.74800 21.03700
C  26.39700 51.30000 21.20700
C  26.15400 51.46500 22.75100
C  28.91900 51.64200 20.28500
C  25.32400 50.34600 20.48100
C  24.75700 51.01500 19.25100
N  25.42600 51.52900 25.65300
C  24.67100 52.18100 24.70700
C  23.52000 52.85900 25.32200
C  23.69700 52.64100 26.69800
C  24.84300 51.79300 26.84100
C  22.39700 53.63600 24.55900
C  23.15900 52.95100 27.96800
O  22.06300 53.52600 28.17800
C  23.98800 52.15000 28.94300
C  24.39400 53.01800 30.00400
O  25.36700 53.75100 30.02900
O  23.52600 52.78800 31.06700
C  23.83400 53.39900 32.38900
H  30.02400 48.75600 28.42500
H  29.82500 49.57700 22.00000
H  24.31100 52.49800 22.64100
H  26.50600 51.11700 30.68400
H  28.07400 48.78600 30.43800
H  29.41400 50.30000 31.44200
H  28.66200 51.67200 30.73600
H  29.93500 50.71900 29.79400
H  25.97000 48.14500 30.35000
H  24.59200 49.22700 29.91300
H  24.88100 48.35300 32.50600
H  24.06900 49.77400 31.93400
H  31.74300 47.65000 27.84900
H  32.93000 48.27300 26.71200
H  32.15100 46.77000 26.37400
H  33.08000 46.43000 24.07500
H  33.93900 47.87800 24.64100
H  33.97800 47.27600 22.92600
H  27.76500 49.77300 20.55100
H  26.34500 52.32300 20.83600
H  28.53600 52.65900 20.20200
H  29.18300 51.21600 19.31700
H  29.85600 51.73300 20.83500
H  24.46100 50.28200 21.14500
H  25.57200 49.34700 20.12300
H  25.31300 51.90900 18.96900
H  23.84300 51.43400 19.67400
H  24.55500 50.43200 18.35300
H  22.64300 53.86000 23.52100
H  22.45500 54.57700 25.10600
H  21.50900 53.00700 24.61800
H  23.44100 51.32700 29.40200
H  24.80000 53.04700 32.75100
H  22.99500 53.10700 33.02100
H  23.83700 54.48800 32.34200

