158

Mg 30.09400 56.45500 41.11400
C  27.01300 55.28400 39.81900
C  31.60500 53.73300 39.61500
C  33.02600 57.96100 41.44600
C  28.45300 59.40300 41.94300
N  29.33300 54.67100 39.99600
C  28.13100 54.46100 39.48900
C  27.99700 53.24600 38.56800
C  29.29500 52.53300 38.98400
C  30.18800 53.69000 39.69000
C  29.19000 51.25400 39.88700
C  27.92600 53.51100 37.00800
C  27.85500 54.87500 36.49400
H  27.08600 55.22600 35.23500
N  32.10000 55.93000 40.59500
C  32.50000 54.77300 40.02600
C  33.83300 54.86700 39.63500
C  34.36100 56.06600 40.22700
C  33.19200 56.71900 40.82800
C  34.43100 53.82600 38.69300
C  35.82300 56.59500 40.03400
O  36.66900 55.96600 39.35100
C  36.23900 57.94200 40.54200
N  30.65100 58.38300 41.64800
C  31.98800 58.71900 41.85800
C  32.11500 60.24400 42.26600
C  30.62900 60.60500 42.68800
C  29.87500 59.40300 42.03600
C  33.13700 60.48600 43.46600
C  30.20800 61.96300 42.20300
C  29.16000 62.83100 43.04500
N  28.08800 57.19900 41.04100
C  27.57300 58.38000 41.49400
C  26.16900 58.33700 41.29700
C  25.92000 57.13400 40.64400
C  27.12600 56.44900 40.51700
C  25.27500 59.50400 41.56800
C  24.84800 56.34000 40.19400
O  23.66300 56.48400 40.21300
C  25.46400 55.09800 39.53100
C  24.87700 53.93600 40.12200
O  25.25200 53.30600 41.08900
O  23.90600 53.49100 39.27300
C  23.26400 52.18700 39.59300
H  32.09600 52.79800 39.33900
H  33.96300 58.50600 41.57700
H  28.08200 60.38300 42.25000
H  27.13200 52.62300 38.79600
H  30.00000 52.26800 38.19700
H  29.77800 51.43400 40.78800
H  29.69400 50.44300 39.36200
H  28.15300 51.00400 40.11500
H  27.03200 52.99100 36.66300
H  28.71900 53.13900 36.36000
H  28.89600 55.15800 36.33700
H  27.66900 55.70500 37.17500
H  33.97300 54.04700 37.72900
H  34.26000 52.77700 38.93800
H  35.51600 53.85500 38.58800
H  35.70200 58.69800 39.96800
H  37.27900 58.05100 40.23500
H  36.19400 57.99800 41.63000
H  32.21800 60.71300 41.28700
H  30.32900 60.46400 43.72600
H  33.69300 59.57200 43.67000
H  32.70400 60.88900 44.38200
H  33.73400 61.32700 43.11500
H  29.84600 61.76200 41.19500
H  31.11600 62.54900 42.06500
H  29.69100 63.69000 43.45600
H  28.68300 62.22900 43.81800
H  28.35400 63.13500 42.37700
H  24.74500 59.67500 40.63100
H  25.74700 60.41900 41.92500
H  24.58000 59.27100 42.37600
H  25.30400 55.12200 38.45300
H  23.93100 51.50500 40.12000
H  22.81600 51.76700 38.69300
H  22.41000 52.46900 40.20900
Mg 0.47400 44.01600 26.15700
C  2.81800 43.90000 28.78400
C  -1.89400 43.32700 28.25600
C  -1.60600 43.46300 23.46700
C  3.21400 44.00100 23.85000
N  0.43800 43.85900 28.31700
C  1.49200 43.87700 29.20800
C  1.01800 43.91400 30.71300
C  -0.39900 43.32400 30.43300
C  -0.65400 43.47600 28.89500
C  -0.56800 41.78000 30.80700
C  0.89300 45.35600 31.31500
C  0.91900 45.37000 32.88500
H  0.50500 44.06300 33.64300
N  -1.51100 43.55100 25.88200
C  -2.39400 43.30200 26.97000
C  -3.69200 43.02500 26.48300
C  -3.59400 43.11900 25.08200
C  -2.21100 43.45000 24.70300
C  -4.87700 42.91900 27.39000
C  -4.62700 42.74900 24.09000
O  -4.48900 42.83300 22.89900
C  -5.93900 42.25900 24.59300
N  0.79800 43.84900 23.99900
C  -0.28800 43.66300 23.14700
C  0.23100 43.51800 21.71700
C  1.67800 44.08200 21.79000
C  1.93800 43.86800 23.30000
C  0.06100 42.07600 21.06700
C  2.01500 45.49600 21.39000
C  3.24600 45.90100 20.54900
N  2.62900 44.12300 26.21300
C  3.60100 44.11100 25.23000
C  4.95900 44.26200 25.86100
C  4.67600 44.17400 27.20300
C  3.26200 44.13200 27.37900
C  6.28900 44.28200 25.17800
C  5.31100 44.08400 28.48800
O  6.50700 43.91800 28.74900
C  4.14600 43.92900 29.56100
C  4.40400 42.75000 30.41800
O  4.49400 41.59900 29.92300
O  4.35200 43.01000 31.80000
C  4.55500 41.77700 32.62100
H  -2.64700 43.00900 28.98100
H  -2.20900 43.31000 22.57000
H  3.96300 44.16800 23.07400
H  1.61800 43.26100 31.34700
H  -1.10300 43.82700 31.09500
H  -1.48500 41.74400 31.39600
H  0.24100 41.24000 31.29800
H  -0.71700 41.18300 29.90700
H  -0.01300 45.88800 31.02500
H  1.75700 45.86800 30.89300
H  0.45200 46.30700 33.18900
H  1.92500 45.51300 33.28200
H  -5.51400 42.03800 27.32100
H  -5.57300 43.72400 27.15000
H  -4.54500 43.02000 28.42300
H  -5.77900 41.28700 25.05900
H  -6.55200 42.22000 23.69300
H  -6.39600 42.93100 25.31900
H  -0.30800 44.18200 21.04000
H  2.38100 43.43000 21.27200
H  -0.10000 41.39200 21.90000
H  1.03100 41.89300 20.60500
H  -0.71300 42.11000 20.30000
H  1.95600 46.16800 22.24700
H  1.10000 45.88900 20.94700
H  3.92100 46.53300 21.12700
H  2.89700 46.44000 19.66900
H  3.67700 44.94200 20.26100
H  6.29800 43.89600 24.15900
H  7.06700 43.73400 25.70900
H  6.52200 45.34600 25.12700
H  4.12900 44.78300 30.23900
H  4.41600 41.91900 33.69300
H  5.54000 41.32200 32.52800
H  3.76200 41.09400 32.31700

