158

Mg -0.76500 7.43000 26.25300
C  -0.09200 9.50900 28.89300
C  -0.17900 4.75900 28.40900
C  -1.16200 5.51900 23.67600
C  -1.10700 10.34000 24.13500
N  -0.23700 7.16400 28.41500
C  -0.04600 8.18400 29.28000
C  0.24200 7.64900 30.72100
C  0.24300 6.09700 30.48900
C  0.03500 5.96400 28.97200
C  1.58500 5.39300 30.95900
C  -0.86900 8.12700 31.69600
C  -0.54800 8.07800 33.19800
H  0.54900 7.22000 33.88700
N  -0.70100 5.42500 26.06300
C  -0.40200 4.46500 26.98600
C  -0.29900 3.14900 26.35500
C  -0.58000 3.35900 24.94800
C  -0.85300 4.78900 24.84600
C  -0.01000 1.85100 27.20000
C  -0.53500 2.34600 23.76700
O  -0.95700 2.57800 22.64100
C  -0.16200 0.85000 23.97200
N  -1.11000 7.92000 24.23000
C  -1.22000 6.88900 23.36300
C  -1.44800 7.34500 21.97100
C  -1.87000 8.79500 22.20500
C  -1.28200 9.08900 23.55700
C  -0.13300 7.21500 21.10700
C  -3.46000 8.88600 22.14000
C  -3.92500 10.13600 21.33800
N  -0.62000 9.52700 26.40400
C  -0.70400 10.53400 25.48800
C  -0.42200 11.78500 26.10200
C  -0.16900 11.41400 27.48000
C  -0.31700 10.02600 27.55700
C  -0.46200 13.22100 25.61600
C  0.16900 12.03400 28.74700
O  0.47100 13.19700 29.02900
C  0.11500 10.79100 29.69700
C  1.26800 10.86000 30.58400
O  2.38200 10.88700 30.15200
O  0.90700 11.00900 31.87900
C  2.03900 11.04200 32.84200
H  0.02900 3.83500 28.95300
H  -1.42800 4.89000 22.82400
H  -1.14600 11.21800 23.48700
H  1.26900 7.95100 30.93000
H  -0.61700 5.63200 30.97200
H  2.23000 6.04800 31.54400
H  2.14700 5.06000 30.08700
H  1.26600 4.55600 31.58000
H  -1.58700 7.32000 31.55100
H  -1.32300 9.05600 31.34900
H  -1.48400 7.63100 33.53500
H  -0.57800 9.12000 33.51700
H  0.79700 1.96100 27.92500
H  0.28400 1.03600 26.53900
H  -0.93400 1.53900 27.68700
H  0.89000 0.85000 24.25900
H  -0.30400 0.43600 22.97300
H  -0.87500 0.40200 24.66300
H  -2.27500 6.81200 21.50100
H  -1.32100 9.47000 21.54900
H  -0.39100 6.37600 20.46000
H  0.79100 6.92800 21.60800
H  -0.03200 8.14500 20.54800
H  -3.85500 9.04800 23.14200
H  -4.02800 8.05000 21.73100
H  -3.24400 10.64400 20.65600
H  -4.23600 10.95900 21.98100
H  -4.84300 9.78200 20.86900
H  -0.75300 13.96600 26.35800
H  -1.16500 13.23400 24.78400
H  0.46400 13.58700 25.17200
H  -0.69200 10.86600 30.42500
H  2.64900 11.93500 32.70300
H  2.75300 10.23000 32.70000
H  1.75800 11.04400 33.89500
Mg 49.32700 46.58700 43.42700
C  45.96900 47.22600 42.35600
C  49.14800 43.51200 42.24000
C  52.66400 46.42600 43.74900
C  49.41900 50.00300 44.42500
N  47.71600 45.51400 42.40100
C  46.38900 45.91600 42.05200
C  45.64900 44.73300 41.54300
C  46.65100 43.47400 41.58400
C  47.93300 44.19800 42.11600
C  46.32500 42.20000 42.27800
C  44.96000 45.00700 40.17700
C  45.79400 45.65000 39.00000
H  45.92400 44.89800 37.62700
N  50.79400 45.11700 43.05300
C  50.45500 43.86400 42.59200
C  51.63700 43.07600 42.68800
C  52.68100 43.86500 43.16800
C  52.08900 45.21900 43.33200
C  51.69000 41.61000 42.21100
C  54.10400 43.39200 43.41000
O  54.42800 42.27500 43.18800
C  55.14000 44.24600 44.07000
N  50.83200 48.03300 43.91200
C  52.13100 47.71900 44.07900
C  52.97400 48.95000 44.31900
C  51.90900 50.08500 44.54300
C  50.68200 49.34100 44.34500
C  53.87600 48.65500 45.51300
C  52.01700 51.22400 43.48600
C  51.74300 52.67200 44.00900
N  48.03500 48.26500 43.39300
C  48.15000 49.60000 43.87800
C  46.90300 50.34700 43.86800
C  46.07100 49.41800 43.19300
C  46.75600 48.21100 42.96000
C  46.72900 51.77900 44.26500
C  44.75100 49.32900 42.63000
O  43.83600 50.16400 42.48400
C  44.57500 47.84700 42.21000
C  43.54000 47.10600 43.08800
O  43.53900 46.95700 44.30000
O  42.44500 46.58200 42.38400
C  41.71300 45.43500 43.01000
H  49.06900 42.43800 42.06400
H  53.74900 46.34100 43.83800
H  49.28500 51.02900 44.77500
H  44.87100 44.62300 42.29800
H  46.94200 43.19600 40.57100
H  46.31700 41.42300 41.51400
H  45.37000 42.35700 42.77900
H  47.07800 41.88900 43.00300
H  44.05200 45.58400 40.35200
H  44.54700 44.12400 39.69000
H  46.81800 45.73300 39.36500
H  45.31700 46.59700 38.74900
H  52.25500 41.50800 41.28500
H  50.73200 41.26900 41.81800
H  52.01900 40.91500 42.98300
H  54.66700 44.67200 44.95500
H  55.52600 45.00600 43.39100
H  55.97400 43.58600 44.30700
H  53.64500 49.10400 43.47400
H  51.96900 50.48900 45.55400
H  54.87000 49.04600 45.29400
H  54.18000 47.63300 45.73900
H  53.51200 49.17100 46.40100
H  51.25300 51.04500 42.72900
H  52.96300 51.05900 42.97000
H  51.09200 53.14000 43.27100
H  52.62500 53.31000 43.95100
H  51.42400 52.74300 45.04900
H  45.68600 52.09200 44.21100
H  47.30000 52.33000 43.51700
H  46.83400 52.07400 45.30900
H  44.13200 47.77700 41.21700
H  42.22700 45.01600 43.87500
H  41.47300 44.71100 42.23200
H  40.72800 45.73200 43.37100

