158

Mg 40.86500 9.24800 30.51300
C  42.53700 10.56200 33.16800
C  38.63900 7.66600 32.74800
C  39.17400 7.96100 27.93500
C  43.38300 10.12100 28.40200
N  40.56800 9.30400 32.70000
C  41.40300 9.88700 33.58300
C  40.88900 9.75200 35.03100
C  39.71800 8.73600 34.91300
C  39.66100 8.48400 33.35700
C  39.85800 7.30800 35.64100
C  40.50100 11.18800 35.65200
C  41.24200 11.63400 36.90800
H  40.37700 12.18800 38.02500
N  39.09700 8.03700 30.37500
C  38.33700 7.55800 31.39900
C  37.19100 6.88500 30.83400
C  37.31600 6.94900 29.39900
C  38.56900 7.57500 29.16900
C  36.08300 6.26100 31.71400
C  36.29800 6.50400 28.36200
O  36.47800 6.56600 27.17000
C  34.92300 6.10400 28.81100
N  41.18600 9.14700 28.47800
C  40.33100 8.56400 27.59500
C  40.88900 8.67000 26.16100
C  42.17800 9.53400 26.36200
C  42.30500 9.49300 27.86100
C  41.24100 7.28700 25.45700
C  41.97400 11.11400 25.90500
C  41.79400 11.48300 24.43600
N  42.53300 10.28500 30.64000
C  43.54700 10.44700 29.74900
C  44.58000 11.29800 30.36500
C  44.20200 11.35000 31.70300
C  43.00900 10.70200 31.86900
C  45.72100 11.83900 29.56100
C  44.67600 11.78600 32.92400
O  45.73900 12.40100 33.07300
C  43.65300 11.31100 34.06600
C  44.28500 10.43800 35.06000
O  44.37600 9.18800 35.06400
O  44.62800 11.20800 36.14200
C  44.83900 10.47600 37.35100
H  37.99900 7.19100 33.49500
H  38.74600 7.52400 27.03000
H  44.05600 10.56800 27.66700
H  41.67300 9.14300 35.48000
H  38.79700 9.20300 35.26300
H  40.00400 6.52500 34.89700
H  38.90800 6.97000 36.05500
H  40.65200 7.33200 36.38700
H  39.42500 11.23000 35.81800
H  40.82800 11.90200 34.89700
H  41.91500 12.43800 36.61000
H  41.83500 10.83000 37.34300
H  36.00600 5.17600 31.64300
H  35.16700 6.79400 31.45900
H  36.28400 6.49000 32.76100
H  34.97400 5.26000 29.49900
H  34.37600 5.70600 27.95500
H  34.39300 6.93200 29.28200
H  40.22600 9.21400 25.48800
H  43.06200 9.04900 25.94700
H  40.89400 6.46300 26.08100
H  42.27600 7.14100 25.14900
H  40.70000 7.26300 24.51100
H  42.83300 11.73700 26.15300
H  41.10000 11.52800 26.40800
H  42.71400 11.21100 23.91700
H  41.49700 12.52600 24.33000
H  41.00900 10.81200 24.08700
H  45.41400 12.16100 28.56600
H  46.34300 10.94700 29.47900
H  46.24200 12.61100 30.12700
H  43.21700 12.15100 34.60600
H  44.18200 10.76700 38.17100
H  45.81200 10.66000 37.80600
H  44.74000 9.39300 37.27400
Mg 26.92100 50.48400 25.59000
C  25.13400 51.70100 28.30200
C  29.69100 49.93400 27.62900
C  28.80700 49.75000 22.87300
C  24.51700 51.87100 23.46100
N  27.32200 50.50100 27.82100
C  26.37800 51.11800 28.71000
C  26.89300 51.04600 30.14500
C  28.42400 50.56400 29.85100
C  28.51700 50.40900 28.35800
C  29.42400 51.57300 30.51000
C  26.00400 50.08900 31.02200
C  25.35800 50.75800 32.22700
H  26.23700 50.88500 33.46700
N  28.85600 49.72600 25.30500
C  29.89200 49.58000 26.29800
C  31.04900 48.86500 25.66300
C  30.65800 48.75000 24.27400
C  29.44700 49.41900 24.06200
C  32.35300 48.57100 26.40900
C  31.30900 48.01500 23.21500
O  30.92400 47.96100 22.01700
C  32.63700 47.32200 23.53400
N  26.58900 50.56700 23.51800
C  27.58400 50.35100 22.63100
C  27.14700 50.68900 21.12900
C  25.63800 51.19500 21.38700
C  25.56700 51.14700 22.88200
C  28.12300 51.66900 20.44600
C  24.52100 50.36400 20.67100
C  23.73500 51.14200 19.58200
N  25.16900 51.47000 25.81100
C  24.26000 51.94100 24.90500
C  23.09900 52.56600 25.57500
C  23.43900 52.47300 26.90800
C  24.61700 51.74800 26.98900
C  22.06700 53.31200 24.87400
C  22.93600 52.77000 28.14900
O  21.91600 53.37100 28.54100
C  24.02400 52.31600 29.15300
C  24.47000 53.52100 29.92900
O  25.49300 54.21600 29.68400
O  23.53400 53.70300 30.91300
C  24.01200 54.63200 31.97400
H  30.49900 49.68300 28.31900
H  29.41900 49.60400 21.98000
H  23.91900 52.44800 22.75300
H  26.73300 52.06600 30.49600
H  28.56900 49.60700 30.35200
H  28.85200 52.15900 31.22800
H  30.07900 52.13400 29.84300
H  30.11600 50.96700 31.09500
H  26.62500 49.27900 31.40300
H  25.19200 49.58800 30.49600
H  24.59300 50.09400 32.62800
H  24.85500 51.71400 32.08600
H  32.47000 47.52100 26.67700
H  32.15800 49.09600 27.34400
H  33.26600 49.04500 26.04900
H  32.55200 46.79900 24.48700
H  33.37400 48.11000 23.68400
H  33.12700 46.74700 22.74900
H  27.12700 49.75900 20.56100
H  25.55100 52.24800 21.11600
H  28.87400 52.02800 21.15100
H  27.51800 52.46500 20.01000
H  28.60600 51.01400 19.72200
H  23.77100 50.11500 21.42200
H  24.89200 49.43100 20.24500
H  23.47900 50.39800 18.82800
H  24.20400 52.03500 19.16600
H  22.72900 51.45000 19.86500
H  21.53300 52.69600 24.15100
H  22.56100 54.07800 24.27600
H  21.43500 53.76600 25.63700
H  23.68600 51.54800 29.84800
H  24.55600 55.51700 31.64200
H  24.43600 54.16300 32.86200
H  23.10900 55.11200 32.35000

