158

Mg 24.76000 1.04700 28.75300
C  26.68400 0.60000 31.73400
C  21.99900 1.14700 30.63200
C  22.90700 1.13800 25.91200
C  27.64100 0.19200 26.93100
N  24.42000 0.78600 30.90800
C  25.32100 0.84500 31.95200
C  24.61600 1.05300 33.28900
C  23.07700 1.01200 32.88800
C  23.15200 0.91600 31.34200
C  22.17200 -0.02600 33.67100
C  25.07300 2.38100 34.06200
C  25.87900 2.07800 35.37700
H  25.67400 2.95300 36.60900
N  22.71800 1.23700 28.33500
C  21.73300 1.26900 29.24000
C  20.43300 1.36900 28.63000
C  20.66700 1.22100 27.24300
C  22.16700 1.21600 27.09700
C  19.10900 1.37800 29.48300
C  19.66200 1.07600 26.13500
O  20.03300 0.81400 25.01600
C  18.24100 1.16700 26.42000
N  25.17700 0.67000 26.73400
C  24.25800 0.90300 25.74400
C  24.98000 1.18700 24.42100
C  26.52900 0.97200 24.74700
C  26.48800 0.47300 26.16300
C  24.55300 0.22800 23.27000
C  27.52100 2.24800 24.48000
C  27.11300 3.51900 25.22200
N  26.75300 0.45900 29.14300
C  27.85200 0.19600 28.33500
C  29.04400 0.07200 29.04500
C  28.62700 0.21500 30.39700
C  27.30000 0.43400 30.44100
C  30.43600 -0.17900 28.47400
C  29.08700 0.34200 31.78400
O  30.18400 0.29300 32.21800
C  27.83200 0.65100 32.71600
C  27.92600 -0.37000 33.82400
O  27.69100 -1.52400 33.72500
O  28.46900 0.20600 34.96600
C  28.60100 -0.64800 36.11200
H  21.12100 1.24900 31.27300
H  22.38300 1.14100 24.95400
H  28.62400 0.08100 26.47000
H  24.89900 0.17900 33.87600
H  22.65900 2.00400 33.05800
H  21.42400 0.60300 34.15400
H  22.76000 -0.54400 34.42800
H  21.79300 -0.75800 32.95600
H  24.25800 3.00000 34.43500
H  25.69000 2.97400 33.38700
H  26.92500 2.27800 35.14300
H  25.78400 1.01600 35.60400
H  19.15500 1.48400 30.56700
H  18.48100 0.53500 29.19500
H  18.42900 2.14900 29.12100
H  18.04100 2.14300 26.86300
H  18.10500 0.35100 27.13000
H  17.45900 0.99400 25.68000
H  24.71200 2.20200 24.13100
H  26.92200 0.22500 24.05800
H  24.04100 -0.62400 23.71700
H  25.48400 -0.18500 22.88200
H  24.11000 0.78500 22.44400
H  27.46400 2.47800 23.41600
H  28.54200 1.99400 24.76400
H  27.93800 4.21500 25.06400
H  26.85000 3.36800 26.26900
H  26.27200 3.95900 24.68500
H  31.12900 0.12000 29.26000
H  30.62800 0.44700 27.60300
H  30.70200 -1.20900 28.23600
H  27.84000 1.62500 33.20500
H  29.57000 -0.62300 36.60900
H  28.48300 -1.69600 35.83900
H  27.80200 -0.38600 36.80500
Mg 40.37500 9.05800 29.83600
C  42.12600 10.13600 32.52300
C  38.08400 7.65300 31.72600
C  38.74900 7.91100 26.99900
C  42.93700 10.29700 27.70600
N  40.32000 8.78000 31.89900
C  41.05500 9.36900 32.88600
C  40.34900 9.29100 34.24900
C  39.16500 8.41800 33.95400
C  39.19600 8.26200 32.40300
C  39.17200 7.07500 34.81900
C  39.85900 10.71400 34.77000
C  39.55900 10.74700 36.31300
H  40.09400 11.76700 37.30800
N  38.61400 7.88900 29.42500
C  37.78300 7.47100 30.38900
C  36.59900 6.90900 29.82700
C  36.81200 6.86900 28.39200
C  38.10400 7.60000 28.24800
C  35.57100 6.24400 30.68600
C  36.01500 6.22900 27.25400
O  36.40500 6.30200 26.09600
C  34.78200 5.45400 27.56800
N  40.75200 9.16900 27.57700
C  39.94500 8.52300 26.68200
C  40.37200 8.96900 25.27100
C  41.84500 9.53600 25.48500
C  41.86800 9.72700 27.01800
C  40.32200 7.87000 24.12700
C  42.04200 10.83400 24.66700
C  41.14800 12.02900 25.06700
N  42.16200 9.98500 30.04200
C  43.08900 10.46800 29.11300
C  44.26200 11.05400 29.79300
C  43.80300 10.98500 31.12100
C  42.58300 10.35300 31.22400
C  45.42600 11.79700 29.27600
C  44.25400 11.42100 32.45400
O  45.28500 11.97300 32.84600
C  43.15700 10.91400 33.41300
C  43.83100 10.05200 34.44100
O  44.43600 8.99600 34.20600
O  43.71300 10.63900 35.66400
C  44.41000 9.96900 36.76800
H  37.29600 7.34400 32.41700
H  38.23800 7.70200 26.05700
H  43.78100 10.69400 27.13600
H  41.07200 8.84500 34.93300
H  38.25600 8.98000 34.16600
H  39.40200 6.22800 34.17300
H  38.15800 6.96400 35.20300
H  39.85400 7.02100 35.66800
H  38.94900 11.05000 34.27300
H  40.59300 11.52000 34.78600
H  39.69000 9.75100 36.73400
H  38.47500 10.81700 36.22800
H  34.59700 6.22600 30.19500
H  35.61900 6.76800 31.64000
H  35.82300 5.19100 30.81700
H  34.84800 4.63800 28.28800
H  34.32900 5.19400 26.61200
H  34.16800 6.20600 28.06500
H  39.67900 9.74300 24.94100
H  42.62700 8.78800 25.35400
H  40.27400 6.91800 24.65500
H  41.21100 7.95800 23.50100
H  39.42400 7.90400 23.51000
H  41.81600 10.54800 23.64000
H  43.09000 11.12700 24.72500
H  40.50800 12.21800 24.20600
H  41.77400 12.87200 25.35900
H  40.48000 11.74900 25.88200
H  46.11700 11.10100 28.80000
H  46.00800 12.26700 30.06800
H  45.13000 12.58500 28.58300
H  42.61800 11.66500 33.99100
H  43.79500 9.96400 37.66800
H  45.34100 10.49200 36.98400
H  44.63300 8.92400 36.55300

