158

Mg -0.58000 43.62000 25.88300
C  1.82000 43.25500 28.59100
C  -3.03200 42.79700 28.20500
C  -2.66800 43.73100 23.39700
C  2.20600 43.72900 23.73600
N  -0.55400 42.96800 28.11600
C  0.47300 42.93200 28.99600
C  -0.10500 42.81000 30.44300
C  -1.58000 42.28800 30.21100
C  -1.72400 42.58900 28.70400
C  -1.81900 40.79600 30.65200
C  0.01200 44.14300 31.23600
C  0.50800 43.93800 32.69500
H  0.04800 42.68700 33.53700
N  -2.59400 43.47100 25.82400
C  -3.45900 43.15300 26.86400
C  -4.84400 43.28600 26.45900
C  -4.78500 43.57700 25.04800
C  -3.31800 43.60500 24.66500
C  -6.02800 42.85900 27.31200
C  -5.90000 43.75800 23.98500
O  -5.66200 43.99400 22.81800
C  -7.27600 43.54200 24.44000
N  -0.27900 43.76900 23.85700
C  -1.32300 43.72700 22.99000
C  -0.82400 43.85300 21.55100
C  0.68400 44.11800 21.67700
C  0.92300 43.82700 23.16700
C  -1.07000 42.56800 20.76800
C  1.27800 45.53700 21.23100
C  1.05800 46.70800 22.17600
N  1.50600 43.61400 26.07000
C  2.44000 43.64100 25.11300
C  3.79100 43.63300 25.73900
C  3.58000 43.49600 27.06400
C  2.20900 43.47500 27.24200
C  5.14300 43.64400 25.00600
C  4.31700 43.32500 28.37200
O  5.49300 43.20900 28.63300
C  3.11100 43.31500 29.41400
C  3.31600 42.08600 30.28700
O  2.84300 40.92200 30.12300
O  3.85400 42.44900 31.51100
C  3.98000 41.31300 32.34900
H  -3.78300 42.59000 28.97000
H  -3.36200 43.99900 22.59800
H  3.06700 43.63200 23.07200
H  0.48300 42.09600 31.02100
H  -2.14000 42.95400 30.86800
H  -2.47300 40.81800 31.52400
H  -0.85500 40.35000 30.89700
H  -2.22000 40.14700 29.87400
H  -0.93600 44.66400 31.10000
H  0.83300 44.70800 30.79400
H  0.26200 44.81400 33.29500
H  1.59600 44.00400 32.70000
H  -5.75300 42.43700 28.27800
H  -6.51800 42.04700 26.77300
H  -6.77800 43.64900 27.32800
H  -8.04500 43.68800 23.68000
H  -7.58100 44.22800 25.23000
H  -7.36100 42.50500 24.76300
H  -1.21300 44.76300 21.09300
H  1.25900 43.31600 21.21400
H  -0.29400 41.82000 20.92900
H  -1.19600 42.85500 19.72400
H  -1.96000 42.00400 21.05000
H  0.86300 45.82000 20.26400
H  2.36000 45.41100 21.22200
H  0.41800 46.26900 22.94100
H  0.45900 47.51300 21.75200
H  1.96900 47.15200 22.57700
H  5.04200 43.85700 23.94100
H  5.47700 42.61900 25.16400
H  5.83900 44.30700 25.52000
H  3.15700 44.23800 29.99300
H  4.70200 40.63400 31.89700
H  3.08600 40.78100 32.67500
H  4.47400 41.53200 33.29600
Mg -2.35500 34.71200 26.64200
C  -3.42000 32.99800 29.56400
C  -1.08400 37.02600 28.61100
C  -2.14100 36.57800 23.91300
C  -4.20100 32.26200 24.73900
N  -2.17400 34.89900 28.83700
C  -2.63000 34.08400 29.83000
C  -2.18500 34.59000 31.23700
C  -1.43300 35.89700 30.82000
C  -1.62000 35.99100 29.34400
C  -1.77600 37.22500 31.61600
C  -1.38400 33.49700 32.06600
C  -1.96300 33.05100 33.46200
H  -1.03800 33.02800 34.66300
N  -1.50500 36.34100 26.26400
C  -1.03100 37.22700 27.17500
C  -0.34200 38.38300 26.60300
C  -0.74100 38.34700 25.21500
C  -1.50500 37.05300 25.05400
C  0.31900 39.40900 27.47300
C  -0.44400 39.32700 24.08200
O  -0.86900 39.27300 22.92500
C  0.50400 40.46500 24.42800
N  -3.13500 34.47100 24.60800
C  -2.96600 35.45300 23.74300
C  -3.64000 35.08300 22.38900
C  -3.99200 33.52000 22.56000
C  -3.72400 33.33900 24.06300
C  -4.86700 35.95800 21.90300
C  -3.20000 32.53600 21.67500
C  -1.90300 32.02400 22.24500
N  -3.52500 33.05500 27.01700
C  -4.14900 32.11100 26.14100
C  -4.78100 31.12500 26.93600
C  -4.52300 31.46600 28.25400
C  -3.72600 32.60400 28.24600
C  -5.50700 29.89800 26.47100
C  -4.80200 31.01700 29.56900
O  -5.44400 30.09100 29.99900
C  -4.01900 32.00300 30.47100
C  -4.95700 32.68000 31.29000
O  -5.78800 33.46400 30.84800
O  -5.03600 32.21700 32.59700
C  -5.96600 32.81000 33.52400
H  -0.62500 37.75900 29.27800
H  -2.19500 37.21500 23.02800
H  -4.71900 31.47000 24.19500
H  -3.11700 34.87000 31.72700
H  -0.38200 35.67500 31.00600
H  -0.90100 37.69900 32.06100
H  -2.43500 37.09100 32.47400
H  -2.15600 38.02100 30.97600
H  -0.36200 33.86200 32.16500
H  -1.30900 32.57400 31.49000
H  -2.43600 32.07600 33.34200
H  -2.84700 33.66200 33.64500
H  1.31500 39.04800 27.73100
H  -0.27300 39.59900 28.36800
H  0.43800 40.36100 26.95500
H  0.89800 40.90800 23.51300
H  1.30100 39.90900 24.92200
H  -0.12700 41.12100 25.02600
H  -2.83100 35.14300 21.66100
H  -5.05500 33.43700 22.33300
H  -5.11700 36.77900 22.57500
H  -5.73200 35.30600 21.78300
H  -4.76800 36.27100 20.86400
H  -2.93700 32.98100 20.71500
H  -3.83800 31.65300 21.71400
H  -1.59900 32.45700 23.19800
H  -1.03800 32.14100 21.59200
H  -1.97200 30.96000 22.47100
H  -5.20500 29.05200 27.08800
H  -5.12000 29.77500 25.45900
H  -6.56500 30.11300 26.31700
H  -3.20300 31.49600 30.98600
H  -6.49900 33.69900 33.18700
H  -5.38000 33.05500 34.40900
H  -6.71200 32.02700 33.66600

