158

Mg -1.58000 17.30300 27.07600
C  -2.11300 15.22600 29.90700
C  -2.24800 19.95500 29.04200
C  -1.61100 19.08700 24.27000
C  -1.54700 14.26800 25.03600
N  -2.00600 17.51000 29.30900
C  -2.18900 16.57900 30.30900
C  -2.55000 17.23600 31.60800
C  -2.84100 18.72000 31.26200
C  -2.33300 18.77100 29.76900
C  -4.30300 19.12200 31.41300
C  -1.44100 16.92400 32.69100
C  -1.96400 16.36500 33.97800
H  -0.95400 16.08100 35.09900
N  -1.88500 19.20800 26.70900
C  -2.06000 20.23500 27.65400
C  -2.06800 21.50300 27.01300
C  -1.85800 21.25000 25.66100
C  -1.74000 19.82300 25.49600
C  -2.41200 22.79400 27.73700
C  -1.58000 22.28100 24.52400
O  -1.40300 21.91800 23.33700
C  -1.47600 23.88400 24.72400
N  -1.42000 16.69600 24.91200
C  -1.46500 17.71500 24.01700
C  -1.50900 17.07400 22.56000
C  -1.11800 15.58200 22.79500
C  -1.46400 15.46700 24.30200
C  -2.90000 17.27600 21.81600
C  0.33600 15.18300 22.52700
C  1.48500 16.24400 22.62300
N  -1.76400 15.23800 27.31500
C  -1.63000 14.13600 26.45900
C  -1.95700 12.94000 27.11500
C  -1.98700 13.27300 28.48600
C  -1.92500 14.67400 28.57400
C  -1.87800 11.59500 26.50700
C  -2.08500 12.72300 29.77600
O  -2.16400 11.52400 30.13200
C  -2.09200 13.91900 30.70200
C  -0.80800 13.69400 31.44300
O  0.30700 13.92700 31.00400
O  -1.01100 13.20500 32.73500
C  0.23700 13.17800 33.51100
H  -2.48000 20.83000 29.65400
H  -1.73000 19.60800 23.31700
H  -1.50000 13.29100 24.55000
H  -3.49800 16.80800 31.93200
H  -2.31700 19.37900 31.95300
H  -5.04100 18.45600 31.85800
H  -4.81000 19.21700 30.45300
H  -4.22600 19.99100 32.06700
H  -0.92500 17.86900 32.85700
H  -0.68300 16.30000 32.21800
H  -2.61400 15.50200 33.83400
H  -2.56100 17.18200 34.38100
H  -2.52100 22.66600 28.81400
H  -3.31500 23.23400 27.31400
H  -1.51200 23.38600 27.57600
H  -0.44800 24.17400 24.94200
H  -2.10900 24.28200 25.51600
H  -1.73200 24.27100 23.73800
H  -0.82400 17.64800 21.93700
H  -1.63400 15.05700 21.99100
H  -3.21500 16.38500 21.27300
H  -2.73400 18.00500 21.02300
H  -3.70500 17.74100 22.38600
H  0.31400 14.87300 21.48200
H  0.62400 14.34900 23.16700
H  1.00300 17.17200 22.93300
H  1.73300 16.51800 21.59800
H  2.35100 15.87400 23.17300
H  -0.84200 11.59200 26.16900
H  -2.55300 11.40900 25.67200
H  -2.12000 10.85600 27.27100
H  -2.91500 13.97000 31.41400
H  0.88100 14.02100 33.25900
H  0.81900 12.26100 33.41800
H  -0.10200 13.13600 34.54600
Mg 36.22800 48.69600 24.21000
C  36.39400 46.88500 27.35800
C  34.78400 51.31900 25.85900
C  35.42100 49.94400 21.31400
C  37.23800 45.69300 22.71100
N  35.54700 48.98300 26.34900
C  35.82700 48.15400 27.44500
C  35.45500 48.97300 28.81600
C  34.85600 50.32400 28.30300
C  35.01900 50.21700 26.76800
C  33.36700 50.42200 28.67700
C  36.68600 49.25800 29.65100
C  36.69000 48.56700 30.95100
H  35.41800 48.58700 31.85300
N  35.34600 50.47800 23.66100
C  34.79400 51.41300 24.46700
C  34.39900 52.52200 23.65000
C  34.59200 52.17500 22.27500
C  35.17700 50.84900 22.34100
C  33.79900 53.78800 24.25300
C  34.12700 52.92300 21.03100
O  34.31400 52.44100 19.89800
C  33.53100 54.28500 21.06000
N  36.13600 47.86800 22.28300
C  35.89500 48.66600 21.17300
C  36.30600 48.00900 19.78600
C  37.24900 46.83300 20.37100
C  36.78800 46.72800 21.89500
C  35.04200 47.61100 18.98100
C  38.79600 47.17900 20.21000
C  39.39500 48.36300 20.92800
N  36.81700 46.73600 24.83200
C  37.26200 45.67100 24.10700
C  37.73100 44.62500 24.97200
C  37.34700 45.03900 26.27700
C  36.80100 46.29400 26.17500
C  38.34700 43.34400 24.56800
C  37.21900 44.62000 27.71000
O  37.62500 43.64500 28.31000
C  36.64600 45.84500 28.46700
C  35.50400 45.50100 29.35900
O  34.32700 45.45600 29.04300
O  36.05800 45.12000 30.57100
C  35.15900 44.54400 31.53600
H  34.49200 52.20100 26.43300
H  35.26900 50.39200 20.33000
H  37.71800 44.92500 22.10100
H  34.67700 48.49800 29.41400
H  35.21200 51.24600 28.76300
H  32.81200 50.10300 27.79500
H  33.10000 51.43100 28.99400
H  33.05100 49.75700 29.48000
H  36.86600 50.30800 29.88200
H  37.54600 48.81400 29.14800
H  37.55900 49.07500 31.37100
H  37.06100 47.54300 30.90800
H  32.78000 53.94700 23.90100
H  34.47900 54.60300 24.00700
H  33.65900 53.68300 25.32900
H  34.25200 55.08400 21.23500
H  32.64000 54.43200 21.67100
H  33.10100 54.37400 20.06300
H  36.94900 48.77100 19.34500
H  37.05400 45.91900 19.81000
H  34.20400 48.16600 19.40500
H  34.88600 46.54000 19.11200
H  35.24000 47.86900 17.94100
H  39.05300 47.12700 19.15200
H  39.29700 46.33200 20.67800
H  39.97800 48.89500 20.17700
H  40.01300 47.91000 21.70300
H  38.54500 48.90200 21.34700
H  39.07000 43.06200 25.33400
H  38.91300 43.46700 23.64500
H  37.50500 42.65200 24.59100
H  37.52700 46.20200 29.00000
H  35.55100 44.87500 32.49700
H  35.23100 43.45700 31.48700
H  34.15400 44.96500 31.52700

