158

Mg 50.22300 44.88100 42.38500
C  47.01900 45.44900 40.66400
C  50.05300 41.54300 41.31200
C  53.57000 44.36900 42.93300
C  50.61400 48.18000 42.73800
N  48.74600 43.69600 41.06500
C  47.48600 44.12800 40.57200
C  46.68800 42.88400 40.17000
C  47.56100 41.59900 40.48000
C  48.85900 42.29700 41.06200
C  46.78500 40.49200 41.32000
C  46.11000 42.92600 38.69300
C  46.83700 43.65200 37.51000
H  47.20500 42.82700 36.26100
N  51.63800 43.18600 42.27100
C  51.34100 41.96800 41.71000
C  52.57500 41.16600 41.60600
C  53.59800 41.93300 42.18900
C  52.95300 43.25900 42.44500
C  52.61400 39.80300 41.13000
C  55.06500 41.51500 42.40200
O  55.35400 40.36100 42.19100
C  56.13000 42.46000 42.78900
N  51.80000 46.08000 42.94200
C  53.03900 45.62900 43.28200
C  53.98700 46.83700 43.52900
C  52.99400 47.99100 43.79700
C  51.72800 47.42400 43.12200
C  55.02900 46.67800 44.64300
C  53.49900 49.36500 43.27100
C  53.46400 50.38700 44.34700
N  48.95700 46.50800 42.01000
C  49.29600 47.80500 42.17700
C  48.17000 48.59900 41.90200
C  47.23900 47.78900 41.27400
C  47.77900 46.47800 41.30200
C  48.14000 50.15000 42.03800
C  45.91300 47.69000 40.70900
O  45.00700 48.50100 40.58400
C  45.77800 46.10000 40.18100
C  44.47000 45.53100 40.68400
O  43.53200 45.24400 39.98100
O  44.32000 45.63900 42.06100
C  43.14700 45.03700 42.65700
H  50.01800 40.46900 41.11900
H  54.64000 44.29900 43.14300
H  50.77400 49.25900 42.77700
H  45.82800 42.88500 40.84100
H  47.93700 41.15100 39.56100
H  45.90900 40.80400 41.88900
H  47.46700 40.16700 42.10600
H  46.43300 39.68000 40.68400
H  45.03300 43.08800 38.63100
H  46.10900 41.88300 38.37500
H  47.69500 44.24200 37.83200
H  46.19100 44.42800 37.10000
H  53.47400 39.61700 40.48700
H  51.67400 39.54600 40.64400
H  52.66900 39.07500 41.93900
H  56.11300 43.35200 42.16400
H  57.12300 42.01000 42.78600
H  55.89000 42.66500 43.83200
H  54.43200 46.95900 42.54200
H  52.88300 47.94800 44.88100
H  54.80400 45.73900 45.15000
H  54.98400 47.44200 45.42000
H  56.01200 46.61300 44.17600
H  52.98900 49.58700 42.33400
H  54.52300 49.15200 42.96300
H  52.77500 49.93500 45.06100
H  53.00800 51.33500 44.06400
H  54.47700 50.61300 44.68000
H  47.43000 50.54300 41.31000
H  49.11900 50.61300 41.91300
H  47.73200 50.35500 43.02800
H  45.82600 46.03800 39.09400
H  43.11100 45.27800 43.72000
H  43.10800 43.97000 42.44200
H  42.22000 45.46400 42.27600
Mg -5.58600 24.96800 25.38000
C  -3.84800 26.37700 28.24500
C  -7.32500 22.98300 27.65900
C  -6.99400 23.47300 22.80400
C  -3.52200 26.81600 23.26800
N  -5.50600 24.73300 27.66900
C  -4.91400 25.52000 28.63500
C  -5.33800 25.11000 30.08600
C  -6.17400 23.81000 29.81200
C  -6.32700 23.80600 28.27200
C  -5.68900 22.45000 30.44900
C  -6.07400 26.34500 30.70800
C  -5.80500 26.51000 32.24200
H  -5.56200 25.33100 33.22900
N  -7.02800 23.50800 25.28000
C  -7.66600 22.93300 26.34300
C  -8.80900 22.18200 25.81500
C  -8.68900 22.23500 24.42000
C  -7.57600 23.13700 24.08700
C  -9.72600 21.21100 26.77100
C  -9.49800 21.43400 23.41200
O  -9.17800 21.35100 22.21700
C  -10.61900 20.57600 23.95200
N  -5.18100 24.95800 23.27400
C  -5.99400 24.32900 22.40200
C  -5.63600 24.64800 21.00000
C  -4.69500 25.94200 21.15800
C  -4.38400 25.90200 22.64000
C  -5.06100 23.33200 20.38600
C  -5.38100 27.26200 20.59900
C  -4.50100 28.02200 19.64500
N  -3.91600 26.28800 25.61600
C  -3.25300 26.99800 24.68100
C  -2.28300 27.81600 25.34200
C  -2.50300 27.60400 26.77300
C  -3.49000 26.63000 26.86400
C  -1.35000 28.79000 24.68200
C  -2.14100 28.04100 28.08100
O  -1.46100 28.96900 28.45400
C  -2.89700 27.18700 29.07200
C  -2.05000 26.34400 29.92300
O  -1.29900 25.47100 29.45100
O  -2.13500 26.72700 31.26800
C  -1.54700 25.73800 32.10700
H  -7.68400 22.28100 28.41400
H  -7.43200 23.04500 21.89900
H  -3.05000 27.56300 22.62600
H  -4.43500 24.91000 30.66300
H  -7.17000 23.95900 30.22700
H  -4.95000 22.66600 31.22100
H  -5.25800 21.79000 29.69800
H  -6.53300 21.90800 30.87500
H  -7.11900 26.18900 30.44100
H  -5.64800 27.23100 30.23700
H  -6.73400 26.99500 32.54000
H  -5.01800 27.25700 32.35500
H  -9.83800 20.20700 26.36300
H  -10.68200 21.73500 26.77300
H  -9.25700 21.19400 27.75500
H  -11.12900 20.28500 23.03400
H  -11.16800 21.26400 24.59500
H  -10.25900 19.70300 24.49700
H  -6.53900 24.87700 20.43400
H  -3.79400 25.76500 20.57000
H  -3.97300 23.28000 20.40700
H  -5.46300 23.19400 19.38300
H  -5.40300 22.45800 20.94000
H  -5.72500 27.93700 21.38300
H  -6.21500 26.89900 19.99900
H  -4.59200 29.10100 19.76700
H  -4.96600 27.78000 18.68900
H  -3.44900 27.73600 19.64100
H  -2.00200 29.54700 24.24500
H  -0.75000 28.17500 24.01100
H  -0.82800 29.27000 25.51000
H  -3.48000 27.90200 29.65300
H  -1.70400 24.74100 31.69400
H  -2.09800 25.76100 33.04700
H  -0.47500 25.86400 32.25900

