158

Mg 8.71200 3.05700 28.21400
C  9.98000 1.49100 30.83900
C  6.90600 5.21100 30.23400
C  7.47400 4.67700 25.43800
C  10.35600 0.80800 26.03500
N  8.37600 3.21400 30.33100
C  9.11500 2.57200 31.24700
C  8.86200 3.01700 32.68400
C  7.61900 3.99600 32.48600
C  7.59800 4.14100 30.91900
C  6.22800 3.64700 33.17800
C  10.10600 3.49400 33.45000
C  9.90300 4.38000 34.70000
H  10.47000 3.97000 36.05600
N  7.31500 4.61100 27.93700
C  6.67000 5.35800 28.85300
C  6.08200 6.50600 28.28000
C  6.23100 6.39000 26.86100
C  7.04500 5.12100 26.68200
C  5.52000 7.63500 29.19800
C  5.72000 7.35000 25.77400
O  6.13400 7.24700 24.58100
C  4.79900 8.40000 26.18700
N  8.83300 2.71800 26.11200
C  8.18300 3.48400 25.19400
C  8.72100 3.27500 23.72400
C  9.66000 2.01700 23.89500
C  9.60800 1.77400 25.43600
C  7.50400 3.12400 22.69400
C  11.00800 2.15200 23.22700
C  12.06900 3.04000 23.88700
N  9.77600 1.39800 28.34000
C  10.44100 0.56400 27.36400
C  11.40200 -0.36800 28.01000
C  11.20000 -0.00800 29.39700
C  10.21600 0.99800 29.50900
C  12.30100 -1.38300 27.40100
C  11.62400 -0.39100 30.78100
O  12.39400 -1.26500 31.15400
C  10.89300 0.67100 31.76500
C  10.14400 -0.22200 32.71400
O  9.26100 -0.95100 32.31500
O  10.46400 0.05200 33.98500
C  9.58700 -0.68300 34.93900
H  6.63900 5.93000 31.01100
H  7.27100 5.26300 24.53900
H  10.79100 0.08000 25.34800
H  8.47400 2.13500 33.19300
H  7.92800 4.99800 32.78300
H  6.34200 2.66800 33.64500
H  5.46900 3.60500 32.39700
H  5.94400 4.34400 33.96600
H  10.86900 3.85400 32.76100
H  10.48400 2.56900 33.88600
H  8.84000 4.61500 34.76500
H  10.43400 5.30900 34.49200
H  5.90800 8.62900 28.97400
H  5.86400 7.50200 30.22400
H  4.43500 7.69900 29.10800
H  5.42300 9.13800 26.69100
H  3.99700 8.02600 26.82400
H  4.35900 8.79900 25.27300
H  9.41700 4.08800 23.51900
H  9.18100 1.14500 23.45000
H  6.62700 3.11900 23.34100
H  7.56400 2.16100 22.18700
H  7.46700 3.94400 21.97700
H  10.91200 2.60400 22.24000
H  11.38200 1.15200 23.00900
H  11.84800 3.35100 24.90800
H  12.44500 3.87200 23.29100
H  12.92000 2.35900 23.90900
H  13.00700 -1.02500 26.65200
H  11.64000 -2.14400 26.98700
H  12.95700 -1.72300 28.20300
H  11.52100 1.24000 32.45000
H  10.36400 -1.33800 35.33300
H  8.85900 -1.39300 34.54700
H  9.14200 -0.04700 35.70400
Mg 26.11300 -0.09700 29.40100
C  27.71200 -0.46900 32.38400
C  23.10900 0.38200 31.16800
C  24.29800 -0.46100 26.54500
C  28.94000 -0.87400 27.72500
N  25.43300 -0.18700 31.55100
C  26.36000 -0.20100 32.58400
C  25.66900 0.09600 33.89000
C  24.12800 0.09600 33.44400
C  24.22300 0.16600 31.93800
C  23.30400 -1.13500 33.89100
C  26.15400 1.38900 34.51100
C  26.87400 1.30700 35.91000
H  26.26500 2.11700 37.08300
N  23.96300 -0.01300 28.91600
C  22.98200 0.13100 29.79200
C  21.69600 0.26500 29.08700
C  21.98700 0.04000 27.74800
C  23.47000 -0.11300 27.67500
C  20.43300 0.45600 29.88600
C  21.01500 -0.23500 26.55200
O  21.42400 -0.40300 25.41800
C  19.54400 -0.11700 26.82900
N  26.60900 -0.45200 27.37300
C  25.71100 -0.53100 26.39000
C  26.26400 -0.81700 25.04000
C  27.77800 -0.79900 25.34400
C  27.82900 -0.64700 26.90300
C  25.79900 -2.02900 24.20500
C  28.72200 0.28500 24.72700
C  29.03500 0.17800 23.20400
N  27.99800 -0.60200 29.87000
C  29.10200 -0.80000 29.12300
C  30.21500 -0.93100 29.91400
C  29.78900 -0.81400 31.22900
C  28.37700 -0.59800 31.11000
C  31.66300 -0.93400 29.40300
C  30.20800 -0.67300 32.63100
O  31.28600 -0.71500 33.10600
C  28.86100 -0.45700 33.44900
C  28.74900 -1.54200 34.42400
O  28.01300 -2.54200 34.22100
O  29.39900 -1.27500 35.60600
C  29.01100 -2.11600 36.72000
H  22.24500 0.70700 31.75200
H  23.75600 -0.60700 25.60900
H  29.79700 -1.14300 27.10400
H  25.93100 -0.76000 34.51300
H  23.62400 1.03000 33.69300
H  22.73800 -1.54900 33.05700
H  22.60100 -0.87300 34.68200
H  23.99500 -1.83000 34.37000
H  25.28400 2.02000 34.69700
H  26.85000 1.85500 33.81400
H  27.90600 1.63000 35.77600
H  26.97200 0.25100 36.16200
H  20.08700 1.46700 30.09700
H  20.43900 -0.20100 30.75500
H  19.58000 0.05900 29.33600
H  19.13200 -0.94700 27.40300
H  18.94900 -0.09000 25.91600
H  19.26700 0.77000 27.39800
H  26.03000 0.13700 24.56700
H  28.24600 -1.74000 25.05500
H  24.94200 -2.55800 24.62400
H  26.50400 -2.81200 23.92700
H  25.37600 -1.62800 23.28400
H  29.64400 0.15900 25.29600
H  28.20300 1.20600 24.99300
H  28.66900 1.05300 22.66600
H  28.57700 -0.72400 22.79700
H  30.09500 0.07900 22.96900
H  32.25300 -0.24200 30.00500
H  31.67800 -0.64200 28.35300
H  32.08500 -1.93300 29.51500
H  28.97700 0.47800 33.99700
H  29.80500 -2.22800 37.45900
H  28.78500 -3.13200 36.39600
H  28.23200 -1.52900 37.20500

