158

Mg 7.90600 3.85500 27.14500
C  9.48500 2.30600 29.88600
C  5.89300 5.52300 29.34800
C  6.62700 5.45800 24.63000
C  9.83700 1.86800 25.06200
N  7.76700 3.88200 29.39500
C  8.46400 3.19600 30.26400
C  8.06000 3.51700 31.73800
C  6.79800 4.40100 31.48100
C  6.79200 4.62300 29.95500
C  5.44200 3.70500 31.85800
C  9.07500 4.16400 32.61200
C  8.62500 4.93000 33.87100
H  9.63000 5.16700 34.99100
N  6.47700 5.35500 27.01400
C  5.79600 5.98400 28.02800
C  4.86800 6.94800 27.49800
C  5.18200 7.03400 26.12600
C  6.07400 5.93100 25.80700
C  3.93100 7.72700 28.40500
C  4.64800 7.91600 25.08100
O  4.86500 7.82700 23.88100
C  3.79200 8.96000 25.52400
N  8.05200 3.57400 25.16500
C  7.45400 4.36700 24.29000
C  7.68000 3.91800 22.85700
C  8.94200 2.94900 23.05100
C  8.99900 2.76900 24.51100
C  6.53500 3.43900 21.88800
C  10.27900 3.46700 22.40600
C  11.28500 4.19800 23.36600
N  9.33800 2.30900 27.32500
C  9.99700 1.58500 26.42300
C  10.74800 0.56000 27.03200
C  10.65200 0.85500 28.43900
C  9.78700 1.95300 28.55100
C  11.62900 -0.51100 26.48900
C  11.10600 0.48800 29.78900
O  11.87100 -0.30700 30.23300
C  10.38900 1.45100 30.71900
C  9.73400 0.52400 31.67100
O  8.72300 -0.12900 31.49800
O  10.42500 0.48500 32.82000
C  9.74600 -0.06500 34.01000
H  5.27800 6.10100 30.04200
H  6.34700 6.01100 23.73100
H  10.47300 1.28500 24.39300
H  7.76300 2.54100 32.12000
H  6.88900 5.35700 31.99700
H  5.56200 2.68400 32.22100
H  4.64200 3.75300 31.11900
H  5.06800 4.31300 32.68200
H  9.64600 4.83200 31.96800
H  9.85500 3.49800 32.98100
H  7.89400 4.25000 34.30800
H  8.19900 5.91700 33.68800
H  4.31800 8.74300 28.47200
H  3.65600 7.33600 29.38500
H  2.96000 7.78100 27.91200
H  2.76600 8.60400 25.61900
H  3.75700 9.65700 24.68600
H  4.37000 9.39300 26.34000
H  8.08200 4.83100 22.41700
H  8.82500 1.94600 22.64100
H  5.60800 3.33900 22.45200
H  6.78500 2.46200 21.47200
H  6.42800 4.20700 21.12200
H  10.13000 4.14800 21.56900
H  10.75500 2.54900 22.06200
H  12.34100 3.92600 23.39400
H  11.08300 4.23200 24.43700
H  11.32400 5.26200 23.13100
H  11.38300 -0.67600 25.44000
H  11.51300 -1.44800 27.03500
H  12.70800 -0.37300 26.42000
H  11.21000 1.97100 31.21100
H  9.40500 0.79400 34.58900
H  10.53800 -0.52000 34.60400
H  8.90600 -0.74800 33.88400
Mg 24.51800 -4.77500 46.55600
C  26.43500 -2.49600 44.87900
C  22.19100 -4.42900 44.06400
C  22.84900 -7.48800 47.88300
C  27.49500 -5.85500 48.42400
N  24.24800 -3.49100 44.75900
C  25.16000 -2.53600 44.32500
C  24.69600 -1.86600 43.00600
C  23.17600 -2.36100 42.94900
C  23.17200 -3.49700 43.96200
C  22.12000 -1.25400 43.36300
C  25.54600 -2.32600 41.76200
C  26.24600 -1.17300 41.03100
H  25.74900 -1.07400 39.58000
N  22.73500 -5.71700 46.16300
C  21.92100 -5.44800 45.05500
C  20.81700 -6.31500 45.01200
C  20.87400 -7.01100 46.25900
C  22.20700 -6.75800 46.88300
C  19.68500 -6.16700 43.99100
C  19.71800 -7.92300 46.75700
O  18.69300 -8.02000 46.11500
C  19.79700 -8.62000 47.99700
N  25.04800 -6.44400 47.96900
C  24.14500 -7.35000 48.40300
C  24.87500 -8.33700 49.32200
C  26.40100 -7.96800 49.37200
C  26.30400 -6.65900 48.62400
C  24.26400 -8.49800 50.77500
C  27.39700 -9.02800 48.75700
C  28.51600 -9.44700 49.77200
N  26.53100 -4.15200 46.88300
C  27.61200 -4.72400 47.58100
C  28.79000 -3.98200 47.21100
C  28.40100 -3.12000 46.17400
C  27.04600 -3.33000 45.95500
C  30.10900 -4.14000 47.79400
C  28.86800 -2.10000 45.27600
O  29.91100 -1.40800 45.19900
C  27.66000 -1.64400 44.35200
C  27.49200 -0.15800 44.63600
O  26.86400 0.29800 45.58300
O  28.20100 0.54000 43.76000
C  28.06100 1.97600 43.84900
H  21.43500 -4.23200 43.30100
H  22.30800 -8.35900 48.25700
H  28.38400 -6.25100 48.92100
H  24.65600 -0.78300 43.11400
H  22.81200 -2.77200 42.00700
H  22.60000 -0.41600 43.86700
H  21.41800 -1.55500 44.14100
H  21.47300 -0.98300 42.52800
H  24.97300 -2.89100 41.02700
H  26.39100 -2.89500 42.15100
H  27.31300 -1.39500 41.03100
H  26.04600 -0.19300 41.46600
H  19.99200 -5.78500 43.01800
H  18.81000 -5.70400 44.44800
H  19.34400 -7.14300 43.64500
H  20.17000 -7.91100 48.73500
H  20.29900 -9.58400 47.90900
H  18.79300 -8.78300 48.39000
H  24.84400 -9.33500 48.88300
H  26.50300 -7.83100 50.44900
H  24.77000 -7.91300 51.54400
H  24.29000 -9.56100 51.01300
H  23.21500 -8.27300 50.58600
H  27.91500 -8.62700 47.88600
H  26.96000 -9.91800 48.30400
H  29.46300 -9.84600 49.41000
H  27.99400 -9.96600 50.57500
H  28.76800 -8.48400 50.21600
H  30.01300 -4.28400 48.87000
H  30.75100 -3.26700 47.67800
H  30.61500 -5.01800 47.39200
H  27.82000 -1.82900 43.29000
H  28.23700 2.33900 42.83600
H  28.84800 2.39400 44.47700
H  27.07200 2.30800 44.16700

