158

Mg 8.24400 3.97600 27.83200
C  9.46300 2.61000 30.76100
C  6.40300 6.18100 29.66300
C  6.85500 4.94800 24.95500
C  9.66700 1.16800 26.12800
N  7.84700 4.17700 30.06600
C  8.63200 3.70000 31.06800
C  8.44700 4.44200 32.39400
C  7.29800 5.48200 32.00200
C  7.19800 5.32500 30.45700
C  5.95300 5.39400 32.75200
C  9.73200 5.09600 33.06900
C  10.22300 4.51000 34.43200
H  10.49100 5.52500 35.62800
N  6.77800 5.37300 27.40900
C  6.18900 6.24300 28.33100
C  5.23400 7.14700 27.51200
C  5.43700 6.81500 26.14700
C  6.39500 5.65600 26.07700
C  4.25100 8.12600 28.08400
C  4.78500 7.48400 24.91500
O  4.92200 7.04700 23.77600
C  4.07500 8.82100 24.96100
N  8.09800 3.08900 25.95500
C  7.60900 3.79900 24.86900
C  8.01100 3.13000 23.55700
C  8.63300 1.81600 23.97000
C  8.77000 1.97200 25.46200
C  6.80500 2.95900 22.60900
C  9.88800 1.52100 23.11100
C  9.74400 0.84000 21.73800
N  9.48700 2.30600 28.25700
C  10.03800 1.30500 27.49300
C  10.86100 0.43500 28.23700
C  10.67600 0.83200 29.58400
C  9.78900 1.99200 29.52100
C  11.37000 -0.89800 27.70400
C  10.89700 0.61300 31.01100
O  11.62300 -0.22600 31.51800
C  10.19200 1.83700 31.80500
C  9.38400 1.31400 32.90500
O  8.20400 1.01300 32.90800
O  10.13500 1.32600 34.04300
C  9.46600 0.89300 35.25400
H  5.88800 6.94200 30.25200
H  6.51600 5.34600 23.99600
H  10.05900 0.39900 25.46000
H  8.06900 3.70600 33.10400
H  7.60700 6.49900 32.24700
H  5.89200 6.12900 33.55400
H  5.65600 4.41000 33.11500
H  5.14600 5.69400 32.08400
H  9.42000 6.11300 33.30500
H  10.53700 4.91000 32.35800
H  11.20200 4.05800 34.27100
H  9.53500 3.80800 34.90300
H  4.32200 8.11900 29.17200
H  3.31300 7.78700 27.64400
H  4.40800 9.14100 27.71900
H  4.61300 9.62200 25.46700
H  3.16800 8.60000 25.52400
H  3.94500 9.25300 23.96900
H  8.64500 3.89900 23.11400
H  7.90000 1.02400 23.81900
H  5.88700 3.15100 23.16400
H  6.71200 1.94300 22.22600
H  6.98900 3.56600 21.72200
H  10.55100 0.83000 23.63200
H  10.50300 2.40300 22.93400
H  10.28600 -0.10200 21.65800
H  10.14200 1.49900 20.96600
H  8.69200 0.59800 21.58900
H  12.45600 -0.86300 27.61400
H  11.00500 -1.02500 26.68400
H  11.03000 -1.60700 28.45900
H  11.06300 2.36400 32.19400
H  8.94400 -0.05500 35.12700
H  8.77800 1.69200 35.53200
H  10.17200 0.80800 36.08000
Mg 16.43300 -1.36000 28.53800
C  15.76400 0.93600 31.08300
C  18.39800 -3.12600 30.51900
C  17.50400 -3.02900 25.79300
C  14.94600 1.10600 26.25700
N  16.86800 -1.16200 30.55100
C  16.57000 -0.10000 31.46200
C  17.04600 -0.43600 32.86600
C  18.18000 -1.49900 32.55500
C  17.78200 -1.99700 31.12500
C  19.71500 -1.04800 32.63800
C  15.94400 -0.99900 33.81200
C  15.68800 -0.34200 35.14300
H  16.92700 0.35600 35.82800
N  17.61900 -2.99900 28.26200
C  18.28800 -3.67300 29.22400
C  18.89200 -4.90100 28.68000
C  18.72100 -4.79000 27.27800
C  17.87700 -3.56300 27.00800
C  19.80600 -5.77300 29.52500
C  19.37500 -5.64800 26.18200
O  19.26900 -5.47500 24.98600
C  20.20700 -6.81100 26.56700
N  16.15000 -1.11600 26.42000
C  16.81400 -1.84000 25.50900
C  16.54400 -1.35300 24.06900
C  15.46400 -0.26200 24.22500
C  15.48300 -0.05200 25.73700
C  17.82700 -0.84800 23.38000
C  14.13400 -0.65900 23.55200
C  13.50600 0.55900 22.79600
N  15.27900 0.53700 28.58200
C  14.80700 1.43300 27.68900
C  14.08700 2.42200 28.32900
C  14.44400 2.29300 29.66400
C  15.23900 1.11500 29.79000
C  13.18300 3.44500 27.58700
C  14.17000 2.82200 30.96000
O  13.46900 3.74800 31.31700
C  15.14200 2.05700 31.90300
C  16.14100 3.10300 32.37000
O  17.31100 3.16100 32.03200
O  15.52000 3.96500 33.32800
C  16.34100 5.04200 33.86400
H  19.00900 -3.67700 31.23700
H  17.83900 -3.59300 24.92000
H  14.53000 1.80900 25.53200
H  17.43800 0.53400 33.17100
H  18.01000 -2.30000 33.27400
H  19.97700 -0.90200 31.59000
H  20.24300 -1.82000 33.19800
H  19.79500 -0.01700 32.98300
H  16.01500 -2.07000 34.00300
H  15.09100 -0.81600 33.15900
H  15.09300 -0.96900 35.80700
H  15.02300 0.47600 34.86700
H  19.67300 -5.57800 30.59000
H  20.83000 -5.55800 29.22000
H  19.63400 -6.79600 29.19300
H  20.75000 -7.10300 25.66800
H  19.56200 -7.60400 26.94400
H  20.99400 -6.44700 27.22800
H  16.20900 -2.18600 23.45200
H  15.74100 0.68900 23.77100
H  17.84600 0.22100 23.16700
H  18.01100 -1.39300 22.45400
H  18.66400 -1.10700 24.02900
H  13.49800 -0.80500 24.42500
H  14.23700 -1.52600 22.89900
H  14.15700 1.31700 22.36000
H  12.84500 1.01600 23.53200
H  12.90600 0.21000 21.95600
H  13.36000 4.47800 27.88500
H  12.20100 3.26200 28.02400
H  13.23400 3.27100 26.51300
H  14.58200 1.72300 32.77600
H  16.46500 5.81500 33.10600
H  17.32400 4.62400 34.08400
H  16.05900 5.36200 34.86700

