158

Mg 35.24700 2.53500 29.63300
C  32.94300 3.59000 32.10500
C  37.55800 2.42900 32.14000
C  37.52000 2.38400 27.26700
C  32.62900 2.62600 27.27100
N  35.24000 3.03800 31.90000
C  34.18800 3.35600 32.70400
C  34.61100 3.31800 34.24100
C  36.17700 3.07200 34.13700
C  36.31200 2.77000 32.63500
C  37.19500 4.24500 34.65100
C  33.84700 2.16300 34.96900
C  33.71400 2.38800 36.39300
H  34.51000 3.60500 37.00700
N  37.20900 2.28100 29.66600
C  38.04500 2.27500 30.81900
C  39.45500 2.03900 30.37400
C  39.37100 2.06300 28.96200
C  37.99300 2.23300 28.56900
C  40.65200 1.71900 31.30200
C  40.52600 1.84300 28.02800
O  40.39400 1.78600 26.81300
C  42.00200 1.84700 28.52900
N  35.06000 2.32700 27.55200
C  36.15300 2.25700 26.80000
C  35.69800 2.29100 25.31800
C  34.16500 1.91200 25.40700
C  33.92900 2.29300 26.82100
C  35.91400 3.71700 24.61100
C  33.85600 0.44900 25.03800
C  32.66800 -0.22000 25.73900
N  33.24600 2.97300 29.59300
C  32.31500 3.01500 28.59600
C  31.01900 3.52000 29.15800
C  31.24500 3.72600 30.48900
C  32.59600 3.34800 30.77700
C  29.72000 3.67600 28.43000
C  30.62100 4.13300 31.81700
O  29.47500 4.51800 32.09200
C  31.66100 3.98100 32.88600
C  31.85600 5.21700 33.65600
O  32.33000 6.24400 33.28000
O  31.24700 5.07100 34.88200
C  31.34100 6.20300 35.81400
H  38.31000 2.42600 32.93200
H  38.25700 2.31600 26.46400
H  31.71800 2.64200 26.67000
H  34.38400 4.32900 34.58100
H  36.50200 2.24600 34.76900
H  37.40400 4.78800 33.73000
H  38.14100 3.79700 34.95500
H  36.78400 4.87900 35.43600
H  34.40700 1.23000 34.91000
H  32.89200 1.96800 34.48000
H  34.06700 1.49200 36.90300
H  32.65700 2.49000 36.63800
H  40.43100 1.71000 32.37000
H  41.41700 2.45800 31.06400
H  41.11500 0.78300 30.99000
H  42.33500 2.71400 29.09900
H  42.67400 1.99400 27.68300
H  42.28900 0.89700 28.97900
H  36.17800 1.47400 24.77800
H  33.61100 2.64900 24.82600
H  36.40100 3.56900 23.64700
H  36.63600 4.34500 25.13200
H  34.98800 4.29000 24.55900
H  34.73100 -0.10800 25.37400
H  33.65400 0.41800 23.96800
H  32.07400 0.60300 26.13600
H  33.04500 -0.99000 26.41100
H  32.05000 -0.81100 25.06300
H  29.78300 3.57200 27.34700
H  29.38700 4.70200 28.58600
H  28.93200 3.01900 28.79700
H  31.34200 3.20900 33.58600
H  32.38000 6.53300 35.83900
H  31.01500 6.02400 36.83800
H  30.86100 7.09500 35.41100
Mg 30.10000 57.60700 40.53000
C  27.08500 56.16800 39.44900
C  31.79500 55.01800 39.08700
C  32.77700 59.72600 40.26200
C  28.18200 60.54700 41.44200
N  29.46600 55.92200 39.35100
C  28.19200 55.41300 39.11900
C  28.23500 54.06600 38.42600
C  29.75700 53.71100 38.51100
C  30.35100 54.90700 39.06200
C  30.03300 52.47000 39.52800
C  27.64100 54.10100 36.95200
C  27.96700 55.35600 36.15600
H  27.92600 55.26900 34.62100
N  32.02300 57.37200 39.81400
C  32.51500 56.24500 39.33200
C  33.90400 56.49700 39.14800
C  34.23500 57.83600 39.34000
C  33.01700 58.43300 39.80300
C  34.80700 55.37100 38.70000
C  35.64900 58.49200 39.16300
O  36.58300 57.89700 38.62900
C  35.90200 59.97800 39.64500
N  30.53500 59.70700 41.20200
C  31.73700 60.27900 40.98900
C  31.67100 61.78800 41.24300
C  30.18400 62.05100 41.63600
C  29.58400 60.63300 41.39900
C  32.75400 62.32300 42.22500
C  29.56700 63.16700 40.81200
C  28.86900 64.21800 41.65400
N  28.11600 58.12700 40.78400
C  27.47800 59.35100 41.13900
C  26.05700 59.20900 41.00000
C  25.82500 57.96200 40.39500
C  27.12000 57.35000 40.20800
C  24.96200 60.15600 41.35300
C  24.80800 57.08200 39.83800
O  23.58600 57.11300 39.86100
C  25.65700 55.87800 39.21400
C  25.16800 54.59300 39.81600
O  25.22900 54.33800 40.98600
O  24.52100 53.81300 38.93700
C  23.92100 52.61100 39.49900
H  32.39200 54.17700 38.72800
H  33.63700 60.39000 40.14700
H  27.56900 61.38900 41.77100
H  27.59000 53.36700 38.95800
H  30.11600 53.51800 37.50000
H  30.82200 52.81600 40.19600
H  30.24200 51.68000 38.80700
H  29.22200 52.11800 40.16600
H  26.60000 53.78300 37.01800
H  28.13200 53.25800 36.46600
H  28.96900 55.73900 36.35100
H  27.23400 56.12900 36.38800
H  35.51900 55.65900 37.92600
H  34.36800 54.40200 38.46600
H  35.48400 55.13900 39.52200
H  35.39700 60.63100 38.93300
H  36.96300 60.20300 39.53400
H  35.64000 60.10600 40.69500
H  31.97600 62.28000 40.32000
H  30.05300 62.33400 42.68000
H  33.45700 63.01100 41.75500
H  33.33400 61.51500 42.67000
H  32.36700 62.93500 43.04000
H  28.79100 62.86700 40.10700
H  30.29700 63.66000 40.17000
H  29.10300 64.15500 42.71700
H  27.80000 64.18100 41.44600
H  29.29800 65.18600 41.39300
H  25.36500 60.90400 42.03600
H  24.15500 59.61100 41.84200
H  24.59600 60.64300 40.44900
H  25.50700 55.88000 38.13500
H  23.69300 51.96000 38.65500
H  22.96600 52.73500 40.01000
H  24.55400 52.05000 40.18700

