158

Mg -1.80000 17.40600 26.20800
C  -2.29900 15.16000 28.93600
C  -2.30800 19.99600 28.37800
C  -1.68500 19.49000 23.59400
C  -1.86200 14.51300 24.02900
N  -2.33100 17.54400 28.35000
C  -2.39200 16.54500 29.26000
C  -2.85300 17.03200 30.65300
C  -2.99800 18.56000 30.40100
C  -2.54100 18.75100 28.90800
C  -4.39500 19.07000 30.88600
C  -1.82700 16.79700 31.78900
C  -2.41200 16.30800 33.12600
H  -1.48200 15.72200 34.10800
N  -1.83400 19.53400 26.01300
C  -2.02600 20.36800 27.07700
C  -2.11300 21.72500 26.54800
C  -1.97100 21.65100 25.15500
C  -1.84700 20.20700 24.84800
C  -2.45100 22.95100 27.39100
C  -1.96300 22.84800 24.04200
O  -1.86200 22.62000 22.83300
C  -2.11100 24.25800 24.44700
N  -1.83900 16.99700 24.09900
C  -1.76300 18.06500 23.27400
C  -1.88100 17.64400 21.82300
C  -1.69200 16.07600 21.95500
C  -1.78600 15.81100 23.44700
C  -3.23700 18.11400 21.30700
C  -0.49200 15.56900 21.15100
C  0.78800 15.25000 21.95800
N  -2.06700 15.26700 26.37000
C  -1.98600 14.24300 25.42400
C  -2.07200 12.96800 26.08300
C  -2.07800 13.28800 27.47800
C  -2.08100 14.68400 27.57600
C  -2.02500 11.67300 25.40500
C  -2.18000 12.72400 28.78900
O  -2.16500 11.50600 29.10200
C  -2.43900 13.90700 29.75000
C  -1.62100 13.60600 30.88100
O  -0.40300 13.79100 30.95200
O  -2.39700 12.98800 31.84200
C  -1.55700 12.41500 32.90500
H  -2.51200 20.69100 29.19500
H  -1.62300 20.08400 22.67900
H  -1.84800 13.65700 23.35000
H  -3.76900 16.46300 30.80900
H  -2.26500 19.21800 30.86600
H  -4.26400 20.08400 31.26400
H  -4.67200 18.36200 31.66700
H  -5.00100 19.03400 29.98100
H  -1.32900 17.72000 32.08300
H  -0.99700 16.18300 31.43900
H  -3.18100 15.58100 32.86500
H  -2.93600 17.17800 33.52000
H  -1.67200 23.71300 27.44200
H  -2.84200 22.63400 28.35700
H  -3.35400 23.37100 26.94700
H  -2.12600 25.04400 23.69300
H  -1.26200 24.48100 25.09400
H  -2.97200 24.32700 25.11300
H  -1.09000 18.07600 21.21000
H  -2.55100 15.52400 21.57300
H  -3.04700 18.79500 20.47700
H  -3.84300 18.69700 22.00100
H  -3.79100 17.24700 20.94900
H  -0.21600 16.29900 20.39000
H  -0.63800 14.57000 20.74000
H  1.59500 15.75200 21.42600
H  0.99200 14.18200 22.02700
H  0.66200 15.56500 22.99400
H  -3.06800 11.38200 25.27700
H  -1.60100 10.91000 26.05700
H  -1.51800 11.71400 24.44100
H  -3.51500 13.91600 29.92100
H  -1.51300 13.08700 33.76200
H  -0.56600 12.16600 32.52400
H  -1.96000 11.46200 33.24600
Mg 29.90000 58.21600 40.10700
C  27.05900 56.17200 39.68000
C  31.87600 55.56600 39.17600
C  32.68200 60.28500 39.85800
C  27.91100 61.02600 40.15500
N  29.48500 56.03900 39.80300
C  28.24200 55.44800 39.59400
C  28.44000 53.99800 39.01200
C  30.02200 53.81800 39.27500
C  30.48100 55.25500 39.27700
C  30.42000 53.19900 40.65100
C  28.16500 53.98800 37.50200
C  28.20900 55.32800 36.68000
H  27.42700 55.41100 35.37600
N  31.99400 57.95400 39.71600
C  32.58800 56.79300 39.36900
C  33.97700 56.98900 39.34500
C  34.28000 58.33700 39.59900
C  32.93800 58.93100 39.76300
C  35.04200 55.86700 39.24700
C  35.72900 58.93200 39.61400
O  36.69900 58.22200 39.41300
C  35.90300 60.38100 40.12400
N  30.26700 60.27400 40.05500
C  31.48600 60.91800 39.95200
C  31.40800 62.43100 39.82500
C  29.81100 62.67800 40.07000
C  29.30500 61.27600 40.07700
C  32.29500 63.19800 40.85500
C  29.05200 63.70600 39.15300
C  28.47700 64.95200 39.91300
N  27.86600 58.52100 40.14800
C  27.19200 59.77400 40.11200
C  25.78300 59.56300 39.96400
C  25.67500 58.17000 39.73600
C  26.97400 57.59600 39.93600
C  24.72700 60.57900 39.91100
C  24.76300 57.05900 39.48000
O  23.55200 56.98200 39.28900
C  25.65100 55.79200 39.32300
C  25.08800 54.66600 40.11000
O  24.89700 54.78300 41.29800
O  24.86400 53.57600 39.35600
C  24.24100 52.38700 40.00400
H  32.45700 54.67600 38.92700
H  33.46400 61.04500 39.79500
H  27.37400 61.97600 40.17000
H  27.85200 53.23900 39.52800
H  30.58600 53.29300 38.50400
H  29.48600 52.77500 41.01900
H  30.80400 53.97700 41.31000
H  31.14500 52.39300 40.53500
H  27.18100 53.52700 37.41500
H  28.98000 53.44500 37.02400
H  29.27600 55.44100 36.48700
H  27.98600 56.22400 37.25800
H  35.63000 56.17100 38.38100
H  34.64600 54.92400 38.86800
H  35.74200 55.66100 40.05600
H  35.79200 61.04500 39.26800
H  36.87400 60.61600 40.55900
H  35.14600 60.51700 40.89700
H  31.69800 62.77900 38.83400
H  29.67600 62.99300 41.10500
H  31.64900 63.67100 41.59500
H  32.90800 63.92200 40.31800
H  32.88000 62.51400 41.47100
H  28.25400 63.31400 38.52200
H  29.82100 64.07600 38.47400
H  29.20300 65.73000 39.67700
H  28.40900 64.69800 40.97100
H  27.51000 65.19200 39.47300
H  24.61300 61.03200 40.89600
H  23.81100 60.07400 39.60600
H  25.05600 61.31300 39.17500
H  25.62600 55.53000 38.26500
H  24.58200 51.49000 39.48700
H  23.15300 52.43600 39.94900
H  24.38300 52.43400 41.08400

