158

Mg 0.76600 -1.93000 44.45400
C  4.34900 -1.39700 43.99400
C  0.40300 0.91900 42.47200
C  -2.34600 -2.77700 44.27000
C  1.56400 -4.94600 45.95900
N  2.29500 -0.40000 43.46200
C  3.66000 -0.48000 43.32900
C  4.20300 0.64600 42.45600
C  2.88900 1.41800 42.04800
C  1.74900 0.62600 42.68100
C  2.88300 2.96900 42.38400
C  5.13800 -0.01000 41.31500
C  6.56000 0.66100 41.11300
H  6.91100 0.73000 39.56500
N  -0.76200 -1.04800 43.45000
C  -0.71600 0.10300 42.77100
C  -2.09100 0.48400 42.46000
C  -2.93400 -0.61200 42.83000
C  -2.08600 -1.57800 43.53000
C  -2.44300 1.82200 41.68100
C  -4.45300 -0.62600 42.68000
O  -4.98500 0.33500 42.13900
C  -5.29800 -1.72800 43.13400
N  -0.23800 -3.75600 44.91600
C  -1.55800 -3.67500 44.93800
C  -2.12700 -5.03400 45.46200
C  -0.81700 -5.84600 45.85800
C  0.22900 -4.79000 45.64900
C  -3.15600 -4.79000 46.59800
C  -0.54700 -7.19100 44.99300
C  -0.31200 -8.44000 45.86700
N  2.52100 -2.87000 45.05600
C  2.70900 -4.06700 45.75900
C  4.09700 -4.46300 45.86400
C  4.75100 -3.42100 45.14900
C  3.77100 -2.45000 44.67800
C  4.71300 -5.53300 46.53900
C  6.06400 -2.89100 44.79100
O  7.08700 -3.46500 45.04300
C  5.83400 -1.53200 44.11700
C  6.49100 -0.42000 44.96100
O  6.53700 -0.35400 46.14600
O  7.20100 0.43800 44.09700
C  7.95500 1.40300 44.78500
H  0.38100 1.75600 41.77200
H  -3.40000 -3.05700 44.30600
H  1.72700 -5.90900 46.44800
H  4.78900 1.18100 43.20300
H  2.80400 1.50700 40.96500
H  2.13000 3.07100 43.16600
H  2.77000 3.43600 41.40600
H  3.84300 3.21200 42.84000
H  4.53000 0.07300 40.41400
H  5.31000 -1.08600 41.29700
H  7.26700 0.10300 41.72600
H  6.53300 1.65600 41.55700
H  -1.57900 2.31100 41.23000
H  -3.03500 2.56500 42.21400
H  -2.99300 1.53400 40.78500
H  -5.28300 -1.83300 44.21800
H  -5.10100 -2.73900 42.77800
H  -6.31600 -1.50500 42.81600
H  -2.62300 -5.53400 44.63000
H  -0.69600 -6.10600 46.91000
H  -3.50400 -3.75700 46.58800
H  -2.72500 -4.93900 47.58800
H  -3.96700 -5.50300 46.44400
H  0.36400 -7.01400 44.42200
H  -1.37700 -7.45300 44.33600
H  0.41700 -9.03800 45.32000
H  -1.26700 -8.93500 46.04000
H  0.15500 -8.18200 46.81700
H  5.51100 -5.99200 45.95500
H  4.00900 -6.21700 47.01400
H  5.27900 -5.09600 47.36200
H  6.30700 -1.58700 43.13700
H  8.86600 0.87300 45.06300
H  7.56000 1.94900 45.64200
H  8.18800 2.14600 44.02200
Mg -2.23100 34.03100 28.22500
C  -4.21300 32.55900 30.63900
C  -1.01400 36.18000 30.78700
C  -0.53000 35.63600 25.86100
C  -3.58700 31.87100 25.77600
N  -2.71700 34.38100 30.33500
C  -3.42200 33.52900 31.21800
C  -3.27000 33.94300 32.63500
C  -2.64600 35.31200 32.61000
C  -2.09600 35.31900 31.14400
C  -3.59200 36.46300 32.84600
C  -2.58300 32.90700 33.50400
C  -3.41800 32.25000 34.54500
H  -3.13900 32.53800 36.00100
N  -0.89000 35.65300 28.28400
C  -0.45800 36.33100 29.47100
C  0.64800 37.18100 29.08000
C  0.68500 37.22900 27.64700
C  -0.25800 36.14100 27.18000
C  1.31100 38.05700 30.09100
C  1.52800 38.02000 26.73600
O  1.51000 37.98400 25.48700
C  2.46200 39.03800 27.33000
N  -2.19600 33.83000 26.08800
C  -1.36900 34.61700 25.39000
C  -1.38600 34.21600 23.92500
C  -2.12100 32.82300 23.93900
C  -2.63800 32.78500 25.35500
C  -1.96000 35.28000 22.86500
C  -1.07900 31.62900 23.66800
C  0.43200 31.93200 24.03500
N  -3.60200 32.49600 28.22800
C  -4.05500 31.72900 27.13900
C  -5.12300 30.82800 27.62300
C  -5.21400 31.11500 29.01800
C  -4.28500 32.17200 29.30900
C  -5.90100 29.91200 26.83700
C  -5.88000 30.77700 30.29600
O  -6.81200 30.08800 30.55600
C  -5.16700 31.56600 31.36100
C  -6.24700 32.34700 32.10200
O  -6.53800 33.53400 31.88100
O  -6.79600 31.60400 33.13200
C  -7.73500 32.36100 34.03100
H  -0.60800 36.77800 31.60500
H  0.15000 35.95100 25.06700
H  -3.94100 31.21300 24.98000
H  -4.29600 34.03900 32.99100
H  -1.78700 35.45300 33.26600
H  -3.49600 37.29000 32.14200
H  -3.50300 36.86900 33.85400
H  -4.60200 36.07100 32.72600
H  -1.63100 33.27800 33.88500
H  -2.19200 32.26300 32.71600
H  -3.56500 31.17200 34.48300
H  -4.47400 32.43100 34.34400
H  0.78100 38.09700 31.04300
H  1.35000 39.10300 29.79000
H  2.31000 37.63800 30.21700
H  3.16400 39.37600 26.56700
H  2.97900 38.36600 28.01500
H  1.98100 39.88100 27.82500
H  -0.35600 34.15300 23.57600
H  -2.91800 32.74400 23.20000
H  -2.72200 35.94800 23.26500
H  -2.32100 34.62400 22.07200
H  -1.11100 35.78500 22.40600
H  -1.20000 31.35000 22.62100
H  -1.36100 30.76100 24.26400
H  1.00700 31.03800 24.27600
H  0.36800 32.56400 24.92100
H  0.88300 32.41200 23.16700
H  -6.16900 29.02700 27.41500
H  -5.41700 29.54600 25.93200
H  -6.78300 30.43400 26.46600
H  -4.57000 30.96900 32.05000
H  -7.23900 33.15600 34.58600
H  -8.14100 31.61800 34.71800
H  -8.54500 32.83300 33.47500

