158

Mg 54.38700 24.04100 44.90000
C  51.53100 26.11600 44.17500
C  52.32800 21.32400 44.07200
C  57.02100 22.07800 44.60800
C  56.23200 26.90600 45.27800
N  52.20100 23.79400 44.10500
C  51.31600 24.73000 43.90900
C  50.03100 24.09800 43.44000
C  50.15700 22.55000 43.75100
C  51.66900 22.51100 44.06500
C  49.24700 22.02000 44.95300
C  49.75000 24.31900 41.94100
C  50.95200 24.25600 40.88600
H  51.93800 23.05800 40.75600
N  54.68400 21.88600 44.49100
C  53.69600 20.96500 44.26900
C  54.35800 19.66100 44.17000
C  55.72000 19.86300 44.59200
C  55.87000 21.32600 44.62500
C  53.64300 18.34000 43.81900
C  56.80900 18.77000 44.70500
O  56.56500 17.59900 44.46900
C  58.24200 19.10400 45.05100
N  56.32900 24.45800 44.69000
C  57.28400 23.47700 44.67200
C  58.66900 24.09000 45.04700
C  58.41000 25.62500 44.97000
C  56.89600 25.67600 44.99700
C  59.15400 23.61400 46.51300
C  58.97100 26.24000 43.71700
C  58.80500 25.58600 42.25700
N  53.98600 26.11800 44.69900
C  54.84700 27.13000 45.02200
C  54.09000 28.30300 45.25100
C  52.82100 27.97300 44.90400
C  52.77500 26.62800 44.57700
C  54.63400 29.58300 45.81800
C  51.41600 28.49700 44.70900
O  50.91500 29.62200 44.89300
C  50.56000 27.26300 44.21800
C  50.17800 27.58900 42.88500
O  50.92300 27.78600 41.91900
O  48.83000 27.88700 42.96200
C  48.37100 28.62400 41.74500
H  51.78200 20.42500 43.78200
H  57.93200 21.48300 44.52300
H  56.86100 27.75500 45.55300
H  49.11700 24.38300 43.96000
H  49.89900 22.02500 42.83200
H  48.72800 21.16800 44.51400
H  48.50200 22.71500 45.34200
H  49.88700 21.64900 45.75400
H  49.16900 25.23800 41.86500
H  49.00000 23.62500 41.56300
H  51.50300 25.14600 41.18900
H  50.65000 24.46100 39.85900
H  54.22000 17.68000 43.17100
H  52.65000 18.53300 43.41200
H  53.51300 17.89300 44.80400
H  58.72300 19.43300 44.13000
H  58.70900 18.12900 45.18500
H  58.39800 19.78800 45.88600
H  59.41500 23.71900 44.34300
H  58.79600 26.25100 45.77400
H  58.48800 22.79600 46.78800
H  59.07700 24.29100 47.36400
H  60.14800 23.18800 46.37900
H  59.98600 26.54800 43.96500
H  58.43100 27.17300 43.55500
H  58.06800 26.20000 41.73900
H  58.45000 24.55500 42.25800
H  59.77500 25.65400 41.76400
H  54.00000 30.41600 45.51200
H  55.66200 29.77500 45.51300
H  54.54600 29.57100 46.90500
H  49.61700 26.97700 44.68500
H  47.44600 29.18700 41.87100
H  48.21600 27.92500 40.92300
H  49.13900 29.26100 41.30800
Mg -1.95700 34.64500 27.03800
C  -3.64700 32.80000 29.38700
C  -0.59100 36.50800 29.53600
C  -1.01700 36.81000 24.64000
C  -3.88000 32.91900 24.53400
N  -2.16700 34.67400 29.18800
C  -2.82200 33.75000 29.95900
C  -2.60800 34.00800 31.47200
C  -1.70100 35.26200 31.45900
C  -1.39500 35.43500 29.88800
C  -2.10500 36.59500 32.13300
C  -1.88600 32.82900 32.31100
C  -2.62700 32.67500 33.69200
H  -1.72300 32.52000 34.88300
N  -0.85900 36.37500 27.02000
C  -0.35600 36.97000 28.20600
C  0.49300 38.11400 27.82600
C  0.35800 38.23600 26.39900
C  -0.60200 37.16400 25.94600
C  1.32200 38.93500 28.79000
C  1.01000 39.27500 25.49300
O  0.84300 39.24700 24.25700
C  1.88600 40.37300 25.90600
N  -2.48300 34.88800 24.88600
C  -1.86700 35.85400 24.08500
C  -2.31200 35.63800 22.58300
C  -3.16500 34.35400 22.69600
C  -3.13700 33.98100 24.13500
C  -3.01000 36.85900 22.05200
C  -2.86700 33.27700 21.59500
C  -3.99500 32.96000 20.54900
N  -3.38100 33.13700 26.92600
C  -3.96200 32.48800 25.89100
C  -4.78000 31.43900 26.33300
C  -4.70400 31.50100 27.71400
C  -3.81900 32.53400 28.03600
C  -5.38700 30.44300 25.43600
C  -5.15900 30.91200 28.91400
O  -5.97200 30.05300 29.14400
C  -4.44600 31.67300 30.07500
C  -5.42900 32.39600 30.92000
O  -6.06300 33.34300 30.51400
O  -5.59100 31.73200 32.18500
C  -6.59200 32.46300 33.08000
H  -0.19300 37.03400 30.40600
H  -0.55100 37.41300 23.85700
H  -4.40300 32.49200 23.67600
H  -3.55500 34.34700 31.89300
H  -0.74100 34.99700 31.90100
H  -2.60800 37.24800 31.42000
H  -1.16400 36.94700 32.55600
H  -2.68400 36.37900 33.03100
H  -0.81300 32.99000 32.42200
H  -1.98500 31.97000 31.64700
H  -3.13700 31.71400 33.62400
H  -3.35800 33.47300 33.81600
H  2.36600 38.83400 28.49500
H  1.18600 38.62500 29.82600
H  1.07600 39.99700 28.76600
H  1.29900 41.00500 26.57200
H  2.29200 40.87300 25.02700
H  2.69600 39.97800 26.51900
H  -1.41900 35.55600 21.96300
H  -4.21000 34.64800 22.59700
H  -2.94300 37.66200 22.78600
H  -4.06600 36.64300 21.89000
H  -2.55600 37.18100 21.11500
H  -2.61900 32.32100 22.05600
H  -1.96700 33.62900 21.09000
H  -4.46700 31.99700 20.74700
H  -3.57800 32.85000 19.54800
H  -4.63900 33.83200 20.66300
H  -4.71200 30.29400 24.59300
H  -6.34200 30.69400 24.97500
H  -5.56200 29.49800 25.94900
H  -3.80600 31.00900 30.65600
H  -7.33400 33.09500 32.59300
H  -6.01400 33.11400 33.73600
H  -7.12000 31.77800 33.74300

