158

Mg 46.82600 25.21900 28.29700
C  47.58900 27.47400 30.94300
C  46.01000 22.82700 30.63500
C  47.21300 22.81700 25.85800
C  48.02900 27.58300 26.17700
N  46.81000 25.14600 30.51300
C  47.01000 26.24100 31.37800
C  46.59400 25.92500 32.74100
C  46.31500 24.29800 32.68500
C  46.43000 24.02100 31.15800
C  47.16900 23.39300 33.60500
C  45.43500 26.79500 33.43800
C  45.77400 27.22300 34.90400
H  44.61200 27.28400 35.86300
N  46.50800 23.07200 28.24400
C  46.13300 22.36500 29.32800
C  45.75700 21.08200 28.79500
C  46.29900 20.94900 27.49000
C  46.69200 22.34200 27.13800
C  45.15800 19.95000 29.59200
C  46.29500 19.79800 26.52400
O  46.67400 19.93700 25.33000
C  45.73700 18.43000 26.95300
N  47.44600 25.17300 26.26500
C  47.52700 24.09300 25.44800
C  47.65500 24.50600 24.01500
C  47.72600 26.09300 24.05600
C  47.73100 26.34700 25.61700
C  48.78600 23.80900 23.15100
C  46.62000 26.83800 23.20900
C  45.16800 26.67800 23.59500
N  47.61400 27.19200 28.44000
C  47.99600 28.03500 27.50300
C  48.26400 29.30900 27.97200
C  48.17200 29.21900 29.41500
C  47.71200 27.84300 29.61900
C  48.65500 30.49300 27.13100
C  48.45500 29.79800 30.76600
O  49.00800 30.86400 31.09900
C  47.98400 28.70400 31.80300
C  49.09000 28.37900 32.74800
O  50.08100 27.66000 32.50200
O  48.90900 28.98100 33.99300
C  49.94900 28.68300 34.97600
H  45.57000 22.04200 31.25300
H  47.29900 22.03800 25.09800
H  48.31600 28.34600 25.45000
H  47.41700 26.14400 33.42200
H  45.28300 24.13400 32.99800
H  46.54700 22.88500 34.34200
H  47.71800 24.09200 34.23600
H  47.83300 22.67700 33.12200
H  44.53600 26.18300 33.51400
H  45.25000 27.64300 32.77900
H  46.05000 28.27600 34.86500
H  46.59000 26.61800 35.30000
H  44.50900 19.38300 28.92500
H  44.69100 20.38800 30.47400
H  45.94500 19.27700 29.93200
H  45.79800 17.66500 26.17900
H  44.64800 18.41200 27.00100
H  46.05900 18.14200 27.95400
H  46.69400 24.17300 23.62100
H  48.67500 26.51600 23.72800
H  49.48700 24.56700 22.80200
H  48.40200 23.18500 22.34400
H  49.32300 23.14200 23.82600
H  46.75100 26.47100 22.19100
H  46.97300 27.86900 23.23000
H  44.96200 25.64300 23.86600
H  44.48000 27.01200 22.81800
H  44.86700 27.23600 24.48200
H  49.05800 31.27000 27.78100
H  47.80300 30.87600 26.56900
H  49.43800 30.30500 26.39700
H  47.22200 29.25300 32.35700
H  50.94000 28.96100 34.61900
H  50.02900 27.61400 35.17600
H  49.76500 29.30100 35.85400
Mg 7.14700 56.78900 42.44300
C  6.00200 53.38600 41.94900
C  10.00300 55.89000 40.96300
C  7.69900 60.00200 42.16200
C  3.83900 57.43400 43.68600
N  7.82200 54.87100 41.37100
C  7.27500 53.63400 41.30000
C  8.21500 52.70900 40.50400
C  9.55200 53.37700 40.79500
C  9.13300 54.82800 40.98100
C  10.45800 52.75900 41.94200
C  7.79400 52.61500 38.98300
C  7.54300 51.24100 38.44000
H  6.69500 51.16400 37.13200
N  8.57800 57.80600 41.48000
C  9.78600 57.28000 41.06700
C  10.68600 58.41400 40.67100
C  9.91100 59.64400 40.90500
C  8.71100 59.19500 41.59900
C  12.10100 58.07900 40.23100
C  10.35600 61.08200 40.54000
O  11.51500 61.20700 40.16800
C  9.35400 62.29100 40.46200
N  5.90900 58.45800 42.94100
C  6.41200 59.66800 42.74000
C  5.35400 60.79100 43.10400
C  4.09300 59.91500 43.50800
C  4.68600 58.46600 43.56600
C  5.71300 61.84200 44.15800
C  2.82100 60.02000 42.63700
C  1.51600 60.72800 43.16000
N  5.36600 55.70100 42.83600
C  4.14700 56.12900 43.43500
C  3.35200 54.96400 43.67900
C  4.04300 53.84700 43.11300
C  5.28500 54.37100 42.62500
C  1.93300 54.99500 44.31600
C  3.99700 52.39600 42.77500
O  3.10100 51.59900 43.00700
C  5.27600 52.07600 42.05600
C  4.94500 51.48800 40.67400
O  4.67500 52.09200 39.65900
O  4.98100 50.12400 40.76100
C  4.53400 49.46100 39.54400
H  11.01800 55.57400 40.71400
H  7.87600 61.07900 42.12200
H  2.94100 57.59700 44.28400
H  8.16500 51.70400 40.92200
H  10.23700 53.36400 39.94800
H  9.88600 52.07800 42.57100
H  10.92900 53.52400 42.55900
H  11.30200 52.17500 41.57500
H  8.58400 53.13800 38.44200
H  6.93200 53.24900 38.77700
H  6.89100 50.72000 39.14100
H  8.45600 50.66300 38.29500
H  12.24100 58.10100 39.15000
H  12.35600 57.04200 40.45100
H  12.77600 58.74300 40.76900
H  8.40000 61.91200 40.09600
H  9.66300 62.90400 39.61500
H  9.37700 62.85400 41.39500
H  5.15900 61.40000 42.22100
H  3.76700 60.30500 44.47200
H  6.54100 61.33600 44.65600
H  4.91400 62.04500 44.87100
H  5.98400 62.80300 43.72100
H  2.62800 59.06700 42.14400
H  3.00100 60.62800 41.75000
H  1.31900 61.68200 42.67300
H  1.60400 60.96600 44.22000
H  0.60000 60.15600 43.01400
H  1.91200 55.39000 45.33200
H  1.50900 53.99300 44.24200
H  1.29200 55.64200 43.71800
H  5.83800 51.31400 42.59700
H  3.44800 49.50300 39.46300
H  4.89400 48.43700 39.63700
H  5.02500 49.87600 38.66400

