158

Mg 36.12100 0.90300 29.73300
C  33.72100 2.49400 31.84600
C  38.31400 1.12000 32.36100
C  38.37500 -0.28800 27.61100
C  33.66400 1.08100 27.11500
N  35.99800 1.74000 31.83800
C  34.97300 2.23500 32.51300
C  35.26100 2.40200 33.99100
C  36.78600 2.40300 34.03800
C  37.04000 1.76600 32.61000
C  37.62000 3.75200 34.15600
C  34.46700 1.41600 34.89600
C  33.61000 2.04800 36.02000
H  34.21800 3.14200 36.95900
N  38.11000 0.42100 29.99300
C  38.84700 0.61500 31.12700
C  40.15700 0.16800 30.90100
C  40.23300 -0.26100 29.55400
C  38.86600 0.02400 28.95500
C  41.24100 0.20400 31.98800
C  41.46000 -0.68400 28.78500
O  41.40900 -0.98700 27.60700
C  42.82800 -0.83300 29.49100
N  36.08000 0.63200 27.64300
C  37.10900 0.01300 27.05000
C  36.77000 -0.27000 25.56000
C  35.28600 0.09700 25.44700
C  34.97800 0.71200 26.79600
C  37.76100 0.45000 24.64100
C  34.46300 -1.07200 25.07000
C  34.18900 -2.12300 26.20400
N  34.16400 1.62400 29.45700
C  33.24200 1.58700 28.37300
C  31.98200 2.22700 28.79700
C  32.06200 2.54700 30.14700
C  33.42700 2.15100 30.50200
C  30.68800 2.37800 27.97800
C  31.40400 3.10500 31.31300
O  30.24300 3.54100 31.45400
C  32.46300 3.10500 32.45000
C  32.67800 4.49800 32.89300
O  33.55300 5.30100 32.64300
O  31.72500 4.76400 33.86200
C  31.95500 6.03400 34.61400
H  38.92400 1.03100 33.26300
H  39.14300 -0.66800 26.93400
H  32.86700 0.91000 26.38900
H  34.89600 3.39200 34.26400
H  37.18400 1.73300 34.79900
H  38.11300 4.00600 33.21800
H  38.40300 3.78900 34.91200
H  36.98900 4.57400 34.49200
H  35.08100 0.70800 35.45300
H  33.88800 0.77000 34.23700
H  33.31300 1.17900 36.60700
H  32.69200 2.46500 35.60400
H  41.51800 -0.74800 32.43900
H  40.89800 0.78300 32.84600
H  42.11800 0.73500 31.61800
H  43.16500 0.11500 29.91000
H  43.59100 -1.38000 28.93700
H  42.63300 -1.36900 30.42000
H  36.80200 -1.35900 25.51500
H  35.18700 0.87000 24.68500
H  38.08000 -0.27200 23.88900
H  38.60500 0.80000 25.23500
H  37.37800 1.30700 24.08700
H  35.08700 -1.53500 24.30500
H  33.59500 -0.68400 24.53600
H  35.01000 -2.79800 26.44200
H  33.37900 -2.73400 25.80700
H  33.82400 -1.60000 27.08800
H  30.64900 3.01900 27.09700
H  29.91900 2.75400 28.65300
H  30.31400 1.42800 27.59800
H  32.02500 2.48100 33.22900
H  31.10300 6.26600 35.25400
H  31.97200 6.92800 33.99100
H  32.82600 5.97900 35.26700
Mg 46.35400 34.87100 27.67100
C  44.92400 33.13000 30.33200
C  46.98300 37.53400 29.95300
C  47.85700 36.67100 25.17800
C  45.58000 32.34200 25.51300
N  46.10700 35.26500 29.87000
C  45.38900 34.43200 30.69600
C  45.46900 34.92600 32.09800
C  45.66300 36.49600 31.95000
C  46.28800 36.45600 30.49300
C  44.34200 37.33800 32.04800
C  46.67000 34.26700 32.85800
C  46.42800 33.99900 34.38200
H  45.42400 34.88300 35.13500
N  47.34600 36.77300 27.59700
C  47.44900 37.66000 28.63000
C  48.09200 38.85000 28.06800
C  48.46800 38.65100 26.74600
C  47.92100 37.28900 26.46400
C  48.50500 40.04600 28.86200
C  49.22600 39.54900 25.66600
O  49.35800 39.18100 24.48600
C  49.56200 40.96100 26.00800
N  46.62700 34.46400 25.61600
C  47.27500 35.35000 24.83400
C  47.35600 34.77800 23.38800
C  46.43400 33.47000 23.42200
C  46.16900 33.36200 24.91300
C  47.05600 35.85200 22.33500
C  47.01100 32.12200 22.78400
C  46.21400 31.42400 21.61600
N  45.52700 33.12500 27.85400
C  45.32900 32.16600 26.91800
C  44.82800 30.92700 27.53800
C  44.63300 31.32500 28.87700
C  45.09500 32.59100 29.05100
C  44.62800 29.62600 26.87600
C  44.19600 30.75900 30.16900
O  43.79600 29.68900 30.54200
C  44.14300 32.01800 31.05300
C  44.67800 31.71600 32.41000
O  45.72900 31.19000 32.69500
O  43.72400 32.00200 33.31400
C  43.88900 31.45100 34.67100
H  47.30400 38.27200 30.69100
H  48.29900 37.30900 24.41000
H  45.23500 31.51300 24.89200
H  44.54300 34.81500 32.66200
H  46.37000 37.04000 32.57600
H  43.58100 36.59100 32.27100
H  44.12800 37.85300 31.11100
H  44.39200 38.03300 32.88600
H  47.55400 34.90500 32.85000
H  47.01000 33.41900 32.26400
H  47.34500 34.32700 34.87100
H  46.37500 32.92900 34.58200
H  49.41400 39.66200 29.32600
H  47.84500 40.18500 29.71900
H  48.72100 40.94800 28.29000
H  50.30300 40.98400 26.80700
H  48.61600 41.43600 26.26700
H  50.05400 41.45700 25.17100
H  48.35600 34.41700 23.14600
H  45.47100 33.73800 22.98600
H  46.35800 35.49400 21.57900
H  47.94600 36.11700 21.76400
H  46.59100 36.78500 22.65200
H  47.25700 31.34600 23.50900
H  47.96400 32.37400 22.32000
H  46.84900 31.25900 20.74500
H  45.34400 31.94100 21.21200
H  45.91200 30.42800 21.93900
H  45.45300 29.35300 26.21800
H  43.74000 29.57600 26.24600
H  44.54600 28.79300 27.57400
H  43.08400 32.27300 31.08100
H  44.89800 31.18900 34.99000
H  43.31800 30.54200 34.86100
H  43.49900 32.20500 35.35500

