158

Mg 1.52400 -1.94300 44.16900
C  4.92100 -1.05900 43.70500
C  0.75300 1.06500 42.60500
C  -1.61000 -3.04700 43.94400
C  2.65600 -5.19700 44.98000
N  2.69000 -0.17900 43.27700
C  4.10500 -0.03200 43.23900
C  4.54600 1.26700 42.58900
C  3.15900 2.06100 42.51300
C  2.08000 0.95400 42.84500
C  2.93600 3.33100 43.36200
C  5.18800 0.96500 41.26500
C  6.64100 1.55700 41.11500
H  6.64800 2.54400 39.90800
N  -0.19800 -1.15700 43.34800
C  -0.31700 0.10300 42.73600
C  -1.61400 0.27500 42.17200
C  -2.41600 -0.90000 42.51700
C  -1.44300 -1.78100 43.31600
C  -1.94900 1.35700 41.23500
C  -3.80700 -1.15900 42.10500
O  -4.35500 -0.22800 41.48400
C  -4.49900 -2.46500 42.45300
N  0.71300 -3.84100 44.39200
C  -0.68000 -3.99500 44.42400
C  -1.14700 -5.48400 44.66500
C  0.27000 -6.11700 44.88500
C  1.27000 -4.96400 44.84400
C  -2.06400 -5.72500 45.93200
C  0.46200 -7.26600 43.80200
C  0.01100 -8.69200 44.23800
N  3.43700 -2.96100 44.52400
C  3.75500 -4.25800 44.83200
C  5.17800 -4.39700 44.89400
C  5.62800 -3.14500 44.62900
C  4.55200 -2.32700 44.26300
C  5.80600 -5.70600 45.20700
C  6.81900 -2.44000 44.48000
O  7.98400 -2.79600 44.70300
C  6.40600 -1.01700 43.96300
C  6.78000 0.09600 44.88600
O  6.10600 0.43800 45.78400
O  7.91000 0.76200 44.47900
C  8.37600 2.02100 45.17800
H  0.62200 2.06100 42.17700
H  -2.68100 -3.25100 43.88300
H  3.01200 -6.17500 45.31000
H  5.22200 1.81200 43.24800
H  2.85400 2.37800 41.51500
H  3.97600 3.62700 43.50500
H  2.47900 3.15800 44.33600
H  2.45000 4.18300 42.88700
H  4.57900 1.34000 40.44200
H  5.21300 -0.09200 40.99900
H  7.35100 0.74100 40.98000
H  6.89900 2.04800 42.05400
H  -2.30200 0.95400 40.28600
H  -1.13300 2.00700 40.91800
H  -2.67700 1.98700 41.74600
H  -5.45200 -2.54600 41.93100
H  -4.63900 -2.54900 43.53000
H  -3.92900 -3.28600 42.01700
H  -1.57400 -5.73700 43.69500
H  0.42400 -6.63800 45.83000
H  -3.09100 -5.53500 45.62200
H  -1.64800 -5.04500 46.67500
H  -2.08100 -6.71100 46.39500
H  1.51300 -7.28900 43.51500
H  -0.00900 -6.90000 42.89000
H  -0.71100 -9.07900 43.51900
H  -0.46100 -8.67500 45.22000
H  0.86100 -9.37000 44.31400
H  5.58200 -6.36300 44.36700
H  5.47500 -6.08200 46.17500
H  6.85300 -5.48200 45.41100
H  6.92700 -0.85600 43.01900
H  8.18900 2.94800 44.63700
H  9.45500 2.06300 45.32600
H  7.88400 2.07900 46.14900
Mg 10.01800 48.94900 26.04800
C  7.90000 49.02700 28.81500
C  12.54200 49.97000 28.04900
C  11.97800 49.02700 23.24600
C  7.23400 48.47800 24.00500
N  10.12600 49.52600 28.13800
C  9.24300 49.24200 29.16700
C  9.77900 49.51800 30.59900
C  11.27200 49.98700 30.30500
C  11.30700 49.82900 28.75900
C  11.61500 51.43000 30.81300
C  9.83400 48.25600 31.56600
C  9.17100 48.44100 32.97600
H  9.44000 47.43900 34.08000
N  11.98300 49.46400 25.68700
C  12.87700 49.87400 26.66100
C  14.24700 49.99700 26.10800
C  14.04300 49.67800 24.75200
C  12.62700 49.32900 24.49200
C  15.43000 50.34000 26.99000
C  15.10900 49.67700 23.64000
O  14.90300 49.45600 22.46500
C  16.50600 50.17200 24.00300
N  9.60700 48.90200 23.87800
C  10.61500 48.79500 22.96700
C  10.09200 48.59400 21.59800
C  8.62800 48.12200 21.90700
C  8.46500 48.50800 23.36700
C  10.25500 49.78400 20.60000
C  8.24300 46.64300 21.50300
C  8.62000 45.53600 22.58400
N  7.96900 48.72500 26.30100
C  6.98700 48.62100 25.37600
C  5.71800 48.49100 26.05700
C  5.99200 48.68600 27.39500
C  7.39600 48.87700 27.47700
C  4.32600 48.12200 25.41000
C  5.40800 48.70000 28.64300
O  4.24000 48.61700 29.08600
C  6.64200 48.75900 29.62800
C  6.65400 47.44200 30.29000
O  7.24600 46.47800 29.95100
O  6.00600 47.53900 31.50500
C  6.04200 46.39700 32.41200
H  13.37500 50.14400 28.73300
H  12.52200 49.09000 22.30100
H  6.37300 48.13000 23.43000
H  9.12900 50.21900 31.12200
H  12.14000 49.48100 30.72900
H  12.39100 51.30100 31.56700
H  10.84600 51.87700 31.44400
H  11.94400 52.09800 30.01800
H  10.87700 48.01900 31.77700
H  9.40600 47.34700 31.14200
H  8.09300 48.56300 32.87600
H  9.51200 49.41000 33.34000
H  16.19100 49.56900 26.86200
H  15.31700 50.60800 28.04100
H  15.84800 51.31100 26.72500
H  17.16800 50.27700 23.14300
H  16.98700 49.33400 24.50800
H  16.54700 51.11800 24.54200
H  10.64000 47.68200 21.36200
H  7.93000 48.78600 21.39700
H  9.21500 50.11100 20.61700
H  10.46000 49.32000 19.63500
H  11.03500 50.48900 20.88400
H  8.85400 46.37500 20.64100
H  7.19700 46.48500 21.24500
H  8.53100 45.83200 23.62900
H  9.63800 45.18000 22.42600
H  7.96400 44.70400 22.33000
H  3.45400 47.99100 26.05000
H  4.50300 47.09200 25.09800
H  4.25000 48.72100 24.50300
H  6.64000 49.61200 30.30600
H  6.04200 46.84200 33.40700
H  6.87500 45.69300 32.43100
H  5.17400 45.75100 32.28100

