158

Mg 24.71900 -6.02700 47.19500
C  26.40900 -3.24100 45.92500
C  22.28400 -5.45100 44.94400
C  23.30900 -8.97900 48.20300
C  27.75500 -7.08400 48.70000
N  24.45100 -4.57500 45.47400
C  25.24500 -3.52200 45.14400
C  24.71600 -2.76900 43.96300
C  23.32900 -3.41400 43.74600
C  23.32300 -4.56500 44.71200
C  22.11000 -2.44500 43.97500
C  25.76100 -2.81000 42.79600
C  25.32000 -3.12700 41.38000
H  26.27300 -2.99600 40.19100
N  22.96100 -7.06500 46.74800
C  22.12400 -6.61100 45.75200
C  20.95100 -7.45500 45.74400
C  21.22700 -8.56500 46.63100
C  22.60500 -8.24900 47.21800
C  19.75100 -7.32000 44.98700
C  20.22600 -9.65000 47.03800
O  19.15600 -9.73400 46.49100
C  20.68000 -10.81000 47.94100
N  25.41700 -7.82900 48.12800
C  24.57100 -8.74600 48.58600
C  25.29300 -9.65400 49.56200
C  26.77300 -9.28000 49.41700
C  26.63900 -7.98500 48.70900
C  24.70800 -9.52100 51.01100
C  27.68200 -10.22100 48.60600
C  29.07600 -10.58700 49.28800
N  26.56400 -5.20800 47.59800
C  27.72000 -5.76300 48.21500
C  28.86000 -4.84300 48.03000
C  28.30000 -3.79400 47.23300
C  26.96800 -4.09900 46.90400
C  30.33100 -5.00200 48.67500
C  28.73500 -2.55800 46.51100
O  29.75000 -1.95000 46.45200
C  27.44700 -2.16100 45.61400
C  27.05000 -0.77800 46.03500
O  26.76300 -0.43900 47.19700
O  27.04000 0.04900 44.95500
C  26.82400 1.48900 45.19200
H  21.38200 -5.30600 44.34500
H  23.05400 -10.01500 48.43500
H  28.71300 -7.46300 49.06400
H  24.67400 -1.73500 44.30700
H  23.20900 -3.73000 42.71000
H  22.43300 -1.49100 44.39200
H  21.33700 -2.82700 44.64200
H  21.66200 -2.22800 43.00600
H  26.44000 -3.59500 43.12900
H  26.36600 -1.92100 42.61700
H  24.48200 -2.43100 41.34200
H  24.97000 -4.15900 41.41400
H  19.69600 -6.42600 44.36600
H  18.89800 -7.38400 45.66200
H  19.77200 -8.22800 44.38500
H  21.52500 -11.22400 47.39000
H  19.84500 -11.50900 47.88900
H  20.88500 -10.44400 48.94700
H  25.14100 -10.69700 49.28300
H  27.19100 -9.15300 50.41500
H  23.91800 -10.25200 51.18300
H  24.22100 -8.56700 51.20900
H  25.46600 -9.81100 51.73800
H  27.90000 -9.81700 47.61800
H  27.11400 -11.13000 48.40500
H  29.21400 -11.66400 49.38200
H  29.12100 -10.20800 50.30900
H  29.85600 -10.16800 48.65200
H  30.34000 -4.43400 49.60500
H  31.00000 -4.65700 47.88700
H  30.67100 -6.03000 48.80100
H  27.69800 -2.17400 44.55400
H  25.99700 1.81400 44.56100
H  27.69400 2.07800 44.90100
H  26.47300 1.76500 46.18600
Mg 16.41600 -1.77200 27.86900
C  15.56100 0.37900 30.40100
C  18.55500 -3.37900 30.25500
C  17.80900 -3.68400 25.34600
C  14.84200 0.20600 25.64600
N  17.00700 -1.51200 30.14400
C  16.35700 -0.67100 30.89800
C  16.79400 -0.77400 32.34000
C  17.89200 -1.87700 32.16100
C  17.83600 -2.30300 30.73500
C  19.37500 -1.58200 32.61200
C  15.45200 -1.12800 33.20100
C  15.57000 -1.06800 34.66200
H  16.82000 -0.36600 35.30000
N  17.87900 -3.41700 27.82900
C  18.58200 -3.91900 28.90600
C  19.29100 -5.11600 28.42900
C  19.04600 -5.29800 27.04600
C  18.19400 -4.12600 26.63800
C  19.93700 -6.09300 29.39400
C  19.43900 -6.28600 26.06100
O  18.92900 -6.28100 24.93300
C  20.34600 -7.46900 26.46300
N  16.54400 -1.63100 25.73700
C  17.00300 -2.66600 24.90600
C  16.86700 -2.17100 23.43200
C  15.78200 -1.01400 23.55900
C  15.69000 -0.77200 25.09600
C  18.19800 -1.78600 22.87100
C  14.42200 -1.38300 22.95500
C  13.97100 -0.50800 21.86800
N  15.36700 -0.03700 27.89800
C  14.75500 0.67900 26.94100
C  13.96000 1.70500 27.47400
C  14.25800 1.68700 28.86500
C  15.10400 0.52500 29.06500
C  13.14000 2.70500 26.72700
C  14.05400 2.36100 30.05900
O  13.47700 3.40300 30.26600
C  14.87400 1.61100 31.17300
C  15.92100 2.52800 31.75400
O  16.88200 3.00800 31.19200
O  15.48300 2.83300 32.98200
C  16.27000 3.58200 33.88600
H  19.23100 -3.83900 30.97800
H  18.21800 -4.24400 24.50200
H  14.27800 0.73200 24.87200
H  17.27700 0.11600 32.74400
H  17.64500 -2.69000 32.84400
H  19.41000 -0.82200 33.39200
H  19.82800 -1.12700 31.73100
H  19.89900 -2.48000 32.93900
H  15.35700 -2.18400 32.94800
H  14.56000 -0.60100 32.86400
H  15.46500 -2.08800 35.03100
H  14.80700 -0.42100 35.09400
H  19.79100 -7.11500 29.04500
H  19.46100 -5.97700 30.36800
H  20.98900 -5.86200 29.56100
H  20.94200 -7.68900 25.57700
H  19.77100 -8.35900 26.72100
H  21.06300 -7.15900 27.22300
H  16.52000 -3.06000 22.90400
H  16.13100 -0.14100 23.00700
H  18.34300 -0.71700 22.71500
H  18.31200 -2.18900 21.86500
H  19.05100 -2.12800 23.45700
H  13.61300 -1.50200 23.67500
H  14.62000 -2.29700 22.39600
H  14.42800 -0.87200 20.94800
H  14.25400 0.52500 22.07300
H  12.88600 -0.54400 21.76400
H  13.00600 2.38200 25.69400
H  13.73000 3.61900 26.78800
H  12.14400 2.77800 27.16400
H  14.13800 1.34300 31.93200
H  17.29200 3.57200 33.50500
H  16.16800 3.19200 34.89900
H  15.89900 4.60600 33.88800

