158

Mg 36.91300 49.78700 25.32800
C  36.69300 47.93400 28.36200
C  36.22800 52.69700 27.02300
C  36.45100 51.26400 22.35200
C  37.24500 46.60200 23.67700
N  36.49800 50.22200 27.46300
C  36.52400 49.28700 28.49200
C  36.27600 50.06400 29.82000
C  35.82500 51.56200 29.31100
C  36.26500 51.50500 27.85200
C  34.35300 52.07600 29.58700
C  37.48700 50.04100 30.80500
C  37.23700 49.51900 32.23400
H  35.86000 49.78400 32.90300
N  36.56400 51.72900 24.77800
C  36.39600 52.81100 25.60400
C  36.43300 54.03700 24.82300
C  36.36400 53.59300 23.43400
C  36.41400 52.12000 23.49300
C  36.43700 55.39400 25.42300
C  36.27000 54.41300 22.08700
O  36.24000 53.91600 20.95500
C  36.30600 56.01700 22.22500
N  36.71300 49.07300 23.27100
C  36.61700 49.91600 22.23500
C  36.73500 49.06400 20.88200
C  37.19100 47.66800 21.38400
C  37.10400 47.79500 22.85800
C  35.49000 49.12100 19.97100
C  38.66500 47.30100 20.91400
C  38.73200 45.99000 20.28700
N  36.98900 47.70400 25.84500
C  37.11800 46.54700 25.07000
C  37.28900 45.45900 25.92800
C  37.07100 45.97200 27.23500
C  36.82600 47.31600 27.08700
C  37.63900 44.09400 25.53700
C  37.07300 45.59200 28.63100
O  37.39200 44.50700 29.19100
C  36.77600 46.84900 29.35700
C  35.55400 46.56200 30.08200
O  34.44800 46.72600 29.63800
O  35.83300 46.04300 31.29600
C  34.70600 45.67800 32.17600
H  36.02800 53.55900 27.66200
H  36.34800 51.80100 21.40600
H  37.51900 45.66600 23.18800
H  35.38100 49.62500 30.26200
H  36.51800 52.26000 29.78000
H  34.02800 52.37700 28.59200
H  34.51700 52.95200 30.21500
H  33.63700 51.38700 30.03600
H  37.93600 51.03500 30.80600
H  38.15500 49.29500 30.37500
H  37.96100 49.96500 32.91700
H  37.40000 48.44400 32.15600
H  37.49500 55.62200 25.55000
H  36.03200 55.52600 26.42600
H  35.89900 56.11400 24.80600
H  35.36800 56.33700 22.67900
H  36.19700 56.27500 21.17200
H  37.14700 56.56200 22.65300
H  37.46200 49.46100 20.17200
H  36.45500 46.91300 21.10800
H  35.17700 50.13600 19.72400
H  34.63900 48.72900 20.52800
H  35.72500 48.51000 19.10000
H  39.39400 47.22300 21.72000
H  39.07500 47.99900 20.18400
H  39.39700 45.21900 20.67700
H  39.08700 46.24000 19.28700
H  37.75000 45.55700 20.10000
H  36.83000 43.71300 24.91400
H  37.95100 43.54700 26.42700
H  38.48500 44.11900 24.85000
H  37.50000 47.01800 30.15500
H  33.79800 45.62800 31.57500
H  34.61600 46.45400 32.93600
H  34.79000 44.69600 32.64000
Mg 0.51500 43.35000 25.29500
C  2.55400 42.89200 28.25800
C  -2.25100 42.31800 27.20600
C  -1.25300 43.32200 22.51800
C  3.44700 43.91400 23.49100
N  0.23100 42.51200 27.52300
C  1.21600 42.57700 28.49200
C  0.47100 42.13700 29.75900
C  -0.96700 41.94800 29.45400
C  -1.01300 42.25000 28.03600
C  -1.47100 40.47600 29.71700
C  0.81300 43.14700 30.88600
C  1.32700 42.55100 32.26400
H  0.58000 41.30600 32.75600
N  -1.50400 43.01500 24.92200
C  -2.46500 42.57000 25.80800
C  -3.71500 42.44700 25.03500
C  -3.42200 42.79600 23.65100
C  -2.02300 43.01000 23.65900
C  -5.04400 42.12600 25.72000
C  -4.39800 42.90500 22.50800
O  -4.18100 43.29300 21.33600
C  -5.78200 42.47600 22.68800
N  1.05800 43.47700 23.27000
C  0.05000 43.59600 22.35500
C  0.55100 44.16000 21.00900
C  2.07400 44.51800 21.31400
C  2.21500 43.96000 22.77200
C  0.36500 43.09300 19.87800
C  2.55000 46.02500 21.41400
C  1.80100 47.05900 22.26700
N  2.56100 43.52600 25.71900
C  3.62400 43.69000 24.86300
C  4.86700 43.64100 25.61900
C  4.45800 43.35000 26.93700
C  3.09100 43.26100 26.94900
C  6.27500 43.64800 25.10900
C  5.01400 43.01400 28.20600
O  6.11600 42.86000 28.66000
C  3.75000 42.72800 29.19500
C  3.96000 41.46500 29.95700
O  3.49400 40.35000 29.63100
O  4.80700 41.58800 31.03100
C  4.82600 40.53800 31.97900
H  -3.17900 42.13100 27.75100
H  -1.81200 43.23900 21.58300
H  4.37100 44.27500 23.03600
H  0.80600 41.13200 30.01700
H  -1.53700 42.63600 30.07700
H  -0.83500 39.84400 30.33700
H  -1.49600 39.93100 28.77300
H  -2.46700 40.57100 30.14700
H  -0.06500 43.77600 31.03500
H  1.55100 43.88400 30.57000
H  1.31700 43.33000 33.02700
H  2.32600 42.16200 32.07200
H  -4.87600 41.68000 26.70000
H  -5.77700 41.48000 25.23700
H  -5.58500 43.07000 25.79100
H  -6.45200 42.65700 21.84800
H  -6.09000 43.18000 23.46100
H  -5.77500 41.46300 23.09100
H  -0.05200 45.02500 20.73100
H  2.73100 43.97600 20.63500
H  0.43900 42.05000 20.18600
H  1.13100 43.27300 19.12500
H  -0.62600 43.32900 19.48900
H  2.19100 46.32400 20.42900
H  3.63300 46.14500 21.46000
H  2.47200 47.35100 23.07500
H  0.81900 46.73300 22.60900
H  1.43000 47.91500 21.70400
H  6.97200 43.51000 25.93600
H  6.46400 44.56500 24.55100
H  6.38200 42.74000 24.51700
H  3.67600 43.50300 29.95800
H  5.38700 40.82200 32.86900
H  5.30500 39.63900 31.59100
H  3.91600 40.13100 32.42000

