158

Mg 40.06700 9.31000 30.31600
C  42.13500 10.67700 32.92400
C  38.26500 7.60900 32.74900
C  38.26700 7.89700 27.77900
C  42.17500 10.74000 27.98900
N  40.17200 9.16400 32.59900
C  41.01600 9.90600 33.41500
C  40.62200 9.76900 34.87300
C  39.37200 8.76100 34.84600
C  39.19500 8.50100 33.32800
C  39.50000 7.48800 35.79000
C  40.21700 11.16300 35.53400
C  40.91800 11.63500 36.80400
H  40.01800 12.52800 37.73300
N  38.47000 8.02600 30.28900
C  37.90300 7.41000 31.36200
C  36.69100 6.69900 30.89400
C  36.73600 6.64700 29.40500
C  37.90000 7.51400 29.06900
C  35.68900 6.09500 31.99800
C  35.86200 5.85000 28.43100
O  36.09600 5.73900 27.21800
C  34.54900 5.32300 29.07400
N  40.14800 9.35000 28.20200
C  39.26800 8.77100 27.41500
C  39.46000 9.22500 25.98000
C  40.51400 10.37300 26.10600
C  40.98900 10.14500 27.48700
C  39.66900 8.28300 24.71100
C  39.84400 11.75100 25.86900
C  40.69400 12.74300 24.96500
N  41.89100 10.46600 30.40400
C  42.57400 10.88400 29.33800
C  43.73700 11.70300 29.85900
C  43.54600 11.69900 31.26800
C  42.43400 10.85900 31.55100
C  44.82100 12.18800 29.04800
C  44.08100 12.16300 32.51600
O  45.13500 12.78100 32.70400
C  43.22900 11.54200 33.66200
C  44.01700 10.67700 34.60200
O  44.52000 9.53800 34.40800
O  44.05400 11.38000 35.82500
C  44.45400 10.46100 36.92000
H  37.51100 7.20000 33.42500
H  37.60700 7.66400 26.94100
H  42.85000 11.22300 27.27800
H  41.49100 9.38900 35.41000
H  38.43400 9.27400 35.05800
H  39.18000 6.52400 35.39400
H  38.74600 7.71200 36.54400
H  40.45400 7.48700 36.31600
H  39.14400 11.18300 35.72300
H  40.28700 11.90100 34.73500
H  41.78400 12.22300 36.50000
H  41.25500 10.75500 37.35300
H  35.56400 6.75800 32.85400
H  36.01900 5.08900 32.25700
H  34.70400 5.96200 31.55200
H  33.95400 4.79100 28.33200
H  34.07100 6.21200 29.48500
H  34.75500 4.57000 29.83500
H  38.49300 9.69100 25.79300
H  41.43900 10.24800 25.54300
H  39.82900 7.27500 25.09300
H  40.55100 8.49600 24.10700
H  38.83500 8.27200 24.00900
H  39.74400 12.20000 26.85700
H  38.80900 11.64300 25.54400
H  40.96100 13.71200 25.38600
H  40.32100 12.80600 23.94300
H  41.63500 12.23300 24.75900
H  44.91400 11.77400 28.04400
H  45.73900 11.87800 29.54600
H  44.73300 13.27400 29.02500
H  42.77200 12.34800 34.23700
H  43.79300 9.59400 36.92600
H  44.42100 11.04100 37.84200
H  45.46600 10.11200 36.71500
Mg 36.53800 49.49900 24.93100
C  36.62400 47.52200 28.01900
C  35.01900 52.07400 26.78800
C  35.76600 50.90700 22.07000
C  37.60600 46.54000 23.27100
N  35.79700 49.71700 27.13700
C  36.10900 48.84800 28.21600
C  35.81700 49.60900 29.51700
C  35.19800 50.95000 29.06100
C  35.26000 50.91400 27.52300
C  33.66400 51.18400 29.45800
C  37.02700 49.77200 30.45700
C  36.82100 49.42600 32.02200
H  35.37900 49.17500 32.54900
N  35.65300 51.29900 24.46500
C  35.13600 52.22000 25.36000
C  34.81200 53.38800 24.64300
C  34.90800 53.09400 23.23000
C  35.43600 51.74800 23.14400
C  34.38300 54.66200 25.41000
C  34.53800 53.94600 21.98900
O  34.62900 53.48400 20.86900
C  34.13000 55.33900 22.17400
N  36.62600 48.73300 22.98900
C  36.32700 49.60600 21.96500
C  36.59600 48.96300 20.57200
C  37.36600 47.59100 20.98100
C  37.15700 47.58500 22.52000
C  35.28800 48.65300 19.76000
C  38.83300 47.52500 20.53000
C  39.77300 48.42200 21.41500
N  37.16400 47.48200 25.49800
C  37.55500 46.43100 24.67500
C  37.74600 45.19000 25.46600
C  37.43500 45.65400 26.80500
C  37.08900 47.03200 26.77100
C  38.16300 43.80500 24.99000
C  37.47600 45.24300 28.23000
O  37.94300 44.20300 28.71600
C  36.90800 46.43400 29.04700
C  35.75700 46.11900 29.99300
O  34.65500 46.62600 29.92100
O  36.13800 45.17600 30.94100
C  35.09800 44.81000 32.01200
H  34.69500 52.89900 27.42700
H  35.57100 51.24800 21.05100
H  38.07000 45.71400 22.72800
H  35.11500 49.04400 30.13100
H  35.77800 51.79000 29.44300
H  33.37000 50.26000 29.95600
H  33.05300 51.42200 28.58800
H  33.55200 52.01300 30.15700
H  37.38500 50.79300 30.31800
H  37.87600 49.23700 30.03000
H  37.23600 50.31200 32.50400
H  37.48500 48.61800 32.32600
H  33.31000 54.53200 25.55700
H  34.47700 55.52300 24.74900
H  34.88900 54.82900 26.36100
H  33.96000 55.80100 21.20200
H  35.00100 55.91000 22.49600
H  33.22800 55.47000 22.77200
H  37.20500 49.60100 19.93200
H  36.79600 46.76300 20.55900
H  34.44100 49.04900 20.31900
H  35.18900 47.58300 19.57700
H  35.32500 49.13600 18.78300
H  39.01700 47.98000 19.55700
H  39.20000 46.49900 20.52500
H  39.24900 48.99000 22.18400
H  40.28500 49.19700 20.84500
H  40.54400 47.79700 21.86600
H  39.22700 43.82200 24.75000
H  37.53000 43.42600 24.18800
H  37.94700 43.14000 25.82600
H  37.72300 46.72000 29.71200
H  35.17900 43.80400 32.42500
H  34.11400 44.93100 31.56000
H  35.23400 45.46500 32.87300

