158

Mg 43.99700 4.72400 48.20800
C  41.88500 7.52200 47.59600
C  41.21400 2.71200 47.59900
C  46.08700 2.30700 47.93700
C  46.81300 7.13800 48.07300
N  41.84100 5.07600 47.43200
C  41.22500 6.30200 47.51800
C  39.70300 6.18900 47.32800
C  39.43300 4.63900 47.40200
C  40.85400 4.10700 47.64100
C  38.44700 4.15900 48.50700
C  39.11200 6.90600 46.06900
C  37.83000 6.39400 45.32800
H  38.10400 5.83800 43.95200
N  43.67800 2.70000 47.93400
C  42.47600 2.02200 47.72900
C  42.82000 0.64300 47.56200
C  44.18500 0.50500 47.80200
C  44.74200 1.87500 47.96800
C  41.76400 -0.45800 47.38700
C  44.93700 -0.83400 47.79000
O  44.31400 -1.90800 47.61700
C  46.39300 -0.80900 48.08200
N  46.13800 4.77200 47.94300
C  46.75900 3.55500 47.86400
C  48.25000 3.69000 47.90500
C  48.55900 5.17900 48.18500
C  47.10900 5.70900 48.09900
C  49.01100 2.76600 48.89400
C  49.48000 5.84000 47.23000
C  50.94100 5.99300 47.67000
N  44.31600 6.88600 47.95000
C  45.54900 7.64500 47.91400
C  45.15500 9.11200 47.80500
C  43.76300 9.07100 47.66600
C  43.31000 7.72300 47.75000
C  46.06300 10.24200 47.73100
C  42.60300 9.87800 47.56300
O  42.52100 11.07700 47.45700
C  41.35400 8.95800 47.52800
C  40.44500 9.31900 48.66100
O  40.09300 8.56400 49.51300
O  39.88700 10.56600 48.51700
C  38.77700 10.85000 49.47000
H  40.40200 1.98300 47.57600
H  46.79700 1.52100 47.67100
H  47.66600 7.82000 48.07700
H  39.23700 6.73300 48.15000
H  39.14800 4.37600 46.38300
H  37.66400 3.51100 48.11300
H  37.82400 5.00000 48.81100
H  38.94600 3.67800 49.34800
H  39.98900 6.90000 45.42100
H  38.85100 7.93000 46.33500
H  37.09400 7.19900 45.32100
H  37.42500 5.64000 46.00300
H  41.38200 -0.73000 48.37100
H  42.09900 -1.38200 46.91600
H  40.97800 -0.02400 46.76900
H  46.91100 -0.64300 47.13700
H  46.69100 -1.83300 48.30500
H  46.71800 -0.18800 48.91700
H  48.54000 3.42500 46.88900
H  48.93000 5.36600 49.19300
H  48.47300 2.30500 49.72300
H  49.99600 3.14400 49.16800
H  49.29300 1.95800 48.22000
H  49.11800 6.79000 46.83900
H  49.53600 5.20400 46.34700
H  51.56700 5.42900 46.97900
H  50.97000 5.63600 48.70000
H  51.26900 7.03300 47.69000
H  46.77700 10.23800 48.55500
H  45.47900 11.16200 47.74100
H  46.67200 10.24900 46.82700
H  40.82800 9.24000 46.61600
H  39.04300 10.64800 50.50700
H  37.86800 10.32000 49.18300
H  38.55300 11.91600 49.43600
Mg 42.29600 41.39900 26.05100
C  41.50100 43.69700 28.57000
C  44.02900 39.58700 28.33600
C  42.66600 38.96300 23.82300
C  41.32600 43.62200 23.74100
N  42.78100 41.69400 28.26800
C  42.15600 42.58900 29.10600
C  42.42100 42.30400 30.52800
C  43.30900 40.91800 30.39800
C  43.34400 40.68500 28.90800
C  44.56500 40.97200 31.25000
C  41.14100 41.96100 31.36100
C  40.59200 42.96800 32.43700
H  40.05300 42.38800 33.75200
N  43.41300 39.61300 26.02400
C  44.07800 39.05100 27.07500
C  44.62700 37.78600 26.61500
C  44.04900 37.49300 25.34700
C  43.32600 38.71500 25.01300
C  45.54600 36.94400 27.48900
C  44.09200 36.22800 24.51800
O  43.51000 36.15500 23.37700
C  44.86800 35.08900 24.99000
N  42.17800 41.36900 24.06800
C  42.23400 40.22400 23.35200
C  41.82900 40.42500 21.93100
C  41.49600 41.96800 21.85500
C  41.67300 42.37700 23.28700
C  43.05200 40.04300 20.98400
C  40.01700 42.18300 21.33000
C  39.80400 43.25900 20.30700
N  41.42400 43.23400 26.10900
C  41.07000 44.02800 25.07100
C  40.57300 45.27000 25.55100
C  40.66100 45.18000 26.92200
C  41.21600 43.91800 27.20700
C  40.11100 46.38900 24.60700
C  40.43100 45.83600 28.15000
O  39.95800 46.96200 28.45400
C  40.90300 44.87600 29.36500
C  41.80200 45.63100 30.18700
O  42.93100 45.85000 30.00900
O  41.19300 45.96400 31.30600
C  41.95200 46.69900 32.40300
H  44.51700 38.94000 29.06800
H  42.52200 38.15700 23.10100
H  41.17700 44.33600 22.92900
H  43.01100 43.12200 30.94100
H  42.72100 40.08600 30.78400
H  45.57600 40.93200 30.84200
H  44.48300 40.29000 32.09600
H  44.54300 41.94000 31.75000
H  41.15800 40.97500 31.82600
H  40.27000 41.96900 30.70600
H  39.76100 43.57800 32.08100
H  41.36200 43.72900 32.56500
H  46.35300 36.68600 26.80200
H  44.94600 36.14700 27.92800
H  45.97800 37.53300 28.29800
H  44.67000 34.81300 26.02600
H  45.91400 35.29400 24.76400
H  44.52900 34.17800 24.49600
H  40.97800 39.77800 21.71700
H  42.14000 42.66600 21.32100
H  42.96300 39.06100 20.51900
H  44.01100 40.18400 21.48400
H  42.96200 40.77400 20.18100
H  39.31100 42.30400 22.15100
H  39.65800 41.24300 20.91100
H  39.17700 44.07000 20.67800
H  39.53900 42.88100 19.31900
H  40.67500 43.91200 20.23300
H  39.24300 45.93200 24.13200
H  40.85700 46.68100 23.86800
H  39.66600 47.13600 25.26500
H  40.02900 44.66200 29.98100
H  42.04800 46.10600 33.31300
H  41.41500 47.63500 32.55800
H  42.94000 46.98700 32.04400

