158

Mg -1.35800 17.78700 27.40700
C  -1.88000 15.59000 29.92100
C  -2.25200 20.39400 29.50200
C  -1.61100 20.00400 24.80700
C  -1.18000 15.14200 25.14600
N  -1.92400 17.89000 29.47400
C  -2.09400 16.88300 30.32500
C  -2.32500 17.36400 31.75700
C  -2.94500 18.84500 31.43800
C  -2.34200 19.05200 30.04800
C  -4.44400 19.01100 31.51100
C  -1.03500 17.32100 32.61800
C  -1.23700 16.67100 33.95300
H  -0.06100 16.41600 34.96300
N  -1.51000 19.94100 27.26100
C  -1.92300 20.83700 28.20400
C  -2.05900 22.17600 27.60900
C  -1.68000 22.06100 26.27000
C  -1.60300 20.62200 26.04900
C  -2.35900 23.47700 28.39400
C  -1.38800 23.12600 25.34000
O  -0.89100 22.94900 24.26900
C  -1.61500 24.61700 25.66800
N  -1.45000 17.60500 25.40500
C  -1.65100 18.65700 24.51200
C  -1.99400 18.08700 23.03000
C  -1.22300 16.68800 23.13800
C  -1.39800 16.44800 24.65800
C  -3.49800 18.00500 22.72800
C  0.27200 16.78600 22.56900
C  1.52100 16.51100 23.47300
N  -1.22900 15.74000 27.53300
C  -1.16100 14.80500 26.51300
C  -1.19300 13.46000 27.11100
C  -1.47800 13.73600 28.45000
C  -1.50600 15.11300 28.61400
C  -1.28600 12.10700 26.42200
C  -1.79900 13.11900 29.73300
O  -1.87100 11.92400 29.99700
C  -1.87300 14.33000 30.75200
C  -0.67300 14.06900 31.61500
O  0.39200 14.54400 31.35300
O  -0.91100 13.27000 32.68000
C  0.21200 12.94600 33.53500
H  -2.67100 21.20200 30.10400
H  -1.76900 20.69000 23.97200
H  -1.08300 14.35500 24.39500
H  -3.07500 16.68500 32.16200
H  -2.54700 19.50400 32.20900
H  -4.75200 19.11500 32.55200
H  -4.90600 18.07700 31.19100
H  -4.80000 19.71800 30.76200
H  -0.78700 18.38100 32.65500
H  -0.29600 16.68100 32.13600
H  -1.70000 15.70500 33.75500
H  -1.94000 17.34600 34.44000
H  -2.74600 23.27800 29.39400
H  -3.20400 24.03000 27.98500
H  -1.48800 24.09800 28.60300
H  -1.02300 24.83800 26.55600
H  -2.68200 24.53200 25.87300
H  -1.35300 25.29900 24.85900
H  -1.60400 18.75300 22.26000
H  -1.74500 15.93600 22.54600
H  -3.76300 18.53800 21.81400
H  -4.07000 18.33200 23.59500
H  -3.82900 16.98300 22.54500
H  0.49000 17.76100 22.13200
H  0.43700 16.09200 21.74500
H  2.19000 17.36400 23.35900
H  2.04900 15.64300 23.07800
H  1.22600 16.36400 24.51200
H  -0.44900 11.53600 26.82400
H  -1.22700 12.22200 25.33900
H  -2.24100 11.61200 26.59600
H  -2.73000 14.32800 31.42500
H  -0.16100 13.28200 34.50200
H  1.03400 13.64900 33.40100
H  0.50200 11.89500 33.54400
Mg -1.99600 34.91400 26.23100
C  -4.07400 33.20700 28.38600
C  -1.39000 37.15700 28.56100
C  -0.19700 36.67100 23.90100
C  -3.22600 32.82200 23.64700
N  -2.74300 35.08700 28.18500
C  -3.44500 34.24600 28.99500
C  -3.31400 34.55900 30.50100
C  -2.74900 36.00600 30.45800
C  -2.22500 36.06800 29.03400
C  -3.74300 37.11800 30.77400
C  -2.39400 33.55200 31.33400
C  -3.00500 33.14900 32.74600
H  -3.35300 34.25400 33.78900
N  -0.83100 36.56600 26.28900
C  -0.72300 37.38400 27.32900
C  0.03900 38.57100 26.97400
C  0.46600 38.43200 25.66100
C  -0.12400 37.16600 25.26200
C  0.38100 39.64100 28.05100
C  1.40600 39.30300 24.85600
O  1.65400 38.98300 23.69300
C  1.98700 40.45900 25.42200
N  -1.61900 34.67300 24.21300
C  -0.88000 35.54500 23.42600
C  -0.77500 34.96700 22.01500
C  -1.39400 33.57800 22.08600
C  -2.16200 33.72100 23.38700
C  -1.45900 35.84900 20.78700
C  -0.39500 32.38700 22.14900
C  0.50700 32.12200 23.36500
N  -3.50000 33.44700 25.98000
C  -3.87900 32.64800 24.88500
C  -4.74700 31.61300 25.33600
C  -4.92000 31.83200 26.69800
C  -4.10200 32.89300 27.03500
C  -5.50700 30.61800 24.45500
C  -5.63400 31.44900 27.92100
O  -6.41200 30.59100 28.08000
C  -5.02800 32.15300 29.02200
C  -6.06500 32.96800 29.80800
O  -6.44800 34.03600 29.50200
O  -6.42900 32.24700 30.94500
C  -7.43900 32.85900 31.85400
H  -1.25200 37.85200 29.39200
H  0.27500 37.27100 23.11900
H  -3.41000 32.12100 22.83000
H  -4.31000 34.65600 30.93400
H  -1.97800 36.00300 31.22900
H  -4.69700 36.83600 30.32800
H  -3.53500 38.07100 30.28800
H  -3.92500 37.15100 31.84800
H  -1.34600 33.80300 31.50000
H  -2.45600 32.56100 30.88400
H  -2.29000 32.48200 33.22800
H  -3.96300 32.62900 32.71900
H  -0.42200 40.35700 28.22600
H  1.26100 40.25300 27.85400
H  0.52700 39.21200 29.04200
H  2.75900 40.72700 24.70200
H  2.60100 40.05100 26.22500
H  1.30600 41.22900 25.78400
H  0.28600 34.85300 21.79000
H  -2.06900 33.36800 21.25600
H  -0.56600 36.08500 20.20800
H  -1.93500 36.72700 21.22300
H  -2.16700 35.26200 20.20100
H  0.23500 32.46300 21.26300
H  -0.93500 31.45700 21.97200
H  0.19900 32.84400 24.12100
H  1.55700 32.37100 23.21500
H  0.45300 31.07300 23.65800
H  -5.16700 29.59900 24.64100
H  -5.35900 30.75100 23.38300
H  -6.58900 30.67500 24.56900
H  -4.53100 31.43800 29.67700
H  -8.29100 33.14100 31.23600
H  -7.14900 33.74200 32.42300
H  -7.80900 32.05700 32.49300

