158

Mg 1.46600 7.99800 24.85300
C  2.10700 9.72300 28.00400
C  1.30500 5.10100 26.76600
C  1.35700 6.32000 21.97300
C  1.81900 10.99900 23.28200
N  2.01700 7.45700 27.13000
C  1.99000 8.29600 28.16000
C  1.84300 7.60000 29.52800
C  1.78100 6.14000 29.07200
C  1.67100 6.19100 27.53600
C  2.89400 5.21100 29.71100
C  0.57600 8.08800 30.42500
C  0.91900 8.43700 31.86200
H  1.97900 7.75300 32.64800
N  1.40700 5.93100 24.39500
C  1.24200 4.95200 25.31500
C  1.01100 3.69400 24.60100
C  0.99500 3.98400 23.22000
C  1.31200 5.44300 23.12700
C  0.69400 2.45900 25.39300
C  0.73200 3.02900 21.99500
O  0.47800 3.56700 20.89300
C  0.46300 1.55700 22.09400
N  1.73100 8.54000 22.94500
C  1.48300 7.65900 21.93100
C  1.38000 8.36600 20.56400
C  1.27400 9.87300 20.99800
C  1.64000 9.82500 22.44200
C  2.67200 8.12400 19.74100
C  -0.09200 10.54300 20.64000
C  -0.22100 11.06500 19.17400
N  1.89300 9.95800 25.45700
C  1.99600 11.06000 24.68800
C  2.11900 12.25200 25.50900
C  2.18300 11.77800 26.82600
C  2.07900 10.34600 26.71300
C  2.15900 13.71500 25.06400
C  2.26700 12.13100 28.18100
O  2.30400 13.25000 28.69900
C  2.09600 10.87700 28.96000
C  3.26500 10.72800 29.89300
O  4.15500 9.89400 29.79900
O  3.13100 11.50700 31.03900
C  4.13900 11.31600 32.04200
H  0.99000 4.25100 27.37500
H  1.43800 5.74500 21.04800
H  1.82000 11.97800 22.79800
H  2.70600 7.80600 30.16100
H  0.88000 5.66000 29.45500
H  2.46200 4.54000 30.45300
H  3.54100 5.94500 30.19200
H  3.53100 4.71300 28.98000
H  -0.15100 7.27600 30.44800
H  0.18600 8.99100 29.95700
H  -0.04800 8.28600 32.34200
H  1.08600 9.51400 31.83200
H  0.15200 1.67300 24.86800
H  0.02300 2.68100 26.22300
H  1.59000 1.89200 25.64600
H  0.52400 1.20300 21.06500
H  -0.53100 1.43900 22.52600
H  1.19300 1.00200 22.68300
H  0.53500 8.00100 19.98100
H  2.04000 10.40900 20.43800
H  2.66000 8.42700 18.69400
H  2.91700 7.06200 19.74500
H  3.53100 8.62400 20.19000
H  -0.33200 11.40500 21.26300
H  -0.82400 9.76700 20.85900
H  0.60600 10.73800 18.54400
H  -0.25000 12.15300 19.12900
H  -1.01400 10.50400 18.67700
H  2.66900 14.32600 25.80800
H  1.13400 13.98700 24.81100
H  2.67500 13.81600 24.11000
H  1.18800 10.91300 29.56200
H  5.15300 11.27100 31.64400
H  3.87800 10.39500 32.56300
H  4.24000 12.01900 32.87000
Mg 25.66400 0.13000 29.18700
C  27.77700 -0.64700 31.95600
C  23.06800 0.59300 31.24800
C  23.90500 0.45000 26.49900
C  28.50400 -0.87600 27.17200
N  25.51500 0.02400 31.31800
C  26.48900 -0.22300 32.33100
C  25.96600 -0.07600 33.76900
C  24.47500 0.38000 33.43000
C  24.30600 0.30800 31.90100
C  23.39900 -0.27900 34.29000
C  26.77600 1.00700 34.65300
C  27.48100 0.56200 35.85000
H  27.36400 1.45900 37.06900
N  23.78700 0.51200 28.88700
C  22.83200 0.74200 29.84400
C  21.56300 1.05300 29.17900
C  21.88000 1.23200 27.81500
C  23.22800 0.67000 27.65300
C  20.26200 1.31200 30.04000
C  21.06000 1.75900 26.64300
O  21.48000 1.94000 25.50900
C  19.59900 1.94400 26.89800
N  26.19100 -0.06700 27.11200
C  25.22300 0.17300 26.18200
C  25.78000 0.02600 24.71500
C  27.30600 -0.09600 24.99100
C  27.37400 -0.32100 26.51600
C  25.02700 -1.09300 23.95400
C  28.17100 1.12700 24.50200
C  28.07100 2.45900 25.35200
N  27.65400 -0.92500 29.43900
C  28.68700 -1.18500 28.54600
C  29.87000 -1.72200 29.23800
C  29.53600 -1.54000 30.61200
C  28.21900 -0.96000 30.63500
C  31.14000 -2.27100 28.61000
C  30.04100 -1.66200 32.01500
O  31.14800 -1.98200 32.41900
C  28.82800 -1.09000 32.88700
C  28.48700 -2.12100 33.85600
O  27.61600 -2.93300 33.87400
O  29.37600 -1.98500 34.86000
C  29.13900 -2.74400 36.08800
H  22.19700 0.83400 31.86000
H  23.28300 0.73800 25.64800
H  29.32500 -1.19600 26.52700
H  25.82500 -1.01300 34.30600
H  24.33600 1.44400 33.61700
H  22.94100 -1.03000 33.64700
H  22.65200 0.50700 34.40400
H  23.70500 -0.69700 35.24900
H  26.05000 1.72500 35.03400
H  27.42000 1.58900 33.99400
H  28.51300 0.44700 35.51900
H  26.99600 -0.38900 36.06800
H  20.00700 2.37100 30.01100
H  20.33300 0.83500 31.01700
H  19.44000 0.82300 29.51800
H  19.15100 2.12300 25.92000
H  19.67500 2.90600 27.40600
H  19.15500 1.08200 27.39400
H  25.68600 0.95400 24.15100
H  27.60500 -1.05100 24.55900
H  24.09000 -1.12700 24.50900
H  25.54500 -2.05000 24.01200
H  24.66600 -0.92000 22.94000
H  27.93500 1.42700 23.48100
H  29.18400 0.75200 24.65100
H  27.35200 2.40500 26.16900
H  27.70600 3.22600 24.66900
H  29.02200 2.82900 25.73500
H  32.04900 -1.94700 29.11700
H  31.12800 -2.02200 27.54800
H  31.07300 -3.35100 28.47900
H  29.20600 -0.23600 33.45000
H  29.37000 -3.80300 35.97500
H  28.08400 -2.90600 36.30900
H  29.60000 -2.29500 36.96700

