158

Mg 43.37500 5.07200 47.03500
C  40.93100 7.45900 46.96500
C  40.83000 2.63700 46.75800
C  45.68100 2.72100 46.58000
C  45.82000 7.52000 47.21100
N  41.09200 5.04100 46.79200
C  40.32100 6.16800 46.85300
C  38.90100 5.82100 46.88000
C  38.86200 4.26700 46.91600
C  40.34800 3.92900 46.81800
C  38.25000 3.62200 48.21000
C  38.10200 6.36000 45.67500
C  38.71200 6.09300 44.23100
H  38.94500 7.32600 43.23200
N  43.27600 2.98600 46.80200
C  42.13000 2.18600 46.73400
C  42.55200 0.79000 46.70800
C  43.99100 0.73900 46.70800
C  44.40400 2.16000 46.74700
C  41.63800 -0.47100 46.59400
C  44.87000 -0.52200 47.00500
O  44.45800 -1.64000 47.03600
C  46.35300 -0.37600 47.19300
N  45.51700 5.14200 47.09400
C  46.20400 4.03500 46.71500
C  47.76000 4.41900 46.42300
C  47.79800 5.82500 46.88200
C  46.30200 6.21700 47.08100
C  48.84500 3.52400 47.21000
C  48.63100 6.85300 45.97900
C  49.85600 7.43500 46.64900
N  43.37700 7.11300 47.14700
C  44.42600 7.96000 47.19100
C  43.88100 9.35400 47.06600
C  42.50200 9.15600 46.94600
C  42.27800 7.79000 47.10000
C  44.82800 10.54600 46.92900
C  41.36400 9.81500 46.85700
O  41.22100 11.03300 46.69300
C  40.21000 8.78800 46.86700
C  39.29200 9.00900 47.98000
O  39.53800 8.67000 49.14900
O  38.12200 9.63300 47.48800
C  37.14900 9.99200 48.59800
H  40.06900 1.86600 46.89800
H  46.44700 2.00200 46.28200
H  46.57600 8.30800 47.18300
H  38.36900 6.18400 47.75900
H  38.42100 3.96800 45.96500
H  38.86000 2.79700 48.58000
H  37.20400 3.43600 47.96600
H  38.22300 4.38500 48.98700
H  38.02000 7.43900 45.80600
H  37.12000 5.88900 45.67900
H  38.01200 5.47300 43.67100
H  39.62900 5.50900 44.30000
H  41.88500 -1.08000 45.72500
H  40.60900 -0.13100 46.47900
H  41.79600 -1.09700 47.47300
H  46.40500 0.31700 48.03300
H  46.84900 -0.01200 46.29400
H  46.68100 -1.34600 47.56800
H  47.90200 4.25600 45.35500
H  48.20300 5.83200 47.89400
H  49.30900 2.79400 46.54600
H  48.26600 2.94600 47.93000
H  49.67300 4.07200 47.65800
H  48.16600 7.81300 45.75800
H  48.94800 6.36900 45.05500
H  49.92900 8.51900 46.55300
H  50.79100 7.02800 46.26300
H  50.05100 7.14600 47.68100
H  45.64800 10.38900 46.22800
H  45.24900 10.78800 47.90500
H  44.19700 11.39100 46.65500
H  39.69000 8.92700 45.92000
H  36.80800 9.06700 49.06200
H  36.27600 10.46400 48.14600
H  37.69800 10.63200 49.28800
Mg -12.04600 16.48100 41.16900
C  -8.75700 15.19700 40.61200
C  -10.95400 19.47900 39.74300
C  -15.22300 17.48900 41.10500
C  -13.02400 13.27100 42.17600
N  -10.05500 17.16100 39.96900
C  -8.89900 16.55400 40.09400
C  -7.81100 17.40000 39.27600
C  -8.53300 18.81700 39.20500
C  -9.95400 18.49000 39.63200
C  -7.89200 19.99000 40.02000
C  -7.36100 16.69600 37.95300
C  -5.86700 16.51300 37.78300
H  -5.25000 17.06100 36.51700
N  -12.95000 18.30200 40.58200
C  -12.32000 19.43100 40.11100
C  -13.37100 20.44600 39.93100
C  -14.61700 19.89900 40.41300
C  -14.31300 18.51800 40.69600
C  -13.05400 21.76800 39.34900
C  -15.98100 20.57500 40.53000
O  -15.99600 21.81400 40.36000
C  -17.34400 19.93200 40.76300
N  -13.85500 15.48800 41.61800
C  -14.97800 16.16600 41.60000
C  -16.17200 15.27800 42.03600
C  -15.50100 13.93500 42.39400
C  -14.06100 14.20400 41.99200
C  -17.14200 15.86800 43.10800
C  -16.07900 12.71700 41.54400
C  -16.17900 11.39500 42.34800
N  -11.15600 14.58000 41.41500
C  -11.68600 13.41000 41.87900
C  -10.63800 12.45000 42.02200
C  -9.43500 13.06500 41.59100
C  -9.83600 14.40600 41.22900
C  -10.80800 11.01800 42.57300
C  -7.95900 12.99300 41.30700
O  -7.18700 12.06100 41.62600
C  -7.58300 14.30800 40.57600
C  -6.36300 14.88300 41.13300
O  -6.38800 15.65700 42.08600
O  -5.25400 14.42100 40.43700
C  -4.03600 14.67400 41.19500
H  -10.69200 20.48400 39.40600
H  -16.28000 17.74800 41.20100
H  -13.22600 12.32700 42.68600
H  -6.95300 17.66300 39.89300
H  -8.72000 19.06600 38.16100
H  -6.98700 19.78900 40.59300
H  -8.61600 20.26900 40.78600
H  -7.63800 20.88800 39.45700
H  -7.82700 17.31200 37.18300
H  -7.75400 15.68200 37.88700
H  -5.82800 15.42700 37.86800
H  -5.39400 16.99700 38.63700
H  -13.91900 22.20800 38.85300
H  -12.23800 21.76900 38.62600
H  -12.78200 22.34500 40.23300
H  -18.17900 20.61300 40.59900
H  -17.47400 19.52700 41.76700
H  -17.44700 19.15300 40.00800
H  -16.78300 15.26100 41.13300
H  -15.64000 13.69200 43.44800
H  -18.02000 16.08200 42.49800
H  -16.74600 16.79300 43.52600
H  -17.47500 15.08600 43.79100
H  -15.57100 12.58100 40.59000
H  -17.11700 12.98300 41.34400
H  -15.46000 10.65100 42.00600
H  -17.15700 10.94500 42.17600
H  -15.92400 11.48800 43.40400
H  -11.74700 11.03100 43.12600
H  -9.93500 10.70400 43.14600
H  -10.85600 10.45700 41.64000
H  -7.41000 14.08000 39.52400
H  -4.25000 14.22300 42.16400
H  -3.89100 15.74300 41.35500
H  -3.18600 14.17600 40.72900

