158

Mg 2.45500 -2.45500 45.06200
C  5.76600 -1.81300 44.44000
C  1.62000 0.15300 42.84000
C  -0.85500 -3.42100 45.07200
C  3.29100 -5.51700 46.55900
N  3.54300 -0.95500 43.94500
C  4.92500 -0.89700 43.81900
C  5.45200 0.16200 42.81200
C  4.06200 0.80900 42.38500
C  3.00600 -0.08000 43.08200
C  3.93400 2.22000 42.93400
C  6.30900 -0.35500 41.60100
C  7.72200 0.27500 41.47000
H  8.01800 1.01600 40.21200
N  0.62200 -1.54400 44.33300
C  0.51800 -0.53600 43.38200
C  -0.85300 -0.31300 43.18900
C  -1.63200 -1.21700 43.96900
C  -0.64400 -2.12200 44.55400
C  -1.28900 0.88000 42.25800
C  -3.14100 -1.17200 44.14000
O  -3.85700 -0.37000 43.48800
C  -3.73000 -2.01900 45.11800
N  1.40000 -4.34000 45.58200
C  0.04300 -4.37100 45.58800
C  -0.48100 -5.66800 46.26500
C  0.85700 -6.39300 46.67300
C  1.93700 -5.46600 46.14000
C  -1.62300 -5.45200 47.34300
C  0.91300 -7.83000 46.10700
C  0.53200 -9.03200 47.07000
N  4.16300 -3.44700 45.52800
C  4.33500 -4.70600 46.06700
C  5.79100 -4.97900 46.18400
C  6.43400 -3.84100 45.55000
C  5.39700 -3.01300 45.17800
C  6.50600 -6.20500 46.75200
C  7.72000 -3.20600 45.19800
O  8.88800 -3.50100 45.43300
C  7.30800 -1.89700 44.45900
C  7.76200 -0.75200 45.25800
O  7.61700 -0.64400 46.46600
O  8.45400 0.19000 44.46300
C  8.69400 1.46700 45.05900
H  1.49000 0.84900 42.00900
H  -1.91100 -3.60300 45.28400
H  3.60400 -6.47200 46.98700
H  5.98700 0.90000 43.41000
H  3.81600 0.82700 41.32300
H  3.74200 2.89100 42.09700
H  4.74100 2.50300 43.60800
H  3.04600 2.37800 43.54600
H  5.80500 -0.12600 40.66100
H  6.28200 -1.43700 41.73000
H  8.39300 -0.56000 41.67200
H  7.98800 1.00200 42.23700
H  -2.18200 0.49700 41.76400
H  -0.59600 1.09200 41.44400
H  -1.41700 1.82600 42.78400
H  -3.16300 -2.04300 46.04800
H  -3.77400 -3.01100 44.66800
H  -4.77200 -1.75700 45.29900
H  -1.00600 -6.21500 45.48200
H  0.94800 -6.55300 47.74800
H  -2.07600 -4.46200 47.30200
H  -1.27800 -5.39700 48.37500
H  -2.42800 -6.18100 47.25100
H  1.95100 -7.98300 45.81200
H  0.36000 -8.03400 45.19000
H  -0.42000 -9.38800 46.67800
H  0.27900 -8.65500 48.06100
H  1.36900 -9.72700 47.13600
H  6.09000 -6.54500 47.70100
H  7.56500 -5.98500 46.88400
H  6.42300 -6.92500 45.93900
H  7.79900 -1.97600 43.48900
H  7.80500 1.80800 45.59000
H  8.85100 2.21300 44.28000
H  9.53500 1.39300 45.74800
Mg -5.58100 24.46400 26.32200
C  -3.81600 26.21800 28.65500
C  -6.94400 22.53700 28.66800
C  -7.27000 22.76800 23.77200
C  -3.99700 26.30500 23.76900
N  -5.49800 24.45300 28.46600
C  -4.73000 25.30300 29.24200
C  -5.14100 25.11400 30.71400
C  -5.84000 23.76200 30.71900
C  -6.13500 23.56700 29.18800
C  -5.11500 22.62100 31.45300
C  -6.14000 26.21900 31.11500
C  -6.44600 26.55000 32.58600
H  -5.96600 25.56500 33.66200
N  -6.92800 22.93800 26.25900
C  -7.42300 22.30300 27.35800
C  -8.37000 21.33000 26.95400
C  -8.46300 21.36000 25.54800
C  -7.54800 22.37300 25.15800
C  -9.19700 20.63000 28.05300
C  -9.50200 20.56500 24.63400
O  -9.49300 20.68400 23.36100
C  -10.55600 19.64400 25.24700
N  -5.55900 24.44300 24.06300
C  -6.36400 23.73600 23.24200
C  -6.38800 24.10600 21.76300
C  -5.28800 25.28200 21.85700
C  -4.89800 25.33200 23.31500
C  -5.97400 22.93900 20.85800
C  -5.89500 26.62900 21.36600
C  -5.54100 27.01400 19.88500
N  -4.17700 26.04400 26.20900
C  -3.64100 26.64300 25.10500
C  -2.59200 27.55500 25.57400
C  -2.62700 27.48700 27.02600
C  -3.61600 26.50200 27.27500
C  -1.69800 28.38700 24.79100
C  -2.04400 27.92500 28.30000
O  -1.18700 28.80800 28.56800
C  -2.92000 27.20200 29.39700
C  -2.13800 26.76900 30.59900
O  -1.71200 25.61900 30.75200
O  -2.02000 27.73600 31.58100
C  -1.69000 27.15400 32.90100
H  -7.41600 21.85900 29.38300
H  -7.74100 22.12100 23.03000
H  -3.47300 26.90300 23.02100
H  -4.25200 25.17700 31.34200
H  -6.85700 23.80300 31.11000
H  -4.55700 22.02500 30.73100
H  -5.75300 21.99000 32.07200
H  -4.32600 23.05300 32.06900
H  -7.12000 25.93900 30.72800
H  -5.72000 27.10900 30.64700
H  -7.48800 26.77000 32.82000
H  -5.90400 27.47700 32.77300
H  -9.60800 21.34300 28.76800
H  -8.52500 20.01100 28.64700
H  -10.03100 20.03200 27.68600
H  -9.95200 18.81900 25.62500
H  -11.15100 19.26100 24.41900
H  -11.32100 20.08100 25.88900
H  -7.37100 24.47800 21.47600
H  -4.41300 25.04500 21.25300
H  -4.97900 23.13500 20.46000
H  -6.68500 22.79700 20.04500
H  -5.89000 22.00700 21.41700
H  -5.53500 27.46800 21.96300
H  -6.97500 26.60100 21.50900
H  -4.81600 26.33600 19.43600
H  -5.13300 28.01500 19.74000
H  -6.49400 26.94200 19.36100
H  -1.25900 27.93000 23.90400
H  -0.88100 28.76400 25.40700
H  -2.28800 29.22600 24.42200
H  -3.58300 28.00700 29.71300
H  -1.75900 27.88700 33.70500
H  -0.68600 26.73200 32.94600
H  -2.42200 26.37200 33.10400

