158

Mg -0.55400 6.98800 26.95400
C  0.09100 9.11700 29.63500
C  -1.06400 4.44700 29.19500
C  -1.31700 5.08300 24.29800
C  -0.21300 9.74400 24.78400
N  -0.48700 6.76500 29.24500
C  -0.18000 7.83000 30.11100
C  -0.11300 7.27400 31.52100
C  -0.27000 5.70400 31.37300
C  -0.67600 5.63300 29.88300
C  1.14000 4.97700 31.55500
C  -1.19300 7.90400 32.46700
C  -0.90500 7.82000 33.99000
H  0.40600 7.08700 34.50000
N  -1.07100 5.07500 26.76300
C  -1.24700 4.17300 27.77600
C  -1.67700 2.93200 27.17800
C  -1.68000 3.04000 25.78100
C  -1.36500 4.39700 25.53900
C  -2.14700 1.76400 28.08200
C  -2.01500 2.03300 24.69900
O  -2.13700 2.33700 23.51300
C  -2.44200 0.58400 25.09500
N  -0.89300 7.40400 24.81000
C  -1.13800 6.41400 23.96700
C  -1.20500 7.00300 22.52100
C  -1.39400 8.58400 22.75600
C  -0.74100 8.59000 24.17900
C  0.07800 6.71300 21.67600
C  -2.86300 9.15700 22.73000
C  -2.93800 10.34800 21.82200
N  0.00200 8.90300 27.13900
C  0.21700 9.87600 26.17100
C  0.56300 11.15100 26.78600
C  0.58400 10.88200 28.15500
C  0.24500 9.49900 28.28600
C  0.67000 12.56300 26.16100
C  0.76400 11.47800 29.38700
O  1.03300 12.61600 29.65100
C  0.32100 10.35600 30.43600
C  1.48900 10.20400 31.33600
O  2.53100 9.65300 31.11000
O  1.11500 10.74100 32.56300
C  2.15200 10.81100 33.60300
H  -0.95900 3.53200 29.78100
H  -1.26900 4.46600 23.39900
H  -0.20200 10.62100 24.13200
H  0.89100 7.56000 31.83500
H  -0.93800 5.19900 32.07000
H  1.86500 5.73400 31.25400
H  1.13200 4.26400 30.73100
H  1.29000 4.38000 32.45400
H  -2.16000 7.42800 32.30800
H  -1.33800 8.94400 32.17400
H  -1.76700 7.33700 34.45100
H  -0.89500 8.85600 34.32600
H  -1.36200 1.04200 28.30900
H  -2.92000 1.15800 27.60900
H  -2.56800 2.10800 29.02700
H  -1.66300 0.05400 25.64300
H  -2.59800 -0.00900 24.19400
H  -3.41600 0.65400 25.57900
H  -2.11400 6.71200 21.99400
H  -0.76900 9.26000 22.17200
H  0.59100 7.67300 21.74100
H  -0.28300 6.46300 20.67800
H  0.64600 5.88400 22.09900
H  -2.90200 9.64300 23.70500
H  -3.59900 8.35600 22.65500
H  -2.16800 10.43900 21.05600
H  -3.02400 11.23200 22.45400
H  -3.86000 10.19600 21.26100
H  0.27500 13.22900 26.92800
H  0.09000 12.60700 25.24000
H  1.72700 12.76200 25.98300
H  -0.54800 10.68100 31.00800
H  2.74200 11.69300 33.35500
H  2.68400 9.87200 33.75600
H  1.53400 11.06200 34.46500
Mg 34.63600 2.73500 28.96600
C  32.82600 3.94100 31.70400
C  37.42900 2.49100 31.00000
C  36.31000 2.00800 26.30300
C  31.74700 3.44000 26.96100
N  35.04200 3.16200 31.12600
C  34.11100 3.60600 32.04000
C  34.81000 3.65900 33.49400
C  36.36700 3.42800 33.09700
C  36.27300 2.94800 31.64400
C  37.32900 4.61800 33.34800
C  34.28900 2.62200 34.53300
C  34.00700 3.22500 35.98100
H  35.14800 4.15500 36.51800
N  36.57100 2.36100 28.67600
C  37.59000 2.28700 29.57600
C  38.79800 1.93600 28.91400
C  38.50300 1.95800 27.49500
C  37.05900 2.12600 27.44300
C  40.15300 1.78100 29.68300
C  39.49600 1.89600 26.33600
O  39.11800 2.00600 25.19600
C  40.90300 1.48300 26.67500
N  34.13500 2.87300 26.85200
C  34.97900 2.36700 26.01000
C  34.36100 2.22300 24.62200
C  32.80800 2.45400 24.90900
C  32.89200 2.95800 26.31600
C  34.97800 3.14100 23.52900
C  31.97900 1.12200 24.84900
C  31.11000 1.05700 23.60400
N  32.75500 3.58500 29.17000
C  31.69900 3.86700 28.33100
C  30.55000 4.32400 29.00200
C  30.89900 4.32000 30.33600
C  32.28300 3.91300 30.37700
C  29.23900 4.68200 28.36100
C  30.47200 4.55500 31.67000
O  29.34000 4.66600 32.17300
C  31.77300 4.40800 32.65000
C  32.07600 5.72100 33.30000
O  32.50000 6.72800 32.71100
O  31.69500 5.72200 34.61900
C  31.77900 6.93400 35.44000
H  38.26300 2.39200 31.69700
H  36.80400 1.72500 25.37100
H  30.86900 3.57700 26.32600
H  34.67000 4.65700 33.91000
H  36.77500 2.64400 33.73500
H  37.91600 4.34400 34.22500
H  36.71700 5.46800 33.65000
H  38.08200 4.82800 32.58700
H  34.87100 1.70600 34.63200
H  33.40100 2.19000 34.07100
H  33.87100 2.46100 36.74600
H  33.05500 3.75300 35.93700
H  40.51000 0.77500 29.46500
H  39.97300 1.86100 30.75500
H  40.90400 2.45000 29.26300
H  41.31000 1.21400 25.70000
H  40.79700 0.59400 27.29600
H  41.42500 2.30900 27.15900
H  34.65800 1.19800 24.40000
H  32.30900 3.14100 24.22600
H  34.33300 3.06900 22.65300
H  35.99100 2.96300 23.16900
H  34.74400 4.18600 23.73000
H  31.38300 1.00300 25.75300
H  32.69900 0.30400 24.87800
H  30.09500 1.32500 23.89600
H  31.21700 0.07800 23.13700
H  31.49700 1.72300 22.83200
H  29.30700 4.63400 27.27500
H  28.87000 5.62200 28.77300
H  28.47600 3.94000 28.59500
H  31.60200 3.72600 33.48300
H  31.09900 7.69700 35.06100
H  32.82700 7.23000 35.49200
H  31.57500 6.56100 36.44400

