158

Mg -3.13500 16.94200 26.85400
C  -3.79800 14.73300 29.38400
C  -3.65700 19.59300 29.07200
C  -2.76900 19.22000 24.36300
C  -3.19200 14.40400 24.51600
N  -3.67800 17.09400 28.94900
C  -3.79600 16.05500 29.79300
C  -3.92600 16.56300 31.29100
C  -4.01300 18.14400 31.14100
C  -3.72000 18.34800 29.60500
C  -5.41400 18.75600 31.57900
C  -2.65300 16.16600 32.15000
C  -2.07400 17.01100 33.29400
H  -1.57600 16.19100 34.49000
N  -3.02700 19.06100 26.73600
C  -3.29900 19.94600 27.78700
C  -3.09300 21.32300 27.30500
C  -2.55700 21.21200 26.00400
C  -2.78500 19.78100 25.60600
C  -3.27000 22.51700 28.23400
C  -1.99300 22.26400 25.04300
O  -1.73900 22.06400 23.88200
C  -1.69600 23.57100 25.63900
N  -3.01100 16.75500 24.73400
C  -2.78200 17.86500 23.94000
C  -2.76900 17.47700 22.46100
C  -2.73500 15.91300 22.54900
C  -2.95200 15.63000 24.02200
C  -3.89900 18.15100 21.68300
C  -1.44700 15.14300 22.12100
C  -0.19600 15.54700 22.91700
N  -3.52100 15.02500 26.87300
C  -3.54400 14.08300 25.87000
C  -3.88800 12.80300 26.41500
C  -4.00300 13.00500 27.83100
C  -3.79000 14.38900 28.02500
C  -4.17700 11.56100 25.70000
C  -4.08200 12.29800 29.08200
O  -4.10200 11.12100 29.31800
C  -3.98600 13.45300 30.17700
C  -2.82200 13.09500 31.01400
O  -1.61700 13.11200 30.78900
O  -3.37700 12.52500 32.15100
C  -2.42100 11.94300 33.10400
H  -3.78000 20.39800 29.79900
H  -2.56800 19.86600 23.50600
H  -3.29200 13.56000 23.83100
H  -4.78000 16.01100 31.68400
H  -3.30600 18.75300 31.70300
H  -5.40900 19.64600 32.20900
H  -6.15000 17.99200 31.83000
H  -5.91600 19.26000 30.75200
H  -1.75000 16.02400 31.55500
H  -2.99700 15.22200 32.57300
H  -2.77400 17.77200 33.64000
H  -1.18200 17.51800 32.92600
H  -2.35400 22.70600 28.79400
H  -4.07700 22.41000 28.96000
H  -3.49300 23.38800 27.61700
H  -1.22400 23.35500 26.59800
H  -2.53300 24.26400 25.72200
H  -1.02800 24.21300 25.06500
H  -1.83600 17.90500 22.09400
H  -3.63400 15.56100 22.04200
H  -4.11800 19.10200 22.16800
H  -4.73800 17.46300 21.78500
H  -3.54900 18.22900 20.65400
H  -1.28200 15.38200 21.07100
H  -1.72200 14.08900 22.12000
H  0.38100 16.35400 22.46400
H  0.31800 14.60100 22.75000
H  -0.41000 15.85300 23.94100
H  -3.25900 10.99000 25.55700
H  -4.53400 11.67300 24.67600
H  -4.90300 11.02300 26.30900
H  -4.84400 13.64500 30.82100
H  -1.65800 11.36600 32.58100
H  -2.97500 11.18500 33.65900
H  -1.92700 12.59500 33.82300
Mg 49.31600 46.85600 43.61100
C  45.79200 46.75400 42.77800
C  49.44600 43.39900 43.05600
C  52.50200 47.10500 43.91700
C  48.91100 50.43300 43.70900
N  47.76800 45.32900 42.81500
C  46.43900 45.52600 42.58400
C  45.84900 44.13600 42.17600
C  46.98200 43.15700 42.40400
C  48.15600 44.02200 42.77200
C  46.63600 42.04600 43.51100
C  45.20200 44.01700 40.70800
C  46.17800 44.47900 39.55900
H  45.67200 44.25200 38.08500
N  50.74500 45.41000 43.62900
C  50.67600 44.05900 43.36800
C  51.93500 43.42800 43.62000
C  52.92100 44.52900 43.79600
C  52.08300 45.74800 43.79700
C  52.19200 41.98200 43.61600
C  54.41000 44.32800 44.03600
O  54.97700 43.25400 44.02900
C  55.26100 45.50200 44.45600
N  50.50200 48.53000 43.70300
C  51.85900 48.34900 43.88700
C  52.56600 49.65700 44.13400
C  51.43400 50.80900 44.14300
C  50.19400 49.87900 43.77600
C  53.58400 49.75200 45.31500
C  51.70200 51.98000 43.15500
C  51.45400 53.39800 43.76900
N  47.70600 48.35000 43.45500
C  47.71000 49.71200 43.52400
C  46.40200 50.22700 43.29400
C  45.59800 49.11800 43.00200
C  46.42400 48.02000 43.07900
C  45.93800 51.67800 43.54400
C  44.25500 48.65300 42.64000
O  43.26100 49.36400 42.33900
C  44.33200 47.03500 42.54900
C  43.42900 46.37400 43.54800
O  43.65200 46.43200 44.72500
O  42.34200 45.77700 43.00200
C  41.28100 45.32400 43.94100
H  49.49700 42.32300 42.87400
H  53.55800 47.28800 44.12700
H  48.75000 51.51200 43.74700
H  44.96500 43.97900 42.79500
H  47.22900 42.59300 41.50500
H  47.10600 42.34200 44.44900
H  46.93800 41.04700 43.19600
H  45.56400 41.97800 43.69600
H  44.30400 44.59800 40.49600
H  44.96300 42.98800 40.44200
H  47.07100 43.85400 39.59100
H  46.43200 45.52700 39.71900
H  53.01900 41.66600 44.25200
H  52.40700 41.63900 42.60400
H  51.34200 41.37900 43.93900
H  54.87200 45.97500 45.35800
H  55.37400 46.14900 43.58600
H  56.25100 45.10500 44.68200
H  53.11900 49.83000 43.21100
H  51.24500 51.15200 45.16000
H  53.54800 48.87300 45.96000
H  53.39500 50.62400 45.94100
H  54.59900 49.67300 44.92400
H  50.98300 51.79400 42.35800
H  52.71600 51.98900 42.75400
H  50.59000 53.84100 43.27300
H  52.34100 54.00000 43.56900
H  51.25300 53.38300 44.84000
H  46.08800 52.30300 42.66300
H  46.65800 52.06900 44.26300
H  44.88900 51.72300 43.83600
H  43.96900 46.78700 41.55200
H  40.43500 45.11200 43.28700
H  40.87700 45.98100 44.71100
H  41.31400 44.38700 44.49700

