158

Mg 51.40600 45.73500 41.88700
C  48.68500 47.02600 40.29200
C  50.48000 42.47800 41.06500
C  54.72000 44.67800 42.41000
C  52.64600 48.97700 42.47500
N  49.73600 44.84900 40.79700
C  48.68900 45.62600 40.35900
C  47.61300 44.67200 39.91600
C  48.10900 43.19900 40.28600
C  49.52900 43.46900 40.81800
C  47.28500 42.36300 41.27400
C  47.26100 44.91800 38.37600
C  45.78800 44.68000 38.11200
H  45.31700 43.40400 37.35200
N  52.47300 43.74800 41.85400
C  51.88700 42.61900 41.43700
C  52.85800 41.56600 41.40900
C  54.11900 42.14600 41.82700
C  53.83800 43.54300 42.08100
C  52.48700 40.05700 41.07400
C  55.34400 41.33900 42.02400
O  55.30200 40.13100 41.71400
C  56.52400 41.98600 42.62700
N  53.40100 46.71100 42.17600
C  54.46500 46.05300 42.59900
C  55.59400 46.97400 43.02200
C  54.93900 48.30000 43.23800
C  53.56700 48.00100 42.57800
C  56.47800 46.50100 44.17900
C  55.66000 49.57800 42.62600
C  56.10100 50.65600 43.70400
N  50.78300 47.60800 41.47500
C  51.39900 48.79400 41.84600
C  50.54000 49.87400 41.39000
C  49.42000 49.21900 40.84400
C  49.64900 47.85100 40.89400
C  50.85700 51.35700 41.38100
C  48.17700 49.40900 40.14100
O  47.60500 50.44100 39.74300
C  47.64900 47.95800 39.69600
C  46.22200 47.87500 40.16700
O  45.77700 47.69200 41.26700
O  45.45400 47.89500 39.08600
C  44.03700 47.76400 39.32600
H  50.18900 41.43900 40.89600
H  55.79200 44.47300 42.35600
H  52.92200 49.97400 42.82300
H  46.79600 44.99000 40.56300
H  48.13400 42.71500 39.31000
H  46.40000 42.93300 41.55800
H  47.86100 42.23700 42.19100
H  46.95000 41.43500 40.81100
H  47.78900 44.14600 37.81600
H  47.52300 45.88500 37.94700
H  45.45100 45.55200 37.55200
H  45.26600 44.76100 39.06500
H  52.84400 39.48000 41.92700
H  52.94400 39.63900 40.17800
H  51.42800 39.90000 40.86900
H  56.25400 42.66000 43.43900
H  56.94400 42.54800 41.79300
H  57.33400 41.29400 42.86000
H  56.28000 46.90000 42.17800
H  54.70700 48.47900 44.28800
H  56.46500 47.29500 44.92500
H  57.48900 46.32200 43.81300
H  56.05000 45.55000 44.49700
H  55.02200 50.11000 41.91900
H  56.55200 49.20900 42.12000
H  55.60900 51.58400 43.41100
H  57.18400 50.69400 43.82100
H  55.69800 50.31600 44.65800
H  50.25900 51.89200 40.64300
H  51.92100 51.47600 41.17400
H  50.66300 51.75800 42.37600
H  47.73900 47.91200 38.61000
H  43.47800 47.36000 38.48200
H  43.62500 48.76800 39.43100
H  43.66100 47.14500 40.14100
Mg 1.08700 43.43500 26.25000
C  2.53200 43.46400 29.37900
C  -1.71000 41.99200 27.62100
C  0.01000 42.56300 23.15400
C  4.18600 44.32400 24.85800
N  0.47000 42.83100 28.34900
C  1.20800 43.03000 29.44300
C  0.40400 42.57500 30.66000
C  -0.93800 41.99700 30.01500
C  -0.72000 42.27300 28.57000
C  -1.37200 40.53100 30.45300
C  0.20600 43.56400 31.83600
C  1.13800 43.44200 33.02500
H  0.78200 42.38900 34.07600
N  -0.77200 42.68100 25.51000
C  -1.68900 41.95900 26.22000
C  -2.64300 41.36400 25.39200
C  -2.16400 41.60000 24.06800
C  -0.91500 42.33400 24.18800
C  -3.85000 40.50100 25.94600
C  -2.79400 41.20100 22.76400
O  -2.27200 41.27200 21.65400
C  -4.18300 40.55100 22.73100
N  2.04300 43.36800 24.19200
C  1.29600 43.07700 23.05600
C  2.17100 43.34300 21.82500
C  3.34600 44.18400 22.45300
C  3.25300 43.93800 23.91900
C  2.67900 42.08200 21.04100
C  3.18700 45.68100 22.19300
C  4.13400 46.34800 21.09600
N  2.99100 43.85600 26.90300
C  4.12600 44.21800 26.25500
C  5.14400 44.44600 27.22300
C  4.56900 44.17700 28.48300
C  3.23900 43.80200 28.23200
C  6.50800 44.91200 26.94500
C  4.90900 44.18700 29.91300
O  5.83100 44.49200 30.65400
C  3.61700 43.54200 30.46400
C  4.03600 42.20900 30.94800
O  4.19800 41.16000 30.26100
O  4.25800 42.24000 32.32800
C  4.40200 40.96800 33.00100
H  -2.59000 41.54300 28.08700
H  -0.24400 42.37300 22.10900
H  5.10200 44.76500 24.46000
H  0.96000 41.75100 31.10800
H  -1.74000 42.54300 30.51300
H  -2.45100 40.57100 30.60400
H  -0.97100 40.35100 31.45000
H  -1.11900 39.74700 29.73800
H  -0.75600 43.37600 32.31300
H  0.29700 44.57700 31.44500
H  1.25300 44.42000 33.49300
H  2.08200 43.07300 32.62200
H  -3.89200 40.59700 27.03100
H  -3.66000 39.46600 25.66300
H  -4.74600 40.90900 25.47600
H  -4.45900 40.33000 21.70000
H  -4.81500 41.31700 23.18000
H  -4.03500 39.70500 23.40300
H  1.61500 44.00000 21.15600
H  4.32300 43.77200 22.19700
H  3.56200 41.68600 21.54300
H  2.87700 42.33700 20.00000
H  1.94200 41.27900 21.01800
H  3.36600 46.23500 23.11400
H  2.11300 45.84400 22.10200
H  4.70400 47.12700 21.60400
H  3.37000 46.81100 20.47200
H  4.84000 45.67600 20.60800
H  6.44500 45.82000 26.34500
H  7.23300 44.33500 26.37000
H  6.98100 45.13000 27.90300
H  3.31600 44.08100 31.36200
H  5.40100 40.64300 32.70800
H  3.65400 40.20700 32.78000
H  4.38800 41.11000 34.08200

