158

Mg 8.18400 2.94300 27.65600
C  9.32800 1.26600 30.50100
C  6.27300 4.92200 29.66900
C  6.87700 4.16200 25.01500
C  9.73000 0.38200 25.63700
N  7.76800 3.06000 29.83100
C  8.45700 2.38900 30.83400
C  8.04900 2.85500 32.23200
C  6.98500 3.98200 31.89100
C  6.90400 3.94300 30.35400
C  5.56300 3.84900 32.57700
C  9.24400 3.26900 33.12800
C  8.83900 4.16500 34.31600
H  9.77000 4.03500 35.61900
N  6.91400 4.48200 27.35300
C  6.23500 5.16700 28.25400
C  5.46600 6.18400 27.55600
C  5.76700 6.13200 26.19100
C  6.56300 4.90800 26.14700
C  4.65700 7.14200 28.25900
C  5.25100 6.91800 24.95500
O  5.66500 6.68200 23.84200
C  4.20100 7.94800 25.26800
N  8.17600 2.24400 25.58800
C  7.58900 3.04500 24.75800
C  7.78900 2.56200 23.25900
C  8.75100 1.31700 23.40500
C  8.98600 1.36200 24.95100
C  6.53900 2.22800 22.45900
C  10.06000 1.44400 22.69600
C  10.11100 0.48400 21.51900
N  9.19300 1.08700 27.96500
C  9.83000 0.28200 27.04400
C  10.61800 -0.67700 27.86300
C  10.43500 -0.30900 29.19300
C  9.60600 0.80400 29.19600
C  11.55300 -1.72100 27.38100
C  10.78200 -0.63600 30.51500
O  11.41900 -1.57500 30.97900
C  10.09900 0.37200 31.43300
C  9.14200 -0.37400 32.37100
O  8.04500 -0.90200 32.03100
O  9.64700 -0.29000 33.65600
C  8.66900 -0.90400 34.59100
H  5.59200 5.60100 30.18600
H  6.50000 4.61700 24.09800
H  10.44400 -0.15500 25.01000
H  7.59600 1.93200 32.59200
H  7.41500 4.95500 32.12600
H  4.78900 4.15600 31.87500
H  5.48500 4.70300 33.24900
H  5.49200 2.84300 32.99300
H  9.99700 3.63600 32.43000
H  9.80700 2.40600 33.48300
H  7.81400 3.98200 34.64000
H  8.81100 5.19500 33.96000
H  4.86400 8.18100 28.00000
H  4.70300 7.16600 29.34700
H  3.62900 6.93600 27.95800
H  4.66100 8.67800 25.93500
H  3.32600 7.41800 25.64200
H  3.82600 8.39800 24.34800
H  8.29400 3.35400 22.70600
H  8.16400 0.40300 23.30600
H  5.62400 2.42100 23.01800
H  6.57100 1.27200 21.93700
H  6.35000 3.01400 21.72900
H  10.92200 1.32000 23.35200
H  10.23200 2.46100 22.34600
H  10.77500 0.86100 20.74100
H  9.13500 0.26500 21.08700
H  10.51900 -0.47900 21.82700
H  12.34600 -1.62900 28.12400
H  11.89200 -1.44300 26.38300
H  11.08500 -2.70500 27.39600
H  10.95600 0.76600 31.98100
H  7.99000 -1.67800 34.23300
H  8.10000 -0.01900 34.87600
H  9.17900 -1.36100 35.43800
Mg -10.75600 38.78800 43.08300
C  -9.43500 35.70900 41.72400
C  -8.10400 40.38800 41.48300
C  -12.33600 41.62700 43.39000
C  -13.67900 36.92300 43.96200
N  -9.06300 38.06300 41.61700
C  -8.69900 36.82400 41.34000
C  -7.36000 36.81200 40.54800
C  -6.79100 38.23400 40.83500
C  -8.01600 38.95400 41.43500
C  -5.50400 38.24300 41.67200
C  -7.46200 36.43700 38.97400
C  -6.29100 35.72400 38.43900
H  -5.49300 36.38400 37.33300
N  -10.28800 40.80800 42.51500
C  -9.18500 41.20500 41.89800
C  -9.16600 42.66500 41.74600
C  -10.35700 43.13400 42.30700
C  -11.05300 41.89400 42.84800
C  -8.04200 43.39500 40.98400
C  -10.86400 44.58300 42.23500
O  -10.18500 45.41200 41.67400
C  -12.20200 45.07500 42.76000
N  -12.81300 39.17600 43.33500
C  -13.14700 40.43100 43.60700
C  -14.63400 40.55400 44.09400
C  -14.99200 39.02000 44.31000
C  -13.77900 38.31600 43.87000
C  -14.80400 41.52700 45.36400
C  -16.33200 38.53600 43.66500
C  -16.22900 37.90500 42.24500
N  -11.31300 36.75300 43.14400
C  -12.54900 36.17200 43.48700
C  -12.37800 34.72800 43.42300
C  -11.17100 34.48300 42.74400
C  -10.62900 35.74000 42.45300
C  -13.32200 33.61100 43.87500
C  -10.30700 33.48600 42.15400
O  -10.47500 32.25900 42.08100
C  -9.14200 34.27200 41.43500
C  -7.85200 33.84200 41.82300
O  -7.05100 33.19900 41.10100
O  -7.62100 34.11400 43.12900
C  -6.36700 33.56700 43.68600
H  -7.34100 40.95000 40.94000
H  -12.89200 42.49800 43.74300
H  -14.50800 36.35100 44.38200
H  -6.78400 36.04600 41.07000
H  -6.65500 38.89200 39.97700
H  -5.64600 38.53600 42.71200
H  -4.85600 39.01000 41.24800
H  -5.01200 37.27600 41.56600
H  -7.83000 37.24700 38.34400
H  -8.31100 35.75400 38.96100
H  -6.56200 34.76700 37.99400
H  -5.65600 35.53900 39.30500
H  -8.23200 44.45700 40.83400
H  -7.92500 42.82500 40.06200
H  -7.11100 43.24300 41.53100
H  -13.02400 44.44600 42.41800
H  -12.48500 46.11500 42.59400
H  -12.15700 44.91600 43.83700
H  -15.24900 40.88000 43.25600
H  -15.20700 38.92100 45.37500
H  -15.57000 41.08700 46.00400
H  -15.20200 42.45400 44.95100
H  -13.86800 41.64000 45.91000
H  -16.94400 39.43200 43.55700
H  -16.89200 37.75600 44.17900
H  -16.65600 36.90700 42.34600
H  -15.20800 37.71600 41.91600
H  -16.76800 38.60400 41.60500
H  -14.14500 33.58800 43.16100
H  -13.80400 33.92900 44.79900
H  -12.93300 32.59300 43.87700
H  -9.11800 34.11800 40.35600
H  -6.14800 33.68800 44.74700
H  -5.60600 34.07200 43.09000
H  -6.33700 32.48200 43.58800

