158

Mg -1.93800 17.82300 26.89600
C  -2.55900 15.72100 29.77200
C  -2.52200 20.54600 28.81200
C  -1.66400 19.54500 24.17300
C  -2.31700 14.85200 25.00700
N  -2.48000 18.07400 29.00900
C  -2.53800 17.12100 30.03700
C  -2.62200 17.96800 31.31400
C  -3.31000 19.30600 30.89400
C  -2.76200 19.37400 29.44500
C  -4.86200 19.09300 30.81900
C  -1.32000 18.02900 32.15900
C  -1.48300 18.27600 33.66400
H  -0.91900 17.29000 34.65800
N  -1.85800 19.79800 26.57000
C  -2.03600 20.81900 27.50000
C  -1.85900 22.06500 26.96000
C  -1.57700 21.82900 25.56200
C  -1.63400 20.28400 25.38000
C  -2.14500 23.34700 27.63200
C  -1.22700 22.73900 24.45200
O  -1.06200 22.35400 23.29600
C  -1.10000 24.23600 24.76300
N  -2.00800 17.25300 24.90800
C  -1.86700 18.17900 23.93000
C  -2.16300 17.70300 22.47700
C  -2.11500 16.19900 22.75500
C  -2.14600 16.06100 24.30600
C  -3.56200 18.30300 21.97200
C  -0.87400 15.40100 22.23600
C  0.46900 15.50700 22.99300
N  -2.29800 15.69200 27.27300
C  -2.32700 14.64200 26.40300
C  -2.55500 13.39500 27.14200
C  -2.63800 13.81000 28.43000
C  -2.46800 15.20200 28.48700
C  -2.62800 11.97000 26.59600
C  -2.75700 13.32100 29.80800
O  -2.87700 12.18700 30.25000
C  -2.74500 14.55500 30.70900
C  -1.58900 14.37700 31.67200
O  -0.42100 14.54100 31.45100
O  -2.11400 13.91100 32.83700
C  -1.17500 13.40200 33.87400
H  -2.76400 21.36300 29.49500
H  -1.68400 20.10300 23.23500
H  -2.28900 13.93500 24.41400
H  -3.26500 17.49700 32.05800
H  -3.01400 20.10800 31.57000
H  -5.24600 19.33600 29.82800
H  -5.25900 19.87700 31.46400
H  -5.29000 18.13400 31.11200
H  -0.73400 18.80300 31.66400
H  -0.72500 17.15100 31.90500
H  -2.49900 18.42600 34.02800
H  -1.01400 19.25200 33.79300
H  -2.23000 23.28200 28.71700
H  -3.07100 23.69600 27.17600
H  -1.37300 24.05500 27.32900
H  -0.48200 24.54000 25.60800
H  -2.14300 24.39600 25.03600
H  -0.70400 24.76300 23.89500
H  -1.36400 17.84300 21.74900
H  -3.01600 15.71600 22.37800
H  -3.38600 18.97000 21.12900
H  -4.04400 18.87700 22.76400
H  -4.22800 17.54600 21.55500
H  -0.63400 15.91200 21.30400
H  -0.97500 14.34400 21.98900
H  0.85100 14.49000 23.09100
H  0.38100 15.85400 24.02200
H  1.15800 16.15600 22.45300
H  -2.81300 12.12400 25.53200
H  -3.49300 11.52100 27.08400
H  -1.71200 11.38100 26.65200
H  -3.63600 14.58300 31.33600
H  -0.80400 12.40100 33.65300
H  -1.62100 13.38600 34.86800
H  -0.29100 14.03600 33.92800
Mg -11.57600 16.85200 41.59400
C  -8.42100 15.35000 41.09600
C  -10.11500 19.80900 40.41000
C  -14.63900 18.05600 41.38700
C  -12.82100 13.64000 42.38200
N  -9.51700 17.47900 40.68000
C  -8.43800 16.70000 40.72600
C  -7.20800 17.43300 40.28300
C  -7.74100 18.91100 40.26600
C  -9.22300 18.73500 40.44400
C  -7.04400 19.88600 41.32400
C  -6.65800 17.01200 38.87100
C  -5.15300 16.96200 38.73100
H  -4.63800 17.19700 37.27900
N  -12.33200 18.68800 40.93000
C  -11.57800 19.78500 40.58000
C  -12.49200 20.87300 40.25600
C  -13.85600 20.44300 40.53000
C  -13.68900 19.03000 41.00500
C  -12.06600 22.25100 39.75700
C  -15.11400 21.23500 40.27800
O  -15.08800 22.38500 39.79900
C  -16.47500 20.66100 40.61000
N  -13.47100 15.96000 41.86100
C  -14.57700 16.67700 41.70600
C  -15.86300 15.87600 41.98000
C  -15.28300 14.48500 42.37200
C  -13.74200 14.66500 42.26700
C  -16.81900 16.50300 42.98700
C  -15.80200 13.28100 41.48900
C  -16.98600 12.54100 42.03900
N  -10.78500 14.86100 41.80100
C  -11.40300 13.69400 42.24300
C  -10.35400 12.66500 42.23900
C  -9.17700 13.24200 41.82000
C  -9.48700 14.55600 41.56300
C  -10.66700 11.24400 42.45900
C  -7.75800 12.98400 41.46700
O  -7.07800 11.99600 41.51800
C  -7.16200 14.45900 41.03500
C  -6.16200 14.86000 42.04700
O  -6.37200 15.14600 43.21200
O  -4.86800 14.83600 41.44400
C  -3.69000 15.03500 42.30600
H  -9.67500 20.80100 40.28700
H  -15.65100 18.46400 41.34400
H  -13.29000 12.66700 42.54300
H  -6.51800 17.28400 41.11300
H  -7.58500 19.43400 39.32200
H  -6.17800 19.41700 41.79100
H  -7.76800 19.90800 42.13900
H  -6.84800 20.90000 40.97500
H  -7.03100 17.61900 38.04600
H  -6.99300 15.98900 38.70100
H  -4.68300 16.01900 39.00800
H  -4.86200 17.80900 39.35200
H  -12.33800 22.56400 38.74900
H  -10.99100 22.41200 39.83000
H  -12.40200 23.01400 40.46000
H  -16.64700 19.84700 39.90600
H  -17.23600 21.43000 40.47400
H  -16.43100 20.25300 41.61900
H  -16.23700 16.01700 40.96600
H  -15.52700 14.34800 43.42500
H  -16.98800 15.92200 43.89400
H  -17.81400 16.66800 42.57400
H  -16.40700 17.46600 43.28700
H  -14.96600 12.61500 41.27700
H  -16.11600 13.66400 40.51800
H  -17.25100 13.01800 42.98300
H  -16.68900 11.52600 42.30300
H  -17.80400 12.48500 41.32000
H  -11.40700 11.25300 43.25900
H  -9.80400 10.62600 42.70500
H  -11.17000 10.79100 41.60400
H  -6.64000 14.43800 40.07900
H  -3.88200 15.05500 43.37900
H  -3.31600 16.04300 42.13200
H  -2.92100 14.32000 42.01300

