158

Mg 25.64600 1.28100 29.33100
C  27.53900 1.04700 32.23800
C  22.77700 1.84700 31.25700
C  23.86200 1.07500 26.44400
C  28.56400 0.62700 27.41000
N  25.19600 1.27600 31.42400
C  26.12200 1.36000 32.46200
C  25.54200 1.77000 33.78400
C  23.99900 1.67100 33.42600
C  23.99800 1.65300 31.92300
C  23.12200 0.60900 34.16600
C  26.09000 3.05600 34.43100
C  26.56700 2.82700 35.91900
H  26.20500 3.95500 36.95800
N  23.60700 1.44700 28.88100
C  22.56500 1.71800 29.83500
C  21.36700 1.84000 29.12500
C  21.63600 1.62100 27.78700
C  23.11800 1.38100 27.64800
C  20.11000 2.07800 29.77500
C  20.64400 1.65600 26.66300
O  21.01500 1.36700 25.50400
C  19.15300 1.90100 26.87600
N  26.13300 0.87000 27.23100
C  25.20800 0.84300 26.24300
C  25.85700 0.63900 24.83300
C  27.41000 0.51700 25.16700
C  27.37600 0.64000 26.67700
C  25.25400 -0.46000 23.90400
C  28.23100 1.73900 24.51300
C  27.89600 3.19700 24.90300
N  27.63500 1.00600 29.68400
C  28.67200 0.75600 28.85000
C  29.81300 0.40000 29.58900
C  29.45100 0.58800 30.92100
C  28.09900 0.87200 30.94000
C  31.14500 -0.05100 29.10900
C  29.92000 0.58200 32.33200
O  30.99000 0.36500 32.90400
C  28.67100 1.07300 33.18000
C  28.55400 0.16600 34.37000
O  27.88700 -0.87100 34.43000
O  29.48800 0.53300 35.28600
C  29.44600 -0.23600 36.53700
H  21.95400 1.88400 31.97400
H  23.39800 1.03300 25.45700
H  29.51300 0.45600 26.89800
H  25.74400 0.98000 34.50600
H  23.48400 2.61700 33.59500
H  22.10500 0.98600 34.27500
H  23.55300 0.28400 35.11300
H  23.17500 -0.22800 33.46900
H  25.28500 3.79000 34.42000
H  26.88400 3.44200 33.79200
H  27.63800 2.63700 35.83900
H  26.19400 1.90400 36.36300
H  19.52300 1.17600 29.60500
H  19.63100 2.98400 29.40400
H  20.31600 2.25200 30.83100
H  18.89200 2.95400 26.98300
H  18.77000 1.30200 27.70300
H  18.66900 1.67500 25.92600
H  25.75000 1.56900 24.27600
H  27.81800 -0.48600 25.03700
H  24.42600 -1.02300 24.33500
H  26.05500 -1.17700 23.72200
H  24.81300 -0.09500 22.97600
H  28.08000 1.65700 23.43600
H  29.28300 1.48000 24.63000
H  27.09200 3.13800 25.63600
H  27.60100 3.74600 24.00900
H  28.71100 3.75900 25.36100
H  31.30900 0.29500 28.08800
H  31.33600 -1.11300 28.95300
H  31.89100 0.36800 29.78500
H  28.88500 2.09000 33.51000
H  28.52800 -0.13400 37.11500
H  30.20100 -0.01500 37.29200
H  29.52400 -1.29700 36.30200
Mg 41.25000 8.67300 30.18900
C  42.73100 9.59400 33.30900
C  38.92600 6.95300 31.99000
C  40.00300 7.49300 27.29700
C  44.06100 9.95000 28.49700
N  41.07100 8.27900 32.36500
C  41.62400 8.80600 33.47400
C  40.97200 8.36200 34.74200
C  39.90500 7.29600 34.28700
C  39.92300 7.51700 32.76000
C  40.32100 5.80200 34.63100
C  40.38500 9.48000 35.55500
C  40.85200 9.61500 36.99300
H  41.03600 11.02200 37.54500
N  39.67400 7.43900 29.72900
C  38.71000 6.91800 30.58400
C  37.60100 6.24900 29.84000
C  37.89100 6.51200 28.44300
C  39.25500 7.12100 28.45100
C  36.37000 5.73400 30.46700
C  37.11000 6.06200 27.17600
O  37.50300 6.17300 26.00900
C  35.71400 5.67400 27.34800
N  41.97700 8.53800 28.19800
C  41.26900 8.06000 27.12800
C  41.91400 8.41000 25.77700
C  43.23000 9.11400 26.23700
C  43.08700 9.20600 27.72100
C  42.22500 7.22900 24.87500
C  43.34700 10.52100 25.50900
C  42.53700 11.66800 26.02000
N  43.09300 9.54500 30.75700
C  44.05600 10.05200 29.92900
C  44.91900 10.84300 30.79300
C  44.50600 10.70400 32.10300
C  43.40800 9.86500 32.02300
C  46.03800 11.71600 30.30300
C  44.75500 10.98100 33.48600
O  45.61400 11.72200 33.96100
C  43.61500 10.27100 34.33200
C  44.31400 9.32400 35.16600
O  44.98300 8.37000 34.79500
O  44.25500 9.82300 36.49000
C  45.00500 9.04100 37.54300
H  38.21500 6.45000 32.64800
H  39.53500 7.36500 26.31900
H  44.78900 10.53700 27.93300
H  41.68200 7.86700 35.40400
H  38.85100 7.47000 34.50500
H  41.34700 5.72800 34.99200
H  40.18500 5.07300 33.83200
H  39.71200 5.48900 35.47900
H  39.31400 9.31800 35.68200
H  40.52100 10.45900 35.09600
H  41.77800 9.10700 37.26000
H  40.06500 9.17300 37.60500
H  36.38800 5.66300 31.55500
H  36.25500 4.75200 30.00800
H  35.41500 6.24800 30.35500
H  35.21200 5.73400 26.38200
H  35.12200 6.27200 28.04100
H  35.61300 4.64100 27.68000
H  41.33600 9.18500 25.27300
H  44.19100 8.63800 26.04300
H  41.75800 6.32000 25.25300
H  43.30600 7.10500 24.80800
H  41.78600 7.42800 23.89700
H  42.91800 10.40100 24.51400
H  44.37800 10.87500 25.49300
H  43.22600 12.48600 26.23100
H  41.95900 11.57300 26.93900
H  41.75200 11.99000 25.33600
H  46.85500 11.70300 31.02400
H  45.70300 12.74500 30.43900
H  46.46600 11.35800 29.36700
H  43.15100 11.10900 34.85200
H  45.17200 8.00800 37.23700
H  44.62900 8.94600 38.56200
H  45.98200 9.52300 37.58500

