158

Mg 1.19400 7.92800 25.49100
C  1.63300 9.59600 28.51100
C  1.13700 4.90000 27.30100
C  0.94400 6.35300 22.55900
C  1.12900 10.98600 23.79500
N  1.27100 7.39900 27.64700
C  1.33600 8.24700 28.71700
C  1.37300 7.44700 30.01200
C  1.45800 5.95400 29.57600
C  1.18100 6.13000 28.04200
C  2.76200 5.10900 29.97000
C  0.22600 7.70000 31.01300
C  0.69100 7.89800 32.50300
H  1.99800 7.19200 33.04800
N  1.10600 5.92600 25.00000
C  1.07700 4.82600 25.86900
C  1.05200 3.58300 25.11600
C  0.92100 3.95700 23.73100
C  1.02100 5.45900 23.67900
C  0.97900 2.23400 25.74700
C  0.84100 3.16100 22.44300
O  0.87800 3.68700 21.33100
C  1.02500 1.75600 22.60200
N  0.99500 8.58300 23.43900
C  0.94200 7.72100 22.43500
C  0.86100 8.40400 21.06700
C  0.75200 9.95200 21.50300
C  0.93300 9.87400 23.02000
C  2.03400 8.07800 20.15600
C  -0.65800 10.65300 21.27900
C  -0.54600 11.95700 20.53300
N  1.28500 9.85100 26.00600
C  1.33800 11.01200 25.21300
C  1.50400 12.19000 26.01100
C  1.74400 11.68400 27.34100
C  1.53200 10.26300 27.30300
C  1.61100 13.56600 25.59900
C  2.04900 12.02200 28.76000
O  2.20300 13.09500 29.29500
C  1.83800 10.63800 29.55200
C  3.00000 10.56700 30.46100
O  4.11900 10.28500 30.23400
O  2.65200 11.11500 31.66800
C  3.70200 11.50400 32.59100
H  1.21000 4.01400 27.93600
H  0.90200 5.86200 21.58400
H  0.89500 11.97300 23.39200
H  2.32900 7.71800 30.46100
H  0.68700 5.35700 30.06200
H  3.56800 5.18800 29.24000
H  2.58000 4.03500 29.98900
H  3.07600 5.47900 30.94600
H  -0.56300 6.96500 30.85200
H  -0.27100 8.61800 30.69900
H  -0.13400 7.61900 33.15800
H  0.85800 8.94800 32.74500
H  1.23800 2.26900 26.80500
H  1.68900 1.57600 25.24500
H  0.00900 1.74900 25.63400
H  0.08700 1.33600 22.96300
H  1.82100 1.49900 23.30100
H  1.44100 1.53700 21.61800
H  -0.05900 8.16800 20.53300
H  1.58300 10.50200 21.06100
H  1.75300 7.09200 19.78600
H  2.98800 8.02600 20.68100
H  2.09900 8.74300 19.29500
H  -1.10400 10.93700 22.23200
H  -1.31000 9.95900 20.75100
H  -0.70100 11.78000 19.46900
H  0.47600 12.31500 20.66100
H  -1.30700 12.65600 20.87900
H  2.45700 14.08500 26.04700
H  0.62500 14.03200 25.62000
H  1.88000 13.41800 24.55300
H  1.01700 10.60400 30.26800
H  4.48900 10.75500 32.68200
H  3.28300 11.75800 33.56500
H  4.11900 12.41500 32.16300
Mg 49.89000 44.22200 43.00500
C  46.55900 44.66200 41.85500
C  49.66700 40.88400 42.40800
C  53.21900 44.09600 43.30800
C  50.19800 47.84800 42.90400
N  48.31400 42.95800 42.13000
C  46.97200 43.28400 41.82400
C  46.17800 42.04400 41.36000
C  47.21000 40.85400 41.55200
C  48.45200 41.56000 42.19700
C  46.78800 39.59200 42.40200
C  45.84900 42.23400 39.82700
C  44.32500 42.33500 39.61100
H  44.01400 43.19700 38.37900
N  51.20300 42.71000 43.00700
C  50.95300 41.38700 42.73800
C  52.19800 40.59300 42.80700
C  53.24500 41.52600 43.07500
C  52.59800 42.83900 43.11700
C  52.33900 39.06300 42.49800
C  54.73200 41.12400 43.21000
O  55.01600 39.94900 43.25900
C  55.83700 42.15600 43.34100
N  51.44200 45.82600 42.99600
C  52.74200 45.44600 43.21600
C  53.67500 46.65500 43.42900
C  52.72500 47.83900 43.38700
C  51.38400 47.18200 42.98200
C  54.66100 46.57000 44.59600
C  53.15300 49.05700 42.51300
C  53.22600 50.34200 43.32500
N  48.66600 45.95300 42.58500
C  48.89500 47.28300 42.68400
C  47.71900 47.94600 42.39000
C  46.76200 46.99400 42.14500
C  47.38200 45.75600 42.23500
C  47.56000 49.45500 42.59300
C  45.34500 46.81800 41.76400
O  44.37900 47.57200 41.70500
C  45.18600 45.23200 41.60300
C  44.13800 44.73300 42.56100
O  44.33500 44.34000 43.71800
O  42.92800 45.12200 42.09000
C  41.86000 44.84200 43.01300
H  49.71400 39.84200 42.08400
H  54.29300 44.10400 43.50500
H  50.12900 48.89500 42.60100
H  45.32400 41.87900 42.01600
H  47.57400 40.51600 40.58200
H  45.70600 39.60000 42.53300
H  47.22500 39.59900 43.40100
H  47.14200 38.73100 41.83600
H  46.17300 41.37600 39.23700
H  46.30700 43.14900 39.45300
H  43.88600 42.72700 40.52800
H  43.90300 41.33100 39.55100
H  53.31500 38.68600 42.19100
H  51.61800 38.91300 41.69500
H  51.93500 38.55200 43.37200
H  55.64100 42.75800 42.45400
H  56.82900 41.71000 43.42200
H  55.59300 42.63000 44.29200
H  54.28200 46.67600 42.52400
H  52.52500 48.23500 44.38300
H  54.83000 45.53200 44.88100
H  54.44600 47.17300 45.47800
H  55.57400 46.93100 44.12200
H  52.54500 49.16400 41.61400
H  54.17400 48.87300 42.18200
H  54.22600 50.72800 43.12600
H  53.12400 50.24400 44.40600
H  52.43600 51.04800 43.07100
H  48.13000 49.91400 43.40100
H  46.51400 49.69500 42.78200
H  47.97600 49.99100 41.73900
H  44.88800 45.00600 40.57900
H  41.84800 43.76000 43.14400
H  40.95800 45.12100 42.46700
H  41.93800 45.52200 43.86100

