158

Mg 41.16600 40.86600 26.62200
C  40.46400 43.59100 28.90700
C  42.29400 39.08700 29.23500
C  42.30000 38.74400 24.42800
C  40.53400 43.19500 24.01900
N  41.47200 41.44400 28.81900
C  40.87600 42.45300 29.57900
C  40.97200 42.20400 31.00700
C  41.69600 40.77600 31.09600
C  41.87200 40.36100 29.63900
C  43.06300 40.72800 31.81800
C  39.60700 42.38700 31.76700
C  39.67500 43.20000 33.13300
H  38.90200 42.66600 34.42500
N  42.17900 39.12300 26.79900
C  42.50200 38.49200 27.93100
C  43.11200 37.18400 27.68500
C  43.14700 37.10700 26.28600
C  42.54700 38.35100 25.75000
C  43.59200 36.29100 28.76000
C  43.70200 36.00500 25.39800
O  43.99900 36.12100 24.24400
C  43.98500 34.65300 26.07900
N  41.53400 41.02400 24.46500
C  41.86300 39.88400 23.82500
C  41.66300 40.02300 22.32800
C  40.80700 41.33600 22.27600
C  40.97900 41.89300 23.65300
C  43.02900 40.12900 21.48900
C  39.26400 41.12000 22.08000
C  38.46800 40.25700 23.00900
N  40.58700 42.91200 26.45400
C  40.40700 43.69600 25.34600
C  39.95700 44.99500 25.68000
C  40.01500 45.01600 27.08700
C  40.35300 43.71300 27.48600
C  39.78100 46.09600 24.62600
C  39.93100 45.95200 28.23300
O  39.72100 47.16600 28.21400
C  39.91900 44.94200 29.40600
C  40.72600 45.59100 30.50800
O  41.97000 45.65100 30.61400
O  39.89000 46.08300 31.47900
C  40.44900 46.63300 32.64800
H  42.58100 38.51600 30.12000
H  42.59100 37.96500 23.72100
H  40.30300 43.84900 23.17500
H  41.65000 42.88000 31.53000
H  41.02300 40.06700 31.57800
H  43.34700 41.60600 32.39800
H  43.94800 40.57300 31.20100
H  43.13900 39.83700 32.44100
H  39.11700 41.41600 31.83900
H  38.94200 42.99900 31.15700
H  39.09400 44.12100 33.09700
H  40.63600 43.38800 33.61200
H  43.84500 36.69800 29.73900
H  44.50800 35.72500 28.59000
H  42.86000 35.50100 28.92900
H  43.20800 34.43300 26.81000
H  44.97500 34.66600 26.53500
H  43.97900 33.86200 25.32900
H  40.95100 39.29000 21.94800
H  41.30800 41.95100 21.52800
H  43.63100 40.64400 22.23800
H  42.73700 40.68700 20.60000
H  43.34700 39.11100 21.26500
H  39.26500 40.73700 21.06000
H  38.86300 42.12600 21.95500
H  37.86600 40.79600 23.74100
H  39.18700 39.61700 23.52100
H  37.84300 39.57700 22.43000
H  39.60800 47.07800 25.06600
H  39.06800 45.92800 23.81800
H  40.72000 46.19100 24.08000
H  38.89200 44.83200 29.75400
H  39.90800 47.50800 33.01000
H  41.47800 46.96900 32.52600
H  40.42800 45.95700 33.50200
Mg -10.53900 17.10900 43.09300
C  -6.94300 17.07300 43.08700
C  -10.36600 20.54400 42.27100
C  -13.79300 17.02500 42.67600
C  -10.47900 13.59600 42.92900
N  -8.82100 18.57300 42.76800
C  -7.46000 18.38700 42.84200
C  -6.72500 19.68200 42.56200
C  -7.84400 20.79600 42.81400
C  -9.13100 19.92500 42.62300
C  -7.77100 21.40400 44.23100
C  -6.06800 19.76500 41.19800
C  -4.49100 19.70800 41.16500
H  -3.72000 18.93300 40.08800
N  -11.95700 18.58300 42.60100
C  -11.66000 19.88100 42.22400
C  -12.89200 20.52500 41.90700
C  -13.93400 19.55500 42.09400
C  -13.24000 18.31900 42.44600
C  -13.08500 21.98900 41.70100
C  -15.51400 19.83400 41.89500
O  -15.90100 20.88000 41.46600
C  -16.56500 18.73600 42.16800
N  -11.97800 15.51900 42.87000
C  -13.27400 15.82300 42.90700
C  -14.02300 14.52000 43.19200
C  -13.02000 13.36200 43.04700
C  -11.74100 14.18200 42.88500
C  -14.70300 14.53500 44.58300
C  -13.17800 12.26000 41.96700
C  -12.83100 12.62100 40.48100
N  -9.05000 15.62000 43.09500
C  -9.19700 14.23400 42.99500
C  -7.85800 13.67200 43.15000
C  -6.96900 14.73100 43.21900
C  -7.76400 15.90800 43.17800
C  -7.51300 12.23500 43.45200
C  -5.58700 15.07800 43.38900
O  -4.66100 14.34900 43.75800
C  -5.48100 16.60500 43.34600
C  -4.91600 17.10600 44.58500
O  -5.45400 17.11000 45.67900
O  -3.59300 17.33500 44.36000
C  -2.87900 17.82100 45.59000
H  -10.35400 21.61800 42.07400
H  -14.86300 16.81800 42.74600
H  -10.45100 12.50600 42.97900
H  -5.92900 19.70400 43.30600
H  -7.83300 21.57100 42.04800
H  -6.89100 21.06700 44.77700
H  -8.51800 21.01200 44.92200
H  -7.78100 22.49400 44.22200
H  -6.31400 20.67200 40.64500
H  -6.53400 19.02600 40.54500
H  -4.08800 19.48500 42.15200
H  -4.26200 20.77400 41.17000
H  -13.99400 22.25000 42.24500
H  -13.38900 22.22200 40.68000
H  -12.27500 22.68100 41.93100
H  -17.60700 19.00500 41.99400
H  -16.49300 18.31500 43.17100
H  -16.45400 18.00900 41.36300
H  -14.82500 14.43700 42.45800
H  -12.89500 12.83700 43.99400
H  -14.27500 15.33700 45.18400
H  -14.52600 13.70000 45.26000
H  -15.78600 14.63400 44.51000
H  -14.21100 11.91700 41.90300
H  -12.51200 11.43300 42.21300
H  -11.91100 12.15400 40.13200
H  -12.77200 13.70900 40.45100
H  -13.59000 12.28600 39.77200
H  -8.19700 11.60800 42.88000
H  -7.60600 12.10800 44.53100
H  -6.44900 12.00100 43.41500
H  -4.77000 16.92700 42.58400
H  -1.80800 17.93800 45.42400
H  -3.02900 17.09500 46.39000
H  -3.08200 18.84700 45.89600

