158

Mg 44.99100 4.60600 47.18700
C  43.25400 7.63900 46.72200
C  42.00800 3.00500 46.41900
C  46.78700 1.80300 46.85800
C  47.93400 6.54300 47.06400
N  42.85400 5.30000 46.55200
C  42.38600 6.55700 46.61400
C  40.88400 6.60700 46.32100
C  40.50400 5.09400 46.33600
C  41.84500 4.40100 46.43200
C  39.54900 4.58200 47.40900
C  40.41700 7.54900 45.18900
C  41.13500 7.70200 43.84800
H  40.30300 7.32800 42.60100
N  44.44200 2.68800 46.78500
C  43.15800 2.18000 46.55800
C  43.20800 0.78300 46.31400
C  44.61500 0.44500 46.47100
C  45.30900 1.69800 46.74400
C  42.07600 -0.04600 45.73300
C  45.15200 -0.97500 46.21900
O  44.39900 -1.89700 46.02700
C  46.67500 -1.29600 46.24700
N  47.09400 4.25700 46.85400
C  47.55300 2.94300 47.05500
C  49.10200 2.88600 47.09300
C  49.43100 4.35800 47.02700
C  48.06600 5.12100 46.93100
C  49.58400 2.08100 48.38500
C  50.38500 4.86800 45.86600
C  51.56800 5.89600 46.17300
N  45.53900 6.70300 47.08700
C  46.75200 7.31000 47.12300
C  46.59400 8.79400 47.21100
C  45.22100 8.95300 47.08000
C  44.62000 7.63400 46.91800
C  47.72900 9.84500 47.23600
C  44.16900 9.92200 46.91300
O  44.23900 11.15600 46.99800
C  42.92200 9.09900 46.67700
C  41.96400 9.39300 47.76600
O  41.72400 8.68200 48.75000
O  41.33700 10.51200 47.47800
C  39.94400 10.41100 47.96100
H  41.07800 2.47000 46.22200
H  47.41600 0.91500 46.94300
H  48.83400 7.14800 47.19100
H  40.43600 7.12000 47.17200
H  40.17500 4.80100 45.33900
H  38.81500 5.27500 47.81900
H  40.16900 4.30600 48.26200
H  38.92800 3.73000 47.13400
H  40.22400 8.56800 45.52200
H  39.44700 7.20700 44.82900
H  42.07200 7.14600 43.79900
H  41.29500 8.77400 43.73100
H  42.38300 -0.50900 44.79500
H  41.20300 0.58900 45.58700
H  41.96900 -0.89200 46.41200
H  46.72700 -2.37600 46.11100
H  47.02600 -1.01600 47.24000
H  47.30000 -0.75100 45.53900
H  49.31300 2.42300 46.12900
H  49.86300 4.74900 47.94800
H  49.37300 1.01200 48.39900
H  49.14200 2.57800 49.24900
H  50.65200 2.26100 48.50500
H  49.83600 5.22200 44.99400
H  50.90900 3.98100 45.51100
H  51.38800 6.75100 45.52200
H  52.52700 5.48700 45.85600
H  51.50400 6.30400 47.18200
H  48.12500 10.19500 46.28300
H  48.46000 9.16000 47.66700
H  47.70600 10.64700 47.97300
H  42.41300 9.41600 45.76700
H  39.37900 11.25300 47.56000
H  39.84100 10.32100 49.04300
H  39.40300 9.56100 47.54600
Mg 53.85600 24.46800 42.96700
C  51.48400 26.99400 42.28100
C  51.74600 22.10900 42.00400
C  56.49000 22.30400 42.92100
C  56.05800 27.02700 43.90400
N  51.87000 24.62300 42.05400
C  51.06200 25.67800 41.83500
C  49.66500 25.20800 41.39200
C  49.67700 23.66300 41.83400
C  51.20000 23.45100 42.07800
C  48.80700 23.26600 43.06100
C  49.27800 25.49000 39.91700
C  50.33300 25.16700 38.85800
H  49.85300 24.32000 37.66200
N  54.10700 22.49000 42.38900
C  53.08100 21.69400 42.13000
C  53.52300 20.29700 42.16600
C  54.87500 20.31500 42.60700
C  55.23600 21.74000 42.67800
C  52.64600 19.08300 41.86400
C  55.71100 19.05000 42.79600
O  55.31600 17.94900 42.50000
C  57.04500 19.03100 43.50500
N  56.03100 24.67300 43.12400
C  56.91100 23.60100 43.22900
C  58.39200 24.03600 43.50300
C  58.18300 25.57200 43.95900
C  56.68300 25.80200 43.63500
C  59.11200 23.14800 44.57500
C  59.12300 26.66600 43.35200
C  59.82300 27.49700 44.30300
N  53.81700 26.64600 43.12700
C  54.76200 27.48600 43.57100
C  54.10000 28.74600 43.80100
C  52.81700 28.68900 43.25200
C  52.69200 27.34000 42.84900
C  54.74200 29.90700 44.47600
C  51.58700 29.37300 42.92500
O  51.21100 30.45900 43.23900
C  50.63000 28.27900 42.31600
C  50.01700 28.75700 41.04700
O  50.45900 28.69800 39.96900
O  48.76700 29.19500 41.37400
C  47.90400 29.73600 40.31100
H  50.95100 21.38600 41.81000
H  57.30400 21.58200 43.01000
H  56.79200 27.69400 44.36000
H  48.88700 25.71300 41.96400
H  49.50600 23.07400 40.93300
H  48.06300 22.52300 42.77300
H  48.33900 24.05300 43.65400
H  49.46200 22.86000 43.83100
H  48.89900 26.50700 39.81600
H  48.34700 24.97000 39.69200
H  51.10500 24.59000 39.36600
H  50.77300 26.07000 38.43500
H  52.33900 18.54100 42.75900
H  53.10400 18.26300 41.31000
H  51.77700 19.45700 41.32300
H  57.12700 18.10300 44.07200
H  57.01100 19.86200 44.21000
H  57.92700 19.00000 42.86500
H  58.97200 23.98600 42.58200
H  58.23200 25.56700 45.04800
H  58.64600 22.27800 45.03600
H  59.63900 23.77000 45.29800
H  60.01600 22.78800 44.08400
H  58.59300 27.34700 42.68500
H  59.82100 26.15500 42.68800
H  59.35800 28.48000 44.37100
H  60.85200 27.70900 44.01300
H  59.77600 27.15300 45.33700
H  54.74400 30.78500 43.83100
H  55.74400 29.62100 44.79500
H  54.24100 29.98000 45.44100
H  49.79300 28.12000 42.99500
H  48.28100 30.72700 40.05900
H  46.94600 29.99600 40.76300
H  47.78500 29.06100 39.46300

