158

Mg 40.29400 9.58800 28.43600
C  41.82600 10.41100 31.41300
C  37.89800 7.81500 30.31700
C  38.92300 8.47500 25.58000
C  42.95900 10.74300 26.67500
N  39.86800 9.30800 30.61800
C  40.62500 9.78100 31.64700
C  39.89100 9.51900 32.99000
C  38.71300 8.47700 32.59300
C  38.84000 8.50100 31.11200
C  38.94000 7.01600 33.17600
C  39.40000 10.84900 33.68500
C  39.66900 10.87200 35.28800
H  40.05000 12.17800 35.83300
N  38.59600 8.38000 27.96100
C  37.78900 7.73800 28.86200
C  36.73300 7.02200 28.16400
C  36.97900 7.27600 26.79500
C  38.19100 8.04700 26.69200
C  35.59300 6.24100 28.81600
C  36.19200 6.78500 25.58400
O  36.49300 7.11800 24.45300
C  34.82500 6.20900 25.76800
N  40.90300 9.59300 26.43200
C  40.11500 9.07100 25.45900
C  40.84800 9.31900 24.05400
C  42.00800 10.41100 24.43400
C  41.94100 10.24600 25.93300
C  41.48600 8.04000 23.39500
C  41.75000 11.92900 23.97300
C  40.65800 12.71100 24.73800
N  42.11500 10.26900 28.92600
C  43.05400 10.79700 28.10700
C  44.12200 11.31700 28.96500
C  43.60500 11.19300 30.22500
C  42.43300 10.60900 30.16300
C  45.36000 11.90500 28.43600
C  43.89900 11.55800 31.58900
O  44.82400 12.15000 32.15500
C  42.73700 11.06900 32.42400
C  43.13300 10.04800 33.45200
O  43.81100 9.04300 33.22800
O  42.80900 10.47600 34.73400
C  43.11000 9.37600 35.67600
H  37.20600 7.31000 30.99500
H  38.60800 8.11500 24.59900
H  43.80100 11.25100 26.20000
H  40.61800 9.00800 33.62100
H  37.71200 8.79000 32.89000
H  37.95300 6.76600 33.56600
H  39.62300 6.94700 34.02300
H  39.24900 6.28700 32.42700
H  38.33400 10.90800 33.46600
H  39.86000 11.69500 33.17300
H  40.42200 10.15700 35.62100
H  38.69200 10.62800 35.70600
H  35.60200 5.18500 28.54700
H  34.59000 6.61400 28.60800
H  35.64200 6.21000 29.90500
H  34.44800 6.06600 24.75500
H  34.20700 6.92900 26.30400
H  34.69000 5.35000 26.42400
H  40.18100 9.71800 23.29000
H  43.00300 10.10400 24.11000
H  41.17800 7.13000 23.91000
H  42.57600 8.03700 23.41000
H  41.26100 8.02000 22.32900
H  41.45200 11.76300 22.93800
H  42.68900 12.47600 24.06500
H  40.49300 12.27900 25.72500
H  39.69200 12.75500 24.23400
H  41.05900 13.69000 24.99900
H  45.30800 12.27900 27.41400
H  46.12100 11.13000 28.52500
H  45.59000 12.71200 29.13200
H  42.15900 11.87300 32.87800
H  44.15800 9.07700 35.67500
H  42.52100 8.48200 35.47300
H  42.91600 9.66600 36.70900
Mg -5.37200 25.56800 25.27500
C  -3.83900 27.08900 28.02000
C  -6.97100 23.45500 27.40400
C  -6.62200 23.91900 22.50300
C  -3.22300 27.30100 23.16200
N  -5.38100 25.30600 27.56100
C  -4.73800 26.11600 28.45900
C  -5.38100 25.92300 29.85500
C  -6.24600 24.67100 29.63400
C  -6.25400 24.44700 28.11000
C  -5.68700 23.33700 30.32100
C  -6.25600 27.16500 30.25700
C  -6.45100 27.47900 31.72600
H  -6.12100 26.42200 32.92900
N  -6.66100 23.97200 25.02500
C  -7.21200 23.26500 26.05300
C  -8.01000 22.18500 25.45900
C  -7.85600 22.25800 24.03600
C  -6.99500 23.43600 23.80200
C  -8.85000 21.20800 26.27000
C  -8.35700 21.37300 22.95900
O  -8.09800 21.46200 21.76100
C  -9.17500 20.14900 23.37300
N  -4.99200 25.58200 23.09700
C  -5.69500 24.87300 22.15200
C  -5.15400 25.18900 20.69800
C  -4.09600 26.37300 21.02000
C  -4.03300 26.42600 22.52600
C  -4.67800 23.93700 19.96000
C  -4.47500 27.77000 20.36700
C  -3.99100 27.86300 18.96300
N  -3.81700 26.92700 25.56500
C  -3.03800 27.56700 24.59900
C  -2.16400 28.53500 25.21600
C  -2.54200 28.39500 26.56800
C  -3.46000 27.40200 26.71900
C  -1.09200 29.38400 24.66000
C  -2.26200 28.92100 27.86700
O  -1.57500 29.86200 28.26800
C  -3.08400 28.05800 28.91400
C  -2.11500 27.45700 29.88700
O  -1.16400 26.76400 29.52400
O  -2.47700 27.80200 31.20800
C  -1.49000 27.36200 32.21100
H  -7.48900 22.71900 28.02300
H  -6.98000 23.50100 21.56000
H  -2.68900 27.98200 22.49600
H  -4.52300 25.73100 30.49900
H  -7.27800 24.82000 29.95300
H  -4.77900 23.59900 30.86400
H  -5.39500 22.55100 29.62400
H  -6.32400 22.91000 31.09500
H  -7.25500 26.97200 29.86500
H  -5.72500 27.98400 29.77200
H  -7.49400 27.76700 31.85900
H  -5.93900 28.40600 31.98300
H  -8.94000 21.47100 27.32400
H  -8.37500 20.22700 26.26800
H  -9.86300 21.12800 25.87700
H  -9.28000 19.47100 22.52600
H  -10.14900 20.52400 23.69000
H  -8.66000 19.73600 24.24100
H  -5.98400 25.63500 20.15100
H  -3.11100 26.08100 20.65500
H  -5.01400 23.93500 18.92300
H  -5.05800 23.00700 20.38500
H  -3.59200 23.98900 20.03400
H  -4.04700 28.58800 20.94700
H  -5.54900 27.94300 20.42500
H  -3.42400 26.99500 18.62700
H  -3.39900 28.76200 18.79600
H  -4.82600 27.88400 18.26200
H  -1.51700 30.34400 24.36800
H  -0.57100 28.88300 23.84400
H  -0.33200 29.68900 25.37900
H  -3.71400 28.75600 29.46600
H  -0.45500 27.27900 31.87900
H  -1.84900 26.37700 32.51000
H  -1.54600 28.07200 33.03500

