158

Mg 0.38200 42.71100 25.08600
C  2.71600 42.37900 27.91300
C  -2.06600 41.82800 27.20200
C  -1.70000 42.46000 22.38500
C  3.12300 43.31200 23.12700
N  0.40800 42.09100 27.31100
C  1.37800 42.16600 28.31800
C  0.78400 42.07900 29.66700
C  -0.70600 41.76400 29.32000
C  -0.82700 41.88100 27.85400
C  -1.11900 40.32600 29.84200
C  0.97700 43.36700 30.53300
C  1.33100 43.20200 32.02200
H  0.88300 42.02900 32.75600
N  -1.58600 42.12400 24.79200
C  -2.46600 41.79500 25.82500
C  -3.77100 41.49900 25.26500
C  -3.66600 41.67600 23.82500
C  -2.29800 42.12100 23.61300
C  -4.98400 41.15400 26.07300
C  -4.73000 41.62900 22.74000
O  -4.45000 41.90500 21.62100
C  -6.09000 41.21700 23.08100
N  0.65800 42.94900 23.11100
C  -0.37600 42.93900 22.24100
C  0.08100 43.42900 20.86700
C  1.56300 44.02400 21.20800
C  1.84300 43.36400 22.58100
C  -0.03000 42.50200 19.60200
C  1.64900 45.60600 21.34200
C  0.96100 46.59500 20.43600
N  2.52200 42.78700 25.32500
C  3.48600 42.90700 24.40000
C  4.77000 42.90900 24.92100
C  4.50000 42.68700 26.31200
C  3.11000 42.68400 26.53000
C  6.09700 43.10900 24.28200
C  5.11300 42.54700 27.58800
O  6.26500 42.38700 27.83600
C  3.98300 42.52100 28.71900
C  4.28600 41.30400 29.51800
O  4.03200 40.13400 29.17200
O  4.90500 41.72300 30.69900
C  5.06200 40.64300 31.64700
H  -2.89400 41.61000 27.88000
H  -2.29300 42.66200 21.49000
H  4.01900 43.54600 22.54800
H  1.33300 41.19900 30.00400
H  -1.49500 42.40100 29.72000
H  -0.48200 39.79600 30.54900
H  -1.11100 39.63100 29.00200
H  -2.14500 40.37400 30.20700
H  0.02300 43.85900 30.34300
H  1.73600 43.95600 30.01800
H  0.84100 44.04200 32.51400
H  2.40500 43.33300 32.15800
H  -4.68700 41.18400 27.12100
H  -5.31400 40.18400 25.70200
H  -5.84200 41.82300 26.02800
H  -6.63200 41.17000 22.13700
H  -6.60300 42.05400 23.55500
H  -6.30100 40.33200 23.68200
H  -0.62200 44.22500 20.62100
H  2.35800 43.65600 20.56000
H  -0.28500 41.50200 19.95400
H  0.84500 42.60500 18.95900
H  -0.87700 42.85000 19.01000
H  2.71800 45.80200 21.25500
H  1.29200 45.83000 22.34700
H  0.20600 47.11500 21.02500
H  0.51400 46.02000 19.62500
H  1.78700 47.23100 20.11700
H  6.35400 44.15700 24.43600
H  6.14300 42.82900 23.23000
H  6.78500 42.43000 24.78700
H  3.99400 43.41800 29.33900
H  5.28100 41.07700 32.62300
H  5.89200 39.97000 31.42900
H  4.16400 40.03000 31.71200
Mg -1.87200 34.17400 26.82500
C  -2.92300 32.42700 29.67000
C  -0.01200 36.17600 28.92900
C  -0.70500 35.83200 24.14900
C  -3.67500 31.93900 24.92600
N  -1.61300 34.36500 29.08700
C  -2.08300 33.45900 29.99600
C  -1.62500 33.88700 31.45500
C  -0.72800 35.12300 31.14400
C  -0.82100 35.27100 29.63900
C  -1.10900 36.47500 31.87300
C  -0.92400 32.74100 32.24500
C  -1.51400 32.56500 33.67800
H  -0.56800 32.65100 34.85500
N  -0.65900 35.95100 26.63600
C  0.06400 36.59800 27.59600
C  1.01600 37.51400 26.92900
C  0.75900 37.43400 25.53100
C  -0.28500 36.37900 25.40500
C  1.85200 38.50500 27.66900
C  1.29900 38.27000 24.45100
O  0.97000 38.27400 23.27300
C  2.46600 39.12600 24.74400
N  -2.34900 34.05300 24.84400
C  -1.64800 34.81400 23.81900
C  -2.03600 34.29300 22.43800
C  -2.87900 33.00600 22.75900
C  -2.93900 32.93500 24.26400
C  -2.68600 35.42600 21.50600
C  -2.36200 31.65900 22.02800
C  -0.91100 31.20200 22.38300
N  -3.17100 32.59800 27.17600
C  -3.80600 31.74800 26.32100
C  -4.69200 30.79400 27.10400
C  -4.24600 30.99200 28.42500
C  -3.37900 32.10300 28.42000
C  -5.55300 29.82400 26.42500
C  -4.37100 30.51300 29.83900
O  -5.07200 29.64400 30.37200
C  -3.66100 31.51700 30.59400
C  -4.63800 32.21000 31.44500
O  -5.26600 33.21600 31.15700
O  -4.61900 31.69600 32.71400
C  -5.50600 32.19800 33.76800
H  0.57200 36.85100 29.55800
H  -0.29200 36.19300 23.20400
H  -4.25200 31.23200 24.32500
H  -2.59200 34.19300 31.85500
H  0.29000 34.85400 31.42800
H  -0.24600 36.91800 32.36900
H  -1.76600 36.27100 32.71900
H  -1.63000 37.15700 31.20000
H  0.15900 32.84700 32.29600
H  -1.14700 31.81900 31.70800
H  -2.00800 31.59500 33.63600
H  -2.40800 33.17900 33.78700
H  1.59900 39.50300 27.31200
H  2.90700 38.29600 27.49100
H  1.46300 38.60500 28.68200
H  2.98800 39.40400 23.82900
H  3.16700 38.58100 25.37700
H  2.12600 40.02700 25.25400
H  -1.15500 33.90000 21.93100
H  -3.82100 33.22000 22.25400
H  -2.60200 36.44500 21.88300
H  -3.75500 35.23000 21.43000
H  -2.15000 35.18800 20.58700
H  -2.32300 31.75400 20.94300
H  -3.00400 30.83000 22.32300
H  -0.40000 31.93300 23.00900
H  -0.36800 30.94200 21.47400
H  -0.98700 30.38400 23.09900
H  -5.07000 28.91900 26.05600
H  -5.97500 30.28600 25.53300
H  -6.41300 29.54200 27.03100
H  -3.04000 31.03400 31.34800
H  -6.38000 31.56000 33.89500
H  -5.82000 33.22500 33.58000
H  -5.08700 32.16800 34.77400

