158

Mg 9.43800 3.81600 27.71200
C  10.75800 2.26500 30.58100
C  7.77400 6.08200 29.77800
C  7.94700 5.11300 24.96000
C  10.62400 1.23300 25.86600
N  9.31800 4.10200 29.85900
C  9.96400 3.42400 30.93600
C  9.51600 3.98600 32.28800
C  8.60000 5.16700 31.90000
C  8.51900 5.09700 30.38800
C  7.17600 5.05700 32.55900
C  10.64900 4.36100 33.28400
C  10.49100 5.51000 34.27800
H  10.85200 5.16500 35.67100
N  8.09600 5.33100 27.42700
C  7.57100 6.21200 28.41900
C  6.89400 7.29400 27.71100
C  6.85800 6.98000 26.35300
C  7.67000 5.78700 26.16800
C  6.19600 8.50000 28.39800
C  6.26900 7.80500 25.22000
O  6.46900 7.41300 24.04500
C  5.52500 9.12600 25.46300
N  9.22500 3.20700 25.67800
C  8.57000 3.88500 24.78500
C  8.69000 3.13000 23.39600
C  9.63700 1.98200 23.65600
C  9.92600 2.18600 25.09100
C  7.30200 2.71800 22.81400
C  10.97300 2.06000 22.77300
C  10.90200 0.99400 21.61000
N  10.53100 2.20200 28.04200
C  10.93100 1.23000 27.19700
C  11.74200 0.26200 27.94800
C  11.68700 0.68400 29.28300
C  10.93500 1.81000 29.27000
C  12.24800 -1.00500 27.37900
C  12.08100 0.29100 30.60500
O  12.67100 -0.65000 31.00500
C  11.52900 1.37100 31.49100
C  10.83600 0.78000 32.58800
O  9.87200 0.02400 32.55000
O  11.52000 1.06500 33.75200
C  11.06700 0.42500 34.99300
H  7.26200 6.72500 30.49600
H  7.58900 5.37300 23.96200
H  10.85400 0.32600 25.30400
H  8.85200 3.24500 32.73300
H  9.02300 6.15300 32.09200
H  6.52500 4.37000 32.01800
H  6.66800 6.02100 32.54000
H  7.25200 4.66700 33.57300
H  11.61200 4.22200 32.79400
H  10.55800 3.46100 33.89200
H  9.43600 5.77300 34.36700
H  11.13000 6.31000 33.90400
H  5.13300 8.51500 28.15800
H  6.56100 9.48500 28.10700
H  6.25400 8.39800 29.48200
H  6.25200 9.82700 25.87500
H  4.61500 8.93500 26.03200
H  5.29000 9.61300 24.51700
H  9.18000 3.85200 22.74400
H  9.11300 1.02800 23.61100
H  7.50400 1.81200 22.24400
H  6.97000 3.58000 22.23400
H  6.56200 2.57700 23.60200
H  11.83200 1.89000 23.42200
H  11.14000 3.08000 22.42800
H  10.06600 0.31800 21.78700
H  11.82100 0.41900 21.49600
H  10.80700 1.53000 20.66600
H  11.84300 -1.39400 26.44500
H  11.95500 -1.86000 27.98800
H  13.32600 -0.95100 27.22500
H  12.40500 1.86000 31.91600
H  10.46400 -0.47600 34.87500
H  10.61000 1.12400 35.69300
H  11.93700 0.05400 35.53600
Mg 40.62400 41.75600 26.51300
C  39.94600 43.85400 29.39200
C  41.70000 39.32500 28.80600
C  41.49000 39.67600 23.90800
C  40.00200 44.34500 24.46000
N  40.85400 41.70400 28.83900
C  40.38900 42.55700 29.81300
C  40.38700 42.05600 31.24300
C  40.98400 40.60100 31.05600
C  41.18500 40.52900 29.46700
C  42.32100 40.44900 31.79200
C  38.96400 42.02900 31.88900
C  38.81300 41.19400 33.12500
H  38.10500 41.88400 34.32200
N  41.55100 39.85600 26.40800
C  41.84500 39.03700 27.46600
C  42.21300 37.71400 26.99300
C  42.17900 37.72800 25.54600
C  41.81100 39.13700 25.20900
C  42.55300 36.51300 27.94100
C  42.52300 36.69600 24.53700
O  42.69600 36.93500 23.30800
C  42.73400 35.23400 25.06500
N  40.69100 41.98900 24.48700
C  40.98700 40.96800 23.56400
C  41.11800 41.53400 22.14200
C  40.35000 42.91300 22.33900
C  40.43700 43.15600 23.87900
C  42.61500 41.64700 21.78300
C  38.90500 42.77000 21.93600
C  38.27600 44.07800 21.33800
N  39.96500 43.63300 26.77800
C  39.67800 44.60700 25.84100
C  39.20000 45.83800 26.47300
C  39.26800 45.59500 27.85900
C  39.67800 44.25800 28.01900
C  38.96800 47.13500 25.72000
C  39.06200 46.19000 29.18900
O  38.81300 47.34200 29.54100
C  39.34300 45.01100 30.16000
C  40.33700 45.47700 31.12900
O  41.47800 45.72000 30.91800
O  39.68900 45.85000 32.30100
C  40.52800 46.43400 33.36200
H  41.64700 38.57000 29.59300
H  41.62200 38.94400 23.10800
H  39.72200 45.12800 23.75100
H  41.06300 42.62900 31.87800
H  40.49000 39.72000 31.46500
H  43.09100 40.27100 31.04000
H  42.15900 39.60000 32.45600
H  42.58900 41.16000 32.57300
H  38.28800 41.60900 31.14400
H  38.70800 43.04500 32.18900
H  39.77000 40.78500 33.44800
H  38.21000 40.32200 32.87000
H  43.53100 36.17000 27.60100
H  41.85900 35.67300 27.95000
H  42.61600 36.78800 28.99400
H  41.87700 34.89300 25.64600
H  43.68500 35.16800 25.59200
H  42.84100 34.61900 24.17100
H  40.57500 40.86900 21.47000
H  40.81300 43.75900 21.83000
H  43.17500 41.08800 22.53200
H  42.94800 42.68400 21.79500
H  42.83900 41.11900 20.85600
H  38.40300 42.42100 22.83800
H  38.67000 42.05100 21.15200
H  37.60000 43.69700 20.57200
H  39.00200 44.82700 21.02400
H  37.60500 44.52800 22.06900
H  38.99100 48.04500 26.31900
H  37.98500 47.16500 25.25000
H  39.79200 47.24700 25.01400
H  38.50300 44.64100 30.74800
H  41.42800 45.83200 33.48300
H  39.96800 46.48600 34.29600
H  40.74100 47.48900 33.18900

