158

Mg 8.24400 3.97600 27.83200
C  9.46300 2.61000 30.76100
C  6.40300 6.18100 29.66300
C  6.85500 4.94800 24.95500
C  9.66700 1.16800 26.12800
N  7.84700 4.17700 30.06600
C  8.63200 3.70000 31.06800
C  8.44700 4.44200 32.39400
C  7.29800 5.48200 32.00200
C  7.19800 5.32500 30.45700
C  5.95300 5.39400 32.75200
C  9.73200 5.09600 33.06900
C  10.22300 4.51000 34.43200
H  10.49100 5.52500 35.62800
N  6.77800 5.37300 27.40900
C  6.18900 6.24300 28.33100
C  5.23400 7.14700 27.51200
C  5.43700 6.81500 26.14700
C  6.39500 5.65600 26.07700
C  4.25100 8.12600 28.08400
C  4.78500 7.48400 24.91500
O  4.92200 7.04700 23.77600
C  4.07500 8.82100 24.96100
N  8.09800 3.08900 25.95500
C  7.60900 3.79900 24.86900
C  8.01100 3.13000 23.55700
C  8.63300 1.81600 23.97000
C  8.77000 1.97200 25.46200
C  6.80500 2.95900 22.60900
C  9.88800 1.52100 23.11100
C  9.74400 0.84000 21.73800
N  9.48700 2.30600 28.25700
C  10.03800 1.30500 27.49300
C  10.86100 0.43500 28.23700
C  10.67600 0.83200 29.58400
C  9.78900 1.99200 29.52100
C  11.37000 -0.89800 27.70400
C  10.89700 0.61300 31.01100
O  11.62300 -0.22600 31.51800
C  10.19200 1.83700 31.80500
C  9.38400 1.31400 32.90500
O  8.20400 1.01300 32.90800
O  10.13500 1.32600 34.04300
C  9.46600 0.89300 35.25400
H  5.88800 6.94200 30.25200
H  6.51600 5.34600 23.99600
H  10.05900 0.39900 25.46000
H  8.06900 3.70600 33.10400
H  7.60700 6.49900 32.24700
H  5.89200 6.12900 33.55400
H  5.65600 4.41000 33.11500
H  5.14600 5.69400 32.08400
H  9.42000 6.11300 33.30500
H  10.53700 4.91000 32.35800
H  11.20200 4.05800 34.27100
H  9.53500 3.80800 34.90300
H  4.32200 8.11900 29.17200
H  3.31300 7.78700 27.64400
H  4.40800 9.14100 27.71900
H  4.61300 9.62200 25.46700
H  3.16800 8.60000 25.52400
H  3.94500 9.25300 23.96900
H  8.64500 3.89900 23.11400
H  7.90000 1.02400 23.81900
H  5.88700 3.15100 23.16400
H  6.71200 1.94300 22.22600
H  6.98900 3.56600 21.72200
H  10.55100 0.83000 23.63200
H  10.50300 2.40300 22.93400
H  10.28600 -0.10200 21.65800
H  10.14200 1.49900 20.96600
H  8.69200 0.59800 21.58900
H  12.45600 -0.86300 27.61400
H  11.00500 -1.02500 26.68400
H  11.03000 -1.60700 28.45900
H  11.06300 2.36400 32.19400
H  8.94400 -0.05500 35.12700
H  8.77800 1.69200 35.53200
H  10.17200 0.80800 36.08000
Mg 6.00500 52.50500 41.19700
C  5.06000 48.98900 41.41600
C  9.14100 51.37800 40.21500
C  6.78900 55.73600 40.42400
C  2.65300 53.27300 41.64600
N  6.93500 50.39000 40.80300
C  6.31800 49.15200 40.92200
C  7.36200 48.08000 40.55500
C  8.72900 48.88000 40.63100
C  8.25300 50.34100 40.56200
C  9.65400 48.51000 41.82500
C  7.03200 47.36300 39.18500
C  6.39300 48.10700 38.01300
H  6.47500 47.55400 36.53200
N  7.66500 53.49800 40.30300
C  8.87100 52.80900 40.11200
C  9.89900 53.74900 39.75800
C  9.23400 55.06400 39.72100
C  7.80900 54.80200 40.17800
C  11.32200 53.40600 39.33400
C  9.94400 56.39600 39.38100
O  11.10300 56.35600 38.94300
C  9.37400 57.75000 39.47200
N  4.81900 54.19300 40.99700
C  5.46300 55.44400 40.83300
C  4.49100 56.50600 41.38000
C  3.10500 55.77300 41.21200
C  3.50200 54.28700 41.20900
C  4.82300 57.07100 42.76200
C  2.52200 56.08700 39.79600
C  1.13300 56.70100 39.97900
N  4.20800 51.41700 41.50100
C  2.93100 51.90000 41.80100
C  1.96500 50.81900 42.11700
C  2.83100 49.69400 42.13700
C  4.14300 50.11100 41.60700
C  0.56400 50.88400 42.56600
C  2.88800 48.33500 42.31100
O  1.96700 47.60200 42.70200
C  4.23700 47.80600 41.72400
C  3.83900 47.09900 40.46900
O  3.20600 47.51700 39.54600
O  4.30100 45.84900 40.64200
C  4.00400 44.77100 39.64900
H  10.17400 51.03800 40.12200
H  7.01300 56.80500 40.40800
H  1.66200 53.61400 41.95200
H  7.34000 47.32700 41.34200
H  9.21200 48.69300 39.67200
H  9.23100 47.83700 42.57100
H  9.75900 49.43400 42.39300
H  10.64300 48.16100 41.52800
H  6.42600 46.48400 39.40800
H  7.91500 46.85200 38.80100
H  6.83300 49.10100 37.93200
H  5.34400 48.36000 38.16800
H  11.28400 53.92800 38.37800
H  11.66500 52.37200 39.30300
H  12.08900 53.85300 39.96600
H  10.14300 58.49900 39.27800
H  8.98500 57.81100 40.48800
H  8.42000 57.92600 38.97500
H  4.55500 57.32100 40.66000
H  2.44900 55.94100 42.06700
H  5.73500 56.56100 43.07100
H  3.99600 56.87800 43.44600
H  5.12100 58.11900 42.72900
H  2.30700 55.18100 39.22900
H  3.18000 56.67400 39.15600
H  1.10800 57.75000 39.68400
H  0.77200 56.73200 41.00700
H  0.47300 56.14100 39.31700
H  0.09000 51.82900 42.29800
H  0.52700 50.73400 43.64500
H  -0.03700 50.07400 42.15400
H  4.69300 47.08900 42.40600
H  4.03500 43.77500 40.09000
H  4.81600 44.66700 38.93000
H  3.09500 44.81100 39.05000

