158

Mg 44.38700 3.33900 48.26500
C  41.82800 5.81500 47.79000
C  41.99800 0.95000 48.01900
C  46.94300 1.16000 48.44700
C  46.66300 6.11800 48.21700
N  42.15900 3.42800 47.86600
C  41.29400 4.50900 47.77800
C  39.91300 4.04900 47.34800
C  39.88900 2.52600 47.61300
C  41.43100 2.23700 47.85500
C  38.94000 2.13700 48.80400
C  39.70100 4.25700 45.81400
C  38.45900 5.05900 45.31400
H  38.75700 6.07900 44.14900
N  44.42100 1.30900 48.27100
C  43.31000 0.47500 48.12300
C  43.78700 -0.88800 48.09100
C  45.23800 -0.84600 48.06600
C  45.61100 0.57000 48.21400
C  42.88000 -2.10800 48.00800
C  46.12100 -2.06500 48.00100
O  45.59800 -3.11300 47.80900
C  47.63200 -1.98300 48.09800
N  46.59800 3.60400 48.21800
C  47.36300 2.51100 48.49300
C  48.68100 3.04800 49.18100
C  48.77300 4.53200 48.61900
C  47.23200 4.83800 48.38100
C  48.53200 3.09800 50.72500
C  49.68000 4.92500 47.36900
C  50.87800 5.86300 47.76300
N  44.34000 5.54600 48.07700
C  45.32900 6.47600 48.09500
C  44.79600 7.83500 48.06000
C  43.40700 7.60600 47.98900
C  43.16300 6.22100 47.99500
C  45.55300 9.12600 48.00800
C  42.06800 8.21600 47.98100
O  41.67800 9.42400 48.14200
C  41.08000 7.12600 47.64700
C  39.91300 7.23600 48.51300
O  39.77900 6.75400 49.63000
O  38.93100 7.94000 47.78900
C  37.62300 8.04700 48.43600
H  41.22000 0.19200 47.91000
H  47.81500 0.51500 48.57000
H  47.38500 6.90700 48.43800
H  39.12000 4.53300 47.91700
H  39.59400 1.89700 46.77300
H  38.53900 3.03800 49.26800
H  39.58500 1.76000 49.59700
H  38.25700 1.33000 48.54000
H  39.56400 3.29700 45.31700
H  40.61800 4.73500 45.46900
H  38.09800 5.75100 46.07500
H  37.66900 4.33600 45.11300
H  43.02800 -2.69500 47.10200
H  41.84400 -1.78000 47.92000
H  42.97000 -2.70400 48.91600
H  48.03900 -1.40000 47.27100
H  47.91200 -3.03600 48.10900
H  47.73000 -1.55900 49.09800
H  49.56400 2.45300 48.95000
H  49.23700 5.07700 49.44100
H  49.20700 2.39200 51.21100
H  47.50900 2.81200 50.96900
H  48.60100 4.07900 51.19400
H  49.20600 5.43300 46.53000
H  50.16800 4.04500 46.95000
H  50.60100 6.90700 47.61900
H  51.72800 5.74900 47.08900
H  51.06900 5.70600 48.82400
H  46.09300 9.36300 48.92600
H  44.86500 9.92700 47.73800
H  46.29000 9.07200 47.20700
H  40.70900 7.34000 46.64400
H  37.21400 7.23600 49.03800
H  36.87600 8.06800 47.64200
H  37.44700 8.98000 48.97200
Mg 47.10600 44.91200 43.11500
C  43.64800 44.14000 43.13900
C  47.67500 41.47700 43.02800
C  50.33800 45.64300 42.30200
C  46.23400 48.26500 42.58900
N  45.76500 43.05700 42.94600
C  44.39900 42.96800 43.04400
C  43.97600 41.56100 42.86800
C  45.25500 40.71400 43.02500
C  46.32700 41.79200 43.05600
C  45.27700 39.91100 44.38200
C  43.19200 41.26000 41.53800
C  43.81900 41.82600 40.32000
H  43.14500 41.56600 38.96400
N  48.84400 43.77100 42.90600
C  48.87600 42.33400 42.97500
C  50.28700 41.97100 42.75500
C  51.12100 43.13800 42.63300
C  50.12900 44.26200 42.69500
C  50.61800 40.48600 42.50200
C  52.58800 43.18800 42.45500
O  53.16300 42.11900 42.32700
C  53.32800 44.43300 42.40600
N  48.10300 46.65200 42.36600
C  49.41800 46.69100 42.22100
C  49.88600 48.07900 41.73600
C  48.59700 48.94900 41.85000
C  47.54700 47.91000 42.34800
C  51.19100 48.63000 42.40500
C  48.18300 49.80800 40.55800
C  47.93400 51.25700 40.91200
N  45.37100 46.01700 42.95600
C  45.18100 47.34600 42.76500
C  43.70600 47.57800 42.75500
C  43.05200 46.40900 43.00500
C  44.11100 45.46700 43.01600
C  42.96500 48.89100 42.36600
C  41.81500 45.76200 43.18100
O  40.70300 46.17100 43.19000
C  42.13700 44.24700 43.21600
C  41.66200 43.53700 44.32900
O  40.78000 42.71600 44.22800
O  42.27100 43.88400 45.56700
C  41.83100 43.05600 46.69500
H  47.88800 40.40900 43.11600
H  51.29300 45.83400 41.80800
H  45.99600 49.33000 42.62600
H  43.27600 41.39500 43.68700
H  45.43700 40.01300 42.21000
H  45.52000 40.57000 45.21500
H  46.11100 39.23900 44.18100
H  44.30400 39.45300 44.56200
H  42.15300 41.54400 41.70500
H  43.13900 40.17400 41.45800
H  44.84600 41.52000 40.12200
H  43.80800 42.91500 40.36100
H  51.67800 40.26200 42.61700
H  50.33300 40.02800 41.55400
H  50.03900 39.95900 43.26000
H  53.08000 44.92200 41.46400
H  54.40100 44.24300 42.38000
H  53.10900 45.08700 43.25000
H  50.23300 47.88900 40.72100
H  48.71700 49.62000 42.70000
H  51.17700 49.69300 42.64700
H  51.99200 48.47100 41.68300
H  51.45600 48.08900 43.31300
H  47.26100 49.41600 40.12900
H  48.97500 49.74100 39.81200
H  47.09500 51.71700 40.39000
H  48.80400 51.89800 40.76800
H  47.57100 51.29100 41.93900
H  43.68600 49.69400 42.52300
H  42.11200 48.98100 43.03900
H  42.70200 48.90500 41.30900
H  41.70600 43.78000 42.33000
H  40.91400 43.54100 47.03000
H  42.62800 43.15600 47.43100
H  41.59300 42.06500 46.30900

