158

Mg 39.94600 8.84600 30.04800
C  41.32300 9.68000 33.05500
C  37.29000 7.18500 31.95100
C  38.41000 8.12200 27.17700
C  42.54800 10.13600 28.37300
N  39.41600 8.38100 32.29300
C  40.14300 8.92300 33.29600
C  39.36100 8.74500 34.61700
C  38.00200 8.08100 34.24100
C  38.26800 7.79900 32.76300
C  37.72100 6.72700 35.01800
C  39.05500 10.11500 35.34100
C  39.01700 10.04100 36.90000
H  39.59700 11.20300 37.76300
N  38.18700 7.69100 29.57400
C  37.25800 7.15100 30.50600
C  36.19700 6.61000 29.64300
C  36.50000 6.81600 28.31900
C  37.66200 7.66200 28.34300
C  35.04500 5.84800 30.15500
C  35.84000 6.30200 27.02000
O  36.18200 6.51200 25.81900
C  34.60400 5.38900 27.16800
N  40.43400 9.04100 28.08600
C  39.57600 8.82000 27.00700
C  40.23800 9.21900 25.64900
C  41.51900 9.90900 26.14100
C  41.56000 9.58700 27.56900
C  40.39000 8.01000 24.73500
C  41.61900 11.42500 25.83700
C  40.32200 12.26400 25.83000
N  41.63500 9.62700 30.50900
C  42.65900 10.14200 29.75400
C  43.72900 10.66800 30.58600
C  43.21800 10.58200 31.86300
C  41.93500 9.98600 31.78000
C  45.08100 11.12100 30.18300
C  43.47500 10.85800 33.31400
O  44.43400 11.41500 33.85800
C  42.27900 10.31800 34.08100
C  42.85800 9.39500 35.03000
O  43.74600 8.58800 34.79300
O  42.15700 9.40600 36.14200
C  42.58400 8.56100 37.23400
H  36.54100 6.59600 32.48500
H  37.90400 8.00000 26.21700
H  43.42500 10.46000 27.80900
H  39.90700 8.03100 35.23400
H  37.17300 8.77800 34.11500
H  37.95500 5.82800 34.44700
H  36.71200 6.81000 35.42100
H  38.43700 6.58600 35.82800
H  38.09500 10.60600 35.18000
H  39.82200 10.84100 35.06900
H  39.47100 9.13200 37.29800
H  37.94500 10.04400 37.09600
H  34.88700 6.14400 31.19200
H  35.33000 4.79800 30.20900
H  34.07200 6.11000 29.74000
H  34.63100 4.64800 27.96800
H  34.50000 4.86500 26.21800
H  33.69400 5.98200 27.25300
H  39.51200 9.93500 25.26400
H  42.39100 9.39400 25.73900
H  40.21300 7.10800 25.32100
H  41.42400 8.04200 24.39200
H  39.76100 8.04500 23.84500
H  42.08200 11.48100 24.85200
H  42.24400 12.02300 26.50000
H  40.58900 13.25700 26.19200
H  39.56400 11.93000 26.53800
H  39.98400 12.48100 24.81700
H  45.62800 10.42000 29.55100
H  45.58000 11.38300 31.11600
H  44.94200 12.13800 29.81900
H  41.81500 11.11500 34.66300
H  42.12100 7.61700 36.94800
H  42.11400 8.89800 38.15900
H  43.65500 8.65500 37.41500
Mg 26.77000 50.28100 27.02400
C  24.68100 51.42600 29.57000
C  29.06900 49.59900 29.47100
C  28.89700 49.44200 24.60400
C  24.57000 51.58500 24.60600
N  26.84700 50.55700 29.17500
C  25.83200 50.91200 30.02700
C  26.21600 50.67800 31.44100
C  27.75600 50.43100 31.43400
C  27.97700 50.25500 29.91600
C  28.69300 51.52600 32.11500
C  25.27100 49.63100 32.05600
C  24.74800 50.13700 33.41900
H  25.78200 50.50400 34.54700
N  28.70400 49.51600 27.06800
C  29.46900 49.23300 28.12600
C  30.73900 48.61300 27.66000
C  30.69800 48.58700 26.26800
C  29.40300 49.20300 25.92700
C  31.83900 48.09200 28.67600
C  31.81400 48.22500 25.20700
O  31.75000 48.41200 24.04100
C  33.07100 47.54600 25.66100
N  26.62900 50.30600 24.90000
C  27.68500 49.93000 24.15200
C  27.31400 49.96400 22.63000
C  25.81100 50.48600 22.67300
C  25.64500 50.85300 24.14400
C  28.29500 50.74000 21.79500
C  24.71500 49.49000 22.09300
C  23.52100 50.03800 21.33100
N  24.98600 51.30400 27.01000
C  24.16700 51.65700 25.94700
C  22.93700 52.23200 26.40700
C  23.07100 52.19700 27.86000
C  24.40200 51.67000 28.15200
C  21.81100 52.77500 25.56700
C  22.50900 52.53500 29.18400
O  21.54400 53.11100 29.52000
C  23.52200 52.09000 30.32700
C  23.98300 53.15500 31.25300
O  25.10600 53.70500 31.26000
O  23.02800 53.35500 32.17100
C  23.46400 54.34700 33.21900
H  29.78200 49.20900 30.20200
H  29.62500 49.17700 23.83300
H  23.86200 52.00900 23.89100
H  26.01300 51.61400 31.96100
H  27.93300 49.54900 32.04900
H  29.20100 51.00200 32.92500
H  28.04300 52.32300 32.47600
H  29.46300 51.93900 31.46300
H  25.71400 48.64800 32.21500
H  24.40000 49.48900 31.41600
H  24.13400 49.36000 33.87400
H  24.06300 50.95600 33.19700
H  31.61700 48.35900 29.71000
H  32.77800 48.62100 28.51500
H  32.17200 47.07600 28.46400
H  33.79100 48.35400 25.79600
H  33.47100 46.92800 24.85700
H  33.02200 46.92000 26.55200
H  27.35500 48.88900 22.45200
H  25.83200 51.46400 22.19100
H  29.14500 51.07700 22.38700
H  27.88500 51.47500 21.10300
H  28.61400 49.98100 21.08100
H  24.21400 49.12200 22.98900
H  25.12000 48.75300 21.40000
H  23.52700 49.49900 20.38400
H  23.73800 51.07500 21.07100
H  22.55400 49.82200 21.78500
H  21.48300 52.18000 24.71500
H  22.10800 53.75600 25.19700
H  20.97900 52.88500 26.26300
H  23.01700 51.31400 30.90200
H  23.82000 55.26100 32.74300
H  24.28300 53.92900 33.80400
H  22.59800 54.58900 33.83400

