158

Mg 45.99300 17.05800 28.41700
C  44.52900 16.63000 31.70000
C  48.54500 18.58900 29.94000
C  47.11800 17.56600 25.33700
C  43.14600 15.34000 27.10300
N  46.40200 17.59500 30.56500
C  45.79000 17.30900 31.72700
C  46.52000 17.73800 32.94600
C  47.69200 18.49300 32.36700
C  47.54600 18.25300 30.84400
C  47.75200 20.04100 32.54200
C  47.05400 16.43100 33.73200
C  47.05100 16.46200 35.22600
H  46.90900 17.73900 36.03700
N  47.59100 17.98000 27.74400
C  48.56800 18.61800 28.55500
C  49.61300 19.10900 27.64900
C  49.19400 18.75200 26.28100
C  47.98100 18.05300 26.38100
C  50.75600 20.02600 27.95900
C  49.93700 19.00500 24.93400
O  49.45700 18.72900 23.86000
C  51.31700 19.63600 24.93600
N  45.18300 16.54500 26.60600
C  45.90400 16.90100 25.46700
C  45.12000 16.52600 24.17300
C  43.94600 15.66300 24.75400
C  44.06000 15.89800 26.21000
C  44.53000 17.78500 23.46200
C  44.00700 14.11600 24.44900
C  44.98600 13.29800 25.25300
N  44.19700 16.19300 29.20400
C  43.19100 15.52100 28.50700
C  42.12800 15.15700 29.45200
C  42.64700 15.50800 30.75000
C  43.89400 16.17100 30.55300
C  40.86800 14.39700 29.01300
C  42.34800 15.53300 32.12600
O  41.32400 15.16600 32.67600
C  43.55000 16.28700 32.86100
C  42.99600 17.45800 33.51800
O  42.58700 18.45500 32.90200
O  42.98300 17.27600 34.88600
C  42.38100 18.28600 35.68400
H  49.37900 19.17700 30.32900
H  47.47800 17.59500 24.30600
H  42.38700 14.65000 26.72800
H  45.89900 18.32900 33.61900
H  48.65100 18.16100 32.76300
H  47.52300 20.48500 31.57300
H  48.78900 20.22800 32.82200
H  47.04100 20.32100 33.31900
H  48.04000 16.08900 33.41700
H  46.32700 15.67100 33.44700
H  47.95900 15.96800 35.57300
H  46.19900 15.89300 35.59800
H  50.46300 21.02300 27.63000
H  51.68800 19.68600 27.50800
H  50.89100 20.08800 29.03900
H  52.08900 19.23400 25.59100
H  51.28900 20.67700 25.25800
H  51.54800 19.65600 23.87100
H  45.79900 16.01600 23.48900
H  42.98200 16.09100 24.48100
H  43.47500 17.87200 23.20300
H  45.10700 17.86300 22.54000
H  44.85000 18.62700 24.07600
H  44.28500 14.06000 23.39700
H  43.02400 13.66200 24.57400
H  44.55000 12.83800 26.13900
H  45.85200 13.89300 25.54300
H  45.36700 12.49600 24.61900
H  40.44500 14.87000 28.12600
H  40.17400 14.63200 29.81900
H  40.92800 13.34100 28.74900
H  44.04200 15.60800 33.55600
H  42.55500 19.25000 35.20700
H  42.93600 18.31600 36.62100
H  41.34500 17.96300 35.79200
Mg -12.24400 16.04700 41.32900
C  -9.17800 14.29600 40.96400
C  -10.96600 18.62600 39.39200
C  -15.39900 17.24300 41.10700
C  -13.53300 12.96900 42.57800
N  -10.35900 16.39500 40.35200
C  -9.23400 15.55400 40.32800
C  -8.01200 16.31200 39.70800
C  -8.60100 17.69500 39.33600
C  -10.07700 17.56100 39.66000
C  -7.94100 18.90800 40.06800
C  -7.63300 15.53900 38.41300
C  -6.13800 15.15700 38.35600
H  -5.38100 15.73400 37.19400
N  -13.11000 17.76000 40.37400
C  -12.36600 18.68500 39.68000
C  -13.24600 19.73100 39.29900
C  -14.56300 19.42300 39.83300
C  -14.42400 18.09800 40.47500
C  -12.86900 20.99800 38.48000
C  -15.84100 20.36200 39.66700
O  -15.79600 21.46900 39.17200
C  -17.25100 20.00100 40.18500
N  -14.19900 15.15500 41.65700
C  -15.24600 15.90400 41.62200
C  -16.51200 15.08500 42.02500
C  -15.90800 13.88400 42.81700
C  -14.46600 13.96200 42.31500
C  -17.66100 15.88900 42.66700
C  -16.69300 12.57300 42.68000
C  -17.22900 11.99300 44.05300
N  -11.48100 14.05300 41.80000
C  -12.15500 12.88200 42.36000
C  -11.21500 11.89700 42.64400
C  -9.98600 12.45400 42.18700
C  -10.27900 13.70400 41.58500
C  -11.33600 10.61000 43.42600
C  -8.53200 12.19200 42.09200
O  -7.83600 11.24900 42.57100
C  -7.95500 13.38700 41.22200
C  -6.93200 14.14100 42.00400
O  -7.00000 14.45400 43.15600
O  -5.80300 14.20900 41.28000
C  -4.58700 14.66200 41.93800
H  -10.49500 19.53600 39.01600
H  -16.39100 17.69800 41.06400
H  -13.97500 12.15600 43.15700
H  -7.14100 16.43800 40.35100
H  -8.71700 17.88200 38.26900
H  -7.04700 18.54700 40.57700
H  -8.62300 19.27400 40.83600
H  -7.73100 19.63700 39.28500
H  -7.86600 16.13400 37.53000
H  -8.25500 14.67400 38.18200
H  -6.16100 14.06700 38.37100
H  -5.62200 15.42500 39.27800
H  -13.19100 21.88000 39.03400
H  -13.34300 21.02200 37.49900
H  -11.80400 21.12800 38.28900
H  -17.24000 19.81200 41.25800
H  -17.71200 19.28100 39.50900
H  -17.92800 20.85200 40.11500
H  -16.84500 14.62500 41.09400
H  -15.88200 14.26900 43.83600
H  -17.91100 15.36800 43.59200
H  -18.57200 15.89700 42.06900
H  -17.40500 16.92800 42.87000
H  -16.11200 11.78900 42.19400
H  -17.51700 12.82000 42.01100
H  -18.28300 12.21700 43.89000
H  -16.77300 12.43700 44.93900
H  -17.04500 10.91900 44.06200
H  -10.31500 10.31200 43.65900
H  -11.66900 9.76700 42.82000
H  -11.98500 10.71600 44.29500
H  -7.43100 13.03100 40.33500
H  -3.77700 14.01400 41.60400
H  -4.64800 14.58500 43.02300
H  -4.43900 15.70100 41.64300

