158

Mg 23.77300 -7.70400 46.81000
C  26.39000 -5.74500 45.59200
C  21.76000 -6.50300 44.34400
C  21.80600 -10.36700 47.17200
C  26.30800 -9.52000 48.67300
N  24.10500 -6.24000 45.19200
C  25.21500 -5.48500 44.88800
C  24.95600 -4.50500 43.68600
C  23.42600 -4.77000 43.32200
C  23.03300 -5.89900 44.34000
C  22.48700 -3.42800 43.22300
C  25.85300 -4.63400 42.32800
C  26.46000 -3.22900 42.02900
H  25.92400 -2.34300 40.94800
N  21.87900 -8.24500 46.05300
C  21.21300 -7.54700 45.08800
C  19.87100 -8.08400 45.00200
C  19.87400 -9.35100 45.79900
C  21.19500 -9.39900 46.34800
C  18.85100 -7.51000 44.06900
C  18.73300 -10.34700 45.91100
O  17.65300 -10.03100 45.41200
C  18.82600 -11.56400 46.69400
N  24.00700 -9.60000 47.84300
C  23.02500 -10.58900 47.77500
C  23.39100 -11.91200 48.59500
C  24.74000 -11.47300 49.22800
C  25.04500 -10.05600 48.56600
C  22.31100 -12.53400 49.57200
C  25.90500 -12.52300 49.25700
C  26.44300 -12.86400 50.66800
N  25.88700 -7.67900 47.20800
C  26.72100 -8.38300 47.98900
C  28.05400 -7.78100 47.92800
C  27.85700 -6.66800 47.12300
C  26.56200 -6.71200 46.63000
C  29.28000 -8.32800 48.64000
C  28.55900 -5.50800 46.60100
O  29.68800 -5.17200 46.74400
C  27.60000 -4.88600 45.58600
C  27.35200 -3.50500 46.01200
O  26.68000 -3.11800 46.97400
O  28.13700 -2.66000 45.30700
C  28.30400 -1.33600 45.79700
H  21.15300 -5.93300 43.63700
H  21.22300 -11.28800 47.24300
H  27.13200 -9.97000 49.23000
H  25.10300 -3.53400 44.15900
H  23.36000 -5.24900 42.34500
H  21.83100 -3.51500 42.35700
H  23.18500 -2.60100 43.08900
H  21.91700 -3.24100 44.13300
H  25.16700 -4.83900 41.50600
H  26.43700 -5.54300 42.18800
H  27.50700 -3.39500 41.77900
H  26.52400 -2.71200 42.98600
H  18.94900 -7.92300 43.06500
H  18.97600 -6.43300 43.96200
H  17.84900 -7.58200 44.49300
H  19.60400 -12.27700 46.42200
H  17.98000 -12.18000 46.39000
H  18.71600 -11.38200 47.76300
H  23.66100 -12.53100 47.73900
H  24.46800 -11.26400 50.26300
H  21.71800 -13.39200 49.25400
H  21.79300 -11.65700 49.96100
H  22.78300 -12.89900 50.48500
H  26.75900 -12.22000 48.65100
H  25.44100 -13.44600 48.91100
H  27.52000 -13.02000 50.59500
H  25.91300 -13.70700 51.11200
H  26.16800 -12.03900 51.32500
H  29.44000 -9.40600 48.67500
H  29.15200 -7.87400 49.62300
H  30.08000 -7.93700 48.01100
H  28.15400 -4.76600 44.65500
H  28.65700 -1.31800 46.82800
H  27.38600 -0.75300 45.73000
H  29.02400 -0.94500 45.07800
Mg 7.71100 53.85700 40.03300
C  7.25500 50.46600 40.15400
C  11.00500 53.50600 39.05400
C  7.84900 57.17600 39.36500
C  4.12800 54.19900 40.68300
N  8.97200 52.14400 39.60500
C  8.54700 50.82000 39.65800
C  9.76000 49.88700 39.36700
C  10.98700 50.85000 39.37700
C  10.29600 52.26100 39.34600
C  12.04100 50.61800 40.42000
C  9.54300 49.13600 37.99900
C  9.36000 49.99100 36.71300
H  8.31400 49.50200 35.66900
N  9.26400 55.19000 39.33600
C  10.49000 54.83400 38.91100
C  11.18000 55.98700 38.58500
C  10.35100 57.10000 38.66700
C  9.11400 56.54200 39.15700
C  12.66400 55.84800 38.15800
C  10.71100 58.51500 38.20400
O  11.85000 58.72100 37.78300
C  9.77600 59.66300 38.30900
N  6.20100 55.45100 40.06400
C  6.59000 56.73900 39.84000
C  5.37200 57.73200 40.00400
C  4.25500 56.71400 40.50700
C  4.87600 55.36200 40.36100
C  5.57800 59.08900 40.78600
C  2.79400 56.91300 39.92600
C  1.62200 56.98100 40.98500
N  5.96300 52.58500 40.44600
C  4.64700 52.85900 40.68400
C  3.99700 51.54300 40.95900
C  5.00200 50.63100 40.80500
C  6.15000 51.25600 40.38300
C  2.58400 51.39600 41.53100
C  5.26000 49.21700 40.95600
O  4.57000 48.28300 41.33200
C  6.73000 49.03600 40.48600
C  6.64100 48.14000 39.30600
O  6.12000 48.31300 38.22700
O  7.19900 46.94900 39.62300
C  6.77900 45.77200 38.84000
H  12.07300 53.37200 38.86700
H  8.00900 58.25600 39.31800
H  3.12600 54.49600 40.99800
H  9.78600 49.14900 40.16800
H  11.50300 50.81700 38.41700
H  12.91800 50.40500 39.80800
H  11.76200 49.68400 40.90700
H  12.26100 51.40200 41.14400
H  8.83900 48.31100 38.10600
H  10.48600 48.59900 37.89100
H  10.33200 49.95300 36.22200
H  9.10100 51.03500 36.89200
H  12.68800 56.06000 37.08900
H  13.12600 54.91500 38.48100
H  13.12700 56.64300 38.74200
H  9.60200 59.82500 39.37200
H  8.88200 59.51400 37.70300
H  10.29500 60.49500 37.83300
H  5.05700 58.03800 39.00700
H  4.28000 56.79400 41.59300
H  4.76300 59.22800 41.49700
H  5.49100 59.93700 40.10600
H  6.50900 59.09000 41.35400
H  2.60200 56.08400 39.24400
H  2.75500 57.80400 39.29900
H  1.03200 57.85600 40.71600
H  1.99700 57.11200 42.00000
H  0.91600 56.15300 41.05000
H  2.17100 52.38800 41.71800
H  2.78500 50.94600 42.50300
H  1.94300 50.77600 40.90500
H  7.31700 48.55900 41.27100
H  6.69300 44.95700 39.55800
H  7.57900 45.37500 38.21500
H  5.88400 45.95000 38.24400

