158

Mg 44.05000 3.43800 47.44400
C  41.70300 6.12400 47.16700
C  41.50900 1.18100 47.19000
C  46.34900 0.96500 47.13300
C  46.54300 5.84300 46.88600
N  41.85800 3.64500 47.03100
C  41.10800 4.80600 47.08100
C  39.65300 4.48500 46.71800
C  39.56800 2.98500 47.14400
C  41.07700 2.53000 47.06700
C  39.01200 2.64900 48.60600
C  39.39600 4.75900 45.18200
C  38.44500 5.81300 44.79800
H  38.90100 6.64000 43.58300
N  44.00700 1.36700 47.32300
C  42.84800 0.68700 47.18400
C  43.15900 -0.74000 47.14100
C  44.59100 -0.92700 47.08300
C  45.05300 0.49500 47.10100
C  42.05200 -1.75900 47.20100
C  45.35200 -2.23100 46.93400
O  44.87200 -3.34600 47.05400
C  46.78300 -2.17700 46.65000
N  46.16000 3.39500 46.89800
C  46.88400 2.26500 47.06400
C  48.41200 2.51700 46.97200
C  48.50400 4.08300 46.84700
C  46.96700 4.48300 46.78800
C  49.16500 1.90600 48.15300
C  49.32900 4.51600 45.57900
C  50.78100 4.80800 45.85700
N  44.14300 5.60700 47.16900
C  45.19500 6.47000 46.94800
C  44.81300 7.82300 46.92900
C  43.39600 7.71900 47.11000
C  43.05900 6.40900 47.20600
C  45.76600 9.00000 46.86900
C  42.12200 8.54000 47.14100
O  41.96300 9.76700 47.01400
C  40.94100 7.40900 47.07400
C  40.06000 7.71100 48.21400
O  40.02700 7.18800 49.31300
O  39.26200 8.72200 47.76400
C  38.63600 9.57100 48.79900
H  40.68900 0.46500 47.28500
H  47.12700 0.19900 47.14100
H  47.24200 6.68100 46.84800
H  38.96900 5.01900 47.37800
H  39.07800 2.38500 46.37700
H  38.66400 3.58300 49.04800
H  39.78100 2.15100 49.19700
H  38.14000 2.02500 48.41000
H  39.17100 3.86500 44.60100
H  40.39300 5.05900 44.85900
H  38.35700 6.48900 45.64900
H  37.45300 5.40200 44.61200
H  42.53100 -2.69200 46.90200
H  41.30100 -1.35200 46.52400
H  41.77700 -1.81100 48.25500
H  47.11600 -1.71400 45.72100
H  47.19500 -3.18500 46.66900
H  47.28100 -1.75600 47.52300
H  48.88100 2.09700 46.08300
H  48.95400 4.57800 47.70700
H  49.51700 2.79600 48.67400
H  50.07300 1.38000 47.85900
H  48.54800 1.23300 48.74900
H  48.96700 5.45300 45.15600
H  49.29800 3.81100 44.74800
H  50.80500 5.89300 45.95000
H  51.34300 4.49100 44.97800
H  51.12400 4.32800 46.77300
H  46.29100 9.10000 45.91900
H  46.56600 8.96100 47.60700
H  45.18800 9.88200 47.14600
H  40.37200 7.62100 46.16900
H  38.96800 10.60900 48.78500
H  38.83200 9.13900 49.78000
H  37.56000 9.62000 48.63000
Mg 52.97700 24.07200 44.56200
C  50.16200 25.97200 43.73500
C  51.50000 21.34800 43.09100
C  55.90600 22.53700 44.89200
C  54.52500 27.07700 45.76900
N  51.20100 23.80400 43.26200
C  50.24200 24.71300 43.06800
C  49.03500 24.10900 42.35300
C  49.36900 22.56000 42.53100
C  50.80500 22.53300 42.95700
C  48.41000 21.84900 43.51100
C  49.22500 24.53900 40.88100
C  47.91200 24.89800 40.12000
H  47.37000 23.74300 39.29400
N  53.56700 22.09300 44.10500
C  52.83600 21.13400 43.56000
C  53.63700 19.94800 43.49000
C  54.95500 20.29400 43.95400
C  54.89100 21.68700 44.42700
C  53.12700 18.64800 42.94100
C  56.11300 19.34400 44.00900
O  56.08000 18.22900 43.61200
C  57.39900 19.68400 44.79200
N  55.00100 24.86400 44.87100
C  55.93900 23.92400 45.11300
C  57.18500 24.56800 45.77700
C  56.86900 26.09600 45.74300
C  55.37900 26.02000 45.45100
C  57.59400 24.04600 47.17300
C  57.56100 26.91300 44.61800
C  58.51700 27.99000 45.00100
N  52.48600 26.13600 44.75300
C  53.12300 27.13400 45.52000
C  52.07000 28.23600 45.75400
C  50.95800 27.85600 45.01500
C  51.24200 26.50500 44.49600
C  52.31300 29.54100 46.51800
C  49.55100 28.25600 44.61600
O  48.92800 29.25100 44.77900
C  48.96100 26.96000 43.85700
C  48.40000 27.51700 42.57400
O  49.08000 28.06300 41.75500
O  46.98300 27.37200 42.61300
C  46.28300 27.86400 41.44700
H  51.09100 20.40900 42.71000
H  56.87300 22.08800 45.12800
H  55.04500 27.92700 46.21500
H  48.05700 24.36300 42.76100
H  49.34400 22.06100 41.56300
H  47.80500 20.98900 43.22600
H  47.70900 22.54000 43.97900
H  49.09900 21.43900 44.24900
H  49.58300 23.63900 40.38100
H  50.06000 25.23200 40.77800
H  48.15000 25.71500 39.44000
H  47.12000 25.02300 40.85900
H  53.88000 18.26400 42.25400
H  52.30700 18.82000 42.24400
H  52.74200 17.92700 43.66200
H  57.99000 18.77500 44.90400
H  57.07800 19.97800 45.79100
H  57.95400 20.48700 44.30600
H  58.05700 24.37900 45.15000
H  57.11400 26.57600 46.69000
H  58.66900 24.13400 47.33300
H  57.29500 23.04600 47.48700
H  57.04900 24.70700 47.84800
H  56.87700 27.46200 43.97100
H  58.04300 26.16100 43.99200
H  59.45400 27.84700 44.46300
H  58.56300 28.14800 46.07800
H  58.21700 28.98700 44.67800
H  52.96400 30.20000 45.94200
H  52.83100 29.26200 47.43600
H  51.40300 30.02800 46.86800
H  48.14300 26.57200 44.46300
H  46.35800 26.98300 40.80900
H  46.85100 28.64300 40.93800
H  45.28500 28.26900 41.61400

