158

Mg 24.51300 0.98200 29.78500
C  26.40500 0.87100 32.72300
C  21.75700 0.88800 31.77200
C  22.69400 0.77400 26.91300
C  27.50400 0.66500 27.88300
N  24.13900 1.09000 32.07400
C  25.03800 0.99800 33.02700
C  24.42000 1.14900 34.35500
C  22.89000 0.86900 34.05900
C  22.90800 1.00100 32.54500
C  22.27400 -0.50200 34.45400
C  24.81400 2.50600 35.16200
C  25.37200 2.40900 36.52700
H  25.00700 3.45100 37.63700
N  22.51000 0.91100 29.42900
C  21.56800 0.81700 30.37600
C  20.28100 0.77200 29.72600
C  20.52000 0.64100 28.29800
C  21.97200 0.76700 28.17300
C  18.98400 0.71100 30.49500
C  19.55500 0.37100 27.23000
O  19.83200 0.31000 26.03900
C  18.06800 0.29700 27.51100
N  25.03900 0.58600 27.76200
C  24.05900 0.74500 26.74500
C  24.68700 0.91100 25.35700
C  26.22300 0.87700 25.54600
C  26.28800 0.76100 27.15400
C  24.11500 -0.18200 24.40300
C  26.86100 2.12900 24.87900
C  26.74000 3.48800 25.63700
N  26.48600 0.70600 30.11700
C  27.55100 0.57100 29.27700
C  28.79000 0.50400 30.09400
C  28.35900 0.63200 31.38200
C  26.95400 0.73700 31.38400
C  30.19100 0.30600 29.57500
C  28.81600 0.78200 32.82300
O  29.93900 0.73300 33.22400
C  27.53200 0.81000 33.75200
C  27.57800 -0.32800 34.66400
O  26.95500 -1.37300 34.54700
O  28.36700 0.07100 35.77900
C  28.32600 -0.84000 36.93400
H  20.90600 1.03000 32.44200
H  22.09000 0.78000 26.00300
H  28.48400 0.70800 27.40200
H  24.72800 0.36200 35.04300
H  22.30700 1.70200 34.45200
H  23.00600 -1.24600 34.76700
H  21.77800 -0.95600 33.59600
H  21.56800 -0.42800 35.28200
H  23.85000 3.01300 35.20000
H  25.40100 3.19700 34.55700
H  26.44600 2.30400 36.37600
H  25.20800 1.43000 36.97800
H  18.99200 0.97900 31.55200
H  18.50800 -0.27000 30.48300
H  18.25000 1.34000 29.99200
H  17.79600 -0.50700 28.19400
H  17.66800 0.00500 26.54000
H  17.76100 1.27800 27.87300
H  24.40800 1.90300 25.00300
H  26.51600 -0.03100 25.01900
H  23.84600 0.45900 23.56300
H  23.23200 -0.64000 24.84900
H  24.81600 -0.97400 24.14200
H  26.20700 2.24900 24.01500
H  27.86000 1.81800 24.57300
H  27.59300 4.05700 25.26800
H  26.87600 3.28900 26.70000
H  25.81500 4.00700 25.38700
H  30.33500 0.46500 28.50600
H  30.45600 -0.72400 29.81000
H  30.80000 1.07400 30.05400
H  27.53800 1.75400 34.29700
H  28.25300 -1.83800 36.50400
H  27.46200 -0.57600 37.54500
H  29.19100 -0.84400 37.59800
Mg 9.96900 47.78400 26.05000
C  8.20900 47.67400 28.88500
C  12.48400 49.30700 27.76400
C  11.85000 47.74500 23.21100
C  7.30800 46.49300 24.27500
N  10.17000 48.46600 28.04200
C  9.42500 48.21800 29.09200
C  9.92800 48.77200 30.38700
C  11.06500 49.65200 29.87600
C  11.29200 49.08000 28.45000
C  10.82000 51.21100 29.86200
C  10.36700 47.74500 31.49500
C  9.79100 47.72400 32.90900
H  9.77200 46.36800 33.65100
N  11.89500 48.37500 25.55700
C  12.83500 48.85600 26.42500
C  14.07600 48.94500 25.77000
C  13.98000 48.35700 24.45300
C  12.53000 48.13400 24.34700
C  15.38900 49.46800 26.43900
C  15.03300 48.06300 23.28000
O  14.71700 47.74600 22.15100
C  16.45900 48.29400 23.51900
N  9.50400 47.59600 23.96100
C  10.47300 47.46800 23.04700
C  9.94100 47.28400 21.59700
C  8.59600 46.51200 21.93400
C  8.42500 46.82700 23.47700
C  9.77800 48.61500 20.87600
C  8.75400 45.06500 21.50200
C  9.94200 44.34500 22.21100
N  8.07700 47.33700 26.44200
C  7.09400 46.82300 25.64000
C  5.87400 46.66000 26.29700
C  6.24400 46.93300 27.65500
C  7.60300 47.30300 27.65400
C  4.51400 46.24800 25.84400
C  5.79500 47.05300 29.03100
O  4.67100 46.94500 29.53400
C  7.11400 47.35000 29.89200
C  7.39800 46.06100 30.59600
O  8.12600 45.19000 30.16500
O  6.75600 46.01200 31.83700
C  6.89500 44.77300 32.57000
H  13.21500 49.81200 28.39800
H  12.42000 47.69900 22.28100
H  6.50800 45.99800 23.72000
H  9.13700 49.39200 30.81000
H  12.00200 49.44700 30.39300
H  9.89000 51.39600 30.40000
H  10.76900 51.61000 28.84900
H  11.64400 51.72200 30.36000
H  11.45300 47.76200 31.58300
H  10.17000 46.82300 30.94700
H  8.83600 48.25000 32.92700
H  10.48800 48.32200 33.49600
H  15.10600 49.67500 27.47100
H  15.85200 50.31200 25.92800
H  16.11100 48.65200 26.47900
H  17.07100 48.36900 22.62000
H  16.85400 47.54200 24.20200
H  16.47900 49.26800 24.00800
H  10.60300 46.68800 20.97000
H  7.68800 46.93300 21.50100
H  10.29700 49.36700 21.47000
H  8.76000 48.96600 20.70600
H  10.22900 48.52100 19.88800
H  8.98900 45.00300 20.43900
H  7.81900 44.56500 21.75500
H  10.42100 43.62300 21.55000
H  9.50100 43.79200 23.04000
H  10.75000 44.97900 22.57700
H  3.73900 46.76000 26.41400
H  4.37100 45.18100 26.02000
H  4.38000 46.50400 24.79300
H  6.89200 48.14400 30.60600
H  7.01600 45.04100 33.61900
H  7.67000 44.08400 32.23200
H  5.92700 44.32000 32.35500

