158

Mg 17.33200 -0.67000 28.12600
C  15.96400 1.34300 30.69400
C  19.25400 -2.19100 30.34200
C  18.65400 -2.27700 25.53500
C  15.41300 1.33600 25.82400
N  17.54800 -0.41700 30.21000
C  16.80600 0.35200 31.09500
C  17.13500 -0.04900 32.50300
C  18.23500 -1.10800 32.43600
C  18.36500 -1.24100 30.92200
C  19.58500 -0.75100 33.06600
C  15.85300 -0.56600 33.25800
C  15.85900 -0.44000 34.78000
H  16.94800 0.25000 35.51400
N  18.68200 -2.00200 27.94400
C  19.43400 -2.51900 29.00000
C  20.32300 -3.50300 28.49000
C  20.24600 -3.50500 27.11800
C  19.12400 -2.58100 26.77800
C  21.39400 -4.19400 29.38900
C  21.03700 -4.25700 26.13300
O  20.75300 -4.28700 24.99100
C  22.15300 -5.07700 26.56800
N  17.10200 -0.44300 26.06000
C  17.77600 -1.31400 25.18800
C  17.31500 -1.11200 23.70500
C  16.08000 -0.11600 23.86500
C  16.27600 0.34700 25.31800
C  18.48600 -0.60400 22.85800
C  14.69400 -0.71100 23.45200
C  14.09400 -1.72100 24.41900
N  15.94100 0.96500 28.19300
C  15.31800 1.71900 27.21500
C  14.42500 2.68000 27.85400
C  14.67700 2.56300 29.16800
C  15.69900 1.59600 29.35300
C  13.38600 3.59500 27.09800
C  14.38900 3.19400 30.42100
O  13.67200 4.16000 30.72200
C  15.17100 2.32200 31.44700
C  15.96800 3.21500 32.33100
O  17.10900 3.63300 32.10100
O  15.20300 3.39300 33.48200
C  15.85300 4.07900 34.61800
H  19.91700 -2.76800 30.99000
H  19.18100 -2.74000 24.69900
H  14.76700 1.84200 25.10400
H  17.65200 0.82900 32.89000
H  17.98500 -2.01900 32.98000
H  20.41200 -0.82400 32.35900
H  19.76400 -1.59400 33.73400
H  19.61900 0.17500 33.63800
H  15.62900 -1.60800 33.03100
H  14.91400 -0.10500 32.95300
H  15.59800 -1.42800 35.15900
H  14.92200 0.11100 34.86200
H  22.36400 -3.79200 29.09700
H  21.53600 -5.27300 29.32100
H  21.35200 -4.00400 30.46100
H  21.84800 -5.88600 27.23200
H  22.86100 -4.47700 27.14000
H  22.74700 -5.44000 25.72900
H  16.99700 -2.02100 23.19500
H  16.25100 0.73700 23.20900
H  18.36100 0.47700 22.79700
H  18.31600 -1.04800 21.87700
H  19.51500 -0.84100 23.12900
H  14.83400 -1.26100 22.52200
H  14.10500 0.15200 23.14000
H  14.58400 -1.80900 25.38900
H  13.87800 -2.71100 24.01700
H  13.08500 -1.38900 24.66400
H  13.82900 4.57200 26.90500
H  12.47300 3.70300 27.68400
H  13.11600 3.12800 26.15100
H  14.41200 1.78100 32.01100
H  15.01300 4.24600 35.29200
H  16.27100 5.00700 34.22700
H  16.66200 3.53400 35.10400
Mg 9.18800 48.29500 25.66000
C  6.95200 49.00000 28.18800
C  11.79900 49.63600 27.41800
C  11.01300 47.71900 22.92500
C  6.20600 47.66300 23.64000
N  9.31600 49.41800 27.56600
C  8.28900 49.40500 28.47100
C  8.83300 49.85500 29.88100
C  10.26500 50.44200 29.51900
C  10.51300 49.73100 28.10500
C  10.51000 51.96800 29.70700
C  8.97900 48.62300 30.82900
C  8.40400 48.84500 32.26900
H  8.33200 47.56200 33.05900
N  11.17000 48.49200 25.25500
C  12.08700 48.96000 26.20600
C  13.42900 48.89100 25.60500
C  13.28100 48.25200 24.26800
C  11.80000 48.14200 24.07300
C  14.70300 49.23000 26.35900
C  14.33200 47.86200 23.33100
O  14.12500 47.49000 22.16700
C  15.74300 47.96300 23.68900
N  8.64600 47.92000 23.46900
C  9.62800 47.66300 22.63500
C  9.03800 47.25300 21.23000
C  7.54700 47.12500 21.47400
C  7.45600 47.62400 22.93200
C  9.46600 48.12700 20.00000
C  6.90700 45.67700 21.26400
C  5.93800 45.55100 20.11900
N  6.99700 48.23900 25.85600
C  5.97900 47.94000 25.03400
C  4.71900 47.89800 25.74200
C  5.05800 48.32800 27.03800
C  6.45600 48.51100 26.99200
C  3.30900 47.71400 25.16100
C  4.49800 48.60500 28.29300
O  3.34700 48.53600 28.71500
C  5.68700 48.98800 29.20600
C  5.77700 47.87300 30.14200
O  6.39200 46.87000 29.83200
O  5.13100 48.22200 31.25400
C  4.73400 47.07000 32.13200
H  12.64000 49.98700 28.01800
H  11.69500 47.42900 22.12300
H  5.30800 47.41500 23.07000
H  8.25200 50.57900 30.45200
H  11.03800 50.14200 30.22700
H  9.68800 52.40300 30.27500
H  10.56600 52.38000 28.69900
H  11.43100 52.23300 30.22600
H  10.02200 48.36700 31.01700
H  8.50300 47.75400 30.37500
H  7.39800 49.25400 32.17400
H  8.93900 49.68800 32.70600
H  15.32700 48.34200 26.46000
H  14.57500 49.58200 27.38300
H  15.28300 49.97100 25.80800
H  16.02300 48.93100 24.10300
H  16.41300 47.68800 22.87500
H  15.79700 47.23700 24.50100
H  9.41800 46.26300 20.97600
H  7.01700 47.87700 20.88900
H  8.71400 48.45400 19.28200
H  10.06200 47.45100 19.38600
H  10.11600 48.96500 20.25300
H  6.22400 45.48500 22.09100
H  7.62500 44.86100 21.18500
H  5.12800 44.93500 20.50900
H  6.43000 44.94900 19.35500
H  5.59300 46.50300 19.71600
H  2.78500 46.88500 25.63500
H  3.36900 47.51800 24.09000
H  2.82200 48.68600 25.24800
H  5.56100 49.96600 29.67100
H  4.97500 47.16100 33.19100
H  5.00100 46.08700 31.74400
H  3.65900 46.95800 31.99600

