158

Mg 24.16000 -4.70500 45.79100
C  26.09900 -2.39300 44.15000
C  21.49700 -3.79000 43.75700
C  22.54600 -7.36700 46.82100
C  27.09100 -5.94500 47.45900
N  23.86200 -3.23000 44.16600
C  24.77400 -2.36100 43.69700
C  24.10400 -1.29100 42.70400
C  22.59500 -1.63100 42.91500
C  22.61300 -2.96900 43.65200
C  21.82000 -0.54300 43.60700
C  24.70200 -1.54700 41.26000
C  25.08400 -0.27900 40.52600
H  24.69200 -0.09500 39.05100
N  22.27400 -5.46900 45.39000
C  21.34200 -4.95700 44.50700
C  20.15300 -5.73900 44.68300
C  20.32600 -6.81300 45.59100
C  21.74100 -6.61400 45.95900
C  18.93400 -5.24300 43.95400
C  19.32300 -7.87600 45.97100
O  18.16200 -7.96200 45.50300
C  19.61500 -8.81400 47.23000
N  24.81900 -6.55100 46.92100
C  23.83700 -7.38200 47.29700
C  24.41800 -8.52700 48.22000
C  25.88200 -8.02600 48.43300
C  25.96200 -6.73800 47.64500
C  23.41700 -8.93100 49.30600
C  26.98200 -9.03600 48.24800
C  27.53000 -9.26700 46.86100
N  26.18500 -4.26600 45.84000
C  27.23800 -4.81000 46.62400
C  28.40400 -4.04400 46.43100
C  28.04000 -3.13800 45.46700
C  26.66900 -3.26100 45.15800
C  29.75500 -4.27300 47.09700
C  28.47900 -2.07000 44.68100
O  29.59600 -1.57300 44.72100
C  27.27400 -1.52500 43.77400
C  27.07700 -0.07700 44.06200
O  26.33200 0.38800 44.94000
O  27.93400 0.67800 43.28000
C  27.83900 2.07700 43.46700
H  20.68100 -3.54800 43.07300
H  22.03000 -8.25900 47.18200
H  27.91200 -6.34500 48.05700
H  24.43400 -0.30600 43.03400
H  22.08800 -1.74700 41.95700
H  21.70000 -0.71700 44.67600
H  20.80100 -0.47700 43.22400
H  22.28600 0.43800 43.51000
H  23.96400 -2.01300 40.60700
H  25.48600 -2.30400 41.28900
H  26.15600 -0.16600 40.68400
H  24.77400 0.60000 41.09100
H  19.13000 -5.33400 42.88600
H  18.65500 -4.22200 44.21300
H  18.08700 -5.80800 44.34500
H  18.72000 -9.17500 47.73700
H  20.14400 -8.19000 47.95000
H  20.26800 -9.65400 46.99400
H  24.37000 -9.30600 47.46000
H  25.92800 -7.83300 49.50500
H  23.91600 -8.69700 50.24700
H  23.21200 -9.99000 49.14900
H  22.48900 -8.35900 49.28800
H  26.41200 -9.93300 48.49100
H  27.75300 -8.91700 49.00900
H  28.46300 -8.70500 46.89400
H  27.01100 -8.83000 46.00800
H  27.60900 -10.35400 46.85200
H  29.91700 -5.35000 47.07300
H  29.77500 -4.06600 48.16700
H  30.54100 -3.77200 46.53100
H  27.57400 -1.52300 42.72600
H  28.81600 2.48000 43.20100
H  27.57800 2.49900 44.43700
H  27.06100 2.41500 42.78200
Mg 24.53900 1.35900 29.87100
C  26.82900 0.98700 32.54700
C  22.07100 1.69700 32.18300
C  22.40900 1.19100 27.37800
C  27.13300 0.77700 27.65100
N  24.46700 1.34700 32.16500
C  25.53800 1.28200 33.03400
C  25.03400 1.61500 34.48500
C  23.47300 1.76200 34.31700
C  23.29400 1.56600 32.81000
C  22.56100 0.80200 35.24800
C  25.84300 2.90300 35.04200
C  26.53800 2.71600 36.36600
H  26.12200 3.57600 37.55000
N  22.56200 1.38700 29.77000
C  21.71800 1.58200 30.88300
C  20.30800 1.58600 30.38100
C  20.40900 1.26200 28.96400
C  21.85500 1.25400 28.63900
C  19.07600 1.85300 31.22500
C  19.25300 0.96200 28.00800
O  19.51000 0.49800 26.88100
C  17.74800 1.14700 28.37600
N  24.73700 0.93200 27.80400
C  23.71200 1.09600 26.99200
C  24.14500 1.28900 25.46600
C  25.74600 1.15000 25.60200
C  25.87800 1.00000 27.11500
C  23.43000 0.36700 24.41900
C  26.52200 2.39100 25.09000
C  26.49000 3.75000 26.00000
N  26.57000 0.83500 30.04200
C  27.51400 0.63900 29.04800
C  28.79500 0.44600 29.59800
C  28.60900 0.54500 30.95900
C  27.20200 0.80200 31.21700
C  30.10900 0.29400 28.80800
C  29.27000 0.59100 32.17900
O  30.46000 0.44700 32.29500
C  28.16500 0.84200 33.29100
C  28.17500 -0.22800 34.31200
O  27.94500 -1.42200 34.01800
O  28.46800 0.20900 35.58400
C  28.48700 -0.87100 36.61100
H  21.22900 1.91600 32.84300
H  21.75900 1.13300 26.50200
H  27.89700 0.70500 26.87300
H  25.36300 0.78200 35.10500
H  23.23700 2.77500 34.64100
H  22.61200 1.23000 36.24900
H  22.96100 -0.21200 35.25200
H  21.51500 0.72100 34.95400
H  24.99100 3.58100 35.10300
H  26.40600 3.29600 34.19600
H  27.60600 2.93800 36.37200
H  26.50000 1.65600 36.61700
H  18.60300 0.88100 31.36500
H  18.50800 2.60700 30.67800
H  19.32400 2.30600 32.18500
H  17.51900 0.62900 29.30800
H  17.09500 0.96500 27.52300
H  17.70800 2.22800 28.51400
H  23.78600 2.28000 25.18700
H  26.00800 0.23200 25.07500
H  22.77300 0.83900 23.68900
H  22.77700 -0.23700 25.04900
H  24.20900 -0.27400 24.00700
H  26.22100 2.58000 24.05900
H  27.55200 2.03500 25.06900
H  25.86000 3.53100 26.86200
H  26.01500 4.55300 25.43500
H  27.50100 4.10800 26.19800
H  29.73700 -0.39900 28.05400
H  30.75600 -0.35200 29.40100
H  30.70000 1.16500 28.52500
H  28.37400 1.81100 33.74400
H  28.64300 -0.35100 37.55600
H  29.37900 -1.47000 36.42900
H  27.60300 -1.50600 36.65000

