158

Mg 25.00500 1.06000 29.67200
C  27.05600 1.08100 32.63200
C  22.22700 0.90500 31.65500
C  23.15900 0.69600 26.82000
C  27.96300 0.87600 27.76800
N  24.74200 0.91900 31.91600
C  25.68600 1.15400 32.87500
C  24.95300 1.25400 34.28900
C  23.41000 1.04500 33.87600
C  23.46200 0.98200 32.39200
C  22.56500 -0.13000 34.52000
C  25.27000 2.55200 35.07900
C  25.49600 2.38300 36.57200
H  24.86300 3.49800 37.48900
N  22.96300 0.99300 29.31300
C  21.97500 0.91100 30.25300
C  20.71500 0.76900 29.53500
C  21.02800 0.79200 28.15000
C  22.44400 0.83800 28.03200
C  19.34500 0.73200 30.21300
C  19.95600 0.68000 27.06400
O  20.15700 0.87000 25.92500
C  18.48500 0.26400 27.41700
N  25.51500 0.80900 27.65000
C  24.56200 0.69300 26.60600
C  25.22900 0.67000 25.23400
C  26.67900 1.00600 25.54900
C  26.71200 0.80900 27.09000
C  24.91400 -0.40200 24.23900
C  27.02000 2.42900 25.05500
C  26.59100 3.65200 25.95300
N  27.01500 0.80700 30.09400
C  28.09700 0.64900 29.20200
C  29.33000 0.45100 29.92200
C  28.98000 0.62900 31.20300
C  27.55000 0.84500 31.31700
C  30.72000 0.23400 29.43700
C  29.51600 0.70100 32.56600
O  30.70200 0.65600 32.92100
C  28.24800 1.09600 33.54900
C  28.10300 0.09000 34.55000
O  27.42700 -0.93000 34.46800
O  28.69300 0.46800 35.74500
C  28.84500 -0.54200 36.82700
H  21.33600 0.94200 32.28500
H  22.59900 0.48500 25.90700
H  28.83800 0.90100 27.11500
H  25.21500 0.39100 34.90200
H  22.84400 1.94900 34.10200
H  23.21100 -0.46900 35.33000
H  22.37000 -0.94100 33.81900
H  21.63500 0.25200 34.94300
H  24.39600 3.16800 34.86500
H  26.04700 3.23400 34.73400
H  26.58000 2.43700 36.67400
H  25.28600 1.36600 36.90200
H  18.69800 1.44700 29.70500
H  19.51200 1.10300 31.22400
H  18.88700 -0.25700 30.22100
H  18.50300 -0.59700 28.08600
H  18.04200 -0.01100 26.46000
H  17.90800 1.10900 27.79200
H  24.68200 1.52300 24.83400
H  27.40800 0.25500 25.24700
H  24.23100 -1.12700 24.68100
H  25.87100 -0.89100 24.05800
H  24.61400 -0.04100 23.25500
H  26.69900 2.54500 24.02000
H  28.10700 2.35900 25.09600
H  27.11200 3.50100 26.89800
H  25.51600 3.49100 26.04300
H  26.79900 4.58100 25.42300
H  31.38200 0.84300 30.05300
H  30.88700 0.50100 28.39300
H  31.08900 -0.78400 29.55600
H  28.38900 2.07500 34.00700
H  29.15700 -1.51200 36.44200
H  27.89300 -0.77400 37.30400
H  29.47300 -0.24900 37.66800
Mg 42.22800 41.23800 26.91900
C  41.45600 43.63100 29.40300
C  43.15600 39.13500 29.27400
C  42.98600 39.05600 24.55800
C  41.50500 43.66500 24.49300
N  42.40700 41.47000 29.21700
C  41.88100 42.44900 30.03100
C  41.93800 42.01900 31.52200
C  42.63700 40.59700 31.45400
C  42.76700 40.39100 29.90700
C  44.05100 40.39800 32.12800
C  40.55700 41.99000 32.16700
C  40.48100 42.80800 33.53200
H  39.83400 42.05600 34.69700
N  43.04800 39.39600 26.97400
C  43.38300 38.69400 28.02000
C  44.02400 37.38000 27.64200
C  43.87300 37.27600 26.27000
C  43.26200 38.59400 25.85900
C  44.57900 36.38300 28.69100
C  44.27500 36.17200 25.35900
O  43.91000 36.15600 24.17500
C  44.94800 34.89200 25.76200
N  42.42000 41.40500 24.81400
C  42.66300 40.31800 24.08300
C  42.74700 40.73900 22.52000
C  42.02200 42.03900 22.55300
C  42.03700 42.39300 24.00800
C  44.18600 40.73900 22.06100
C  40.65700 41.99500 21.79000
C  39.50100 40.91300 22.08300
N  41.66000 43.23900 26.91000
C  41.38500 44.13400 25.84100
C  40.79000 45.32700 26.35800
C  40.82300 45.16000 27.74600
C  41.39900 43.93400 28.06000
C  40.38700 46.48800 25.54500
C  40.53200 45.86000 28.97800
O  40.06100 46.89100 29.28500
C  40.88000 44.83000 30.07400
C  41.73500 45.48800 31.05300
O  42.85800 45.93700 30.76900
O  41.14400 45.64900 32.25400
C  41.82100 46.59400 33.18300
H  43.33100 38.40900 30.07200
H  43.33000 38.45800 23.71100
H  41.26400 44.39100 23.71400
H  42.60300 42.66200 32.09900
H  41.95200 39.82900 31.81300
H  44.85100 40.41300 31.38800
H  44.09800 39.45000 32.66400
H  44.22800 41.17300 32.87500
H  40.17400 40.98300 32.33200
H  39.86500 42.49000 31.48900
H  39.83400 43.67900 33.42200
H  41.42700 43.24800 33.84500
H  44.08200 35.41300 28.66400
H  44.34100 36.69900 29.70700
H  45.62400 36.13900 28.49800
H  45.91600 35.15200 26.19200
H  45.10900 34.21300 24.92500
H  44.30600 34.23300 26.34500
H  42.22200 39.97400 21.94800
H  42.69300 42.81200 22.17700
H  44.83100 41.08900 22.86700
H  44.29900 41.27400 21.11800
H  44.57100 39.80900 21.64100
H  40.85300 41.66000 20.77200
H  40.16500 42.96700 21.82000
H  38.59200 41.32800 22.51800
H  39.94100 40.04000 22.56400
H  39.14500 40.60900 21.09900
H  39.68100 47.05600 26.15100
H  39.75000 46.18200 24.71500
H  41.17200 47.14900 25.17700
H  39.88400 44.72100 30.50300
H  41.67400 47.60900 32.81500
H  42.90600 46.49700 33.21700
H  41.30700 46.37000 34.11800

