158

Mg 17.15700 -1.77900 27.69800
C  16.33600 0.18500 30.42600
C  19.04200 -3.79500 29.84700
C  18.35900 -3.46500 25.07300
C  15.81900 0.68600 25.56400
N  17.66500 -1.77000 29.89400
C  17.07900 -0.94400 30.82500
C  17.57900 -1.34200 32.20400
C  18.56000 -2.52200 31.97300
C  18.39600 -2.72800 30.46000
C  20.07400 -2.17400 32.27000
C  16.42500 -1.65100 33.19200
C  16.42100 -0.77600 34.49000
H  17.78000 -0.48000 35.18700
N  18.34300 -3.46800 27.52700
C  18.97300 -4.23800 28.49000
C  19.50700 -5.47500 27.86000
C  19.37800 -5.28400 26.44400
C  18.62400 -4.05600 26.34700
C  19.85300 -6.67100 28.67700
C  19.88800 -6.16400 25.33100
O  19.60500 -6.01500 24.12600
C  20.71700 -7.32900 25.68200
N  16.97000 -1.51300 25.60000
C  17.71900 -2.25600 24.82500
C  17.66700 -1.64000 23.40900
C  16.52600 -0.51700 23.51400
C  16.37700 -0.44300 24.98900
C  19.11600 -1.04100 22.87400
C  15.16100 -1.00100 22.93200
C  14.21100 -0.05900 22.25000
N  16.16800 0.03100 27.89700
C  15.66000 0.91700 26.97700
C  14.93800 1.98800 27.68100
C  15.24400 1.76800 29.02800
C  16.00500 0.54600 29.12600
C  14.22900 3.10300 27.11300
C  15.05200 2.23000 30.34600
O  14.41100 3.17900 30.75900
C  15.87300 1.29000 31.33800
C  16.90100 2.10600 32.05500
O  17.99500 2.39200 31.68400
O  16.42300 2.62100 33.25500
C  17.24500 3.49700 34.09700
H  19.56800 -4.38500 30.60100
H  18.95400 -3.73800 24.19900
H  15.40000 1.42400 24.87700
H  18.06800 -0.49300 32.68200
H  18.32600 -3.44200 32.50900
H  20.35000 -1.23700 32.75500
H  20.76800 -2.20900 31.43000
H  20.39300 -2.95900 32.95600
H  16.41700 -2.72700 33.36500
H  15.50500 -1.48200 32.63200
H  15.94700 -1.27200 35.33700
H  15.76100 0.08700 34.40100
H  19.39300 -6.71600 29.66500
H  20.93300 -6.53200 28.64700
H  19.72300 -7.66300 28.24400
H  21.54900 -7.07800 26.34100
H  21.05000 -7.77200 24.74400
H  20.10800 -8.11800 26.12500
H  17.35800 -2.44600 22.74300
H  16.78400 0.42100 23.02200
H  19.77000 -1.04900 23.74600
H  19.08200 -0.02400 22.48400
H  19.71900 -1.61700 22.17200
H  14.47400 -1.52000 23.60100
H  15.45000 -1.66000 22.11400
H  13.23200 -0.15700 22.71900
H  14.13200 -0.22400 21.17600
H  14.55400 0.95600 22.44900
H  13.49600 2.65600 26.44300
H  14.82000 3.83800 26.56600
H  13.71200 3.62300 27.91900
H  15.17500 0.76200 31.98800
H  17.74900 2.93800 34.88500
H  16.41900 4.12300 34.43300
H  17.91100 4.05900 33.44100
Mg 40.97600 7.93400 29.61500
C  42.93000 9.32800 32.19500
C  38.74300 6.70200 31.91200
C  39.26200 6.57800 27.09900
C  43.48700 8.88900 27.43600
N  40.86800 8.12500 31.71300
C  41.73400 8.78200 32.51900
C  41.19700 8.68600 34.04700
C  39.80800 7.98100 33.92700
C  39.79900 7.51900 32.48400
C  39.63500 6.88300 34.94400
C  41.06700 10.12500 34.72800
C  40.33100 10.15700 36.09200
H  41.18100 10.36600 37.40000
N  39.22100 6.85400 29.53700
C  38.48600 6.41300 30.56700
C  37.34200 5.64400 30.09300
C  37.39800 5.67900 28.67300
C  38.68000 6.39600 28.33400
C  36.40100 4.86200 30.94900
C  36.42700 5.30200 27.60400
O  36.68600 5.32600 26.44200
C  34.98500 5.08200 28.07000
N  41.41300 7.66800 27.54100
C  40.40200 7.25500 26.72400
C  40.91500 7.34600 25.26000
C  42.11700 8.32000 25.34900
C  42.30900 8.37300 26.84900
C  41.36100 5.96500 24.65800
C  41.84600 9.82500 24.89600
C  40.55000 10.52400 25.28500
N  42.85500 8.72600 29.78000
C  43.77000 9.06100 28.82500
C  44.93300 9.66000 29.31700
C  44.62800 9.84900 30.64200
C  43.39700 9.22900 30.86600
C  46.05900 10.37400 28.55300
C  45.21100 10.32900 31.90100
O  46.27600 10.88100 32.09000
C  44.14400 9.92200 32.93600
C  44.74900 9.07600 33.99600
O  45.06300 7.87900 33.98000
O  44.92200 9.96900 35.03600
C  45.31400 9.36800 36.34800
H  37.98500 6.27900 32.57500
H  38.70800 6.23500 26.22300
H  44.22800 9.33300 26.76800
H  41.94000 8.03000 34.50000
H  39.04200 8.74800 34.04100
H  40.04200 7.20600 35.90200
H  40.22600 6.02300 34.63200
H  38.60500 6.57600 35.12900
H  40.56600 10.71800 33.96200
H  42.07100 10.51200 34.90200
H  39.78500 9.21700 36.17200
H  39.53200 10.88200 35.93800
H  37.04000 4.52200 31.76400
H  36.10300 3.90900 30.51200
H  35.60600 5.44600 31.41000
H  34.90200 4.12500 28.58600
H  34.36800 4.97200 27.17800
H  34.64800 5.91300 28.68900
H  40.15200 7.73200 24.58400
H  43.00300 8.06600 24.76800
H  41.04100 5.17800 25.34200
H  42.43400 6.02600 24.48200
H  40.83600 5.71100 23.73700
H  41.93300 9.81400 23.81000
H  42.78000 10.27300 25.23400
H  40.17300 11.01000 24.38500
H  40.74900 11.13800 26.16300
H  39.74500 9.84500 25.56400
H  45.71700 11.30800 28.10700
H  46.50300 9.76800 27.76300
H  46.87800 10.46700 29.26600
H  43.73700 10.83100 33.37800
H  46.38500 9.55700 36.41700
H  45.13200 8.29400 36.32900
H  44.75200 9.85600 37.14500

