158

Mg 0.62700 7.65900 27.00600
C  1.27600 9.78700 29.63400
C  0.69000 4.94700 29.24700
C  0.16800 5.52600 24.44100
C  1.35200 10.24500 24.75900
N  0.87700 7.40100 29.14700
C  1.09200 8.42400 30.00800
C  1.52200 7.94200 31.43300
C  1.27500 6.37200 31.31700
C  0.97800 6.16300 29.81600
C  2.24800 5.36700 31.92200
C  0.64400 8.58400 32.64400
C  1.16700 8.52300 34.01900
H  0.21800 8.03500 35.13200
N  0.48000 5.46400 26.79900
C  0.55600 4.61900 27.89200
C  0.23100 3.27000 27.36900
C  -0.04600 3.41200 25.93500
C  0.15900 4.85300 25.67200
C  0.32200 2.03600 28.23600
C  -0.41200 2.35600 24.91700
O  -0.55100 2.58300 23.70200
C  -0.71000 0.97600 25.40100
N  0.80500 7.83700 24.87900
C  0.42000 6.81500 24.10800
C  0.28700 7.24900 22.61800
C  0.50600 8.87000 22.77100
C  0.89000 9.02500 24.18200
C  1.37300 6.59800 21.73400
C  -0.79500 9.57500 22.33100
C  -0.58500 10.67200 21.23200
N  1.01600 9.68400 27.06800
C  1.37100 10.64700 26.12100
C  1.68900 11.89600 26.68800
C  1.70100 11.59100 28.08900
C  1.26800 10.24800 28.21600
C  2.00300 13.19200 25.97000
C  2.06300 12.15300 29.39000
O  2.53200 13.18800 29.75400
C  1.67600 10.96000 30.40600
C  2.81600 10.71600 31.35800
O  3.87200 10.12700 31.06000
O  2.74500 11.58400 32.40900
C  3.92600 11.89600 33.22700
H  0.44800 4.07300 29.85500
H  0.09900 4.82900 23.60300
H  1.49100 11.05300 24.03900
H  2.58500 7.86900 31.66400
H  0.33100 6.03500 31.74500
H  2.89000 5.12400 31.07500
H  1.63400 4.55800 32.31600
H  2.88800 5.90900 32.61800
H  -0.32000 8.07600 32.67500
H  0.42000 9.62200 32.39400
H  1.51400 9.50800 34.33300
H  1.99300 7.81300 34.02000
H  -0.66200 1.57300 28.15600
H  0.58500 2.17800 29.28400
H  1.07100 1.37000 27.80700
H  0.23600 0.46000 25.56100
H  -1.16300 0.46500 24.55100
H  -1.43700 0.87100 26.20600
H  -0.70800 6.99700 22.25000
H  1.38300 9.18500 22.20600
H  1.82300 5.81500 22.34400
H  2.08700 7.40100 21.54900
H  0.95100 6.32000 20.76900
H  -1.28200 10.06500 23.17500
H  -1.54500 8.84100 22.03600
H  -1.38500 10.40500 20.54100
H  0.40100 10.58400 20.77700
H  -0.70900 11.66100 21.67400
H  2.21600 12.96800 24.92400
H  2.75600 13.73100 26.54300
H  1.03400 13.68300 26.06300
H  0.82800 11.36200 30.96100
H  3.84200 12.90600 33.62800
H  4.85000 11.73700 32.67100
H  3.77800 11.15300 34.01100
Mg 25.68800 1.74000 29.69300
C  27.69100 1.65700 32.36500
C  22.96900 2.16900 31.83500
C  23.60900 1.40800 27.00500
C  28.31800 0.56100 27.52800
N  25.35000 1.89800 31.86700
C  26.40500 2.09300 32.71200
C  25.96200 2.43000 34.08200
C  24.40700 2.45800 33.95200
C  24.22400 2.23600 32.43400
C  23.54100 1.48500 34.86300
C  26.49600 3.78800 34.65000
C  27.31800 3.66900 35.99300
H  27.14300 4.58700 37.23400
N  23.59700 1.64500 29.51400
C  22.67900 1.86400 30.48500
C  21.36800 1.75800 29.95300
C  21.53900 1.47000 28.57900
C  22.96000 1.52200 28.31300
C  20.08800 1.83600 30.68500
C  20.56900 1.05300 27.49400
O  20.95500 0.60600 26.45700
C  19.15800 1.20400 27.79800
N  25.83100 0.84900 27.56600
C  24.86500 1.03400 26.68700
C  25.37200 0.95900 25.19700
C  26.94500 0.81100 25.40800
C  27.04000 0.69300 26.91200
C  24.71400 -0.17000 24.40300
C  27.71800 1.99500 24.78300
C  28.09900 3.20100 25.56600
N  27.56900 1.31300 29.83800
C  28.48000 0.85700 28.93300
C  29.78100 0.69800 29.67400
C  29.47300 1.06400 30.91500
C  28.13900 1.32800 31.02400
C  31.01700 0.19900 29.16700
C  30.07000 1.21400 32.26000
O  31.19600 1.07100 32.66700
C  28.89200 1.60400 33.21300
C  28.74400 0.63700 34.32600
O  27.99000 -0.33900 34.36600
O  29.43800 1.09400 35.39300
C  29.11500 0.39400 36.61900
H  22.18600 2.48400 32.52700
H  23.00600 1.49800 26.09800
H  29.17200 0.22500 26.93600
H  26.22100 1.59200 34.73000
H  24.08100 3.49600 34.01800
H  22.69800 2.06200 35.24200
H  23.99400 0.97800 35.71500
H  23.05600 0.72300 34.25300
H  25.82800 4.61500 34.88800
H  27.05900 4.22300 33.82400
H  28.38400 3.75200 35.78200
H  27.14200 2.68400 36.42700
H  20.27800 1.92700 31.75400
H  19.60100 0.86600 30.57800
H  19.50400 2.64400 30.24500
H  18.93600 0.33100 28.41200
H  18.55000 1.13500 26.89600
H  18.89900 2.08400 28.38700
H  25.02200 1.90800 24.79100
H  27.32500 -0.12900 25.00700
H  25.39700 -0.88000 23.93700
H  24.29800 0.38200 23.56000
H  23.97400 -0.75300 24.95100
H  27.08100 2.34900 23.97200
H  28.55300 1.51400 24.27300
H  27.60600 3.43600 26.51000
H  27.95900 4.07400 24.92800
H  29.13800 3.00800 25.82900
H  31.81100 0.93400 29.29300
H  30.99100 -0.09700 28.11800
H  31.26200 -0.61300 29.85100
H  29.15400 2.60400 33.55700
H  28.06200 0.56100 36.84400
H  29.66300 0.80700 37.46600
H  29.30100 -0.67600 36.52800

