158

Mg 0.52400 7.50400 26.93800
C  1.52000 9.40700 29.60900
C  0.62100 4.70300 28.77400
C  0.32400 5.87800 24.07600
C  0.74000 10.59300 24.94800
N  1.01700 7.19100 28.94400
C  1.15900 8.11200 29.93400
C  0.90500 7.45400 31.31000
C  0.87000 5.93700 31.03500
C  0.84200 5.95200 29.47600
C  2.10900 5.04900 31.51800
C  -0.31800 8.09800 32.08200
C  -0.09100 8.32800 33.64200
H  0.93400 7.52300 34.34000
N  0.47300 5.45000 26.45300
C  0.44000 4.44700 27.42600
C  0.14600 3.26400 26.66500
C  0.01000 3.59200 25.27700
C  0.21200 5.06100 25.23900
C  -0.11700 1.94900 27.35000
C  -0.27100 2.72200 24.07900
O  -0.48800 3.13400 22.92500
C  -0.34200 1.30900 24.36500
N  0.55300 8.19500 24.76300
C  0.54200 7.26200 23.79200
C  0.68700 7.90300 22.43900
C  0.34400 9.39900 22.72400
C  0.60100 9.44300 24.24800
C  2.00000 7.59700 21.58200
C  -1.15400 9.81700 22.35100
C  -1.39500 10.41300 20.96500
N  0.90700 9.57000 27.11000
C  0.99200 10.72000 26.26900
C  1.51600 11.85100 26.97800
C  1.68300 11.45400 28.28800
C  1.40500 9.98400 28.28800
C  1.76100 13.21100 26.35300
C  2.08600 11.82400 29.59900
O  2.44900 12.87900 30.01400
C  1.65000 10.60600 30.50500
C  2.74000 10.53100 31.53500
O  3.81000 9.94100 31.41200
O  2.32400 11.15300 32.64200
C  3.34000 11.02800 33.73000
H  0.62900 3.80000 29.38800
H  0.37900 5.29500 23.15400
H  0.78300 11.49700 24.33700
H  1.83500 7.58800 31.86200
H  -0.07000 5.47900 31.34400
H  2.71900 5.35000 32.37000
H  2.77200 4.98800 30.65400
H  1.61100 4.15900 31.90200
H  -1.24000 7.55500 31.87300
H  -0.38300 9.10200 31.66300
H  -1.07900 8.43100 34.09000
H  0.29500 9.34400 33.73100
H  -0.17300 2.00100 28.43700
H  0.73400 1.29500 27.16500
H  -1.05400 1.51900 26.99500
H  -1.32100 1.11800 24.80500
H  0.56900 1.08000 24.91700
H  -0.17800 0.81500 23.40800
H  -0.17300 7.52000 21.89000
H  1.11000 10.03500 22.28000
H  2.88600 7.42900 22.19400
H  2.32700 8.47200 21.02100
H  1.86900 6.73300 20.93000
H  -1.66300 10.41600 23.10700
H  -1.69900 8.87900 22.44800
H  -0.58900 10.23800 20.25200
H  -1.57200 11.47300 21.14700
H  -2.30200 10.03400 20.49300
H  2.54000 13.72700 26.91400
H  0.80500 13.73200 26.39000
H  2.03500 13.05000 25.31000
H  0.71100 10.84000 31.00700
H  4.30700 11.49400 33.53700
H  3.44300 9.96800 33.96000
H  2.99800 11.58800 34.60100
Mg 40.89500 9.36400 29.91100
C  42.82200 10.61500 32.51700
C  38.52900 8.43400 32.02200
C  39.31000 8.07800 27.14700
C  43.57200 10.36200 27.71700
N  40.72300 9.50500 31.98200
C  41.57400 10.14800 32.90000
C  41.04100 10.00200 34.37300
C  39.66000 9.33600 34.17800
C  39.61200 9.05800 32.65800
C  39.39300 8.03400 35.03200
C  40.98400 11.44200 35.06900
C  40.07700 11.55000 36.30400
H  40.64900 12.49000 37.40500
N  39.16500 8.33000 29.64000
C  38.27300 8.14200 30.60500
C  37.07800 7.54200 30.04100
C  37.26800 7.54600 28.64800
C  38.63000 7.97500 28.44400
C  35.84000 7.21300 30.88900
C  36.36000 7.05600 27.51800
O  36.58500 7.14500 26.34700
C  35.00300 6.57600 27.77400
N  41.43600 8.98000 27.74700
C  40.61900 8.53000 26.85600
C  41.29200 8.40100 25.48400
C  42.50900 9.43300 25.65500
C  42.56300 9.55000 27.14500
C  41.60700 6.96300 25.00900
C  42.23500 10.76100 24.88400
C  41.76200 12.03700 25.71900
N  42.89300 10.25300 30.04900
C  43.80600 10.65000 29.07100
C  44.93500 11.31500 29.67800
C  44.54500 11.34700 31.01600
C  43.28000 10.65200 31.18600
C  46.09700 11.81500 28.91700
C  44.94200 11.95000 32.31900
O  45.78300 12.72300 32.62700
C  43.89800 11.38000 33.30900
C  44.67500 10.51500 34.21700
O  45.63500 9.83600 33.86200
O  44.11200 10.46000 35.41700
C  44.50500 9.48900 36.49000
H  37.66400 8.42500 32.68900
H  38.80200 7.52600 26.35300
H  44.34400 10.78300 27.06900
H  41.69200 9.31900 34.91900
H  38.88100 10.03500 34.48300
H  40.24500 7.81300 35.67600
H  39.47400 7.25300 34.27600
H  38.44900 8.07500 35.57500
H  40.51100 12.00000 34.26100
H  41.98000 11.81300 35.31100
H  39.93600 10.54800 36.70800
H  39.15900 11.98900 35.91300
H  35.88500 7.56700 31.91900
H  35.79500 6.12500 30.94400
H  34.89900 7.60000 30.49800
H  34.46200 7.43100 28.17700
H  35.27900 5.80500 28.49400
H  34.76300 6.14500 26.80200
H  40.42800 8.76800 24.93000
H  43.45300 9.04100 25.27700
H  42.64700 6.99900 24.68400
H  40.93700 6.59700 24.23100
H  41.50800 6.33100 25.89200
H  41.37800 10.52200 24.25500
H  43.14500 11.02400 24.34300
H  41.86200 11.96200 26.80200
H  40.71300 12.16600 25.45200
H  42.39700 12.84700 25.35900
H  46.85100 12.12900 29.63800
H  45.90800 12.67900 28.28000
H  46.60200 11.06800 28.30500
H  43.44200 12.24200 33.79600
H  43.64500 8.90300 36.81400
H  44.86900 10.03400 37.36100
H  45.12900 8.68000 36.11000

