158

Mg 3.00300 -1.53100 43.55300
C  6.43600 -0.87800 43.25600
C  2.44900 1.06400 41.22500
C  -0.23300 -2.44000 43.22800
C  3.61100 -4.47800 45.27800
N  4.33000 -0.14300 42.33700
C  5.64100 -0.05100 42.41900
C  6.16900 0.88500 41.35100
C  4.92000 1.74200 40.90400
C  3.80900 0.84200 41.53100
C  4.88600 3.22600 41.34200
C  6.83300 0.06900 40.17900
C  8.30200 0.44300 39.82300
H  8.44500 1.11100 38.49200
N  1.30600 -0.77600 42.47800
C  1.31100 0.37500 41.66100
C  -0.04100 0.66400 41.22100
C  -0.90700 -0.38500 41.67200
C  0.04600 -1.28700 42.43800
C  -0.44400 1.86900 40.49700
C  -2.44800 -0.50400 41.51200
O  -3.10800 0.49900 41.15700
C  -3.32700 -1.71700 41.86800
N  1.88600 -3.34000 43.98900
C  0.57700 -3.37100 43.94700
C  -0.02500 -4.55100 44.64200
C  1.23300 -5.20900 45.25400
C  2.34300 -4.25900 44.80400
C  -1.19200 -4.13100 45.59800
C  1.42800 -6.69400 44.90300
C  1.40600 -7.63300 46.05700
N  4.65700 -2.49200 44.19000
C  4.78800 -3.70800 44.87600
C  6.22500 -3.83400 45.23000
C  6.82900 -2.69000 44.57500
C  5.89600 -1.97400 43.95100
C  6.92500 -4.91800 45.96400
C  8.12300 -2.13200 44.38200
O  9.25100 -2.46600 44.76000
C  7.93400 -0.89200 43.48900
C  8.26500 0.32300 44.25100
O  7.97300 0.51100 45.37200
O  8.96800 1.21100 43.41900
C  8.89300 2.58700 43.84500
H  2.37500 1.99200 40.65300
H  -1.25700 -2.81800 43.25000
H  3.81100 -5.39200 45.84100
H  6.81800 1.55200 41.91800
H  4.90100 1.69600 39.81500
H  5.04800 3.93300 40.52800
H  5.59200 3.40700 42.15300
H  3.94000 3.42300 41.84600
H  6.26100 0.19500 39.25900
H  6.90100 -0.97400 40.48800
H  8.92600 -0.45200 39.82700
H  8.68300 1.08400 40.61800
H  -1.12700 2.50800 41.05800
H  -0.78500 1.57600 39.50400
H  0.37800 2.53500 40.23500
H  -4.36900 -1.53400 41.60600
H  -3.25800 -1.77500 42.95400
H  -2.91700 -2.63900 41.45700
H  -0.49700 -5.03200 43.78500
H  1.12700 -5.12300 46.33500
H  -1.04600 -3.06300 45.76300
H  -1.15000 -4.82500 46.43800
H  -2.12000 -4.29400 45.05000
H  2.44700 -6.81300 44.53400
H  0.79200 -7.11500 44.12400
H  0.78400 -8.51000 45.88000
H  1.03000 -7.19500 46.98100
H  2.40300 -7.99700 46.30400
H  7.72800 -5.34100 45.36000
H  6.26500 -5.78000 46.05900
H  7.13900 -4.55400 46.96900
H  8.57700 -1.03100 42.62000
H  8.90400 3.21700 42.95500
H  9.71400 2.88900 44.49400
H  7.91600 2.71300 44.31300
Mg 6.11200 53.25300 41.68400
C  5.78600 49.65600 41.56600
C  9.50700 52.59700 40.83200
C  6.42300 56.32200 40.74900
C  2.73200 53.40400 41.97700
N  7.39000 51.32100 40.98500
C  7.06100 50.04700 41.06500
C  8.19700 49.13200 40.78600
C  9.41600 50.05300 41.12800
C  8.72900 51.41000 41.08200
C  10.13400 49.93200 42.49900
C  8.11600 48.55000 39.30100
C  8.07000 49.52200 38.07400
H  6.91600 49.42300 37.11100
N  7.70300 54.33200 40.99300
C  9.03400 53.93500 40.76700
C  9.79800 55.05300 40.41300
C  8.93200 56.18400 40.50800
C  7.59700 55.67000 40.72000
C  11.26900 54.94400 40.14400
C  9.45700 57.63600 40.26700
O  10.60100 57.90500 39.88000
C  8.42900 58.74300 40.28500
N  4.77200 54.61700 41.10200
C  5.09000 55.90700 40.90600
C  3.91600 56.90600 41.11400
C  2.78300 55.88200 41.51000
C  3.44500 54.53900 41.49000
C  4.21500 57.98900 42.16300
C  1.40700 55.97400 40.80700
C  0.68200 57.34800 40.90800
N  4.55500 51.87600 41.93500
C  3.20500 52.10100 42.14400
C  2.56500 50.92200 42.54000
C  3.55600 49.92100 42.35900
C  4.71400 50.57300 41.89400
C  1.09400 50.72900 42.91600
C  3.78700 48.54100 42.46800
O  3.09700 47.64100 42.89200
C  5.20500 48.29000 41.78200
C  4.97300 47.60000 40.58100
O  4.34200 48.05900 39.57600
O  5.38100 46.28300 40.69500
C  5.03800 45.44300 39.51200
H  10.54800 52.30700 40.67800
H  6.38800 57.41300 40.72900
H  1.65200 53.49800 42.10600
H  8.03500 48.31300 41.48600
H  10.19400 50.04500 40.36400
H  9.94200 50.76800 43.17100
H  11.21400 49.86600 42.36800
H  9.75900 49.09400 43.08800
H  7.29600 47.83500 39.24200
H  8.91100 47.83500 39.09100
H  8.95700 49.14200 37.56700
H  8.40600 50.50400 38.40600
H  11.48300 54.07800 39.51800
H  11.81600 54.87100 41.08400
H  11.68500 55.81200 39.63300
H  7.59200 58.50300 39.62900
H  8.84500 59.74600 40.18900
H  8.26100 58.71500 41.36100
H  3.68800 57.44900 40.19600
H  2.67300 56.10800 42.57100
H  3.34600 58.28400 42.75000
H  4.41500 58.85300 41.53000
H  5.09200 57.66900 42.72700
H  0.76400 55.24500 41.30000
H  1.61600 55.69400 39.77500
H  0.92800 57.99300 41.75200
H  -0.40200 57.26900 40.99600
H  0.92700 57.84700 39.97100
H  0.54100 51.46400 42.33100
H  1.00400 50.76200 44.00200
H  0.67200 49.78000 42.58300
H  5.87300 47.78600 42.48100
H  3.95500 45.46100 39.38700
H  5.31400 44.40400 39.69000
H  5.40300 45.79600 38.54700

