158

Mg 17.25400 -1.54400 28.04800
C  15.99700 0.55300 30.55100
C  19.22100 -3.05400 30.43500
C  18.94100 -3.06600 25.48600
C  15.55900 0.37900 25.64500
N  17.46700 -1.27600 30.27500
C  16.86400 -0.42200 31.10500
C  17.12600 -0.75200 32.62700
C  18.40600 -1.69400 32.51200
C  18.39800 -2.03000 30.94800
C  19.67800 -0.98000 33.00300
C  15.91000 -1.58000 33.15900
C  15.58700 -1.24700 34.54400
H  16.44100 -0.35900 35.49500
N  18.67400 -3.05000 28.00300
C  19.37100 -3.53500 29.10500
C  20.25300 -4.52700 28.62000
C  20.26300 -4.48500 27.17100
C  19.22700 -3.52600 26.82400
C  21.20100 -5.24000 29.53600
C  21.18800 -5.20000 26.16000
O  21.20300 -5.08600 24.97800
C  22.39900 -6.02400 26.70200
N  17.49500 -1.20600 25.82900
C  18.11200 -2.02000 25.00200
C  17.99500 -1.66800 23.53200
C  16.68800 -0.75400 23.65100
C  16.57200 -0.41600 25.13200
C  19.23300 -0.91200 22.95700
C  15.45000 -1.39700 23.06700
C  14.88400 -0.79600 21.72700
N  16.00800 0.05200 28.08900
C  15.31500 0.65700 26.97600
C  14.47000 1.77600 27.52700
C  14.66700 1.68300 28.93600
C  15.69700 0.72100 29.19500
C  13.61700 2.76900 26.72900
C  14.41800 2.37400 30.24200
O  13.75400 3.36300 30.50800
C  15.30300 1.63700 31.29900
C  16.11800 2.62000 32.07100
O  17.23400 2.96200 31.88700
O  15.36200 3.05700 33.14400
C  15.93300 4.14100 33.97800
H  19.79400 -3.55400 31.21800
H  19.50400 -3.60600 24.72300
H  15.01400 0.92300 24.87100
H  17.35900 0.24100 33.00900
H  18.29000 -2.60900 33.09400
H  19.41000 -0.04700 33.49800
H  20.58100 -0.97400 32.39100
H  20.06500 -1.48600 33.88700
H  16.10700 -2.64900 33.08100
H  15.04100 -1.34800 32.54300
H  15.48700 -2.16300 35.12600
H  14.61400 -0.77100 34.43200
H  21.11900 -6.30400 29.31300
H  20.91700 -4.98300 30.55600
H  22.17800 -4.78600 29.37300
H  23.10000 -5.29100 27.10300
H  22.87800 -6.61500 25.92100
H  21.97400 -6.66600 27.47300
H  17.88200 -2.56200 22.91900
H  16.95600 0.15900 23.11900
H  20.17700 -1.12200 23.46100
H  19.08200 0.16700 22.99800
H  19.43900 -1.25300 21.94300
H  14.64500 -1.45000 23.80000
H  15.75400 -2.41200 22.81200
H  15.09200 0.26400 21.57800
H  13.81700 -0.94400 21.56700
H  15.29500 -1.29800 20.85200
H  12.70100 2.18700 26.61700
H  14.13200 3.09600 25.82600
H  13.48600 3.69700 27.28500
H  14.74900 1.18400 32.12100
H  16.25700 4.95300 33.32600
H  16.75800 3.73800 34.56500
H  15.18800 4.58000 34.64100
Mg 43.40100 3.83800 47.53200
C  41.48400 6.74400 47.22400
C  40.42000 1.97600 47.55800
C  45.27700 1.17100 47.27400
C  46.14600 5.90300 46.86700
N  41.17800 4.31400 47.44900
C  40.65000 5.57800 47.35300
C  39.11200 5.54300 47.30200
C  38.79500 4.08300 47.88600
C  40.17000 3.36100 47.57600
C  38.46100 4.01900 49.46700
C  38.57700 5.74500 45.90700
C  37.47400 6.80400 45.85400
H  36.85100 6.83000 44.46400
N  42.87900 1.80800 47.43900
C  41.60200 1.24600 47.45200
C  41.82200 -0.17800 47.42100
C  43.20900 -0.46100 47.15400
C  43.86800 0.85300 47.27200
C  40.64300 -1.18700 47.70400
C  43.87900 -1.76200 46.85300
O  43.31800 -2.86100 46.82400
C  45.36400 -1.92900 46.66500
N  45.38000 3.55600 47.10600
C  45.99800 2.35300 47.26400
C  47.59300 2.51400 47.32200
C  47.78900 3.92100 46.76900
C  46.31700 4.49700 47.00100
C  48.17500 2.23000 48.73600
C  48.18200 4.06300 45.26200
C  49.62200 4.67800 44.98500
N  43.82600 5.92000 47.27500
C  44.99300 6.59900 47.01200
C  44.76800 8.02400 47.06000
C  43.32700 8.11900 47.06100
C  42.86900 6.86000 47.19600
C  45.78700 9.16500 47.03700
C  42.16700 9.08700 47.09400
O  42.13900 10.33700 46.99000
C  40.90900 8.14600 47.14400
C  40.02600 8.47800 48.26800
O  40.17200 8.15500 49.44700
O  38.97700 9.15100 47.84300
C  38.02200 9.60500 48.81800
H  39.47900 1.43300 47.66700
H  45.86400 0.25000 47.26400
H  47.14000 6.34500 46.76600
H  38.77900 6.35700 47.94600
H  37.96800 3.62200 47.34500
H  38.22900 5.03300 49.79300
H  39.26300 3.57000 50.05400
H  37.57500 3.42900 49.70500
H  38.12700 4.81400 45.56200
H  39.28000 5.97600 45.10700
H  38.01800 7.72000 46.08300
H  36.70500 6.65000 46.61100
H  40.07000 -1.34200 46.78900
H  39.99200 -0.73600 48.45300
H  40.95000 -2.18500 48.01400
H  45.93900 -1.87000 47.58900
H  45.79400 -1.32600 45.86400
H  45.50400 -2.94000 46.28200
H  48.15900 1.80300 46.71900
H  48.33600 4.55800 47.46500
H  47.41000 1.66400 49.26700
H  48.37300 3.12800 49.32100
H  49.05600 1.60000 48.61900
H  47.46500 4.76000 44.82900
H  48.09200 3.09700 44.76400
H  50.07800 4.06300 44.21000
H  50.24400 4.62700 45.87900
H  49.51700 5.67700 44.56200
H  46.23000 9.17800 46.04100
H  46.52500 8.83900 47.77000
H  45.30100 10.10400 47.30100
H  40.27000 8.21600 46.26400
H  37.52800 8.81900 49.38900
H  37.25400 10.12600 48.24500
H  38.44600 10.28000 49.56200

