158

Mg 42.60300 41.59600 26.76800
C  41.28900 43.61700 29.34100
C  43.28700 39.20700 29.18600
C  43.90800 39.69900 24.38100
C  42.05000 44.15400 24.44000
N  42.43300 41.50800 29.03400
C  41.76000 42.39000 29.86500
C  41.76400 41.98100 31.28800
C  42.36900 40.48600 31.20500
C  42.76500 40.41200 29.71100
C  43.55800 40.39300 32.24800
C  40.41100 41.97000 32.00100
C  40.19300 42.91500 33.22600
H  39.57800 42.19800 34.53800
N  43.48500 39.77900 26.77900
C  43.60400 38.89100 27.85300
C  44.28400 37.71300 27.34500
C  44.24300 37.74400 25.96800
C  43.85000 39.11300 25.65000
C  44.54200 36.56200 28.33100
C  44.61900 36.63700 24.96900
O  44.59600 36.76800 23.72200
C  44.94800 35.29200 25.44400
N  43.17500 41.98100 24.72300
C  43.60000 40.96000 23.92500
C  43.61600 41.25800 22.34600
C  42.96900 42.71300 22.55600
C  42.66000 42.94100 24.02800
C  45.07400 41.18000 21.81000
C  42.00400 43.16100 21.46300
C  40.52900 42.84100 21.69000
N  41.79900 43.47500 26.78400
C  41.64600 44.41500 25.78300
C  40.96000 45.59300 26.25700
C  40.82600 45.38800 27.66900
C  41.34500 44.02000 27.96900
C  40.70100 46.73200 25.45200
C  40.40700 45.99300 28.90600
O  39.97700 47.08300 29.20700
C  40.66500 44.84000 30.00900
C  41.56500 45.47000 30.98600
O  42.83100 45.52300 30.87800
O  40.91400 45.95200 32.08600
C  41.51400 46.92800 32.99300
H  43.44700 38.42800 29.93400
H  44.24900 39.09300 23.53900
H  41.89900 44.97200 23.73100
H  42.48700 42.68000 31.70800
H  41.62700 39.71200 31.40100
H  44.45100 40.94900 31.96500
H  43.76300 39.34300 32.45900
H  43.28400 40.81700 33.21400
H  40.05800 41.02900 32.42500
H  39.67000 42.31200 31.27900
H  39.59400 43.75000 32.86500
H  41.16900 43.26400 33.56100
H  43.57300 36.16200 28.62800
H  44.96200 36.90400 29.27700
H  45.30100 35.85100 28.00600
H  45.93900 35.30100 25.89800
H  45.06400 34.65500 24.56700
H  44.16400 34.85000 26.05900
H  42.91400 40.60500 21.82800
H  43.86300 43.33600 22.55200
H  45.38700 42.11200 21.34000
H  45.09300 40.47800 20.97700
H  45.86000 40.76600 22.44200
H  42.24800 42.74700 20.48400
H  42.12900 44.23900 21.36000
H  40.19300 42.55300 20.69400
H  40.07200 43.78300 21.99500
H  40.35700 42.09800 22.46900
H  40.06200 46.29200 24.68700
H  41.58900 47.09600 24.93500
H  40.25900 47.44500 26.14900
H  39.71200 44.55800 30.45600
H  42.35900 47.51000 32.62500
H  41.92900 46.39300 33.84700
H  40.77300 47.65600 33.32300
Mg 35.79100 48.83600 25.05300
C  35.92900 46.83100 28.01700
C  34.10500 51.14300 26.81000
C  35.34500 50.54100 22.24100
C  37.38500 46.21900 23.27800
N  34.95200 48.88700 27.12100
C  35.23700 48.03100 28.17500
C  34.84600 48.64100 29.50000
C  34.12500 49.92700 29.07200
C  34.43100 50.00000 27.57800
C  32.55000 50.00300 29.24900
C  36.04700 49.03400 30.40700
C  35.82400 48.83000 31.90300
H  34.44800 48.56100 32.44100
N  34.87300 50.64400 24.61500
C  34.25300 51.47200 25.49300
C  33.77300 52.62800 24.75200
C  34.06900 52.44000 23.34900
C  34.84900 51.21300 23.36300
C  33.06500 53.82200 25.48300
C  33.79500 53.23300 22.19000
O  34.20100 53.03700 21.01500
C  33.01000 54.49500 22.38400
N  36.30200 48.40700 23.13000
C  35.99900 49.29200 22.16300
C  36.49900 48.82500 20.71400
C  37.34800 47.51100 21.10400
C  37.00800 47.36100 22.58500
C  35.50100 48.58200 19.66100
C  38.82900 47.50000 20.76200
C  39.84000 48.19800 21.80100
N  36.47200 46.93100 25.48100
C  37.10700 45.96200 24.66000
C  37.50000 44.79500 25.47100
C  37.08900 45.10500 26.77000
C  36.43700 46.33500 26.72300
C  38.17700 43.57100 24.91300
C  37.11000 44.59600 28.13900
O  37.48000 43.51700 28.61700
C  36.38300 45.73900 29.09300
C  35.24800 45.11700 29.78000
O  34.08100 45.05100 29.34800
O  35.60800 44.63300 30.94500
C  34.47900 44.20700 31.87100
H  33.61800 51.96000 27.34800
H  35.26000 50.98300 21.24600
H  37.96700 45.45600 22.75800
H  34.12600 48.07800 30.09400
H  34.64900 50.81800 29.41900
H  32.23200 48.97900 29.45000
H  32.00900 50.30300 28.35200
H  32.41900 50.71100 30.06700
H  36.30400 50.08300 30.25300
H  36.86100 48.34800 30.17200
H  36.12800 49.66400 32.53400
H  36.46700 48.02200 32.25000
H  33.63000 54.75400 25.46000
H  32.75600 53.64300 26.51300
H  32.08900 54.11300 25.09400
H  32.54500 54.99200 21.53300
H  33.58100 55.14000 23.05200
H  32.04100 54.28600 22.83800
H  37.21000 49.54100 20.30400
H  36.92200 46.65500 20.58200
H  36.02900 48.38200 18.72900
H  35.04800 49.55400 19.46900
H  34.78500 47.79400 19.89500
H  38.93500 48.12200 19.87300
H  38.99800 46.44500 20.54600
H  39.36200 49.00000 22.36300
H  40.54700 48.66700 21.11700
H  40.33200 47.46100 22.43500
H  37.66500 43.06600 24.09300
H  38.00600 42.87800 25.73700
H  39.21900 43.81400 24.70400
H  37.11300 46.09800 29.81900
H  34.39000 44.78500 32.79200
H  34.62100 43.17200 32.18100
H  33.50600 44.28100 31.38600

