158

Mg 35.12100 49.20600 24.87900
C  35.24600 47.40100 27.85400
C  33.92800 51.85000 26.44900
C  34.79800 50.62600 21.78600
C  36.35800 46.26000 23.24800
N  34.57100 49.57900 26.91400
C  34.86300 48.71500 27.97100
C  34.52700 49.44500 29.29800
C  34.00400 50.80400 28.84500
C  34.17100 50.75200 27.34400
C  32.54100 51.11700 29.29300
C  35.83400 49.45500 30.24400
C  35.61900 49.09200 31.72600
H  34.20500 49.25100 32.29500
N  34.39900 50.95100 24.23400
C  34.14500 51.97700 25.06600
C  33.99300 53.19500 24.25900
C  34.08400 52.80300 22.92900
C  34.43700 51.35500 22.89800
C  33.66500 54.54400 24.87700
C  33.88000 53.70200 21.76400
O  33.83200 53.24700 20.62100
C  33.64600 55.20400 21.83300
N  35.57000 48.54000 22.78200
C  35.27900 49.29200 21.75600
C  35.50900 48.57700 20.38800
C  36.22900 47.27800 20.87700
C  36.07000 47.34400 22.36000
C  34.22200 48.26200 19.65200
C  37.72200 47.01600 20.44100
C  38.70300 48.07700 20.98700
N  35.66100 47.23800 25.38800
C  36.10000 46.13200 24.64700
C  36.29400 45.03300 25.55200
C  35.95700 45.44500 26.76800
C  35.65800 46.85000 26.63400
C  36.84600 43.70400 25.16700
C  35.89200 45.10800 28.18400
O  36.21200 44.08100 28.75500
C  35.53100 46.37700 28.94100
C  34.40100 45.93100 29.66600
O  33.27500 45.93000 29.15500
O  34.61200 45.56600 30.93900
C  33.39000 45.20700 31.66000
H  33.59200 52.78400 26.90300
H  34.97300 51.25200 20.90700
H  36.48300 45.27600 22.79300
H  33.72900 48.87900 29.77900
H  34.64000 51.63000 29.16400
H  32.15100 50.36600 29.97900
H  31.85900 51.37300 28.48200
H  32.70500 52.01600 29.88900
H  36.34100 50.42000 30.23600
H  36.50800 48.73500 29.77900
H  36.32200 49.61400 32.37500
H  35.90600 48.06800 31.96400
H  34.41300 55.23900 24.49500
H  33.86200 54.54100 25.94900
H  32.64000 54.79600 24.60700
H  34.33700 55.68600 22.52500
H  32.59400 55.36200 22.07000
H  33.81100 55.70700 20.88000
H  36.15200 49.19000 19.75600
H  35.69100 46.40200 20.51300
H  33.35700 48.87500 19.90200
H  33.91000 47.21700 19.66700
H  34.34200 48.54000 18.60500
H  37.71500 47.05600 19.35100
H  37.98900 46.09100 20.95300
H  39.48600 47.61500 21.58900
H  38.27000 48.90400 21.55000
H  39.34200 48.56700 20.25300
H  37.60800 43.42000 25.89200
H  37.31100 43.93500 24.20800
H  35.94500 43.10200 25.04200
H  36.36500 46.67900 29.57400
H  32.91200 44.26600 31.38700
H  32.58600 45.94300 31.67500
H  33.73400 45.23400 32.69400
Mg 8.33400 48.28400 25.22600
C  6.37500 48.40200 28.17200
C  11.01000 49.10100 27.08900
C  10.10500 48.38700 22.47100
C  5.37700 47.90800 23.41100
N  8.57500 48.78400 27.34500
C  7.75500 48.56100 28.39300
C  8.44400 48.87400 29.71700
C  9.74800 49.43100 29.20600
C  9.83200 49.10900 27.77600
C  9.94500 50.99500 29.50700
C  8.63000 47.70500 30.76700
C  7.85600 47.75000 32.12600
H  7.59400 46.38100 32.92400
N  10.38300 48.62200 24.82600
C  11.31300 48.87900 25.74700
C  12.58200 49.02300 25.07100
C  12.38600 48.82700 23.70900
C  10.90800 48.64400 23.60200
C  13.88100 49.19300 25.79700
C  13.36400 48.68400 22.54800
O  12.96000 48.65600 21.36700
C  14.85800 48.80700 22.78100
N  7.78800 48.42800 23.22000
C  8.74300 48.32300 22.28100
C  8.12800 47.98600 20.91400
C  6.70900 47.72800 21.19100
C  6.58200 47.91400 22.70600
C  8.33700 49.05200 19.86800
C  6.25700 46.27200 20.72200
C  4.76600 46.08800 20.35200
N  6.26100 48.20300 25.64500
C  5.18600 48.14700 24.79200
C  3.93100 48.15800 25.52500
C  4.36400 48.19700 26.86200
C  5.72900 48.35100 26.87100
C  2.55100 47.79400 25.00100
C  3.94400 48.13900 28.24200
O  2.80100 47.98800 28.73900
C  5.24100 48.33600 29.17800
C  5.21100 47.20200 30.11400
O  5.78300 46.10700 29.87900
O  4.31700 47.46600 31.15800
C  4.01000 46.31100 32.08000
H  11.85400 49.39500 27.71700
H  10.68100 48.33100 21.54500
H  4.50800 47.85300 22.75200
H  7.76400 49.58100 30.19200
H  10.58900 48.94500 29.70100
H  10.95700 51.35300 29.31900
H  9.73500 51.21700 30.55300
H  9.32500 51.58000 28.82700
H  9.67800 47.49600 30.98300
H  8.25500 46.83200 30.23400
H  6.96800 48.38300 32.11400
H  8.58400 48.34500 32.67800
H  13.69600 49.50700 26.82400
H  14.47100 50.00700 25.37400
H  14.49400 48.29300 25.84300
H  15.10000 48.18400 23.64100
H  15.01800 49.87700 22.91700
H  15.53100 48.57500 21.95600
H  8.62000 47.07000 20.58600
H  6.00900 48.49200 20.85400
H  7.47500 49.67400 19.62600
H  8.61900 48.60800 18.91400
H  9.17300 49.61800 20.28000
H  6.32100 45.69900 21.64700
H  6.92600 45.73200 20.05200
H  4.68500 46.93300 19.66800
H  4.05900 46.12200 21.18100
H  4.70100 45.18000 19.75300
H  2.52800 47.77400 23.91200
H  1.81700 48.55700 25.26200
H  2.34600 46.82600 25.45900
H  4.96900 49.30800 29.58900
H  3.96600 45.36800 31.53500
H  2.98900 46.47000 32.42700
H  4.71500 46.19700 32.90300

