158

Mg 30.92400 58.72400 40.73900
C  28.32400 56.62900 39.78000
C  33.14700 56.35700 39.46400
C  33.41400 61.07000 40.93300
C  28.57400 61.16800 41.69000
N  30.70700 56.77400 39.75500
C  29.55600 56.17500 39.35500
C  29.73100 54.88200 38.58700
C  31.29400 54.72500 38.76600
C  31.74700 56.00800 39.38300
C  31.69700 53.41900 39.52200
C  29.27200 54.95900 37.09900
C  28.23300 53.98800 36.54100
H  27.14300 54.52000 35.55200
N  32.92000 58.72100 40.25100
C  33.69300 57.63600 39.82700
C  35.07800 57.97000 39.76300
C  35.16100 59.30000 40.12000
C  33.80300 59.76500 40.41100
C  36.19500 56.96800 39.40200
C  36.51900 60.00900 40.29500
O  37.53300 59.37700 40.18900
C  36.62500 61.46100 40.61000
N  30.93600 60.92100 41.03600
C  32.16200 61.55500 41.24800
C  31.90600 62.93900 41.81200
C  30.37600 63.02600 42.05300
C  29.88600 61.63700 41.56600
C  32.81000 63.38200 43.10100
C  29.65400 64.15800 41.33800
C  28.31200 64.64700 41.90200
N  28.92400 58.83900 40.81300
C  28.06100 59.94300 41.16100
C  26.74000 59.61800 40.80700
C  26.74400 58.29900 40.30900
C  28.06700 57.87300 40.42600
C  25.52300 60.54200 41.05400
C  25.98800 57.21500 39.80900
O  24.81100 57.11400 39.57800
C  26.92800 56.08700 39.38200
C  26.59100 54.91100 40.17600
O  26.96200 54.60700 41.29900
O  25.69900 54.16000 39.42800
C  25.24900 52.85800 40.05500
H  33.78600 55.59300 39.01500
H  34.19100 61.81800 41.10400
H  27.88400 61.91900 42.08000
H  29.12100 54.19400 39.17400
H  31.79300 54.78500 37.79900
H  32.01200 53.72800 40.51900
H  32.57700 52.97300 39.05900
H  30.95500 52.62200 39.55500
H  30.14200 54.76600 36.47100
H  28.95900 55.98900 36.93200
H  27.66900 53.63300 37.40300
H  28.71300 53.11200 36.10400
H  35.79100 56.23500 38.70400
H  36.64000 56.62000 40.33400
H  36.98900 57.46800 38.84700
H  36.00700 62.15000 40.03400
H  37.67000 61.76500 40.54200
H  36.27100 61.70600 41.61100
H  32.18400 63.57100 40.96900
H  30.12400 62.90600 43.10700
H  32.20800 63.37800 44.00900
H  33.33800 64.33400 43.04600
H  33.58100 62.63600 43.29500
H  29.62600 63.69700 40.35100
H  30.27700 65.05100 41.31300
H  28.15600 64.27200 42.91300
H  27.54600 64.29100 41.21200
H  28.30800 65.73700 41.90700
H  24.99700 60.18200 41.93900
H  24.82800 60.50300 40.21600
H  25.83200 61.57100 41.23800
H  26.84200 55.95900 38.30300
H  24.38100 52.96700 40.70600
H  26.04400 52.46200 40.68700
H  24.94100 52.13900 39.29500
Mg 16.68300 51.76100 26.87900
C  18.73200 50.58100 29.48000
C  14.45200 52.90000 29.31500
C  14.63500 52.90400 24.42600
C  19.17100 50.88200 24.54000
N  16.65300 51.76500 29.16800
C  17.58700 51.17100 30.03200
C  17.14000 51.19800 31.50300
C  15.59000 51.59600 31.21900
C  15.55700 52.18900 29.80800
C  14.63500 50.38400 31.46300
C  17.92200 52.35200 32.31200
C  18.14200 51.97500 33.78500
H  17.17200 52.34000 34.95100
N  14.79600 52.74500 26.87900
C  14.10100 53.20400 27.99300
C  12.94900 53.95000 27.50800
C  12.89200 53.89400 26.10900
C  14.13900 53.06800 25.73300
C  12.05300 54.66000 28.55400
C  11.88300 54.55100 25.21200
O  12.01700 54.40900 23.97300
C  10.68700 55.33500 25.73000
N  16.89400 51.88800 24.77200
C  15.88700 52.39100 23.94500
C  16.25300 52.21900 22.37200
C  17.72100 51.55800 22.53400
C  17.97200 51.41400 24.03200
C  15.13300 51.33700 21.75900
C  18.87000 52.28500 21.85400
C  19.85300 51.30600 21.22700
N  18.55700 50.99300 26.93700
C  19.53800 50.69300 25.89800
C  20.67300 50.09000 26.38300
C  20.38600 50.05900 27.77800
C  19.10900 50.60100 28.05900
C  21.93000 49.61700 25.51800
C  20.90400 49.69900 29.08200
O  22.00800 49.21300 29.32800
C  19.84800 49.91500 30.23300
C  19.60700 48.59900 30.86700
O  18.91200 47.65500 30.44800
O  20.20500 48.51900 32.03500
C  19.90300 47.44000 32.97800
H  13.85900 53.33700 30.12100
H  13.89800 53.08500 23.64100
H  19.97600 50.58700 23.86400
H  17.20800 50.23800 32.01400
H  15.40000 52.34300 31.98900
H  13.87400 50.29200 30.68800
H  14.09300 50.44600 32.40700
H  15.13900 49.43000 31.31400
H  17.41900 53.31900 32.33800
H  18.85500 52.59100 31.80200
H  19.08200 52.38200 34.15800
H  18.26400 50.89200 33.76000
H  11.02800 54.71800 28.18700
H  12.28600 55.70300 28.76700
H  12.12300 54.18800 29.53400
H  11.10300 55.98900 26.49600
H  9.89200 54.65700 26.04100
H  10.31600 56.01900 24.96600
H  16.22200 53.21100 21.92200
H  17.61500 50.52600 22.20000
H  15.46500 50.62900 21.00000
H  14.32900 51.95200 21.35600
H  14.64600 50.75500 22.54200
H  19.46600 52.93700 22.49300
H  18.61500 52.97200 21.04700
H  19.86600 51.51900 20.15800
H  19.58900 50.25100 21.30900
H  20.85600 51.55400 21.57400
H  22.73900 49.97900 26.15200
H  21.92900 50.08000 24.53200
H  21.96600 48.52900 25.45200
H  20.40000 50.61100 30.86500
H  20.19100 47.79600 33.96700
H  20.57900 46.59700 32.83300
H  18.90000 47.02800 32.86300

