158

Mg 50.23200 35.04400 26.23100
C  48.09600 33.62600 28.71300
C  50.18300 37.98800 28.09500
C  52.09800 36.51600 23.77100
C  49.75400 32.26200 24.28400
N  49.28000 35.69700 28.12700
C  48.54000 34.89800 29.00200
C  48.29200 35.63400 30.31700
C  48.82300 37.08000 30.03500
C  49.48300 36.94000 28.65600
C  47.82800 38.26400 30.18500
C  49.23600 34.90000 31.38500
C  48.73100 34.68400 32.81700
H  47.47200 35.52000 33.31000
N  51.03000 36.98800 25.99500
C  50.89500 38.03400 26.89000
C  51.67800 39.13100 26.44300
C  52.34400 38.75500 25.23700
C  51.89400 37.37500 24.93700
C  51.75700 40.42700 27.15900
C  53.30900 39.53400 24.37600
O  53.82000 39.06000 23.37300
C  53.66600 40.93900 24.72800
N  50.75400 34.58000 24.20500
C  51.58100 35.26800 23.39900
C  51.78500 34.50500 22.08600
C  51.46600 33.08400 22.53000
C  50.53900 33.33400 23.69300
C  51.05200 35.11200 20.87000
C  52.72500 32.22300 22.99200
C  53.49300 31.47200 21.88500
N  49.20700 33.24600 26.47000
C  49.08400 32.23300 25.56000
C  48.30700 31.13000 26.14400
C  47.79200 31.68300 27.33000
C  48.46100 32.93500 27.52700
C  48.08000 29.75000 25.51900
C  46.99500 31.39600 28.45800
O  46.45200 30.31900 28.70400
C  47.13300 32.60400 29.38400
C  47.62700 31.96800 30.67400
O  48.59000 31.24000 30.79500
O  46.59200 32.03500 31.54600
C  46.66100 31.18400 32.73900
H  50.13600 38.84900 28.76600
H  52.74300 37.03400 23.05800
H  49.93500 31.29500 23.80900
H  47.22600 35.75000 30.51100
H  49.70200 37.21900 30.66400
H  46.97900 37.83300 30.71600
H  47.51600 38.66800 29.22100
H  48.34400 38.97300 30.83300
H  50.13300 35.50300 31.52400
H  49.44700 33.90900 30.98400
H  49.47000 34.99300 33.55600
H  48.48700 33.62400 32.87700
H  52.81900 40.49500 27.39500
H  51.16900 40.60500 28.06000
H  51.38300 41.21500 26.50500
H  52.77900 41.56300 24.83600
H  54.38900 41.40100 24.05600
H  54.12600 40.93000 25.71600
H  52.85000 34.60100 21.87400
H  51.01200 32.39900 21.81400
H  50.48400 34.24900 20.52100
H  51.67700 35.37100 20.01500
H  50.50900 36.04400 21.02600
H  52.33900 31.54400 23.75100
H  53.42600 32.83000 23.56600
H  54.55700 31.68900 21.98800
H  53.05200 31.66700 20.90700
H  53.26100 30.41200 21.97900
H  48.79300 29.34100 24.80300
H  47.09100 29.62600 25.07800
H  48.07500 29.14900 26.42800
H  46.14100 33.02600 29.54300
H  45.86600 31.52500 33.40200
H  47.59600 31.21900 33.29800
H  46.32600 30.19300 32.43400
Mg -1.79000 33.43000 26.93100
C  -3.58700 31.71200 29.34500
C  -0.55900 35.48700 29.32800
C  -0.54000 35.32000 24.48500
C  -3.45100 31.49600 24.38100
N  -2.10000 33.67300 28.99800
C  -2.82500 32.74800 29.87800
C  -2.59100 33.10700 31.36100
C  -1.70100 34.35600 31.29100
C  -1.46300 34.54600 29.74000
C  -2.28300 35.55400 32.08700
C  -2.04000 31.90300 32.25100
C  -2.94700 31.57400 33.49100
H  -2.16900 31.44800 34.80500
N  -0.56600 35.18700 26.92700
C  -0.10600 35.79400 27.99900
C  0.87000 36.82200 27.49400
C  0.77400 36.87000 26.05000
C  -0.16700 35.80700 25.75600
C  1.73900 37.57200 28.43500
C  1.52400 37.74400 25.10100
O  1.45400 37.66000 23.88000
C  2.29300 38.80700 25.61200
N  -2.01600 33.45800 24.68400
C  -1.33000 34.33600 23.96900
C  -1.54600 34.14800 22.47300
C  -2.39700 32.84700 22.41500
C  -2.60600 32.50600 23.92900
C  -2.02500 35.42600 21.66000
C  -1.78600 31.64000 21.69100
C  -0.85800 30.71800 22.48400
N  -3.17700 31.94800 26.77400
C  -3.80200 31.22400 25.70500
C  -4.77800 30.32400 26.22400
C  -4.73100 30.45500 27.63300
C  -3.73200 31.48000 27.90700
C  -5.54600 29.28400 25.37400
C  -5.26200 29.93900 28.92900
O  -6.01200 28.94200 29.12100
C  -4.53500 30.77500 29.98800
C  -5.44300 31.47900 30.92600
O  -5.83600 32.62900 30.92700
O  -5.86100 30.53200 31.86300
C  -6.68000 31.15300 32.90300
H  -0.03400 36.12600 30.04000
H  0.01900 35.82900 23.69800
H  -4.07700 30.94200 23.67900
H  -3.61700 33.21900 31.71100
H  -0.80400 34.14000 31.87200
H  -2.51700 36.39200 31.43100
H  -1.61900 35.94200 32.86000
H  -3.26600 35.32500 32.50000
H  -1.05700 32.08600 32.68500
H  -1.93100 30.99600 31.65600
H  -3.53300 30.67300 33.30600
H  -3.55900 32.43200 33.76700
H  1.34000 38.58400 28.49700
H  2.78900 37.40900 28.19000
H  1.62300 37.19400 29.45100
H  2.77700 39.37200 24.81500
H  3.09800 38.38000 26.20900
H  1.67900 39.49100 26.19700
H  -0.58200 33.91100 22.02400
H  -3.40000 33.09400 22.06700
H  -2.10000 36.23600 22.38500
H  -2.96400 35.31000 21.11800
H  -1.17900 35.75300 21.05500
H  -1.11600 31.98600 20.90400
H  -2.49500 31.05600 21.10300
H  -0.64400 31.09600 23.48400
H  0.03300 30.60400 21.86500
H  -1.32800 29.74300 22.61200
H  -4.84600 28.98700 24.59300
H  -6.50000 29.62100 24.96800
H  -5.77200 28.35100 25.88900
H  -4.00100 30.04900 30.60100
H  -6.22900 32.04500 33.33700
H  -6.89400 30.42600 33.68700
H  -7.63300 31.40100 32.43500

