158

Mg 47.99800 14.62700 28.42400
C  45.89100 14.71700 31.10700
C  50.20000 16.59700 30.29200
C  50.09200 14.89300 25.73900
C  45.54400 13.27600 26.41200
N  48.06300 15.41100 30.55600
C  47.07400 15.34800 31.47000
C  47.48600 15.91600 32.82900
C  48.74600 16.74700 32.44700
C  49.08600 16.21100 31.01200
C  48.50300 18.28400 32.47400
C  47.88400 14.64600 33.72800
C  46.89300 14.51200 35.00000
H  47.60700 14.78800 36.33400
N  49.96100 15.47000 28.15300
C  50.66200 16.24800 29.00000
C  52.03000 16.52300 28.39600
C  52.07900 15.81800 27.12700
C  50.68700 15.32600 26.95100
C  53.08000 17.29800 29.13000
C  53.16900 15.70500 26.00000
O  52.98900 15.25400 24.82500
C  54.48800 16.32200 26.27000
N  47.83400 14.25100 26.37400
C  48.83900 14.42900 25.48700
C  48.33100 14.14000 24.05900
C  46.95100 13.36000 24.27000
C  46.74000 13.62100 25.76000
C  48.43900 15.40300 23.07800
C  46.86700 11.83000 23.93500
C  47.52900 10.87500 25.02900
N  46.09000 14.07800 28.60200
C  45.20700 13.46800 27.75400
C  44.00500 13.22800 28.42600
C  44.22000 13.70400 29.77100
C  45.53400 14.20600 29.82100
C  42.71800 12.69800 27.93400
C  43.53200 13.87500 31.06000
O  42.35800 13.74500 31.46100
C  44.55200 14.62300 31.86900
C  44.05000 15.97000 32.26900
O  43.88200 16.95100 31.50700
O  43.58200 15.97200 33.54800
C  42.93900 17.18700 34.08300
H  50.96900 17.12400 30.86100
H  50.69400 14.89000 24.82800
H  44.75200 12.86300 25.78300
H  46.60500 16.38200 33.27100
H  49.54900 16.65900 33.17900
H  47.45400 18.46400 32.23900
H  49.12200 18.81900 31.75400
H  48.63600 18.44700 33.54400
H  48.90100 14.81500 34.08200
H  47.91800 13.73900 33.12400
H  46.47700 13.50800 34.91000
H  46.04300 15.17300 34.83500
H  53.63100 16.62800 29.78900
H  52.48400 18.01900 29.69000
H  53.69800 17.80600 28.39000
H  54.86000 15.99600 27.24200
H  54.22900 17.37600 26.17300
H  55.24100 16.10900 25.51200
H  48.98400 13.36900 23.65000
H  46.13500 13.79700 23.69300
H  47.96300 16.28000 23.51400
H  48.03100 15.22600 22.08300
H  49.51800 15.53600 22.99900
H  47.32800 11.60700 22.97300
H  45.83000 11.49300 23.95700
H  46.89500 10.83200 25.91500
H  48.54700 11.21200 25.22300
H  47.52400 9.85000 24.65900
H  42.36300 13.17800 27.02100
H  41.97600 13.04400 28.65300
H  42.65800 11.61600 27.81700
H  44.67200 14.06200 32.79600
H  42.97500 18.03900 33.40300
H  43.39200 17.46100 35.03600
H  42.01800 16.74900 34.46800
Mg 47.30600 24.77700 28.43100
C  48.27400 26.99400 30.98300
C  46.71400 22.41100 30.78200
C  47.15700 22.47500 25.91800
C  48.40900 27.21700 26.08800
N  47.73300 24.66300 30.62700
C  47.93800 25.70200 31.47700
C  47.72300 25.31100 32.91600
C  47.50200 23.75300 32.80500
C  47.24600 23.59300 31.31300
C  48.66400 22.91000 33.31600
C  46.58200 26.07200 33.70600
C  46.66900 26.00700 35.21900
H  45.40800 26.25200 36.08100
N  46.77300 22.82600 28.33500
C  46.62500 21.97000 29.45700
C  46.44700 20.60100 29.05600
C  46.54200 20.65700 27.63400
C  46.90800 22.03800 27.21800
C  46.03800 19.49900 30.03600
C  46.45300 19.49100 26.68900
O  46.60000 19.70800 25.44900
C  46.15400 18.07200 27.14900
N  47.76200 24.85400 26.29300
C  47.39500 23.79700 25.47500
C  47.53700 24.16300 23.97500
C  47.79000 25.64700 24.02900
C  47.98800 25.98700 25.53900
C  48.54000 23.24500 23.14400
C  46.65700 26.54500 23.38100
C  45.55300 27.00400 24.33500
N  48.31900 26.69700 28.50300
C  48.59500 27.63100 27.45600
C  49.02600 28.84100 27.99100
C  48.90500 28.65100 29.37700
C  48.46000 27.32000 29.60600
C  49.58000 29.99300 27.28700
C  49.13800 29.31900 30.67200
O  49.71800 30.33200 31.02400
C  48.60500 28.23700 31.74000
C  49.73600 27.95800 32.70900
O  50.81300 27.48000 32.54400
O  49.21000 28.35400 33.92900
C  50.10600 28.68000 34.99600
H  46.46000 21.70900 31.57900
H  46.99800 21.81500 25.06300
H  48.50300 27.96200 25.29500
H  48.71900 25.56300 33.27900
H  46.54800 23.56400 33.29800
H  49.37500 23.45800 33.93600
H  49.22700 22.51600 32.47100
H  48.23400 22.16300 33.98300
H  45.64200 25.64500 33.35500
H  46.40400 27.11400 33.44100
H  47.44000 26.68100 35.59200
H  47.00700 24.99900 35.46200
H  45.23900 19.00000 29.48900
H  45.65100 19.88300 30.98000
H  46.81300 18.73300 30.05900
H  46.23200 17.39400 26.29900
H  45.14700 18.03000 27.56200
H  46.88000 17.71200 27.87800
H  46.61600 23.92800 23.44200
H  48.67700 25.93500 23.46600
H  49.15300 22.79400 23.92400
H  49.17700 23.81900 22.47100
H  47.97800 22.47100 22.62100
H  46.10500 26.03900 22.58900
H  47.17800 27.40400 22.95800
H  45.76000 28.02200 24.66600
H  45.57700 26.22900 25.10200
H  44.64200 26.89900 23.74500
H  49.38300 29.91100 26.21800
H  50.63000 30.05400 27.57000
H  49.22200 30.95400 27.65600
H  47.70600 28.61500 32.22600
H  51.12200 28.87800 34.65700
H  50.20300 27.76500 35.58100
H  49.75900 29.53800 35.57200

