158

Mg 52.80000 24.09400 44.62700
C  49.87800 25.98700 43.76200
C  51.11300 21.34600 43.26400
C  55.70000 22.38200 44.93600
C  54.39300 27.07400 45.58800
N  50.74900 23.78500 43.57600
C  49.80700 24.71200 43.24600
C  48.62500 24.04800 42.59100
C  48.84500 22.52500 43.09500
C  50.33900 22.52600 43.33900
C  47.91700 22.10500 44.28800
C  48.75400 24.40600 41.09300
C  47.45800 24.47600 40.27100
H  47.45100 23.66500 38.94800
N  53.37900 22.18700 44.09100
C  52.54700 21.20700 43.54000
C  53.24400 19.91300 43.52800
C  54.53600 20.18600 44.03100
C  54.62700 21.64000 44.36300
C  52.70400 18.63200 42.98700
C  55.66500 19.16300 44.17800
O  55.45500 17.97000 44.00800
C  57.14600 19.59200 44.47500
N  55.00800 24.70900 44.85100
C  55.93200 23.76900 45.11800
C  57.13000 24.44400 45.82900
C  56.83600 25.92300 45.80900
C  55.28400 25.94600 45.43800
C  57.45900 23.85600 47.23400
C  57.64300 26.82600 44.75000
C  58.74200 27.59500 45.35400
N  52.26200 26.05000 44.85700
C  52.99100 27.13100 45.29600
C  52.11800 28.22800 45.28000
C  50.92500 27.83100 44.76400
C  51.04400 26.48300 44.44500
C  52.41200 29.60200 45.75600
C  49.61500 28.23100 44.46700
O  49.10600 29.33000 44.56400
C  48.85800 27.10300 43.73700
C  48.49400 27.61800 42.39900
O  49.11800 28.22200 41.58300
O  47.14700 27.30700 42.24800
C  46.51800 27.84200 41.03400
H  50.57800 20.45600 42.92600
H  56.49100 21.67700 45.20000
H  54.74200 28.02800 45.98900
H  47.70300 24.28700 43.12200
H  48.57200 21.86300 42.27300
H  46.92000 22.54300 44.24400
H  48.42800 22.44600 45.18700
H  47.84000 21.01800 44.32000
H  49.42900 23.72900 40.56900
H  49.18900 25.40400 41.02900
H  47.24300 25.51800 40.03500
H  46.63700 24.06700 40.86100
H  53.56600 18.24800 42.44100
H  51.85600 18.73100 42.30900
H  52.53800 17.94500 43.81700
H  57.49500 20.38500 43.81200
H  57.84300 18.77100 44.30600
H  57.25400 19.68700 45.55500
H  57.93300 24.19500 45.13600
H  56.86500 26.27800 46.84000
H  58.52700 23.65700 47.32600
H  56.97500 22.88900 47.37100
H  57.13300 24.46800 48.07500
H  56.92100 27.35500 44.12800
H  58.09700 26.20600 43.97800
H  59.04000 26.90500 46.14200
H  58.22100 28.49900 45.66900
H  59.57300 27.73800 44.66200
H  52.09500 30.27500 44.95900
H  53.48100 29.74500 45.91600
H  51.88200 29.82800 46.68200
H  48.07800 26.83500 44.45000
H  46.34900 28.90500 41.20800
H  45.52600 27.42100 40.87200
H  47.17000 27.69800 40.17300
Mg 48.19600 15.25500 27.97300
C  46.40300 15.09200 30.93300
C  50.55200 17.29800 29.56300
C  49.82000 15.64200 25.03300
C  45.53700 13.74100 26.27400
N  48.37100 16.05300 30.00300
C  47.55100 15.92200 31.08900
C  47.96000 16.65200 32.29900
C  49.07100 17.58300 31.65900
C  49.40100 16.91200 30.28200
C  48.76000 19.12000 31.60100
C  48.48500 15.77100 33.49400
C  47.95400 16.16500 34.88100
H  49.05800 16.25500 35.93800
N  50.07100 16.21200 27.40700
C  50.87800 16.90800 28.24000
C  52.04600 17.26100 27.51600
C  51.81000 16.99200 26.15500
C  50.53100 16.21600 26.14400
C  53.20700 17.84600 28.27000
C  52.62300 17.30900 24.99500
O  52.46700 16.73500 23.87900
C  53.93900 18.12600 25.20200
N  47.71300 14.71500 25.86300
C  48.61300 14.92800 24.83900
C  48.20500 14.25700 23.56300
C  46.84100 13.59300 24.01900
C  46.66000 13.96700 25.48500
C  48.09400 15.26700 22.28800
C  46.62700 12.11400 23.77800
C  47.25400 11.03400 24.72300
N  46.31300 14.57100 28.42200
C  45.37200 13.95600 27.64400
C  44.34400 13.44600 28.50800
C  44.70200 13.85100 29.80200
C  45.91200 14.52600 29.68600
C  43.17200 12.54100 27.98400
C  44.36300 13.72500 31.19000
O  43.45800 13.16600 31.80700
C  45.37800 14.66700 31.95800
C  44.41200 15.72700 32.50600
O  44.02200 16.66600 31.83900
O  44.06900 15.42600 33.80400
C  43.05300 16.19400 34.44300
H  51.27800 17.97300 30.02000
H  50.37400 15.72400 24.09500
H  44.70000 13.22400 25.80000
H  47.07700 17.25600 32.50800
H  49.94100 17.53900 32.31400
H  47.80500 19.35200 32.07200
H  48.75800 19.46900 30.56800
H  49.56700 19.72200 32.01900
H  49.57300 15.79300 33.43700
H  48.23300 14.73400 33.26800
H  47.18600 15.40500 35.02600
H  47.49400 17.15100 34.92800
H  53.24700 17.25600 29.18600
H  53.10500 18.87700 28.60700
H  54.16800 17.76700 27.76200
H  54.67800 17.39300 25.52600
H  53.67800 18.87700 25.94800
H  54.31000 18.63200 24.31100
H  48.88500 13.42400 23.38200
H  46.09300 14.11900 23.42600
H  48.86500 15.06900 21.54300
H  48.22200 16.32500 22.51500
H  47.14100 15.04400 21.80800
H  46.95800 11.99500 22.74700
H  45.55100 12.14100 23.94800
H  47.82100 11.60500 25.45700
H  47.91800 10.38900 24.14700
H  46.42500 10.50200 25.19000
H  43.53000 11.86800 27.20500
H  42.35400 13.18000 27.65000
H  42.80300 11.88200 28.76900
H  45.73600 14.09500 32.81300
H  42.22300 16.52800 33.82000
H  43.45700 17.11600 34.86100
H  42.74300 15.64900 35.33500

