158

Mg 35.63300 1.75100 29.08000
C  33.60500 2.83700 31.65100
C  38.18700 1.30800 31.30900
C  37.70400 1.31300 26.61600
C  32.96200 2.24100 26.83500
N  35.83600 2.27200 31.21700
C  34.88900 2.54000 32.14300
C  35.39700 2.32300 33.57500
C  36.90500 2.11000 33.31800
C  37.00100 1.92000 31.84500
C  37.72600 3.38000 33.75000
C  34.69100 1.20300 34.40800
C  34.05800 1.59600 35.77400
H  34.64600 2.79000 36.50400
N  37.62500 1.16800 28.93500
C  38.46900 0.95900 29.98900
C  39.72200 0.59200 29.54500
C  39.66100 0.76200 28.09100
C  38.28500 1.05400 27.81800
C  40.93700 0.26800 30.49700
C  40.70200 0.48500 27.00800
O  40.48800 0.74000 25.88200
C  42.07300 -0.13800 27.32900
N  35.31500 1.83800 26.99800
C  36.42300 1.64900 26.19100
C  36.04700 1.75900 24.65800
C  34.52000 1.91000 24.77300
C  34.19000 1.92300 26.27100
C  36.75600 2.87600 23.83200
C  33.71400 0.83800 23.98600
C  33.06400 1.42800 22.71000
N  33.65600 2.47500 29.14500
C  32.66200 2.54200 28.21100
C  31.54200 3.18200 28.75600
C  31.80700 3.28100 30.12000
C  33.15500 2.77700 30.30400
C  30.24300 3.56400 27.99900
C  31.27500 3.62000 31.40600
O  30.11600 3.86100 31.75600
C  32.43200 3.36700 32.52200
C  32.67600 4.60000 33.34000
O  33.58300 5.42100 33.15600
O  31.69700 4.66200 34.32000
C  31.86400 5.89400 35.08900
H  38.89700 1.06600 32.10300
H  38.36400 1.17900 25.75700
H  32.24200 2.44700 26.04100
H  35.24000 3.20600 34.19500
H  37.33700 1.20700 33.74700
H  38.31500 3.63700 32.87000
H  38.46000 3.18500 34.53200
H  37.11300 4.27000 33.89000
H  35.43100 0.42300 34.58700
H  33.85500 0.84500 33.80800
H  34.27800 0.74500 36.41900
H  33.01400 1.69100 35.47400
H  41.18600 -0.79200 30.46000
H  40.71500 0.44700 31.54900
H  41.71100 0.94300 30.13200
H  42.08600 -0.78100 28.20900
H  42.76000 0.68100 27.54200
H  42.35300 -0.77400 26.49000
H  36.23300 0.76800 24.24400
H  34.23500 2.89700 24.41100
H  36.09100 3.45300 23.19000
H  37.40200 2.30100 23.16800
H  37.29400 3.64800 24.38300
H  33.02800 0.39400 24.70700
H  34.42900 0.08700 23.65000
H  33.37500 2.45300 22.50800
H  31.98300 1.40200 22.84600
H  33.40300 0.76800 21.91100
H  30.37900 4.23300 27.15000
H  29.42400 4.05400 28.52600
H  29.81700 2.71800 27.45800
H  32.08100 2.63100 33.24500
H  30.99900 6.01800 35.74000
H  31.98600 6.82600 34.53700
H  32.64100 5.54100 35.76700
Mg 36.53200 49.28900 24.80600
C  36.48900 47.80500 27.88800
C  35.20000 52.12000 26.16200
C  36.47900 50.69100 21.75100
C  37.89500 46.36700 23.50300
N  35.88300 49.84100 26.78200
C  36.01200 49.12800 27.92600
C  35.73400 49.92000 29.18400
C  35.21400 51.27000 28.57100
C  35.45200 51.08400 27.10100
C  33.77500 51.64200 28.94900
C  36.93700 50.06500 30.14200
C  36.74800 49.77900 31.71200
H  35.42900 50.24400 32.31500
N  35.92000 51.11500 24.06300
C  35.45300 52.14500 24.76800
C  35.08900 53.22000 23.84900
C  35.31100 52.80800 22.57100
C  35.98800 51.47100 22.75200
C  34.67500 54.55400 24.48600
C  35.11500 53.47500 21.31500
O  35.24800 53.00000 20.21100
C  34.49100 54.98600 21.28400
N  36.88500 48.43300 22.88000
C  36.75900 49.25800 21.78100
C  37.37600 48.57800 20.59000
C  38.20900 47.43700 21.23600
C  37.59500 47.39400 22.64800
C  36.40600 48.32600 19.38900
C  39.64500 47.72000 21.37000
C  40.57900 46.66500 20.72800
N  37.14400 47.39000 25.54500
C  37.59200 46.26900 24.89300
C  37.70100 45.17500 25.82600
C  37.18300 45.78200 26.99700
C  36.88900 47.11300 26.74700
C  38.28500 43.81800 25.54100
C  36.88400 45.44300 28.32100
O  37.09500 44.41000 28.98600
C  36.43500 46.76800 29.00100
C  35.13500 46.49400 29.59500
O  34.09600 46.51900 29.00400
O  35.22000 46.25500 30.93200
C  33.95700 45.92500 31.60700
H  34.53800 52.95700 26.39600
H  36.46500 51.15200 20.76100
H  38.45500 45.56100 23.02300
H  34.86300 49.44500 29.63500
H  35.84100 52.12800 28.81500
H  33.42400 51.04200 29.78800
H  33.14600 51.59400 28.06000
H  33.84400 52.61600 29.43300
H  37.30000 51.08100 29.98700
H  37.79900 49.48100 29.81900
H  37.64100 50.20000 32.17400
H  36.76400 48.70000 31.86500
H  33.66000 54.46800 24.87600
H  34.57900 55.44500 23.86600
H  35.46800 54.80700 25.19000
H  33.55400 54.87700 21.83000
H  34.26700 55.27500 20.25700
H  35.13600 55.72700 21.75700
H  38.03900 49.32200 20.14900
H  37.98700 46.46500 20.79600
H  35.39400 48.70400 19.53700
H  36.18900 47.26800 19.24300
H  36.81700 48.63300 18.42800
H  40.07800 47.80900 22.36600
H  39.87100 48.66300 20.87300
H  40.08800 45.93100 20.08900
H  41.17100 46.20000 21.51700
H  41.27400 47.22300 20.10100
H  37.78700 43.10000 26.19200
H  39.35100 43.71100 25.74100
H  38.03200 43.63300 24.49700
H  37.14300 47.02700 29.78800
H  33.41300 46.86200 31.72200
H  34.07600 45.38400 32.54600
H  33.24600 45.25500 31.12200

