158

Mg 0.12700 43.79000 26.75000
C  2.49800 43.57800 29.24500
C  -2.22700 42.65400 28.78700
C  -1.92000 43.41000 24.00300
C  2.72500 44.33300 24.54000
N  0.15400 43.14200 28.75900
C  1.18500 43.29700 29.66500
C  0.71400 43.00500 31.05800
C  -0.78000 42.54200 30.98500
C  -0.98900 42.79800 29.37400
C  -1.20800 41.18100 31.51400
C  0.81700 44.30700 31.95800
C  0.92600 44.15400 33.51500
H  0.84500 42.67300 34.08500
N  -1.90000 43.13400 26.50300
C  -2.71700 42.71400 27.46600
C  -4.03400 42.55100 26.92200
C  -3.98800 42.77300 25.51700
C  -2.60100 43.15000 25.26300
C  -5.28000 42.49000 27.77100
C  -5.09700 42.84000 24.48800
O  -4.90000 43.28400 23.35100
C  -6.48500 42.40900 24.80400
N  0.39000 43.83200 24.46800
C  -0.62700 43.65600 23.64400
C  -0.13300 43.92900 22.13500
C  1.33100 44.40000 22.34700
C  1.49600 44.12200 23.87000
C  -0.43900 42.79100 21.16500
C  1.69100 45.86500 21.91600
C  1.74300 47.01900 22.96700
N  2.19500 44.06100 26.86900
C  3.13700 44.21000 25.82400
C  4.51000 44.23200 26.34400
C  4.32600 43.93300 27.70300
C  2.89600 43.83800 27.94000
C  5.84100 44.39200 25.50100
C  4.94200 43.58700 29.02800
O  6.09700 43.36100 29.31300
C  3.79000 43.44000 30.05000
C  4.01700 42.05600 30.52300
O  3.87300 40.99600 29.91900
O  4.37600 42.15900 31.85700
C  4.91200 40.93800 32.48300
H  -2.98500 42.30100 29.49000
H  -2.64900 43.40200 23.19000
H  3.52600 44.64100 23.86500
H  1.33400 42.17900 31.40500
H  -1.34800 43.31800 31.50000
H  -1.58900 40.60800 30.66800
H  -2.03800 41.27600 32.21300
H  -0.44900 40.56200 31.99400
H  -0.07100 44.93900 31.97300
H  1.63000 45.00000 31.74200
H  0.03200 44.56700 33.98400
H  1.76900 44.70900 33.92500
H  -6.23900 42.80200 27.35800
H  -5.11700 42.98800 28.72600
H  -5.51600 41.44000 27.94600
H  -6.91500 42.13400 23.84100
H  -7.15500 43.17800 25.19000
H  -6.48200 41.51100 25.42000
H  -0.78200 44.75800 21.85100
H  2.01200 43.66400 21.92100
H  -0.36400 41.87400 21.74900
H  0.29300 42.67000 20.36600
H  -1.45300 43.01800 20.83800
H  0.92300 46.17800 21.20800
H  2.65200 45.84100 21.40300
H  2.77500 47.36500 23.02200
H  1.40400 46.75400 23.96900
H  1.11600 47.81100 22.55800
H  6.47800 43.54300 25.74900
H  6.30000 45.36900 25.65500
H  5.57500 44.39500 24.44400
H  3.72700 44.04500 30.95500
H  5.97100 41.04400 32.71900
H  4.94900 40.10300 31.78400
H  4.22500 40.74700 33.30800
Mg -4.37100 25.48200 26.21800
C  -2.74500 26.97900 28.96000
C  -5.43000 22.94600 28.32400
C  -5.42900 23.79400 23.54200
C  -2.75100 27.81400 24.12100
N  -4.19700 25.09400 28.39100
C  -3.52900 25.88200 29.32800
C  -3.94400 25.43000 30.67400
C  -4.35100 23.94600 30.43400
C  -4.64800 23.97100 28.91500
C  -3.35100 22.84800 30.88500
C  -5.15600 26.24500 31.29000
C  -5.07700 26.53500 32.76700
H  -4.69600 25.28800 33.66700
N  -5.33000 23.70900 25.94400
C  -5.71200 22.78000 26.95400
C  -6.37800 21.63000 26.27200
C  -6.08600 21.75000 24.91600
C  -5.57200 23.13700 24.76200
C  -6.89100 20.43000 27.07400
C  -6.36700 20.81400 23.83400
O  -5.99000 21.00300 22.67000
C  -7.07200 19.49900 24.09800
N  -4.24100 25.80000 24.19200
C  -4.85100 25.02000 23.31200
C  -4.74600 25.56500 21.86600
C  -3.91200 26.86900 21.95800
C  -3.57200 26.88000 23.50500
C  -4.19600 24.57900 20.82100
C  -4.68100 28.12900 21.55800
C  -4.78700 28.44100 20.05000
N  -3.10100 27.17300 26.49600
C  -2.44500 27.93200 25.53100
C  -1.53400 28.84300 26.18200
C  -1.63100 28.52100 27.52800
C  -2.57900 27.49900 27.65900
C  -0.53700 29.69100 25.40400
C  -1.04000 28.74700 28.85700
O  -0.17300 29.55200 29.14300
C  -1.82000 27.81300 29.82200
C  -0.83100 27.15500 30.81100
O  -0.31700 26.08500 30.65100
O  -0.69900 27.98100 31.88400
C  -0.14100 27.30200 33.05600
H  -5.63200 22.09100 28.97200
H  -5.91600 23.24300 22.73500
H  -2.28900 28.51200 23.42000
H  -3.09200 25.49500 31.35000
H  -5.31000 23.78500 30.92600
H  -2.38000 23.30100 31.08600
H  -3.22200 21.99500 30.22000
H  -3.58300 22.25100 31.76600
H  -6.06600 25.75200 30.94800
H  -5.24200 27.16200 30.70700
H  -6.09400 26.83600 33.01800
H  -4.40900 27.38900 32.87600
H  -7.98000 20.45000 27.03500
H  -6.70300 20.50000 28.14600
H  -6.45200 19.48200 26.76300
H  -6.38800 18.80100 24.57900
H  -7.41100 18.97700 23.20300
H  -7.86700 19.59600 24.83700
H  -5.70800 25.83700 21.43200
H  -2.95000 26.82900 21.44800
H  -3.41400 25.05200 20.22700
H  -4.86200 24.27800 20.01100
H  -3.91200 23.71500 21.42200
H  -4.22700 29.04000 21.94900
H  -5.70300 28.08500 21.93700
H  -4.13600 27.78100 19.47500
H  -4.57500 29.48400 19.81700
H  -5.84600 28.28500 19.84500
H  -0.02600 30.53200 25.87200
H  -1.16000 30.17200 24.65000
H  0.17100 29.05700 24.86800
H  -2.46200 28.46500 30.41500
H  -0.81700 27.37700 33.90800
H  0.77300 27.82300 33.33800
H  0.03700 26.22700 33.09700

