158

Mg 47.24800 16.42100 28.80800
C  45.33400 15.89900 31.58500
C  49.38400 18.51300 30.55400
C  48.79100 17.22600 26.00500
C  44.79200 14.78100 26.83500
N  47.26300 17.24800 30.82900
C  46.42600 16.76600 31.83400
C  46.97400 17.26900 33.21000
C  48.11800 18.35800 32.79500
C  48.30500 18.02800 31.26000
C  47.75300 19.82100 33.03000
C  47.59300 16.09900 34.04200
C  47.41800 16.25700 35.52000
H  47.20700 17.68900 36.12100
N  48.94100 17.58400 28.36200
C  49.78200 18.23400 29.21400
C  50.89000 18.78200 28.51200
C  50.67900 18.50600 27.13300
C  49.40900 17.71800 27.12800
C  52.06800 19.38900 29.22500
C  51.45600 18.89900 25.92500
O  51.13300 18.61000 24.76000
C  52.61600 19.78800 26.07100
N  46.86600 15.98100 26.64300
C  47.69700 16.39600 25.75000
C  47.23100 16.05400 24.35900
C  45.96900 15.09500 24.63400
C  45.93600 15.19300 26.13800
C  47.03400 17.25100 23.45600
C  46.02900 13.57400 24.17000
C  45.25000 13.34900 22.89100
N  45.44200 15.56600 29.08800
C  44.51900 15.00000 28.19400
C  43.28700 14.65100 28.96600
C  43.62200 14.90500 30.28600
C  44.92600 15.48400 30.28300
C  42.03800 14.17700 28.44600
C  43.15600 14.86800 31.66800
O  42.13600 14.43900 32.13800
C  44.26700 15.53600 32.53700
C  43.71700 16.76000 33.10000
O  43.59700 17.82900 32.50800
O  43.34600 16.66900 34.44100
C  42.75500 17.91400 35.09400
H  49.96500 19.15500 31.22000
H  49.22300 17.49900 25.04000
H  43.92400 14.41000 26.28600
H  46.11800 17.73000 33.70200
H  49.00100 18.06200 33.36100
H  46.68300 20.00900 33.11100
H  48.19200 20.47000 32.27200
H  48.16000 20.04200 34.01700
H  48.64200 16.02100 33.75600
H  47.01500 15.20900 33.79100
H  48.14900 15.71600 36.12100
H  46.52400 15.69300 35.78800
H  52.91900 18.75000 28.99200
H  52.00100 19.34400 30.31200
H  52.27800 20.35100 28.75600
H  52.26500 20.72800 26.49700
H  53.14100 19.96800 25.13300
H  53.39400 19.44700 26.75300
H  48.04400 15.43800 23.97600
H  45.05700 15.54800 24.24500
H  47.15900 18.17000 24.02900
H  46.01800 17.19000 23.06700
H  47.67700 17.20100 22.57700
H  45.71400 12.96600 25.01800
H  47.01600 13.18300 23.92300
H  45.83500 12.69100 22.24800
H  44.80500 14.24900 22.46700
H  44.48300 12.61000 23.12300
H  41.17900 14.61300 28.95400
H  42.06200 13.08900 28.37800
H  41.84000 14.48900 27.42100
H  44.45400 14.83700 33.35200
H  41.99100 18.47900 34.55900
H  43.62300 18.54100 35.29900
H  42.34400 17.69000 36.07800
Mg 5.93800 55.12200 40.76800
C  3.46900 52.66900 41.20200
C  7.88900 52.81600 39.21300
C  8.17600 57.53300 40.07900
C  3.57600 57.42900 41.77000
N  5.56200 53.10800 39.97000
C  4.56700 52.23800 40.39700
C  4.69700 50.93100 39.66800
C  6.24500 50.92400 39.29400
C  6.62600 52.36800 39.56000
C  7.13400 49.99300 40.16400
C  3.92500 50.78400 38.36600
C  3.74100 49.23300 37.89000
H  4.63700 48.76200 36.85200
N  7.66400 55.23100 39.56500
C  8.37000 54.15200 39.16000
C  9.74700 54.49700 38.76600
C  9.87900 55.85400 39.03900
C  8.54200 56.25400 39.62100
C  10.76600 53.42900 38.37500
C  11.17500 56.66300 38.91700
O  12.23600 56.10800 38.70000
C  11.29600 58.13600 39.03000
N  5.90500 57.12000 40.87200
C  6.97800 57.87500 40.67700
C  6.76600 59.29400 41.21600
C  5.17500 59.39100 41.34200
C  4.86500 57.88500 41.32200
C  7.49200 59.52800 42.63100
C  4.34200 60.24000 40.28400
C  4.09100 61.74600 40.61400
N  3.90300 55.10100 41.48000
C  3.06200 56.13200 41.83100
C  1.82600 55.63000 42.29500
C  2.02600 54.24600 42.18300
C  3.27200 53.95000 41.68800
C  0.58000 56.41800 42.74600
C  1.34600 52.93500 42.33100
O  0.22500 52.66600 42.74000
C  2.38800 51.88200 41.91600
C  1.63400 50.91500 41.11900
O  1.07000 51.05800 40.06200
O  1.66300 49.79400 41.92800
C  1.08500 48.63600 41.29500
H  8.54300 52.01700 38.85900
H  9.01900 58.21900 39.97500
H  2.85700 58.19000 42.07900
H  4.40100 50.12400 40.33800
H  6.43100 50.63900 38.25800
H  7.63100 49.24600 39.54600
H  6.55100 49.38600 40.85700
H  7.81700 50.57300 40.78600
H  4.57200 51.20200 37.59600
H  2.94100 51.24700 38.44200
H  2.68700 49.25600 37.61300
H  3.78200 48.71500 38.84800
H  11.63900 53.68700 37.77700
H  10.20600 52.71400 37.77200
H  10.97200 52.75300 39.20500
H  12.17400 58.51600 38.50900
H  11.17900 58.49300 40.05300
H  10.43700 58.61400 38.56100
H  7.11200 60.00600 40.46600
H  4.84200 59.77800 42.30500
H  6.90500 59.08500 43.43600
H  7.75700 60.56500 42.83800
H  8.46000 59.02700 42.65100
H  3.36900 59.75600 40.19400
H  4.95700 60.15000 39.38900
H  3.03700 61.88700 40.37700
H  4.72800 62.50700 40.16400
H  4.12300 61.85900 41.69700
H  0.62400 57.48800 42.54300
H  0.47700 56.32100 43.82700
H  -0.32300 56.12900 42.20700
H  2.69100 51.42100 42.85600
H  0.14100 48.94400 40.84500
H  0.95000 47.90400 42.09100
H  1.81000 48.34600 40.53400

