158

Mg 43.83600 3.71700 47.75100
C  41.54900 6.40200 47.12300
C  41.14200 1.49300 47.15700
C  46.00700 1.13000 47.47400
C  46.37700 6.13100 47.32000
N  41.68000 3.93500 47.11000
C  40.96700 5.05600 46.99500
C  39.54500 4.81100 46.81500
C  39.38200 3.27900 46.99000
C  40.83800 2.84600 47.21500
C  38.43100 2.84600 48.19900
C  39.02200 5.26400 45.41200
C  37.67800 5.97300 45.26000
H  37.01800 5.86100 43.93300
N  43.62500 1.58900 47.53100
C  42.47200 0.93500 47.28800
C  42.74300 -0.48000 47.31500
C  44.17700 -0.63700 47.32100
C  44.67800 0.72800 47.51000
C  41.71200 -1.56200 47.24300
C  44.92700 -2.00500 47.14200
O  44.40100 -2.99100 46.70800
C  46.41700 -2.14100 47.50300
N  45.92300 3.66000 47.43000
C  46.60200 2.46000 47.51500
C  48.12300 2.66400 47.36800
C  48.26500 4.23500 47.38400
C  46.80100 4.73800 47.32000
C  48.96000 1.95300 48.46000
C  49.06700 4.87000 46.23400
C  50.63300 4.65800 46.23300
N  43.98800 5.85700 47.43700
C  45.05300 6.61300 47.30800
C  44.70500 7.94400 47.06700
C  43.29100 7.96000 47.06900
C  42.92400 6.61900 47.22400
C  45.71000 9.06000 46.85000
C  42.03600 8.77500 46.96300
O  41.92000 9.96500 46.78100
C  40.82500 7.71000 47.00100
C  39.84300 7.91000 48.06100
O  39.98300 7.63600 49.27900
O  38.62800 8.29800 47.48900
C  37.49200 7.87800 48.35900
H  40.34100 0.79200 46.91500
H  46.73100 0.32100 47.35200
H  47.24900 6.77600 47.44300
H  38.98000 5.34900 47.57600
H  39.13100 2.65100 46.13500
H  38.04200 3.75600 48.65500
H  38.96800 2.36100 49.01400
H  37.76800 2.16300 47.66800
H  39.03300 4.40600 44.74000
H  39.77400 5.94200 45.00700
H  37.80800 7.04500 45.40600
H  36.96400 5.64500 46.01500
H  42.01100 -2.50000 47.71200
H  41.71700 -1.76000 46.17100
H  40.72200 -1.29100 47.61000
H  46.82500 -1.48000 48.26800
H  46.93000 -2.09600 46.54300
H  46.61800 -3.11300 47.95200
H  48.42600 2.38100 46.36000
H  48.74300 4.66100 48.26600
H  48.26200 1.77100 49.27700
H  49.58200 2.72400 48.91600
H  49.45300 1.06100 48.07400
H  48.82300 5.92700 46.12300
H  48.63800 4.32800 45.39200
H  50.97200 4.18700 47.15500
H  51.03800 5.66900 46.19200
H  51.01300 4.08800 45.38500
H  46.53800 9.06500 47.55900
H  45.26800 10.05100 46.95100
H  46.16200 8.94200 45.86500
H  40.36600 7.81800 46.01900
H  37.29300 8.70100 49.04600
H  37.61100 6.89200 48.80800
H  36.58600 7.64100 47.80200
Mg 9.03200 48.64100 26.16100
C  7.06300 48.72500 29.11200
C  11.58300 49.65500 28.15800
C  10.93900 48.74300 23.42600
C  6.17300 48.32200 24.27000
N  9.21500 49.24300 28.38200
C  8.35100 49.13800 29.45600
C  8.98900 49.39500 30.82100
C  10.41500 49.93300 30.34800
C  10.35500 49.66700 28.83200
C  10.76900 51.41000 30.74500
C  9.12700 48.15800 31.75800
C  8.40100 48.30300 33.07800
H  8.45100 47.02500 34.01600
N  11.07400 48.98500 25.90200
C  12.00400 49.38700 26.80000
C  13.33400 49.39100 26.18200
C  13.10800 49.02700 24.81800
C  11.64100 48.92100 24.66600
C  14.61200 49.63700 26.98100
C  14.13900 48.68700 23.67400
O  13.89100 48.19700 22.55800
C  15.58200 48.96500 23.92100
N  8.60100 48.76700 24.16900
C  9.57300 48.60600 23.17500
C  8.99800 48.22200 21.74200
C  7.46600 48.14300 22.07800
C  7.41500 48.37000 23.57700
C  9.39600 49.09300 20.52900
C  6.78800 46.78500 21.74600
C  7.01900 46.31600 20.37200
N  7.00500 48.61500 26.49000
C  5.96200 48.43100 25.64900
C  4.73900 48.49700 26.38000
C  5.10100 48.47300 27.73100
C  6.54000 48.55800 27.75800
C  3.41600 48.47900 25.79000
C  4.64100 48.43400 29.07000
O  3.45200 48.45900 29.46300
C  5.92100 48.37600 30.05100
C  5.93100 46.96500 30.58100
O  6.21500 45.95400 29.91500
O  5.39000 46.90000 31.80700
C  5.50100 45.62300 32.54100
H  12.45200 49.89600 28.77500
H  11.50900 48.55900 22.51300
H  5.28200 48.43300 23.64800
H  8.45900 50.20200 31.32600
H  11.24400 49.32600 30.71100
H  11.73200 51.42900 31.25400
H  9.95500 51.81200 31.34800
H  10.76100 51.98700 29.82000
H  10.18900 47.99300 31.94100
H  8.68600 47.31200 31.23100
H  7.32300 48.45600 33.01900
H  8.78100 49.10900 33.70500
H  14.35500 49.48500 28.03000
H  14.99700 50.60800 26.67100
H  15.34700 48.86200 26.76600
H  15.67500 49.84600 24.55600
H  16.12500 49.11300 22.98700
H  15.88800 48.02300 24.37400
H  9.45200 47.25300 21.53400
H  6.82700 48.86800 21.57500
H  9.53700 48.31900 19.77400
H  10.33400 49.61200 20.73000
H  8.57200 49.79000 20.37700
H  5.72100 46.86900 21.95200
H  7.22900 46.03100 22.39600
H  6.22800 45.78800 19.83900
H  7.82200 45.58000 20.32700
H  7.24400 47.20400 19.78200
H  3.00000 47.52200 25.47800
H  3.28900 49.24900 25.02900
H  2.79500 48.73500 26.64800
H  5.71300 48.94200 30.96000
H  5.56400 45.90900 33.59100
H  6.35200 45.00000 32.26800
H  4.55800 45.08700 32.43100

