158

Mg 9.08100 3.76300 28.09700
C  10.55100 2.63300 31.04800
C  7.63700 6.29700 30.06700
C  7.38100 4.86100 25.40200
C  10.60800 1.23200 26.32600
N  8.99100 4.38300 30.36700
C  9.69000 3.75300 31.26800
C  9.48600 4.27300 32.70900
C  8.41900 5.33700 32.39700
C  8.33100 5.33900 30.86400
C  7.05300 5.13300 33.09800
C  10.79300 4.87100 33.32000
C  11.27000 4.34700 34.73400
H  11.81500 5.53200 35.64400
N  7.62300 5.24500 27.79900
C  7.20500 6.22100 28.69500
C  6.31600 7.15500 27.99600
C  6.18200 6.61400 26.69100
C  7.07000 5.51800 26.57600
C  5.52200 8.21500 28.67300
C  5.26100 7.07300 25.55000
O  5.04200 6.41100 24.59200
C  4.38100 8.27700 25.81300
N  8.68100 2.84800 26.19300
C  8.17500 3.67800 25.24500
C  8.65100 3.22500 23.79800
C  9.66600 2.15500 24.10800
C  9.67800 2.02700 25.64300
C  7.47100 2.86800 22.83800
C  11.14400 2.53900 23.57700
C  12.08400 1.33600 23.25900
N  10.21000 2.21300 28.57000
C  10.78900 1.26800 27.74400
C  11.60900 0.36000 28.55100
C  11.55200 0.87500 29.83200
C  10.68600 1.98400 29.85600
C  12.42800 -0.69300 28.03700
C  12.03000 0.63000 31.15700
O  12.83600 -0.27600 31.56000
C  11.40400 1.81500 32.06100
C  10.66900 1.17300 33.23500
O  9.48500 0.93700 33.31500
O  11.59500 0.68000 34.09600
C  11.10200 -0.02500 35.27400
H  7.15300 6.96100 30.78700
H  6.96600 5.15200 24.43500
H  11.19900 0.43000 25.87800
H  9.04100 3.48900 33.32200
H  8.75800 6.34400 32.64100
H  6.69800 6.14500 33.29500
H  7.32300 4.64400 34.03400
H  6.39100 4.57000 32.43900
H  10.75000 5.96000 33.34800
H  11.59200 4.58200 32.63700
H  12.00700 3.57900 34.50200
H  10.54100 3.68600 35.20200
H  4.49800 7.90300 28.88000
H  5.58000 9.10800 28.05100
H  6.03400 8.36000 29.62400
H  3.82100 8.55900 24.92000
H  4.91000 9.22800 25.85800
H  3.75200 8.12400 26.69000
H  9.16600 4.07300 23.34700
H  9.40700 1.15300 23.76500
H  6.53200 3.22900 23.25700
H  7.38900 1.78200 22.79200
H  7.58400 3.25800 21.82600
H  11.68500 3.19100 24.26300
H  11.02500 3.06000 22.62700
H  12.38600 1.46700 22.22000
H  11.67300 0.33700 23.40000
H  12.90200 1.38500 23.97800
H  12.46700 -1.51400 28.75300
H  13.35000 -0.33600 27.57900
H  11.80600 -1.11000 27.24500
H  12.26600 2.29800 32.52100
H  10.68000 -0.90300 34.78500
H  10.29100 0.59400 35.65800
H  11.90100 -0.34600 35.94300
Mg 53.96100 24.56600 43.44200
C  51.36300 26.75800 42.86200
C  52.08100 22.11900 41.87400
C  56.89600 22.73600 42.69000
C  55.89600 27.20700 44.33800
N  52.02500 24.55100 42.37300
C  51.11200 25.48800 42.39000
C  49.77200 25.05600 41.83100
C  49.91500 23.56400 41.94500
C  51.42900 23.36200 42.06900
C  49.19800 23.07800 43.25200
C  49.46800 25.46100 40.30700
C  50.49700 24.98000 39.24600
H  50.85600 25.80100 37.98700
N  54.42600 22.59400 42.61100
C  53.46500 21.76400 42.04700
C  54.06900 20.56200 41.69000
C  55.46000 20.67900 42.00800
C  55.68000 22.04700 42.45200
C  53.33900 19.40400 41.10000
C  56.50300 19.55800 41.82000
O  56.14800 18.48700 41.33000
C  58.00400 19.59700 42.19800
N  56.13600 24.98000 43.35200
C  57.09800 24.04500 43.15600
C  58.51500 24.64600 43.33500
C  58.17700 26.07900 43.84200
C  56.65400 26.10100 43.87000
C  59.31000 23.76800 44.39600
C  58.86300 27.24300 43.07500
C  59.84400 28.33300 43.66700
N  53.66000 26.51600 43.82700
C  54.51800 27.50000 44.27700
C  53.80800 28.72500 44.49400
C  52.54800 28.44900 44.00300
C  52.55900 27.10700 43.48200
C  54.23100 30.01000 45.07600
C  51.26000 29.03500 43.68700
O  50.74100 30.15200 43.99800
C  50.47100 27.99500 42.92200
C  50.24000 28.50700 41.51600
O  51.10800 28.64700 40.64500
O  48.84900 28.72100 41.25800
C  48.42500 28.86800 39.89400
H  51.36000 21.32300 41.67700
H  57.80600 22.15300 42.53200
H  56.35100 28.12400 44.71700
H  48.95200 25.47500 42.41500
H  49.59900 23.08800 41.01600
H  48.96100 22.01500 43.21100
H  48.28400 23.64000 43.44400
H  49.90300 23.10000 44.08300
H  49.37700 26.54700 40.29900
H  48.50300 25.10500 39.94500
H  50.02000 24.11300 38.78900
H  51.50500 24.88700 39.65000
H  53.71200 18.52700 41.62900
H  53.58600 19.20700 40.05600
H  52.29700 19.32300 41.40900
H  58.03300 20.08900 43.17000
H  58.46700 20.29200 41.49800
H  58.44600 18.60100 42.19000
H  58.91100 24.57100 42.32200
H  58.51300 26.23400 44.86700
H  59.67700 22.80000 44.05200
H  58.71900 23.84100 45.30800
H  60.23600 24.27000 44.67700
H  58.06300 27.74200 42.52800
H  59.35800 26.67700 42.28600
H  60.51900 27.92500 44.42000
H  59.21400 29.12000 44.08000
H  60.48100 28.82000 42.92900
H  53.91900 30.17500 46.10700
H  53.74900 30.75900 44.44800
H  55.28100 30.29500 45.01200
H  49.53300 27.84400 43.45700
H  48.04600 29.87900 39.74400
H  47.69000 28.07900 39.73600
H  49.21500 28.73100 39.15600

