158

Mg 17.02100 -1.86100 28.42500
C  16.13900 0.05000 31.16100
C  19.08900 -3.80500 30.51700
C  18.25500 -3.52700 25.74100
C  15.22800 0.17900 26.44900
N  17.52200 -1.85000 30.68100
C  16.99100 -1.00900 31.61200
C  17.48200 -1.38100 33.00000
C  18.59900 -2.51400 32.71700
C  18.38700 -2.74800 31.18900
C  20.00600 -2.11400 33.12200
C  16.30800 -1.82500 33.83500
C  16.38800 -1.73000 35.38400
H  17.77800 -1.84500 36.09500
N  18.27200 -3.58300 28.18500
C  19.10300 -4.13500 29.21600
C  19.89400 -5.16100 28.63200
C  19.61500 -5.22400 27.21300
C  18.69800 -4.08800 26.99600
C  20.76900 -6.05700 29.42100
C  20.20900 -6.05300 26.08900
O  19.91200 -5.86300 24.90100
C  21.12200 -7.16600 26.46400
N  16.90200 -1.63200 26.47200
C  17.38600 -2.48600 25.53100
C  17.17700 -1.87400 24.15300
C  16.00600 -0.84900 24.42500
C  16.01500 -0.78700 25.86900
C  18.47600 -1.33800 23.45000
C  14.56300 -1.13800 23.75600
C  14.28800 -0.11200 22.64700
N  15.92800 -0.18000 28.73200
C  15.21600 0.52600 27.77300
C  14.48500 1.53300 28.43800
C  14.77900 1.37000 29.80100
C  15.70500 0.31000 29.86500
C  13.72800 2.57600 27.71800
C  14.62700 1.96000 31.09600
O  13.88900 2.81600 31.52400
C  15.56600 1.16200 32.05200
C  16.57100 1.97400 32.66700
O  17.50400 2.49400 32.12900
O  16.40000 1.92200 34.04200
C  17.35100 2.59800 34.93300
H  19.74500 -4.25100 31.26700
H  18.64300 -4.05000 24.86400
H  14.51500 0.70800 25.81300
H  17.89900 -0.51100 33.50700
H  18.41000 -3.40600 33.31400
H  20.31000 -2.70100 33.98900
H  20.12600 -1.07100 33.41400
H  20.68000 -2.37800 32.30700
H  16.13300 -2.86800 33.57200
H  15.46600 -1.31300 33.37000
H  15.77200 -2.51700 35.81900
H  15.87100 -0.81700 35.68100
H  21.07900 -5.54100 30.33000
H  21.72200 -6.29100 28.94800
H  20.28700 -6.98300 29.73500
H  22.06300 -6.79900 26.87300
H  21.41600 -7.80000 25.62800
H  20.69200 -7.80000 27.23900
H  16.84600 -2.68600 23.50600
H  16.40200 0.09200 24.04100
H  19.35400 -1.39700 24.09300
H  18.29500 -0.27900 23.26500
H  18.70500 -1.90000 22.54500
H  13.68500 -1.15500 24.40200
H  14.60400 -2.15100 23.35400
H  14.96100 -0.33200 21.81900
H  14.45400 0.92400 22.94500
H  13.24900 -0.24400 22.34700
H  12.98000 2.04100 27.13200
H  14.27600 3.24000 27.05100
H  13.28100 3.08500 28.57200
H  14.89400 0.72400 32.79000
H  16.71600 2.89500 35.76800
H  17.79300 3.41100 34.35600
H  18.12900 1.90000 35.24100
Mg -10.89900 15.13900 42.52100
C  -7.67500 13.65500 41.94200
C  -10.12800 17.65300 40.46800
C  -14.15800 15.99600 42.71300
C  -11.80500 12.01400 44.15200
N  -9.06300 15.48900 41.31900
C  -7.82100 14.88700 41.28900
C  -6.89200 15.61000 40.25800
C  -7.68900 16.91600 40.00800
C  -9.08200 16.66400 40.58300
C  -6.95000 18.14000 40.64300
C  -6.40500 14.78500 39.01700
C  -4.95200 14.81500 38.81300
H  -4.38600 15.72400 37.67200
N  -11.99400 16.66500 41.74900
C  -11.49800 17.60800 40.90000
C  -12.44400 18.62600 40.75400
C  -13.60500 18.23900 41.47800
C  -13.35900 16.87100 41.99400
C  -12.22100 19.94600 40.02000
C  -14.93900 19.00800 41.50500
O  -15.00000 20.14600 41.04100
C  -16.18300 18.46700 42.17500
N  -12.73300 14.02000 43.28300
C  -13.89800 14.74600 43.30200
C  -14.94700 14.02600 44.20800
C  -14.28500 12.62600 44.55900
C  -12.85400 12.90300 44.00400
C  -15.26100 14.83800 45.48600
C  -14.95700 11.47400 43.81100
C  -15.08900 10.16900 44.76000
N  -9.87400 13.31100 43.20400
C  -10.46000 12.13600 43.73600
C  -9.36200 11.18500 43.95700
C  -8.27900 11.73100 43.18700
C  -8.66200 13.03000 42.76600
C  -9.44800 9.89700 44.75800
C  -6.92700 11.50600 42.62800
O  -6.20000 10.50000 42.72500
C  -6.42600 12.82300 41.94000
C  -5.39300 13.48600 42.78400
O  -5.35200 13.37700 44.04700
O  -4.44000 14.10100 41.98200
C  -3.56600 14.97600 42.67100
H  -9.67800 18.53500 40.00700
H  -15.17600 16.32800 42.92800
H  -12.00100 11.13900 44.77500
H  -6.04700 15.82800 40.91200
H  -7.70700 17.19700 38.95500
H  -7.44300 18.48200 41.55300
H  -6.90300 18.98100 39.95200
H  -5.88700 18.03800 40.86100
H  -6.78500 15.33900 38.15900
H  -6.81100 13.77400 39.01900
H  -4.57400 13.82200 38.57200
H  -4.36900 15.17900 39.65900
H  -11.16400 20.14600 39.84400
H  -12.63900 20.67300 40.71600
H  -12.80300 19.91500 39.09800
H  -16.91300 19.26800 42.29400
H  -15.84200 18.23300 43.18300
H  -16.67700 17.67000 41.62000
H  -15.87900 13.86300 43.66600
H  -14.16900 12.48900 45.63400
H  -14.76500 15.79500 45.64700
H  -15.12100 14.29900 46.42300
H  -16.30300 15.15400 45.53300
H  -14.37300 11.13600 42.95500
H  -15.96000 11.73300 43.47300
H  -15.98200 9.57700 44.55900
H  -14.97100 10.41200 45.81600
H  -14.28000 9.46000 44.58300
H  -9.37100 9.89400 45.84500
H  -8.65300 9.29900 44.31400
H  -10.40800 9.51300 44.41200
H  -5.99200 12.52500 40.98600
H  -2.96500 14.52200 43.45800
H  -4.14200 15.70100 43.24600
H  -2.82500 15.41800 42.00400

