158

Mg 17.60600 -0.55900 27.31000
C  16.16600 1.07100 30.09000
C  19.36700 -2.57200 29.33000
C  18.68700 -1.78900 24.58600
C  15.80800 1.83800 25.28500
N  17.81700 -0.64300 29.53800
C  17.08300 0.05300 30.48700
C  17.62400 -0.34300 31.95600
C  18.65200 -1.55900 31.59400
C  18.61800 -1.67900 30.06100
C  20.09700 -1.38000 32.07000
C  16.54200 -0.72900 33.02200
C  16.56300 -0.04300 34.43400
H  17.84300 0.60500 34.99600
N  18.86200 -1.96000 27.03300
C  19.45700 -2.70600 27.98200
C  20.33600 -3.64800 27.28100
C  20.12000 -3.53700 25.89800
C  19.13000 -2.39800 25.77700
C  21.21300 -4.70300 28.03500
C  20.42200 -4.44500 24.76200
O  20.00200 -4.19100 23.64800
C  21.26800 -5.69800 25.03500
N  17.38300 0.07800 25.23700
C  17.86400 -0.69400 24.31600
C  17.77900 -0.14300 22.87100
C  16.67800 1.02700 23.15400
C  16.68500 1.04900 24.64400
C  19.24300 0.40500 22.41800
C  15.27000 0.79100 22.48100
C  14.20300 -0.09300 23.19700
N  16.21600 1.04400 27.54200
C  15.58200 1.90100 26.63600
C  14.71000 2.73200 27.31000
C  14.84600 2.43600 28.68500
C  15.79800 1.39700 28.72800
C  13.87300 3.69100 26.69800
C  14.39100 2.74900 30.04800
O  13.51700 3.52400 30.50100
C  15.33100 1.97500 30.98000
C  16.22700 2.82300 31.74000
O  17.29100 3.33100 31.41300
O  15.53600 3.13800 32.87400
C  16.21600 4.03700 33.78500
H  20.09300 -3.19100 29.86000
H  18.99700 -2.15400 23.60500
H  15.18000 2.50000 24.68300
H  18.27700 0.44600 32.32900
H  18.27400 -2.53200 31.90800
H  20.38700 -2.33900 32.49700
H  20.22600 -0.50500 32.70800
H  20.78600 -1.15400 31.25600
H  16.52500 -1.79600 33.24300
H  15.54400 -0.66300 32.58900
H  16.25500 -0.73700 35.21700
H  15.77300 0.68900 34.26600
H  22.14800 -4.76200 27.47900
H  20.64000 -5.62900 28.08800
H  21.56900 -4.32500 28.99300
H  22.28500 -5.32800 25.16600
H  21.19800 -6.28900 24.12200
H  21.02900 -6.28500 25.92300
H  17.45200 -0.94700 22.21100
H  17.04100 2.00200 22.82800
H  20.07100 0.21400 23.10100
H  19.17600 1.47500 22.22100
H  19.51600 -0.11200 21.49800
H  15.37600 0.40100 21.46900
H  14.87900 1.77400 22.22100
H  13.48700 -0.53100 22.50200
H  13.59500 0.59500 23.78300
H  14.69300 -0.93300 23.69000
H  14.40400 4.51600 26.22400
H  13.32800 4.21100 27.48600
H  13.23000 3.34200 25.89000
H  14.81900 1.29700 31.66300
H  15.54400 4.77200 34.22900
H  17.01900 4.58600 33.29300
H  16.71000 3.42700 34.54100
Mg 36.43800 49.77400 24.61300
C  36.99300 48.32900 27.57100
C  34.95500 52.55900 26.25900
C  35.56000 51.09500 21.58400
C  37.55700 46.94300 22.91400
N  36.15000 50.39500 26.71600
C  36.36600 49.61400 27.79800
C  35.99300 50.29600 29.10700
C  35.05400 51.42900 28.60500
C  35.42300 51.51600 27.10100
C  33.52300 51.26400 29.06200
C  37.19000 50.76200 29.96600
C  37.31900 50.23900 31.41500
H  36.06800 50.12300 32.21400
N  35.58600 51.65400 24.01400
C  35.03600 52.65400 24.82900
C  34.55300 53.75400 24.01200
C  34.56700 53.29000 22.63600
C  35.33300 51.98200 22.68600
C  34.01100 55.05100 24.58400
C  34.01400 53.92300 21.34500
O  34.04200 53.28500 20.25300
C  33.51500 55.37300 21.49100
N  36.50500 49.08400 22.55100
C  36.11700 49.81600 21.53200
C  36.34900 49.10400 20.08600
C  37.11500 47.85100 20.48600
C  37.01500 47.90600 22.12600
C  35.02700 48.89600 19.36100
C  38.60800 47.65200 19.98900
C  39.61600 48.77200 20.39500
N  37.04100 47.98300 25.11200
C  37.55100 46.94600 24.33700
C  37.95800 45.83200 25.15400
C  37.72800 46.34700 26.52600
C  37.19700 47.65800 26.39600
C  38.33800 44.42400 24.70800
C  37.88000 45.98000 27.90000
O  38.14100 44.90500 28.46700
C  37.43000 47.30600 28.64200
C  36.29600 46.79700 29.54400
O  35.11300 46.72400 29.28300
O  36.87500 46.37800 30.77500
C  35.94300 45.78200 31.70900
H  34.55400 53.42000 26.79900
H  35.15500 51.40600 20.61900
H  37.81400 46.01000 22.40800
H  35.43500 49.50900 29.61400
H  35.33700 52.39300 29.02900
H  33.30300 52.24700 29.47800
H  33.35700 50.45800 29.77600
H  32.88200 51.06600 28.20300
H  37.23400 51.84500 30.08500
H  38.09200 50.48500 29.42000
H  38.08000 50.82000 31.93800
H  37.70600 49.22000 31.42900
H  34.61800 55.88200 24.22500
H  34.07600 55.01900 25.67100
H  32.96300 55.09500 24.28800
H  32.68700 55.32800 22.20000
H  33.24200 55.80600 20.52900
H  34.31000 56.00800 21.88300
H  36.93200 49.84600 19.53900
H  36.57900 46.98500 20.09800
H  34.15100 49.10800 19.97400
H  35.00400 47.83800 19.09900
H  34.81000 49.42600 18.43400
H  38.58800 47.62000 18.89900
H  38.91800 46.62700 20.19200
H  39.07300 49.59600 20.85900
H  40.10600 49.12000 19.48600
H  40.21500 48.48600 21.26000
H  38.41000 44.28400 23.63000
H  37.72000 43.65300 25.16900
H  39.39800 44.34800 24.94700
H  38.22700 47.50700 29.35800
H  35.09100 46.46200 31.72600
H  36.38700 45.65600 32.69600
H  35.60200 44.80700 31.36200

