158

Mg 35.80700 0.88500 29.44000
C  33.38500 2.09900 31.80900
C  38.11300 0.92700 31.86400
C  37.95400 0.28500 27.03900
C  33.28800 1.46500 26.97600
N  35.75900 1.50000 31.57600
C  34.67800 1.91200 32.34200
C  35.15000 2.01100 33.84000
C  36.67900 1.86200 33.74900
C  36.90600 1.40900 32.33400
C  37.45100 3.13500 34.06600
C  34.46500 0.93300 34.65300
C  34.14400 1.12900 36.12300
H  34.35300 2.50600 36.67000
N  37.78200 0.64000 29.44500
C  38.52200 0.57200 30.57400
C  39.76200 0.02300 30.18200
C  39.81900 -0.20600 28.78000
C  38.47500 0.20200 28.34700
C  40.84200 -0.20600 31.22400
C  40.89200 -0.69600 27.88700
O  40.90200 -0.71600 26.67100
C  42.20200 -1.05800 28.54400
N  35.70800 0.96500 27.30700
C  36.76400 0.60900 26.56700
C  36.28900 0.54900 25.10800
C  34.72000 0.76300 25.11200
C  34.58300 1.11400 26.54200
C  37.01700 1.60200 24.24800
C  33.93900 -0.43400 24.59300
C  32.90400 -0.08100 23.52800
N  33.75900 1.47700 29.35100
C  32.88800 1.76500 28.27700
C  31.60500 2.12500 28.72500
C  31.79100 2.35400 30.10800
C  33.06400 1.95600 30.44500
C  30.38100 2.49700 27.90200
C  31.07900 2.80200 31.22400
O  29.96600 3.26900 31.39500
C  32.09600 2.66800 32.49000
C  32.29300 4.00100 33.16200
O  33.11400 4.87500 32.85100
O  31.45400 4.14100 34.22900
C  31.46900 5.46600 34.91400
H  38.86500 0.92500 32.65700
H  38.64500 -0.14600 26.31100
H  32.46700 1.51000 26.25800
H  34.93400 3.00800 34.22200
H  36.94000 0.99200 34.35200
H  36.83400 4.02000 34.22200
H  38.12800 3.42200 33.26100
H  38.02400 2.88600 34.95900
H  35.11500 0.05900 34.62100
H  33.49400 0.72000 34.20700
H  34.74400 0.44900 36.72800
H  33.09000 0.86800 36.21700
H  41.84500 -0.05800 30.82600
H  40.74200 -1.24700 31.53100
H  40.73700 0.34900 32.15700
H  42.20100 -1.62100 29.47700
H  42.93300 -0.26800 28.71200
H  42.57500 -1.78600 27.82300
H  36.54900 -0.41200 24.66500
H  34.51900 1.69900 24.59200
H  37.00600 1.29400 23.20300
H  38.04100 1.62400 24.62100
H  36.68200 2.60900 24.49800
H  33.41100 -0.83000 25.46000
H  34.57300 -1.21900 24.18100
H  32.18600 0.64000 23.92000
H  32.27200 -0.89600 23.17500
H  33.36600 0.26600 22.60400
H  30.11900 1.56300 27.40500
H  30.63500 3.18000 27.09200
H  29.52000 2.77300 28.51100
H  31.69700 1.92300 33.17800
H  30.41000 5.71200 34.83700
H  32.18800 6.16600 34.48900
H  31.68900 5.32900 35.97300
Mg -2.03500 34.50600 27.20200
C  -3.26400 32.06000 29.54800
C  -0.91100 36.27100 29.90500
C  -0.52800 36.63800 24.97700
C  -3.05600 32.52900 24.59100
N  -1.88800 34.07000 29.46500
C  -2.41700 33.01200 30.16800
C  -2.31700 33.21600 31.64600
C  -1.66900 34.61800 31.75200
C  -1.45900 35.05200 30.23700
C  -2.52400 35.68600 32.53900
C  -1.49800 32.11300 32.31600
C  -2.01500 31.47600 33.62500
H  -1.14800 31.71700 34.96200
N  -0.92100 36.23500 27.41300
C  -0.59300 36.80900 28.60300
C  0.32200 37.86700 28.30400
C  0.32400 38.08600 26.88900
C  -0.38300 36.94600 26.36500
C  1.10200 38.70500 29.36300
C  0.90800 39.24200 26.07900
O  0.79400 39.46700 24.90900
C  2.06500 40.11300 26.67300
N  -2.06900 34.69300 25.15500
C  -1.31800 35.63600 24.47600
C  -1.30800 35.40300 22.99000
C  -2.13000 34.08400 22.81100
C  -2.46800 33.74300 24.24900
C  -1.87700 36.62900 22.13000
C  -1.42200 32.89500 21.97000
C  -0.39400 31.92500 22.65800
N  -3.05500 32.73100 27.09300
C  -3.45800 32.10200 25.95600
C  -4.17300 30.85900 26.31900
C  -4.09700 30.80900 27.69800
C  -3.42400 31.95100 28.16600
C  -4.74200 29.88400 25.36400
C  -4.49600 30.07800 28.88900
O  -5.24100 29.12100 28.93200
C  -3.88100 30.73900 30.09300
C  -4.90800 31.06300 31.05600
O  -5.69600 32.02000 30.89600
O  -4.94900 30.19600 32.12500
C  -5.68100 30.83600 33.16100
H  -0.53500 36.76900 30.80100
H  0.05800 37.22700 24.26800
H  -3.34600 31.88800 23.75600
H  -3.31400 33.20900 32.08600
H  -0.64800 34.59600 32.13200
H  -2.77100 35.26900 33.51500
H  -3.41200 36.03300 32.01100
H  -1.93700 36.59300 32.68700
H  -0.53800 32.54200 32.60300
H  -1.15300 31.42100 31.54800
H  -2.14000 30.39400 33.58600
H  -2.91100 31.98500 33.98100
H  1.05900 38.29200 30.37100
H  0.63500 39.68500 29.27300
H  2.17300 38.76000 29.17000
H  1.59300 40.88800 27.27600
H  2.77400 40.47500 25.92800
H  2.68700 39.60800 27.41200
H  -0.29000 35.21800 22.64800
H  -3.05000 34.28800 22.26300
H  -2.94400 36.75300 21.94500
H  -1.36400 36.63700 21.16800
H  -1.36800 37.49400 22.55400
H  -0.93300 33.26000 21.06600
H  -2.24700 32.26600 21.63500
H  -0.14300 32.28100 23.65700
H  0.47100 31.93600 21.99400
H  -0.86100 30.94000 22.65700
H  -4.69700 28.87800 25.78200
H  -4.43700 29.87600 24.31800
H  -5.79100 30.17700 25.31900
H  -3.12200 30.16900 30.62900
H  -5.06300 31.62600 33.58800
H  -5.76500 30.05700 33.91800
H  -6.70100 31.09000 32.87100

