158

Mg 52.94400 23.53300 45.47400
C  50.47800 25.67400 44.10500
C  51.16900 20.89100 44.26100
C  55.81000 21.87100 45.45000
C  54.63000 26.47300 46.42500
N  51.04300 23.35000 44.41900
C  50.26100 24.31700 43.79600
C  48.98000 23.74600 43.15800
C  49.14700 22.22700 43.46100
C  50.57100 22.10400 44.06900
C  48.14400 21.68500 44.48000
C  48.93200 24.08300 41.67400
C  47.49500 24.15600 41.05200
H  47.22300 23.24400 39.81100
N  53.41300 21.53100 45.13100
C  52.56800 20.60500 44.71500
C  53.25000 19.36700 44.70000
C  54.59100 19.57800 45.04500
C  54.67900 21.05100 45.20200
C  52.55400 18.03100 44.37400
C  55.64600 18.55200 45.09400
O  55.41100 17.36100 44.93900
C  57.06600 18.95400 45.44700
N  55.04100 24.25200 45.76100
C  56.02200 23.31400 45.79700
C  57.34500 23.90900 46.21400
C  56.90100 25.40600 46.62000
C  55.47700 25.38600 46.16600
C  58.19600 23.02100 47.18300
C  57.82900 26.54600 45.93800
C  58.40600 27.47800 47.01900
N  52.54800 25.61700 45.50500
C  53.32300 26.67400 45.95500
C  52.52400 27.83400 45.96100
C  51.43400 27.52800 45.11600
C  51.50700 26.13600 44.90300
C  52.80800 29.28800 46.38900
C  50.34900 28.08800 44.40500
O  49.88200 29.22400 44.41200
C  49.72100 26.92300 43.59500
C  49.92400 27.27500 42.21500
O  50.99700 27.44000 41.64200
O  48.64900 27.40600 41.61500
C  48.66200 27.89300 40.19500
H  50.51800 20.09100 43.90100
H  56.77400 21.36300 45.39000
H  55.06400 27.41400 46.77000
H  48.06900 24.14400 43.60500
H  49.06300 21.75900 42.47900
H  48.17300 20.61100 44.66300
H  47.21100 21.91800 43.96700
H  48.12800 22.29000 45.38700
H  49.53600 23.41600 41.05800
H  49.30500 25.09900 41.54700
H  47.26800 25.19200 40.80200
H  46.77600 23.73900 41.75700
H  53.12700 17.30400 44.95000
H  52.64600 17.88200 43.29800
H  51.54400 18.11700 44.77600
H  57.54400 19.43200 44.59200
H  57.63500 18.03500 45.59100
H  57.19500 19.46100 46.40300
H  57.99500 24.03900 45.34900
H  56.92000 25.38200 47.71000
H  57.54500 22.18200 47.42900
H  58.45300 23.63400 48.04700
H  59.04900 22.65000 46.61500
H  57.25300 27.09100 45.19000
H  58.75100 26.12400 45.53800
H  59.48900 27.59900 47.00000
H  58.20000 27.21900 48.05700
H  57.97500 28.46300 46.83800
H  52.01500 30.02400 46.25700
H  53.60600 29.68600 45.76300
H  53.15700 29.28100 47.42200
H  48.67200 26.81900 43.87400
H  47.66100 27.75400 39.78600
H  49.47700 27.36500 39.70200
H  48.83900 28.96700 40.13100
Mg 46.95100 34.75300 26.71600
C  45.20900 33.27700 29.47800
C  47.28300 37.57700 28.69900
C  48.07500 36.37000 24.05600
C  46.45800 31.90200 24.81200
N  46.42500 35.29900 29.05600
C  45.64200 34.58600 29.89500
C  45.29800 35.38700 31.13500
C  45.94600 36.84600 30.80400
C  46.52400 36.60300 29.40800
C  44.95700 38.10600 30.85900
C  45.91700 34.80100 32.43200
C  45.84400 35.71000 33.66200
H  47.07000 36.28800 34.20900
N  47.59300 36.69200 26.47800
C  47.77700 37.65500 27.41800
C  48.51900 38.77200 26.82100
C  48.80300 38.32700 25.51200
C  48.11400 37.11900 25.25800
C  48.82500 39.99100 27.62800
C  49.79300 39.02800 24.53600
O  49.99100 38.57700 23.34900
C  50.53900 40.16900 25.04100
N  47.16900 34.23200 24.69400
C  47.66400 35.09000 23.78100
C  47.70200 34.35800 22.34200
C  47.51200 32.79300 22.67100
C  47.03200 32.93200 24.17900
C  46.60800 35.00300 21.43800
C  48.67700 31.82400 22.49100
C  49.86600 31.84400 23.45100
N  46.08300 32.96900 26.97100
C  46.02800 31.87400 26.18200
C  45.32300 30.75700 26.90400
C  44.91700 31.31100 28.09000
C  45.46700 32.62000 28.16900
C  44.86400 29.46100 26.27700
C  44.23200 31.03400 29.30900
O  43.58500 29.99600 29.66700
C  44.32700 32.31600 30.21600
C  44.75700 31.90900 31.51700
O  45.91800 31.73200 31.82500
O  43.69900 31.73100 32.32600
C  44.02900 31.12200 33.64400
H  47.46600 38.41800 29.37100
H  48.49500 36.92400 23.21400
H  46.45700 30.85500 24.49900
H  44.22000 35.35000 31.29100
H  46.69900 37.07700 31.55700
H  45.44700 38.88200 31.44700
H  44.02800 37.80100 31.34100
H  44.64500 38.40900 29.85900
H  46.91700 34.42300 32.21900
H  45.28800 33.97600 32.76700
H  45.53000 35.09600 34.50600
H  45.10700 36.49200 33.47600
H  48.39500 40.86200 27.13400
H  49.90300 40.12800 27.70100
H  48.34100 39.97700 28.60500
H  49.84500 40.84900 25.53500
H  51.15500 40.60300 24.25400
H  51.19400 39.60400 25.70400
H  48.67100 34.50200 21.86400
H  46.78500 32.30000 22.02600
H  46.08000 35.83400 21.90700
H  45.85500 34.27000 21.15000
H  47.12200 35.27900 20.51800
H  49.16900 32.12500 21.56600
H  48.30000 30.82700 22.26600
H  50.81600 31.52400 23.02300
H  49.55200 31.24500 24.30700
H  49.97900 32.87500 23.78700
H  43.84800 29.34100 26.65400
H  45.49800 28.66600 26.66900
H  44.77300 29.55400 25.19500
H  43.31400 32.71800 30.22900
H  43.20600 30.62900 34.16200
H  44.18300 31.99900 34.27300
H  44.88500 30.44900 33.70400

