158

Mg 34.39000 2.91900 29.85500
C  32.33300 4.15800 32.39900
C  36.84500 2.70500 32.12600
C  36.56100 2.36400 27.31000
C  31.81300 3.03300 27.66100
N  34.50300 3.36200 32.05300
C  33.55900 3.79000 32.92000
C  34.04900 3.93300 34.39900
C  35.56800 3.77400 34.15000
C  35.62600 3.21700 32.70900
C  36.32900 5.14000 34.25300
C  33.48300 2.75000 35.35300
C  33.08200 3.22000 36.75500
H  33.98500 4.24300 37.44800
N  36.39200 2.48000 29.73600
C  37.22300 2.41200 30.80700
C  38.49600 2.04900 30.36600
C  38.50500 1.87400 28.93200
C  37.12000 2.25200 28.63500
C  39.73700 1.81000 31.22200
C  39.60400 1.41600 27.98600
O  39.41400 1.44200 26.77500
C  40.92800 0.95300 28.45000
N  34.26000 2.84700 27.70900
C  35.27700 2.61900 26.83600
C  34.69600 2.31500 25.44700
C  33.09800 2.25700 25.65700
C  33.03800 2.74400 27.09300
C  35.15000 3.10700 24.22200
C  32.41000 0.88300 25.48800
C  31.31200 0.75800 24.40000
N  32.52100 3.63100 29.92300
C  31.53100 3.52700 28.89900
C  30.33600 3.98900 29.45900
C  30.58600 4.27900 30.75000
C  31.93500 4.02900 31.06300
C  28.99400 4.22300 28.79900
C  29.96600 4.73000 32.06700
O  28.83100 4.99000 32.38200
C  31.08400 4.70600 33.18600
C  31.41500 6.07400 33.63200
O  32.23700 6.77100 33.09600
O  30.84800 6.30300 34.88000
C  31.59800 7.26300 35.73900
H  37.60200 2.58200 32.90300
H  37.30200 2.23800 26.51800
H  30.96200 2.96500 26.98000
H  33.83700 4.93100 34.78400
H  36.03700 3.10600 34.87200
H  36.62300 5.31600 35.28800
H  35.83100 6.02000 33.84700
H  37.21000 4.99900 33.62700
H  34.21600 1.94400 35.32400
H  32.58300 2.50000 34.78900
H  33.07200 2.31900 37.36800
H  32.10500 3.70300 36.72300
H  40.28400 0.91200 30.93200
H  39.62200 1.90200 32.30200
H  40.31600 2.73200 31.17600
H  41.57400 0.80100 27.58500
H  40.80700 0.04400 29.04000
H  41.41000 1.77700 28.97600
H  34.96200 1.27900 25.24000
H  32.71100 3.09200 25.07300
H  35.88300 2.49900 23.69100
H  35.63500 4.02500 24.55300
H  34.22700 3.20000 23.64900
H  31.98300 0.49100 26.41000
H  33.10900 0.10800 25.17400
H  30.34100 0.64100 24.88100
H  31.49500 -0.09400 23.74500
H  31.32500 1.64900 23.77200
H  28.56600 5.19800 29.02900
H  28.28200 3.47300 29.14400
H  29.05400 4.23300 27.71100
H  30.77100 4.06800 34.01200
H  31.29700 8.25700 35.40800
H  32.64400 7.14400 35.45400
H  31.34100 7.17800 36.79500
Mg 47.62400 35.59100 27.97100
C  46.33700 33.62200 30.47300
C  48.09700 38.10800 30.31800
C  49.21200 37.28900 25.60800
C  47.37800 32.87500 25.76700
N  47.21300 35.87300 30.15500
C  46.92900 34.83000 31.00800
C  47.35000 35.12300 32.41900
C  47.54300 36.73000 32.40600
C  47.55900 36.96800 30.88000
C  46.35700 37.48500 33.20000
C  48.55600 34.21600 32.87500
C  49.17500 34.47200 34.27400
H  48.28000 35.29500 35.28300
N  48.35400 37.54600 27.90300
C  48.39600 38.42600 28.94800
C  49.05500 39.68900 28.47600
C  49.44000 39.49300 27.12900
C  48.96000 38.02900 26.79600
C  49.28800 40.78500 29.46400
C  50.13800 40.34900 26.16300
O  50.58300 39.95600 25.08200
C  50.50300 41.76500 26.53800
N  48.09100 35.15600 25.87800
C  48.75600 36.03500 25.13800
C  49.23300 35.42000 23.84000
C  48.55400 34.00700 23.86300
C  47.92300 33.99300 25.19900
C  48.89100 36.27800 22.53400
C  49.55300 32.90000 23.54000
C  50.06600 32.90600 22.09700
N  46.86100 33.66700 27.95900
C  46.88000 32.67100 27.04400
C  46.22700 31.53200 27.61700
C  46.01900 31.89500 28.95800
C  46.35300 33.22200 29.09800
C  46.07500 30.08500 27.02600
C  45.40900 31.33400 30.18800
O  44.95400 30.25300 30.46500
C  45.49400 32.46400 31.13600
C  45.82600 32.06300 32.51400
O  46.70100 31.36700 32.89700
O  44.82400 32.66100 33.27600
C  44.66900 32.36500 34.67600
H  48.40300 38.89800 31.00800
H  49.78100 37.83900 24.85500
H  47.35700 31.95600 25.17700
H  46.44100 34.93000 32.98800
H  48.55800 36.99500 32.70300
H  46.73900 38.27200 33.85000
H  45.77200 36.90000 33.91000
H  45.67300 37.93900 32.48300
H  49.33400 34.49400 32.16400
H  48.40700 33.17300 32.59600
H  50.03900 35.09700 34.05000
H  49.46100 33.45300 34.53300
H  49.31200 41.79200 29.04800
H  50.19700 40.63100 30.04600
H  48.39100 40.78100 30.08200
H  49.64400 42.23100 27.02200
H  50.86900 42.23500 25.62600
H  51.26300 41.67100 27.31400
H  50.30400 35.22400 23.80300
H  47.75700 34.07700 23.12300
H  48.51200 37.26000 22.81500
H  48.04700 35.76200 22.07700
H  49.67500 36.39400 21.78500
H  49.14200 31.89600 23.64900
H  50.33300 32.82000 24.29700
H  49.95900 31.89500 21.70500
H  51.11100 33.20600 22.16600
H  49.61000 33.64500 21.43900
H  46.29100 29.93500 25.96800
H  45.09800 29.72400 27.34900
H  46.75700 29.41700 27.55300
H  44.49500 32.89300 31.22000
H  43.63100 32.03100 34.67200
H  44.75200 33.34000 35.15600
H  45.47000 31.74600 35.07900

