158

Mg 8.99200 3.00000 27.09200
C  10.36000 1.49200 30.00600
C  7.01700 4.96600 29.35100
C  7.23900 4.20000 24.49200
C  10.02100 0.26100 25.19300
N  8.70900 3.13100 29.43600
C  9.51500 2.56200 30.35900
C  9.27100 3.10400 31.73300
C  8.01600 4.04900 31.51100
C  7.81000 4.05200 30.00900
C  6.68500 3.64500 32.13900
C  10.50000 3.84100 32.45500
C  10.93200 3.36700 33.86000
H  11.22100 4.46700 34.93400
N  7.48900 4.47000 26.96500
C  6.86800 5.16400 27.93500
C  6.02300 6.12700 27.27000
C  6.20200 6.05700 25.84800
C  6.96700 4.86400 25.73200
C  5.07400 7.07500 28.06200
C  5.80300 6.92400 24.69900
O  5.98700 6.63900 23.53200
C  5.07900 8.17300 25.01000
N  8.79600 2.43000 25.14300
C  8.06400 3.12200 24.22800
C  8.21200 2.53400 22.86200
C  9.07800 1.30300 23.05900
C  9.34800 1.32600 24.57300
C  6.89900 2.24600 22.16500
C  10.35100 1.31200 22.25600
C  10.46900 0.13800 21.26000
N  10.03000 1.26200 27.47700
C  10.46400 0.31300 26.58200
C  11.32500 -0.57300 27.26500
C  11.29500 -0.16500 28.65200
C  10.53000 0.96200 28.71200
C  11.83700 -1.97400 26.64200
C  11.64800 -0.61900 29.93400
O  12.33100 -1.58100 30.22300
C  11.06900 0.49900 30.89800
C  10.17300 -0.11400 31.88800
O  8.95100 -0.29300 31.78500
O  10.98200 -0.28500 33.06000
C  10.24200 -0.56300 34.28000
H  6.42800 5.60700 30.01100
H  6.84100 4.50800 23.52300
H  10.36600 -0.56500 24.56600
H  9.08200 2.22000 32.34300
H  8.30600 5.00600 31.94400
H  6.60700 4.42100 32.90100
H  6.65500 2.70100 32.68400
H  5.88000 3.69200 31.40700
H  10.28400 4.90900 32.44700
H  11.39200 3.73100 31.83700
H  11.82900 2.75900 33.74500
H  10.06600 2.82200 34.23800
H  5.48900 8.08000 27.99100
H  4.95200 6.81800 29.11500
H  4.12400 7.13200 27.53200
H  5.69000 8.66100 25.76900
H  4.08900 7.96600 25.41600
H  4.99800 8.82200 24.13800
H  8.80600 3.30200 22.36600
H  8.57100 0.34000 23.00700
H  6.04300 2.59600 22.74400
H  6.71700 1.17300 22.10500
H  6.84200 2.79900 21.22700
H  11.19800 1.13100 22.91800
H  10.61600 2.26100 21.79100
H  9.50900 -0.18700 20.85800
H  11.00100 -0.73000 21.65000
H  11.00800 0.55700 20.41100
H  12.92400 -2.02900 26.70800
H  11.63800 -1.91600 25.57200
H  11.37200 -2.84600 27.10100
H  11.89700 1.02800 31.36900
H  9.17200 -0.66800 34.09900
H  10.53300 0.11300 35.08300
H  10.60300 -1.51900 34.66000
Mg 47.45000 45.69200 43.18100
C  44.25400 44.36100 42.78800
C  48.76700 42.42900 43.28700
C  50.51500 46.95100 43.22900
C  46.13600 48.97900 42.73000
N  46.67800 43.69000 42.94600
C  45.25800 43.37800 42.90800
C  45.00900 41.73400 42.99200
C  46.48900 41.21300 43.26200
C  47.38000 42.55000 43.19500
C  46.73300 40.23500 44.41100
C  44.21300 40.89900 41.84200
C  44.60700 41.38700 40.42400
H  44.94000 40.35800 39.34100
N  49.38200 44.79000 43.16400
C  49.65900 43.44600 43.28000
C  51.06600 43.29100 43.13300
C  51.65900 44.61000 43.25400
C  50.54000 45.54900 43.27600
C  51.79800 42.00300 43.05300
C  53.18700 44.93300 43.36000
O  54.03600 44.02500 43.36300
C  53.66100 46.31500 43.58300
N  48.16900 47.62900 43.05300
C  49.46500 47.87000 43.17000
C  49.80700 49.38600 42.92300
C  48.47900 49.96900 42.45800
C  47.51600 48.75400 42.76000
C  50.37300 49.90600 44.28100
C  48.38800 50.58900 40.98700
C  48.52900 52.09000 40.95300
N  45.51300 46.55000 42.77000
C  45.15500 47.93000 42.71200
C  43.66300 47.96000 42.53100
C  43.27200 46.53700 42.47700
C  44.42000 45.79700 42.75100
C  42.76300 49.10700 42.36400
C  42.22800 45.57500 42.18700
O  41.09600 45.74000 41.74600
C  42.81600 44.20500 42.45700
C  42.07100 43.47500 43.48400
O  41.41900 42.46100 43.24700
O  42.30200 43.88000 44.75100
C  41.84200 42.90800 45.78100
H  49.21900 41.44300 43.41400
H  51.47300 47.47200 43.17000
H  45.77900 49.97600 42.46200
H  44.38200 41.53600 43.86200
H  46.92400 40.80300 42.35100
H  47.15600 40.89700 45.16700
H  47.38500 39.40900 44.12600
H  45.72500 39.96100 44.72000
H  43.15400 41.10100 42.00300
H  44.26100 39.82100 42.00100
H  45.43000 42.09900 40.47800
H  43.68900 41.80600 40.01400
H  52.08400 41.71800 44.06500
H  52.58800 42.05700 42.30400
H  51.15400 41.20000 42.69300
H  53.34900 46.88300 42.70600
H  54.74800 46.36000 43.64800
H  53.23700 46.68800 44.51500
H  50.58500 49.55100 42.17700
H  48.26700 50.65400 43.27900
H  51.16800 49.19000 44.48800
H  49.70400 49.91500 45.14100
H  50.89700 50.82400 44.01700
H  47.45500 50.34400 40.48000
H  49.15400 49.99900 40.48200
H  48.11400 52.27100 39.96200
H  49.59200 52.32800 40.98900
H  47.96100 52.48800 41.79300
H  41.99000 48.94800 43.11600
H  42.24700 49.11100 41.40400
H  43.30100 50.05400 42.31700
H  42.85300 43.63700 41.52800
H  40.77000 42.71500 45.73500
H  42.17400 43.38500 46.70300
H  42.30900 41.94600 45.57000

