158

Mg 6.89200 53.46400 40.92500
C  6.61500 49.93300 40.94500
C  10.28000 53.00700 40.13600
C  6.96100 56.65300 39.86400
C  3.37300 53.59000 40.80300
N  8.16900 51.63600 40.43000
C  7.90500 50.35600 40.67400
C  9.18700 49.48600 40.69300
C  10.36600 50.56500 40.72100
C  9.56100 51.83100 40.39900
C  11.18200 50.62600 42.04600
C  9.30900 48.47800 39.51200
C  9.11700 49.03000 38.08500
H  7.81400 48.76300 37.31100
N  8.47300 54.69700 40.20400
C  9.80100 54.35400 39.94400
C  10.54400 55.54800 39.65400
C  9.58300 56.62100 39.55300
C  8.26700 56.05600 39.87900
C  12.03500 55.57100 39.53800
C  9.90700 58.12700 39.36300
O  11.07400 58.41400 39.13600
C  8.93300 59.21400 39.58400
N  5.37800 54.93000 40.39600
C  5.69500 56.15000 40.08200
C  4.52100 57.10100 40.07900
C  3.33700 56.07000 40.30900
C  4.07400 54.79600 40.56600
C  4.63900 58.22800 41.16800
C  2.21800 55.92400 39.17400
C  0.75500 56.08600 39.64300
N  5.21800 52.11900 41.09200
C  3.89400 52.29200 41.09300
C  3.18200 51.14600 41.54700
C  4.21800 50.19900 41.45500
C  5.42400 50.82600 41.09900
C  1.71900 50.95500 41.97900
C  4.52400 48.76500 41.59700
O  3.83200 47.79200 41.92900
C  6.04800 48.63200 41.37100
C  6.09700 47.60800 40.31800
O  5.72300 47.78800 39.13600
O  6.57100 46.45300 40.88400
C  6.51100 45.29300 40.01200
H  11.33800 52.79200 40.29700
H  6.86900 57.67000 39.47800
H  2.28900 53.72400 40.79000
H  9.16600 49.00600 41.67200
H  11.16600 50.31000 40.02600
H  11.70600 49.68500 42.21700
H  10.58000 50.80100 42.93800
H  11.76300 51.54800 42.02900
H  8.71700 47.57000 39.62500
H  10.30500 48.03800 39.45700
H  9.90600 48.64200 37.44100
H  9.28400 50.08700 38.29600
H  12.44400 56.18800 40.33900
H  12.35000 56.04800 38.61000
H  12.41100 54.55600 39.66500
H  8.60600 59.04300 40.60900
H  8.06700 59.21200 38.92200
H  9.43000 60.18100 39.66000
H  4.43300 57.49000 39.06400
H  2.80200 56.43500 41.18600
H  4.04600 58.14000 42.07800
H  4.57600 59.19800 40.67600
H  5.67900 58.25100 41.49600
H  2.30900 54.96900 38.65700
H  2.36800 56.69700 38.42000
H  0.23600 55.14300 39.47100
H  0.26000 56.86700 39.06600
H  0.67300 56.31500 40.70600
H  1.30700 50.17100 41.34300
H  1.10900 51.84800 41.84600
H  1.75000 50.67800 43.03300
H  6.41300 48.31600 42.34800
H  7.20300 45.51600 39.20000
H  5.50800 45.15600 39.60900
H  6.77800 44.42100 40.60900
Mg -11.88400 38.04800 42.27600
C  -9.79800 35.35500 41.15500
C  -9.50100 40.16400 41.27700
C  -14.05000 40.50400 42.66400
C  -14.41800 35.68900 42.71600
N  -9.96400 37.77400 41.14200
C  -9.28800 36.59400 40.94600
C  -7.94600 36.88000 40.44700
C  -7.73000 38.41400 40.74300
C  -9.14400 38.84700 41.19400
C  -6.69400 38.66900 41.89800
C  -7.91500 36.49500 38.89500
C  -6.99400 35.34500 38.52900
H  -5.95400 35.61200 37.41500
N  -11.80200 40.11100 41.89700
C  -10.70400 40.75100 41.51900
C  -11.03100 42.19400 41.53700
C  -12.36700 42.29400 42.04800
C  -12.83000 40.95800 42.16000
C  -9.92200 43.24800 41.30400
C  -13.03900 43.53700 42.45400
O  -12.53900 44.60700 42.16500
C  -14.39100 43.74100 43.15100
N  -13.85200 38.11000 42.58700
C  -14.58200 39.22900 42.88900
C  -16.09100 39.05200 43.31700
C  -16.13000 37.50500 43.23000
C  -14.70700 37.02700 42.86000
C  -16.62700 39.63700 44.67400
C  -17.19500 36.94500 42.18900
C  -18.42700 36.38400 42.71900
N  -12.03000 35.91900 42.20500
C  -13.14700 35.09600 42.36400
C  -12.77600 33.77100 42.22200
C  -11.43100 33.76300 41.73900
C  -11.07900 35.10200 41.70000
C  -13.71000 32.61400 42.40200
C  -10.30300 32.96700 41.25600
O  -10.09900 31.81700 41.21200
C  -9.11300 33.98500 40.94500
C  -8.06400 33.62600 41.88600
O  -8.26300 33.72400 43.07800
O  -6.79900 33.32700 41.25100
C  -5.59900 32.93700 42.06900
H  -8.71600 40.90500 41.11500
H  -14.87300 41.17300 42.92400
H  -15.08500 34.87300 43.00200
H  -7.27000 36.27300 41.05000
H  -7.26200 38.86600 39.86900
H  -5.77100 38.09500 41.81400
H  -6.98000 38.56300 42.94400
H  -6.39700 39.71200 41.79000
H  -7.55900 37.30600 38.25900
H  -8.89000 36.20400 38.50500
H  -7.66900 34.53100 38.26500
H  -6.49500 34.88700 39.38300
H  -9.64800 43.81500 42.19300
H  -10.31700 43.86000 40.49300
H  -9.00300 42.81000 40.91400
H  -14.53000 43.05200 43.98300
H  -15.09300 43.35200 42.41300
H  -14.65200 44.76600 43.41700
H  -16.69400 39.47400 42.51300
H  -16.44700 37.15500 44.21300
H  -17.09200 38.90100 45.33000
H  -17.33900 40.44000 44.48400
H  -15.71600 40.01300 45.14000
H  -16.75100 36.22200 41.50500
H  -17.55000 37.68700 41.47400
H  -18.62200 35.43900 42.21000
H  -19.27900 36.98800 42.40800
H  -18.41100 36.10900 43.77300
H  -14.75800 32.85500 42.22700
H  -13.46800 32.20200 43.38200
H  -13.50000 31.82800 41.67700
H  -8.79500 33.77200 39.92500
H  -5.89200 32.30900 42.91000
H  -4.89900 33.75300 42.24900
H  -5.00600 32.20900 41.51500

