158

Mg 0.26700 7.93200 26.81100
C  1.20800 9.92900 29.56600
C  -0.26600 5.44100 29.06300
C  -0.46300 6.00600 24.15700
C  0.77900 10.60800 24.67200
N  0.44900 7.74500 29.06700
C  0.75000 8.70100 29.98900
C  0.71500 8.08700 31.42600
C  0.57100 6.52400 31.15900
C  0.12600 6.57500 29.67500
C  1.83500 5.68900 31.40200
C  -0.39600 8.70100 32.40800
C  0.08500 8.59400 33.88200
H  -0.59000 7.46100 34.76800
N  -0.26800 6.02100 26.66300
C  -0.38000 5.11700 27.66900
C  -0.75100 3.84000 27.09800
C  -0.73400 3.94300 25.66500
C  -0.41700 5.38300 25.42300
C  -1.15300 2.74200 27.99200
C  -1.05200 2.93400 24.61700
O  -0.97400 3.21400 23.41900
C  -1.49000 1.53200 24.92800
N  0.33600 8.28300 24.69000
C  -0.17100 7.30700 23.82800
C  -0.34100 7.85600 22.36500
C  -0.13000 9.37000 22.65100
C  0.43900 9.43300 24.09300
C  0.68900 7.30400 21.43600
C  -1.40400 10.18500 22.37600
C  -1.52500 10.66100 20.90100
N  1.03800 9.82000 27.00700
C  1.19600 10.83400 26.03100
C  1.68800 12.02200 26.68700
C  1.84800 11.72600 28.08800
C  1.31300 10.41700 28.21200
C  1.90700 13.46300 26.02800
C  2.12600 12.23200 29.38800
O  2.56500 13.34900 29.70600
C  1.67100 11.17600 30.41700
C  2.75900 10.89400 31.37900
O  3.75200 10.27800 31.15500
O  2.43700 11.40700 32.57900
C  3.25100 11.13700 33.70800
H  -0.49200 4.54800 29.65000
H  -0.72500 5.51000 23.22000
H  0.77500 11.46300 23.99200
H  1.68900 8.34100 31.84500
H  -0.24500 6.11000 31.75100
H  1.51400 4.84200 32.00900
H  2.63100 6.17900 31.96400
H  2.24500 5.31800 30.46300
H  -1.30100 8.10800 32.27500
H  -0.66200 9.72600 32.15100
H  0.01600 9.61600 34.25600
H  1.15600 8.45800 34.03000
H  -2.19500 2.93300 28.25200
H  -0.52900 2.71500 28.88600
H  -1.24700 1.72000 27.62700
H  -1.70600 1.03100 23.98400
H  -2.41800 1.65100 25.48700
H  -0.69100 1.11100 25.53900
H  -1.31300 7.72600 21.88900
H  0.71600 9.65700 22.02600
H  0.94700 8.09700 20.73400
H  0.31000 6.51000 20.79200
H  1.56300 7.04800 22.03500
H  -1.43400 10.98900 23.11200
H  -2.27100 9.53300 22.48800
H  -2.37800 10.12500 20.48400
H  -0.59200 10.52200 20.35500
H  -1.81900 11.70700 20.81900
H  1.01100 14.06700 25.88500
H  2.33100 13.34400 25.03000
H  2.59300 14.06200 26.62600
H  0.82400 11.46700 31.03700
H  3.93400 10.29700 33.57700
H  2.54600 10.80000 34.46800
H  3.79000 12.05200 33.95600
Mg -12.52300 16.15000 41.30000
C  -9.57400 14.35400 40.75500
C  -10.75400 18.97100 39.85700
C  -15.34600 17.78300 41.16800
C  -14.18300 13.29700 42.09600
N  -10.32600 16.61500 40.51900
C  -9.37700 15.67800 40.33100
C  -8.10400 16.24800 39.69700
C  -8.42800 17.82300 39.65600
C  -9.95800 17.81000 40.03300
C  -7.43500 18.68500 40.59300
C  -7.70000 15.59700 38.30700
C  -6.23600 15.11800 38.24300
H  -5.41500 15.78600 37.21500
N  -12.93100 18.15600 40.66700
C  -12.14100 19.13100 40.19800
C  -12.89200 20.29600 39.99400
C  -14.29600 19.93200 40.23100
C  -14.23800 18.59600 40.73400
C  -12.32800 21.64500 39.51100
C  -15.47100 20.85000 39.96500
O  -15.31300 22.08900 39.82900
C  -16.87800 20.37400 39.83500
N  -14.63600 15.51000 41.24100
C  -15.57900 16.44800 41.51300
C  -16.92400 15.90000 41.95700
C  -16.42800 14.44800 42.39500
C  -14.95800 14.43200 41.92800
C  -17.75000 16.82700 42.97000
C  -17.35200 13.42600 41.75200
C  -17.63900 12.24800 42.65300
N  -11.99300 14.17000 41.58500
C  -12.77300 13.08400 41.88700
C  -11.96700 11.89900 41.83800
C  -10.70300 12.33400 41.48100
C  -10.75800 13.72800 41.26800
C  -12.42500 10.56100 42.07700
C  -9.33700 11.94300 41.16700
O  -8.81000 10.84900 41.28600
C  -8.53500 13.18000 40.74200
C  -7.43700 13.33600 41.78600
O  -7.61100 13.80400 42.92800
O  -6.18900 13.14200 41.19600
C  -4.95000 13.35000 41.95000
H  -10.19700 19.83600 39.48900
H  -16.19800 18.46300 41.22000
H  -14.65200 12.36700 42.42200
H  -7.35800 15.88300 40.40300
H  -8.30800 18.28300 38.67500
H  -6.68000 18.01200 40.99700
H  -7.96500 19.26500 41.34900
H  -6.89500 19.29100 39.86500
H  -7.96400 16.33300 37.54800
H  -8.31400 14.73200 38.05400
H  -6.26700 14.02900 38.24400
H  -5.68100 15.27900 39.16700
H  -12.49800 21.80800 38.44700
H  -11.25100 21.67700 39.67900
H  -12.90100 22.38700 40.06700
H  -16.80400 19.40900 39.33300
H  -17.36500 21.02600 39.10900
H  -17.39200 20.34100 40.79500
H  -17.47000 15.72600 41.03000
H  -16.35400 14.33600 43.47600
H  -17.72000 16.33000 43.93900
H  -18.72000 16.95300 42.48900
H  -17.25000 17.79500 43.00000
H  -16.93100 13.07700 40.80900
H  -18.35800 13.73900 41.47500
H  -18.61600 11.81800 42.43400
H  -17.69900 12.61500 43.67700
H  -16.89200 11.46800 42.50400
H  -11.58500 9.87300 41.98000
H  -13.23600 10.24900 41.42000
H  -12.80100 10.51600 43.09900
H  -8.07400 12.94500 39.78300
H  -4.04800 13.03000 41.42900
H  -4.97600 12.68800 42.81500
H  -4.86700 14.33400 42.41200

