158

Mg 8.43400 2.73400 26.77300
C  9.79800 1.37900 29.65100
C  6.22900 4.39300 28.57700
C  7.26700 3.87900 23.76200
C  10.48700 0.37200 24.99800
N  7.92900 2.63700 28.90900
C  8.74100 2.28500 29.92200
C  8.32900 2.83100 31.32700
C  7.15100 3.77400 30.92200
C  7.05300 3.61000 29.38800
C  5.79800 3.59700 31.62100
C  9.60300 3.50200 31.96600
C  9.42200 4.45400 33.20100
H  10.15400 4.18600 34.45000
N  6.99700 3.99700 26.23300
C  6.12400 4.52600 27.14400
C  5.22000 5.38900 26.38400
C  5.59300 5.33500 25.03200
C  6.70800 4.43000 24.95700
C  4.01500 6.05400 27.14300
C  4.94900 6.11000 23.85500
O  5.35700 6.10400 22.65600
C  3.84700 7.01200 24.14700
N  8.78500 2.10300 24.63700
C  8.17600 2.79600 23.59800
C  8.70100 2.32400 22.23100
C  9.71800 1.24000 22.63500
C  9.76900 1.30400 24.18600
C  7.57600 1.83500 21.25500
C  11.02600 1.46200 21.99500
C  11.22500 1.46800 20.48500
N  9.73000 1.14500 27.16300
C  10.49100 0.28200 26.37400
C  11.42800 -0.55000 27.13900
C  11.16200 -0.09800 28.44700
C  10.16300 0.87100 28.39700
C  12.46200 -1.48500 26.64800
C  11.62100 -0.31800 29.79000
O  12.46200 -1.04700 30.27000
C  10.75000 0.62300 30.65200
C  10.13500 -0.22500 31.70500
O  9.40500 -1.18400 31.53900
O  10.69400 0.15500 32.93200
C  10.30200 -0.41200 34.22000
H  5.68000 5.08100 29.22300
H  6.89000 4.20700 22.79100
H  11.00200 -0.43400 24.47200
H  7.94000 1.99800 31.91200
H  7.36000 4.83500 31.05500
H  5.77900 2.61900 32.10100
H  4.98400 3.53400 30.89800
H  5.45400 4.31700 32.36300
H  10.13300 4.01100 31.16000
H  10.26400 2.73400 32.36800
H  8.33500 4.42800 33.27400
H  9.70900 5.49100 33.02200
H  3.08200 5.82800 26.62700
H  4.25100 7.11800 27.16000
H  3.95300 5.57800 28.12200
H  3.54300 7.69800 23.35700
H  4.36300 7.66800 24.84800
H  3.00700 6.49100 24.60500
H  9.13400 3.20400 21.75500
H  9.46700 0.19300 22.46100
H  6.63800 2.37900 21.36100
H  7.32300 0.85400 21.65900
H  7.71400 1.68400 20.18500
H  11.63800 0.62000 22.32200
H  11.51200 2.39800 22.27200
H  10.25000 1.17100 20.10100
H  11.99800 0.74700 20.22000
H  11.30600 2.49300 20.12300
H  12.92000 -1.08900 25.74200
H  12.15000 -2.51900 26.50300
H  13.34000 -1.47600 27.29400
H  11.36100 1.30000 31.24700
H  9.34100 -0.92100 34.15200
H  10.13900 0.31600 35.01500
H  11.00200 -1.20800 34.47500
Mg 30.68900 57.06900 39.35300
C  28.01900 54.92400 38.29000
C  32.90000 54.78300 38.40700
C  33.01100 59.42400 39.50800
C  28.16700 59.51200 39.91800
N  30.44100 55.08300 38.15500
C  29.29200 54.32700 38.05500
C  29.68200 52.87200 37.78000
C  31.27200 52.80800 38.03400
C  31.56100 54.30100 38.27400
C  31.73600 51.85500 39.20700
C  29.19000 52.35500 36.34600
C  29.41100 53.17300 35.03800
H  28.40100 54.11800 34.40000
N  32.72700 57.01000 39.10100
C  33.50300 56.01300 38.68800
C  34.89600 56.41100 38.61100
C  34.92100 57.78000 38.99600
C  33.50900 58.08200 39.28100
C  35.93500 55.52500 38.09900
C  36.16200 58.62300 39.00400
O  37.19500 58.16000 38.60400
C  36.15800 60.09300 39.25800
N  30.65600 59.16500 39.68400
C  31.76000 59.94600 39.68900
C  31.36900 61.45500 39.86300
C  29.81100 61.37000 40.14900
C  29.49200 59.91500 39.87600
C  32.12900 62.29300 40.97100
C  29.00900 62.33100 39.17800
C  27.74900 63.06600 39.71000
N  28.53300 57.29000 39.19800
C  27.70400 58.32300 39.44600
C  26.29600 57.83000 39.21500
C  26.43100 56.47000 38.79500
C  27.79600 56.25900 38.75500
C  25.00800 58.42600 39.48800
C  25.63800 55.40500 38.30300
O  24.44000 55.27700 38.13000
C  26.65300 54.22800 38.00800
C  26.36800 53.15100 39.03100
O  26.80200 53.05300 40.17700
O  25.46000 52.27300 38.46100
C  24.76700 51.38300 39.39900
H  33.59100 53.94700 38.27700
H  33.63600 60.30900 39.36800
H  27.37000 60.21300 40.17500
H  29.18000 52.26300 38.53200
H  31.63600 52.52100 37.04700
H  32.14700 52.41500 40.04700
H  32.44200 51.10300 38.85400
H  30.85500 51.41200 39.67200
H  28.11100 52.21000 36.30400
H  29.71900 51.41500 36.18900
H  29.79900 52.44700 34.32300
H  30.25800 53.77600 35.36600
H  35.83400 55.43900 37.01700
H  35.68200 54.56800 38.55400
H  36.95100 55.69300 38.45800
H  37.12600 60.43700 39.62300
H  35.58300 60.17000 40.18100
H  35.75100 60.65200 38.41500
H  31.67300 61.87600 38.90500
H  29.65400 61.45600 41.22400
H  32.07800 63.37600 40.86100
H  33.18400 62.01800 40.94200
H  31.82900 61.94900 41.96100
H  28.64400 61.73900 38.33800
H  29.75200 63.05700 38.84900
H  27.62800 62.88700 40.77800
H  26.80000 62.71500 39.30400
H  27.84100 64.14800 39.62200
H  24.45600 57.89200 40.26100
H  24.40600 58.43100 38.57900
H  25.13400 59.48800 39.69700
H  26.44400 53.85400 37.00600
H  24.96300 51.64000 40.44000
H  24.99600 50.35200 39.12800
H  23.69300 51.49000 39.24800

