158

Mg 46.42300 16.36900 28.78500
C  44.19500 15.97000 31.48600
C  48.52000 17.96800 30.83100
C  48.23800 17.19200 26.02000
C  43.82000 15.12100 26.60900
N  46.33600 16.72800 30.85400
C  45.37300 16.54800 31.80500
C  45.75900 17.10400 33.21200
C  47.07500 17.90200 32.90300
C  47.34600 17.51800 31.41700
C  47.22900 19.37300 33.42000
C  45.91500 15.88900 34.10100
C  45.48000 16.03000 35.61900
H  45.24600 17.46400 36.23900
N  48.14200 17.39300 28.46700
C  48.98500 17.90900 29.46900
C  50.12900 18.50000 28.85100
C  49.98500 18.38100 27.39500
C  48.77400 17.55800 27.26600
C  51.17000 19.35700 29.52300
C  50.83100 18.94800 26.21200
O  50.46300 18.97500 25.05400
C  52.13800 19.53800 26.56300
N  46.00100 16.33700 26.59900
C  46.97400 16.68700 25.67500
C  46.36100 16.56800 24.24300
C  45.14100 15.57300 24.41100
C  44.99900 15.60200 25.97900
C  46.11600 17.97300 23.55600
C  45.28500 14.03100 23.97400
C  44.34100 13.60000 22.93200
N  44.44400 15.64700 28.93000
C  43.58700 15.11400 28.04100
C  42.32200 14.75700 28.64800
C  42.54500 14.96900 30.07100
C  43.81600 15.59400 30.16700
C  41.02600 14.32900 27.94800
C  41.98400 14.99900 31.38500
O  40.87300 14.69800 31.73200
C  43.07600 15.49400 32.37100
C  42.45000 16.67700 32.94500
O  42.41500 17.76700 32.43600
O  42.06800 16.50500 34.20600
C  41.35700 17.65300 34.86200
H  49.09200 18.56700 31.54200
H  48.85900 17.34400 25.13500
H  43.06400 14.61600 26.00300
H  44.98900 17.77700 33.59200
H  47.84000 17.41100 33.50500
H  47.89500 19.41000 34.28300
H  46.26800 19.86800 33.56500
H  47.88100 19.85100 32.68900
H  46.97300 15.65900 34.22100
H  45.47300 14.99000 33.67000
H  46.25900 15.46000 36.12400
H  44.53000 15.50700 35.73100
H  52.00500 18.65700 29.54700
H  50.91800 19.64600 30.54400
H  51.36700 20.30700 29.02700
H  51.95500 20.43600 27.15400
H  52.62000 19.77300 25.61400
H  52.71700 18.75500 27.05300
H  47.17000 16.02900 23.74900
H  44.29700 16.09700 23.96200
H  46.61400 18.81500 24.03800
H  45.04400 18.16500 23.58800
H  46.37600 17.94000 22.49800
H  45.18400 13.29600 24.77300
H  46.33300 13.94600 23.68800
H  43.70700 12.78400 23.27800
H  44.84000 13.11000 22.09600
H  43.65900 14.36300 22.55800
H  40.73600 15.10000 27.23500
H  40.20000 14.30500 28.65900
H  41.08600 13.31100 27.56300
H  43.28300 14.71500 33.10500
H  40.39300 17.82600 34.38300
H  41.83800 18.63000 34.82000
H  41.10900 17.36700 35.88400
Mg 29.99900 58.32100 39.39300
C  27.10300 56.43200 38.70100
C  31.83700 55.57600 38.67600
C  32.66500 60.29800 39.40400
C  27.86200 61.05000 40.07000
N  29.52600 56.24400 38.73700
C  28.26700 55.71700 38.56100
C  28.38800 54.17200 38.24200
C  29.85200 53.84600 38.57800
C  30.45600 55.26100 38.72700
C  30.17900 52.98500 39.81400
C  27.97800 53.66100 36.86000
C  28.69300 54.17900 35.63300
H  27.79500 54.63400 34.52600
N  32.05900 58.01300 39.09300
C  32.64300 56.76400 38.81500
C  34.08600 56.91200 38.66300
C  34.29600 58.34200 38.66800
C  32.99100 58.95700 39.04100
C  34.99100 55.78600 38.36000
C  35.55000 59.07900 38.35600
O  36.57500 58.46700 38.14800
C  35.50800 60.55600 38.31100
N  30.18000 60.37900 39.67600
C  31.43900 60.90600 39.66300
C  31.36900 62.45600 40.06800
C  29.87300 62.65100 40.42700
C  29.23100 61.31000 40.05600
C  32.44900 62.94400 41.09900
C  29.20100 63.86200 39.80200
C  28.22900 64.69300 40.67700
N  27.89200 58.66800 39.45500
C  27.16600 59.84900 39.69000
C  25.78700 59.62700 39.60400
C  25.62700 58.24200 39.22300
C  26.98800 57.72300 39.16200
C  24.71900 60.51200 39.95200
C  24.70400 57.12200 38.88300
O  23.49400 56.97700 38.79300
C  25.72100 55.87800 38.62100
C  25.54700 54.91000 39.76800
O  25.83400 55.04400 40.88700
O  24.98900 53.67100 39.29200
C  24.74500 52.68600 40.31700
H  32.46100 54.68400 38.59700
H  33.50800 60.99200 39.39700
H  27.22000 61.84300 40.45900
H  27.80200 53.70900 39.03700
H  30.36200 53.29000 37.79200
H  30.84300 53.45400 40.54000
H  30.70800 52.11500 39.42400
H  29.25200 52.54400 40.18000
H  26.89600 53.74300 36.76200
H  28.23900 52.60300 36.82200
H  29.26900 53.40300 35.12900
H  29.47000 54.92200 35.80900
H  35.99600 56.18500 38.50200
H  34.84700 55.47900 37.32500
H  34.93900 54.89800 38.99000
H  35.45500 61.10700 39.25000
H  34.71800 60.67500 37.56900
H  36.44800 60.76600 37.80100
H  31.47800 63.00700 39.13400
H  29.80800 62.83800 41.49900
H  33.16000 62.14200 41.30100
H  31.91200 63.11800 42.03100
H  32.74600 63.90200 40.67100
H  28.62200 63.57100 38.92500
H  29.98700 64.56200 39.51800
H  27.38800 64.96900 40.04100
H  28.77000 65.60400 40.93400
H  27.88000 64.10800 41.52800
H  23.86000 60.16500 39.37900
H  25.02100 61.52800 39.70000
H  24.34300 60.54500 40.97500
H  25.45100 55.44400 37.65800
H  23.75100 52.31000 40.07500
H  24.91800 52.95000 41.36000
H  25.42100 51.83200 40.28000

