158

Mg 7.96500 3.08500 28.33900
C  9.45100 1.89200 31.20400
C  6.05500 5.14500 30.20800
C  6.32100 3.85600 25.55700
C  9.74300 0.50700 26.53400
N  7.77700 3.36100 30.52500
C  8.55300 2.89300 31.50400
C  8.19200 3.54900 32.82400
C  7.07200 4.59600 32.44900
C  6.92100 4.31900 30.96200
C  5.80600 4.44900 33.25600
C  9.45200 4.08100 33.59800
C  9.62500 3.58800 35.06000
H  10.08200 4.59200 36.17600
N  6.52400 4.42800 27.92700
C  5.88000 5.16900 28.81800
C  5.06600 6.12600 28.16700
C  5.13900 5.82000 26.77600
C  5.98000 4.58600 26.69900
C  4.29100 7.11900 28.81600
C  4.57900 6.63400 25.66500
O  4.73100 6.20000 24.52300
C  3.72500 7.84200 25.81400
N  7.98300 2.19900 26.27800
C  7.23300 2.71200 25.29800
C  7.55300 2.06800 23.90200
C  8.74600 1.06400 24.19600
C  8.79800 1.23900 25.73500
C  6.28100 1.48900 23.25000
C  10.15000 1.59400 23.56300
C  11.02200 0.52500 22.97600
N  9.31400 1.57000 28.69400
C  10.00600 0.65700 27.85600
C  10.94700 -0.12700 28.70200
C  10.72500 0.34700 29.99200
C  9.75200 1.41200 29.90000
C  11.91600 -1.18500 28.04900
C  11.26300 0.23600 31.32500
O  12.11700 -0.45700 31.80400
C  10.40400 1.23500 32.15700
C  9.69800 0.43500 33.13400
O  8.68900 -0.30900 32.98000
O  10.33100 0.55100 34.32600
C  9.86000 -0.29100 35.36600
H  5.43500 5.78100 30.84300
H  5.73600 4.06700 24.65900
H  10.27400 -0.25300 25.95700
H  7.76100 2.70000 33.35400
H  7.52700 5.58600 32.46000
H  5.54700 5.48400 33.47800
H  5.98100 3.92800 34.19700
H  4.99900 4.00700 32.67100
H  9.31600 5.15300 33.73900
H  10.35300 3.85100 33.03100
H  10.48500 2.91900 35.06500
H  8.71300 3.06000 35.34000
H  4.74300 8.04400 28.45700
H  4.32000 7.13600 29.90600
H  3.26900 7.19700 28.44600
H  2.67300 7.62100 25.99300
H  3.81700 8.34400 24.85000
H  4.06000 8.62800 26.49100
H  7.77000 2.89300 23.22300
H  8.43100 0.02200 24.13200
H  6.27500 0.40300 23.15200
H  6.14400 1.99500 22.29400
H  5.51800 1.72600 23.99100
H  10.69300 2.18400 24.30200
H  10.01500 2.24500 22.69900
H  10.48900 -0.42500 22.95100
H  11.90000 0.48400 23.62000
H  11.27800 0.80500 21.95400
H  12.75500 -1.28400 28.73900
H  12.28900 -1.01200 27.04000
H  11.33800 -2.10900 28.08600
H  11.05100 1.94700 32.66800
H  10.57700 -0.30800 36.18700
H  9.83300 -1.28100 34.91100
H  8.86500 -0.05100 35.74300
Mg -12.43900 38.92800 41.50200
C  -10.71800 35.95900 40.58000
C  -9.71900 40.80400 40.34300
C  -14.23900 41.64300 41.97900
C  -15.14400 36.88700 42.46900
N  -10.46200 38.45000 40.60500
C  -9.93400 37.15000 40.31100
C  -8.67700 37.19400 39.49200
C  -8.27100 38.65700 39.66900
C  -9.56300 39.41000 40.17400
C  -7.01300 38.80000 40.61700
C  -8.82500 36.71900 38.08800
C  -7.90600 35.60000 37.55500
H  -7.01900 36.04900 36.41100
N  -12.02800 41.03600 41.26100
C  -10.87800 41.58900 40.80000
C  -11.06400 43.03300 40.64600
C  -12.34700 43.37400 41.11700
C  -12.91500 41.96800 41.52000
C  -10.06500 43.96500 39.89800
C  -13.04100 44.68900 41.04800
O  -12.48400 45.71700 40.64100
C  -14.37800 44.79100 41.60000
N  -14.42600 39.19800 42.04000
C  -14.84000 40.41800 42.38200
C  -16.18600 40.42500 43.13000
C  -16.51200 38.91800 43.09700
C  -15.28000 38.27300 42.52300
C  -16.24900 41.17900 44.52800
C  -17.79800 38.39100 42.32700
C  -18.72600 37.61400 43.23400
N  -12.83200 36.92000 41.75900
C  -13.98300 36.25100 42.04900
C  -13.78900 34.81500 41.98100
C  -12.53800 34.69900 41.38000
C  -11.93300 36.01200 41.30000
C  -14.78200 33.78400 42.38800
C  -11.58800 33.67700 40.81800
O  -11.59800 32.46900 40.65900
C  -10.31100 34.50900 40.50700
C  -9.35700 34.02800 41.56600
O  -9.63900 33.48800 42.63900
O  -8.12400 34.27500 41.15400
C  -7.11600 34.35900 42.24400
H  -8.83000 41.37100 40.05800
H  -14.96900 42.40100 42.27100
H  -15.91800 36.29500 42.96300
H  -7.97100 36.52800 39.98800
H  -7.98600 39.11900 38.72400
H  -6.67200 37.81000 40.91800
H  -7.34400 39.28900 41.53300
H  -6.28300 39.43100 40.11100
H  -8.58800 37.58100 37.46400
H  -9.84800 36.41200 37.86900
H  -8.63900 34.85500 37.24700
H  -7.21900 35.18200 38.29100
H  -10.30800 44.29300 38.88700
H  -9.08400 43.52500 39.71900
H  -9.87000 44.80100 40.56900
H  -14.72100 45.82500 41.64100
H  -14.23300 44.39900 42.60700
H  -15.12400 44.13500 41.15200
H  -16.85300 40.89300 42.40600
H  -16.52800 38.58300 44.13400
H  -15.53600 40.64700 45.15800
H  -17.22500 41.21600 45.01100
H  -15.82900 42.17500 44.38100
H  -17.50600 37.76500 41.48400
H  -18.16200 39.32800 41.90400
H  -19.06700 36.83600 42.55100
H  -19.59500 38.19900 43.53300
H  -18.22400 37.20900 44.11300
H  -15.80100 34.06800 42.12700
H  -14.77500 33.64200 43.46900
H  -14.54800 32.81300 41.95300
H  -9.96200 34.15500 39.53700
H  -7.14500 33.43100 42.81500
H  -7.32200 35.11400 43.00200
H  -6.09000 34.52700 41.91500

