158

Mg 41.51200 42.17700 26.62900
C  40.72300 44.55200 29.17600
C  42.51400 40.01600 29.00600
C  42.26200 40.07300 24.25000
C  40.58100 44.55800 24.27900
N  41.76200 42.38000 28.85300
C  41.28900 43.41500 29.69600
C  41.47900 43.05400 31.18400
C  42.09100 41.59400 31.07500
C  42.15000 41.27400 29.60200
C  43.45400 41.31400 31.91100
C  40.15700 43.14700 32.00200
C  40.05000 42.37100 33.37300
H  39.58100 43.08400 34.75700
N  42.27000 40.26100 26.63300
C  42.58200 39.50000 27.72100
C  43.05900 38.29100 27.28100
C  43.05500 38.30900 25.90500
C  42.54900 39.58100 25.52400
C  43.54900 37.18800 28.20800
C  43.41000 37.22700 24.91400
O  43.19000 37.33600 23.74400
C  43.99500 36.02800 25.38400
N  41.46400 42.32100 24.60400
C  41.69800 41.26700 23.83400
C  41.43300 41.56500 22.29800
C  40.90100 42.99200 22.39900
C  40.93500 43.33800 23.85400
C  42.70400 41.43400 21.34500
C  39.50900 43.00800 21.77200
C  38.41800 42.21600 22.45700
N  40.86300 44.17800 26.64000
C  40.57800 45.02900 25.59000
C  40.14600 46.29700 26.06000
C  40.06400 46.15100 27.50000
C  40.59000 44.85000 27.79000
C  39.53700 47.38200 25.17300
C  39.69800 46.78200 28.76400
O  39.19300 47.87400 28.98100
C  40.12500 45.78200 29.85800
C  41.14500 46.49800 30.73900
O  42.28100 46.70700 30.31000
O  40.78000 46.53600 32.02300
C  41.84900 46.72900 33.01800
H  42.54600 39.25100 29.78500
H  42.48100 39.42600 23.39700
H  40.22600 45.30800 23.56800
H  42.19400 43.76500 31.59800
H  41.35200 40.92900 31.52200
H  43.77100 42.22300 32.42200
H  44.33500 40.96400 31.37300
H  43.23200 40.51500 32.61900
H  39.36600 42.89700 31.29600
H  40.07200 44.21200 32.21900
H  40.93900 41.78400 33.60300
H  39.24000 41.66800 33.17900
H  42.74000 36.45900 28.25100
H  43.71500 37.51300 29.23500
H  44.40900 36.66300 27.79100
H  44.98800 36.26600 25.76500
H  44.16900 35.33400 24.56200
H  43.31400 35.59800 26.11900
H  40.73800 40.72700 22.24000
H  41.53600 43.76800 21.97200
H  43.61800 41.37300 21.93600
H  42.69700 42.24800 20.62000
H  42.65300 40.47800 20.82300
H  39.70900 42.69900 20.74600
H  39.20900 44.05400 21.70600
H  38.67700 41.49300 23.23100
H  38.07300 41.56300 21.65600
H  37.61800 42.86100 22.82000
H  38.74000 47.85200 25.74900
H  39.05700 47.12200 24.22900
H  40.30100 48.11600 24.92100
H  39.26500 45.56000 30.49100
H  41.60400 47.71300 33.41800
H  42.86900 46.65700 32.64100
H  41.67300 45.98700 33.79700
Mg 31.01700 58.67200 38.97800
C  28.20000 56.76900 38.15700
C  33.10000 56.05400 38.44900
C  33.65300 60.72300 39.35100
C  28.90700 61.46500 39.03600
N  30.64700 56.65500 38.16400
C  29.39500 56.08500 38.07500
C  29.60500 54.54200 37.72000
C  31.19400 54.36600 37.82700
C  31.70800 55.76400 38.20500
C  31.66300 53.10100 38.70700
C  29.02900 54.04000 36.35400
C  29.45300 54.71800 35.04600
H  28.33300 55.33900 34.14900
N  33.06200 58.43300 39.00700
C  33.77100 57.29700 38.76900
C  35.21400 57.56200 38.92300
C  35.35700 58.93200 39.23000
C  33.97100 59.44600 39.15000
C  36.22500 56.48700 38.66100
C  36.68900 59.53500 39.59600
O  37.72400 58.82000 39.56000
C  36.91200 61.06200 39.90800
N  31.32000 60.84400 39.01400
C  32.45600 61.40400 39.25100
C  32.37400 62.94300 39.23100
C  30.89800 63.13600 39.60800
C  30.29200 61.73000 39.29900
C  33.32900 63.72000 40.14000
C  30.21200 64.33100 38.81700
C  29.11300 65.09500 39.45000
N  28.98300 59.12900 38.67300
C  28.26500 60.27600 38.78200
C  26.81900 60.05300 38.52500
C  26.74500 58.65200 38.30200
C  28.13500 58.15000 38.34700
C  25.69600 61.08500 38.62500
C  25.82000 57.56400 38.13700
O  24.59900 57.53600 38.09800
C  26.74500 56.24000 38.00000
C  26.35600 55.19800 39.08900
O  26.90800 55.09500 40.18600
O  25.34700 54.40200 38.60300
C  24.73800 53.33100 39.39900
H  33.75900 55.19800 38.28800
H  34.48000 61.38900 39.09400
H  28.30600 62.37100 39.13200
H  29.22900 54.02500 38.60300
H  31.55400 54.09300 36.83500
H  32.35900 52.43800 38.19300
H  30.89000 52.46300 39.13600
H  32.17200 53.44700 39.60700
H  27.98800 54.35800 36.40900
H  29.03600 52.95100 36.31500
H  29.93500 53.99800 34.38500
H  30.22200 55.45000 35.29200
H  37.11600 56.87200 38.16500
H  35.81100 55.71300 38.01500
H  36.53700 55.98800 39.57900
H  36.11100 61.36700 40.58000
H  36.90700 61.59700 38.95800
H  37.90800 61.03900 40.35100
H  32.65700 63.10100 38.19000
H  30.81000 63.24200 40.68900
H  34.37400 63.56800 39.86900
H  33.08600 63.50000 41.18000
H  33.13000 64.77900 39.97700
H  29.89900 64.00300 37.82600
H  31.00000 65.04400 38.57100
H  29.13000 65.15200 40.53900
H  28.19600 64.59700 39.13400
H  29.50300 66.07000 39.15900
H  25.05700 61.11000 37.74300
H  26.19800 62.03500 38.81000
H  25.03500 60.81800 39.44900
H  26.58600 55.73200 37.04900
H  24.90000 52.30200 39.07700
H  23.68400 53.49500 39.62100
H  25.19400 53.39200 40.38800

