158

Mg 53.50500 23.95300 45.16800
C  50.63600 25.86300 44.49100
C  52.19600 21.28700 43.83500
C  56.71100 22.60300 45.09300
C  54.99500 27.04300 46.09500
N  51.65600 23.68600 44.23900
C  50.62700 24.51400 44.02300
C  49.31400 23.80800 43.75000
C  49.83600 22.27500 43.67900
C  51.33700 22.44000 43.96000
C  49.13900 21.23700 44.66100
C  48.54600 24.23500 42.54200
C  49.35800 24.36400 41.23000
H  48.85600 23.74900 39.99300
N  54.34300 22.14700 44.56500
C  53.59900 21.14100 44.11700
C  54.45900 19.97800 43.90700
C  55.80200 20.33600 44.22300
C  55.69400 21.71700 44.68200
C  53.90700 18.64000 43.28300
C  57.02800 19.47300 44.11400
O  56.92900 18.34700 43.66500
C  58.37900 20.01300 44.47300
N  55.55900 24.75300 45.40700
C  56.61200 23.97400 45.29600
C  57.93900 24.78600 45.58400
C  57.38000 26.16900 45.94400
C  55.84500 26.00400 45.77100
C  58.99800 24.20200 46.62000
C  57.74500 27.37100 45.02500
C  59.23000 27.46100 44.60500
N  52.91500 26.00000 45.45900
C  53.58900 27.06900 45.92300
C  52.74200 28.23700 46.22100
C  51.56600 27.85700 45.58500
C  51.74200 26.47900 45.12200
C  53.17100 29.50500 46.93200
C  50.20500 28.25400 45.22800
O  49.54200 29.30300 45.46100
C  49.59900 26.99800 44.46300
C  49.35400 27.52400 43.12600
O  50.27500 27.79800 42.32400
O  47.99900 27.59400 42.86600
C  47.40700 28.02700 41.54900
H  51.58700 20.39300 43.68400
H  57.69400 22.13300 45.16600
H  55.37400 28.04800 46.29400
H  48.81900 23.93700 44.71300
H  49.77500 21.92100 42.64900
H  48.44800 21.80000 45.28800
H  49.81300 20.62800 45.26300
H  48.59500 20.57600 43.98500
H  48.01300 25.16700 42.72800
H  47.66200 23.60200 42.45700
H  50.33000 23.91900 41.44200
H  49.56200 25.41000 40.99800
H  54.42000 18.39800 42.35200
H  52.83500 18.72400 43.11100
H  54.05500 17.75200 43.89700
H  58.58900 20.82100 43.77300
H  59.04600 19.17400 44.27500
H  58.30300 20.25500 45.53400
H  58.47000 24.81800 44.63300
H  57.53800 26.32900 47.01100
H  59.70400 23.54300 46.11600
H  58.62800 23.60300 47.45300
H  59.62000 24.97300 47.07400
H  57.50900 28.33000 45.48800
H  57.19600 27.18400 44.10200
H  59.87100 26.75500 45.13300
H  59.73200 28.41000 44.79700
H  59.22200 27.17900 43.55300
H  52.29900 30.13000 47.12700
H  53.91600 30.05800 46.36000
H  53.58300 29.28300 47.91600
H  48.64100 26.68800 44.88000
H  46.80500 28.93500 41.54500
H  46.79800 27.23400 41.11300
H  48.23200 28.28700 40.88600
Mg -2.37700 34.33000 26.90500
C  -3.15900 32.52100 29.68700
C  -0.67700 36.63600 28.82600
C  -1.78200 36.11500 24.06200
C  -4.06800 32.00600 24.97200
N  -2.01300 34.56900 29.00700
C  -2.32800 33.61400 29.96000
C  -1.87800 34.05000 31.35700
C  -1.30600 35.53300 31.12200
C  -1.21700 35.55000 29.59000
C  -2.19900 36.69100 31.67100
C  -0.98000 33.10100 32.17200
C  -1.42100 32.56800 33.57000
H  -0.34000 32.42400 34.68300
N  -1.45200 36.09200 26.47900
C  -0.79800 36.85000 27.37500
C  -0.21600 37.96800 26.66700
C  -0.63400 37.96400 25.33800
C  -1.33600 36.65400 25.24000
C  0.65300 38.90700 27.36300
C  -0.59000 39.03300 24.20200
O  -1.01300 38.90200 23.08100
C  -0.09100 40.33900 24.55100
N  -3.04300 34.19700 24.83700
C  -2.55400 35.02400 23.85100
C  -2.99400 34.61200 22.45700
C  -3.67800 33.24400 22.73000
C  -3.62600 33.10600 24.28300
C  -3.94000 35.67300 21.78000
C  -3.13500 32.16400 21.76900
C  -1.82200 31.58500 22.27900
N  -3.57600 32.75300 27.24900
C  -4.14100 31.79200 26.37200
C  -4.78600 30.69900 27.07500
C  -4.52900 31.05300 28.42500
C  -3.63300 32.13900 28.45200
C  -5.74000 29.65800 26.59000
C  -4.75300 30.57800 29.73300
O  -5.40500 29.63200 30.19800
C  -3.84500 31.53700 30.66700
C  -4.69900 32.25900 31.63100
O  -5.27900 33.31600 31.35400
O  -4.63900 31.67700 32.85900
C  -5.29500 32.43400 33.99300
H  -0.21300 37.39800 29.45600
H  -1.28000 36.37600 23.12900
H  -4.49700 31.26100 24.29900
H  -2.78400 34.18900 31.94700
H  -0.31800 35.53100 31.58100
H  -2.48500 37.44000 30.93200
H  -1.57100 37.08200 32.47100
H  -3.05100 36.32900 32.24500
H  0.00400 33.48900 32.43600
H  -0.88500 32.30200 31.43700
H  -1.73500 31.57400 33.25000
H  -2.36800 33.00700 33.88300
H  0.22500 39.89800 27.21000
H  1.62800 39.04200 26.89500
H  0.78900 38.79900 28.43900
H  0.98900 40.26200 24.67400
H  -0.55500 40.68700 25.47300
H  -0.27100 41.05600 23.75000
H  -2.05000 34.44100 21.93800
H  -4.72500 33.40900 22.47500
H  -4.22900 36.42900 22.51000
H  -4.82200 35.19200 21.35700
H  -3.33600 36.13300 20.99800
H  -3.03400 32.50700 20.74000
H  -3.87600 31.36500 21.74500
H  -1.73900 30.51500 22.08700
H  -1.51600 31.74600 23.31300
H  -1.00200 31.96600 21.67100
H  -5.43900 28.75300 27.11900
H  -5.66700 29.53800 25.50900
H  -6.70400 30.04500 26.92000
H  -3.18700 30.80500 31.13500
H  -4.65000 33.29300 34.17900
H  -5.51100 31.75500 34.81800
H  -6.24200 32.87700 33.68500

