158

Mg 35.92800 1.24000 29.73000
C  33.79300 2.23700 32.37400
C  38.50400 0.96400 32.13200
C  38.11100 0.94400 27.26400
C  33.25800 1.72700 27.50700
N  36.11300 1.52500 32.02900
C  35.11400 1.96400 32.83700
C  35.61300 1.75800 34.32600
C  37.19800 1.75700 34.17400
C  37.27900 1.41000 32.67200
C  37.88400 3.14100 34.56800
C  34.93600 0.50100 35.05300
C  34.13200 0.76500 36.26600
H  34.47200 2.03700 37.01400
N  38.06100 0.82300 29.75700
C  38.86000 0.72200 30.80300
C  40.21400 0.45500 30.29500
C  40.08700 0.38700 28.86600
C  38.67000 0.71100 28.56700
C  41.36400 0.05100 31.29200
C  41.14400 0.27600 27.70200
O  40.87000 0.14700 26.49700
C  42.54600 0.11900 27.98800
N  35.73200 1.32300 27.68400
C  36.78200 1.25100 26.87300
C  36.36700 1.33200 25.40900
C  34.78100 1.44800 25.46100
C  34.53200 1.44800 26.96800
C  36.97600 2.56800 24.70800
C  34.12100 0.30200 24.71400
C  33.80400 -1.00000 25.47500
N  33.94000 1.76700 29.89800
C  33.00200 2.00200 28.91600
C  31.75100 2.53400 29.50600
C  31.99800 2.54400 30.88100
C  33.39400 2.11000 31.05600
C  30.47100 3.00200 28.75400
C  31.41300 2.89800 32.15800
O  30.29000 3.27600 32.48300
C  32.57000 2.65800 33.20700
C  32.74300 3.90500 33.99300
O  33.57700 4.75100 33.67100
O  31.85900 3.99300 35.04000
C  31.88800 5.22600 35.80500
H  39.34400 0.76900 32.80200
H  38.73800 0.74100 26.39300
H  32.47900 1.91700 26.76600
H  35.36500 2.71400 34.78800
H  37.55400 0.85900 34.67900
H  37.16000 3.89400 34.88000
H  38.38900 3.54000 33.68800
H  38.65100 3.12900 35.34200
H  35.73400 -0.21100 35.26200
H  34.40800 -0.02100 34.25500
H  34.12800 -0.05200 36.98800
H  33.06600 0.79700 36.04100
H  42.20200 -0.48100 30.84200
H  40.93800 -0.61000 32.04600
H  41.78000 0.94500 31.75700
H  42.59300 -0.82100 28.53800
H  42.76700 1.05300 28.50500
H  43.17200 0.06700 27.09800
H  36.71500 0.47300 24.83500
H  34.30900 2.35200 25.07600
H  36.16600 3.28200 24.56000
H  37.49300 2.36700 23.77000
H  37.63600 3.17300 25.32900
H  34.85000 -0.07200 23.99600
H  33.26700 0.66400 24.14100
H  34.39600 -1.86200 25.16400
H  32.82300 -1.43000 25.27100
H  33.80500 -0.91100 26.56100
H  30.67100 2.78100 27.70500
H  30.34900 4.05600 29.00400
H  29.73900 2.27300 29.10200
H  32.17700 1.90500 33.89000
H  31.59300 6.06000 35.16800
H  32.90000 5.44400 36.14500
H  31.24400 5.13800 36.67900
Mg 46.38700 44.79900 43.80600
C  43.09100 43.69400 43.38600
C  47.51400 41.50300 43.27800
C  49.66200 45.85100 43.72400
C  45.26800 48.01900 43.93900
N  45.43000 42.81400 43.23100
C  44.10200 42.61400 43.19700
C  43.73000 41.08900 42.96400
C  45.12000 40.41000 43.23700
C  46.09200 41.64400 43.13200
C  45.16600 39.80900 44.61700
C  43.08800 40.77300 41.56400
C  43.64100 41.52500 40.34200
H  43.25400 40.97900 38.94100
N  48.37200 43.81600 43.53000
C  48.57800 42.42300 43.44000
C  49.98400 42.16600 43.48300
C  50.65700 43.43400 43.63900
C  49.53100 44.43700 43.66500
C  50.61200 40.82200 43.30800
C  52.16500 43.53800 43.78600
O  52.88100 42.57100 43.76600
C  52.84900 44.88300 43.84200
N  47.35600 46.74700 43.58500
C  48.64500 46.86100 43.89800
C  49.01100 48.31000 44.23800
C  47.58300 49.04000 44.03000
C  46.63900 47.86300 43.80800
C  49.63600 48.37500 45.73500
C  47.48500 50.13100 42.85400
C  47.58400 51.57000 43.28300
N  44.63800 45.70700 43.65900
C  44.28700 47.02300 43.75100
C  42.81300 47.18900 43.67200
C  42.32400 45.88800 43.52600
C  43.47600 45.02700 43.53600
C  42.02600 48.42600 43.67200
C  41.14900 45.05800 43.43200
O  39.98200 45.40000 43.42900
C  41.58400 43.59200 43.33300
C  40.98600 42.87800 44.50100
O  40.08700 42.02900 44.42100
O  41.54400 43.40300 45.67700
C  40.83900 42.86100 46.89900
H  47.74800 40.45200 43.45500
H  50.67800 46.24600 43.80000
H  44.90500 49.00300 44.24400
H  42.98700 40.68200 43.65100
H  45.41500 39.62100 42.54500
H  44.25900 39.24300 44.82500
H  45.44200 40.52700 45.39000
H  45.97500 39.07800 44.59700
H  42.05100 41.00700 41.80300
H  43.23400 39.72400 41.30600
H  44.72800 41.55500 40.41800
H  43.18700 42.50600 40.48100
H  51.16700 40.74200 42.37300
H  49.90500 39.99400 43.36300
H  51.11700 40.65900 44.26000
H  52.32900 45.26600 44.72000
H  52.82300 45.47100 42.92500
H  53.91600 44.78500 44.04600
H  49.66800 48.64900 43.43700
H  47.23000 49.48500 44.96100
H  49.14300 49.20500 46.24000
H  50.68900 48.65400 45.69800
H  49.47900 47.42700 46.25000
H  46.49000 50.12100 42.40900
H  48.18900 50.00300 42.03200
H  47.55600 51.70400 44.36400
H  46.70900 52.13100 42.95500
H  48.46600 52.13800 42.98900
H  41.49200 48.58100 44.61000
H  41.26100 48.27300 42.91000
H  42.48700 49.40100 43.51400
H  41.27800 43.13800 42.39100
H  40.90400 41.77300 46.90100
H  39.78000 43.11500 46.84000
H  41.26200 43.25000 47.82600

