158

Mg 35.95400 49.05400 25.45800
C  36.18600 47.16900 28.50700
C  34.27700 51.50400 27.09300
C  35.82900 50.75600 22.57200
C  37.51300 46.41700 23.84500
N  35.31000 49.22300 27.51200
C  35.62200 48.47800 28.60000
C  35.40500 49.21000 29.87500
C  34.61000 50.48800 29.43400
C  34.63100 50.41800 27.86000
C  33.17100 50.53500 30.03000
C  36.77600 49.45700 30.68300
C  36.90800 49.12200 32.23800
H  35.60300 49.39600 33.02200
N  35.08500 50.86500 24.87300
C  34.43900 51.77200 25.69100
C  33.82400 52.77100 24.91600
C  34.22600 52.53800 23.57300
C  35.07700 51.35600 23.59800
C  32.88700 53.88100 25.49100
C  33.96300 53.25600 22.25700
O  34.56500 53.04600 21.20900
C  32.96500 54.32600 22.27800
N  36.60200 48.69800 23.50300
C  36.38900 49.46200 22.46200
C  37.00600 48.95300 21.15500
C  37.62800 47.61700 21.63900
C  37.21400 47.57700 23.12600
C  35.96600 48.82400 19.99300
C  39.23800 47.48600 21.50600
C  39.76600 46.16000 21.13500
N  36.77500 47.17900 25.97500
C  37.33600 46.21100 25.17400
C  37.62100 44.99700 25.95400
C  37.29400 45.34500 27.29300
C  36.74700 46.65300 27.25200
C  38.00800 43.64600 25.45600
C  37.22500 44.90200 28.68400
O  37.57400 43.88300 29.20200
C  36.68200 46.08900 29.54800
C  35.56200 45.72200 30.43100
O  34.42300 45.47800 30.14000
O  36.08000 45.60600 31.74500
C  35.00700 45.31100 32.71600
H  33.92400 52.35600 27.67800
H  35.80500 51.30900 21.63100
H  38.11400 45.67900 23.31000
H  34.80200 48.51400 30.45800
H  35.16900 51.39100 29.67900
H  32.37400 50.67200 29.29900
H  33.13800 51.36600 30.73400
H  32.84900 49.67700 30.62100
H  37.01000 50.51600 30.57900
H  37.57600 48.99500 30.10600
H  37.74100 49.69300 32.64700
H  37.13300 48.05900 32.33000
H  33.43500 54.74200 25.87300
H  32.43900 53.36200 26.33800
H  32.11100 54.01800 24.73800
H  32.90500 54.61800 21.23000
H  33.25900 55.24600 22.78300
H  31.93200 54.08600 22.52900
H  37.73200 49.67100 20.77400
H  37.19500 46.75500 21.13100
H  36.07500 47.85100 19.51300
H  36.22700 49.61400 19.28900
H  34.94600 48.94800 20.35700
H  39.68300 47.81600 22.44500
H  39.43500 48.22400 20.72900
H  40.18600 46.14400 20.13000
H  39.10200 45.31100 21.30000
H  40.54000 45.91000 21.86000
H  38.45500 43.67900 24.46300
H  37.10900 43.04600 25.31800
H  38.64800 43.07300 26.12800
H  37.44100 46.61200 30.12900
H  34.79300 44.24400 32.77200
H  34.13100 45.92900 32.52000
H  35.28300 45.57400 33.73800
Mg -5.11500 25.51400 25.25400
C  -3.43600 27.20000 27.82800
C  -6.49100 23.42700 27.45700
C  -6.28300 23.65400 22.70400
C  -2.77900 27.06800 23.08600
N  -4.79300 25.25100 27.41400
C  -4.26200 26.15900 28.31600
C  -4.74400 25.85000 29.71100
C  -5.44200 24.48900 29.58300
C  -5.63000 24.39800 28.02100
C  -4.71400 23.23200 30.10500
C  -5.66600 26.97200 30.43400
C  -5.09700 27.34200 31.79000
H  -4.74200 26.08500 32.65700
N  -6.26800 23.78400 25.07300
C  -6.81800 23.12000 26.12500
C  -7.76000 22.12900 25.65300
C  -7.68000 22.10200 24.26200
C  -6.78000 23.26500 23.95900
C  -8.56500 21.34700 26.71000
C  -8.42000 21.19200 23.24900
O  -8.21100 21.25200 22.07500
C  -9.45000 20.10900 23.68000
N  -4.60300 25.35600 23.29100
C  -5.25800 24.56500 22.37800
C  -4.68100 24.69200 20.96800
C  -3.58700 25.77000 21.06300
C  -3.60500 26.01200 22.57300
C  -4.09800 23.32000 20.36300
C  -3.82700 27.05200 20.21600
C  -3.58400 27.03500 18.72900
N  -3.57100 27.00400 25.35000
C  -2.74800 27.60300 24.40600
C  -1.91700 28.63300 24.98100
C  -2.11400 28.46700 26.37500
C  -3.11800 27.49500 26.49800
C  -1.01400 29.53200 24.28700
C  -1.73200 28.91400 27.68400
O  -0.84100 29.72000 27.98400
C  -2.54500 28.08700 28.71700
C  -1.48000 27.39200 29.48300
O  -0.71900 26.51700 29.03800
O  -1.49500 27.81900 30.77500
C  -0.71200 27.17300 31.79700
H  -7.02000 23.00900 28.31600
H  -6.85000 23.20100 21.88800
H  -2.10600 27.63800 22.44300
H  -3.85200 25.61300 30.29100
H  -6.45300 24.39000 29.97700
H  -3.87600 23.35900 30.79000
H  -4.33700 22.70600 29.22800
H  -5.52700 22.65700 30.54800
H  -6.71300 26.70500 30.58100
H  -5.69500 27.86900 29.81600
H  -5.83900 27.99400 32.25200
H  -4.26800 28.02100 31.58700
H  -9.48600 21.91600 26.83300
H  -8.10400 21.37600 27.69700
H  -8.75900 20.33000 26.36800
H  -9.97100 19.94000 22.73700
H  -10.08800 20.52000 24.46300
H  -8.97700 19.21100 24.07700
H  -5.49400 25.03200 20.32700
H  -2.59100 25.39300 20.83200
H  -4.46800 23.27100 19.33900
H  -4.52000 22.47400 20.90600
H  -3.01100 23.35300 20.30000
H  -3.28100 27.91700 20.59300
H  -4.84800 27.33900 20.46900
H  -2.85000 27.78700 18.44100
H  -4.52300 27.30200 18.24400
H  -3.20300 26.07200 18.38900
H  -1.06200 30.57600 24.59600
H  -1.25200 29.40700 23.23000
H  -0.01100 29.19000 24.53900
H  -3.02100 28.83900 29.34600
H  -1.43100 27.27000 32.61000
H  0.24500 27.66900 31.96200
H  -0.64700 26.12100 31.51800

