158

Mg 53.56500 24.91400 43.92500
C  50.59200 26.82300 43.19500
C  52.16200 22.28100 42.34400
C  56.51800 23.51000 44.03100
C  54.94800 28.03100 45.14700
N  51.74200 24.76800 42.76000
C  50.66400 25.62100 42.55800
C  49.50600 24.85100 41.94400
C  49.87900 23.41700 42.16200
C  51.37600 23.47600 42.39800
C  49.19400 22.61700 43.35000
C  49.04500 25.32600 40.47900
C  47.60700 24.89000 40.08800
H  47.46100 23.47000 39.56500
N  54.28500 23.07300 43.34100
C  53.49600 22.10800 42.72600
C  54.31700 20.85900 42.71300
C  55.65000 21.12900 43.25300
C  55.53600 22.62800 43.53500
C  53.72200 19.73500 42.02400
C  56.73400 20.17400 43.51400
O  56.52300 18.98400 43.25100
C  58.11500 20.51000 44.11400
N  55.48900 25.68500 44.49900
C  56.52200 24.89100 44.39100
C  57.75100 25.51700 45.14000
C  57.34800 27.02900 45.37400
C  55.90800 26.96800 44.93600
C  58.18000 24.75200 46.41400
C  58.17700 28.13900 44.63800
C  58.22300 28.30000 43.10100
N  52.98200 26.98000 44.18800
C  53.55900 28.00800 44.84600
C  52.62200 28.99300 45.19800
C  51.48900 28.63300 44.53000
C  51.69600 27.38300 43.88100
C  52.91700 30.25200 45.97600
C  50.14700 29.00000 44.23300
O  49.49100 29.97700 44.52800
C  49.48500 27.81500 43.44400
C  48.79800 28.26100 42.22400
O  49.35800 28.61900 41.20200
O  47.42000 28.27600 42.38900
C  46.73200 28.60200 41.13900
H  51.66300 21.36300 42.03000
H  57.51800 23.15500 44.28900
H  55.33600 28.97400 45.53700
H  48.57300 24.94900 42.50000
H  49.66700 22.93300 41.20900
H  48.47400 23.27500 43.83700
H  49.94400 22.37600 44.10300
H  48.71600 21.75000 42.89500
H  49.74200 24.84100 39.79500
H  49.16900 26.38000 40.23400
H  47.20600 25.56600 39.33200
H  47.14400 25.03100 41.06500
H  54.35400 18.84700 41.98500
H  53.45600 19.89200 40.97800
H  52.75100 19.52700 42.47300
H  58.74000 21.16000 43.50100
H  58.75200 19.62600 44.10600
H  58.09400 21.09000 45.03600
H  58.60100 25.51200 44.45800
H  57.49700 27.19900 46.44000
H  57.35300 24.27200 46.93800
H  58.71800 25.43000 47.07700
H  58.88100 23.96300 46.14200
H  59.20900 27.96600 44.94300
H  57.86900 29.07800 45.09900
H  57.60100 29.11100 42.72100
H  57.82600 27.41600 42.60200
H  59.24800 28.48900 42.78300
H  52.03900 30.68400 46.45600
H  53.45100 31.07900 45.50800
H  53.59100 30.08900 46.81700
H  48.66900 27.30400 43.95500
H  46.70500 27.68100 40.55600
H  47.15900 29.31000 40.42900
H  45.68800 28.86700 41.30800
Mg 45.94100 24.71200 28.51600
C  46.51800 27.04100 30.99200
C  44.97100 22.55200 30.86700
C  45.84200 22.17300 26.13600
C  47.20500 26.86100 26.16700
N  45.78000 24.81300 30.76700
C  46.03900 25.86500 31.58100
C  45.75500 25.54400 33.13100
C  45.17100 24.06100 32.92400
C  45.28900 23.75600 31.41700
C  45.84100 22.96700 33.77900
C  44.75600 26.55200 33.77200
C  45.24700 27.10200 35.17700
H  44.21800 26.95200 36.31900
N  45.32200 22.67700 28.45700
C  44.90500 21.96100 29.53900
C  44.57300 20.62300 29.14700
C  44.73900 20.48900 27.74700
C  45.29100 21.81500 27.39700
C  44.16100 19.55000 30.21200
C  44.67700 19.24900 26.85200
O  45.08400 19.21000 25.70600
C  44.00700 17.96300 27.41800
N  46.50200 24.50400 26.46200
C  46.49700 23.35100 25.76300
C  47.08000 23.51300 24.27700
C  47.19600 25.06600 24.29800
C  46.93900 25.54900 25.69300
C  48.39600 22.65500 24.12700
C  46.33400 25.78100 23.23300
C  45.02300 26.56200 23.58500
N  46.82400 26.53700 28.50800
C  47.16100 27.36300 27.45500
C  47.59300 28.65400 27.96700
C  47.32900 28.52100 29.32100
C  46.86700 27.28300 29.64600
C  48.10400 29.79600 27.15700
C  47.46100 29.32300 30.56800
O  47.76800 30.51500 30.67500
C  46.94100 28.38800 31.71300
C  48.09100 28.06200 32.68600
O  48.92300 27.22400 32.41700
O  47.92500 28.66300 33.91400
C  48.79700 28.26100 35.05500
H  44.66800 21.83900 31.63600
H  45.72500 21.54800 25.24800
H  47.41200 27.50000 25.30600
H  46.70000 25.47100 33.67000
H  44.10900 24.07100 33.16900
H  46.59700 23.38900 34.44200
H  46.35400 22.11200 33.33900
H  45.02800 22.64100 34.42700
H  43.76600 26.12800 33.94400
H  44.71400 27.41800 33.11200
H  45.36900 28.16200 34.95100
H  46.20400 26.73800 35.55100
H  43.11900 19.24000 30.14000
H  44.29900 19.89200 31.23800
H  44.85400 18.72000 30.07400
H  44.64200 17.33900 28.04600
H  43.69500 17.44400 26.51100
H  43.12200 18.22900 27.99700
H  46.31500 23.21900 23.55800
H  48.23000 25.32800 24.07200
H  48.58500 22.38800 25.16700
H  49.21800 23.17300 23.63300
H  48.23300 21.78400 23.49400
H  46.11600 25.19100 22.34300
H  46.99800 26.57500 22.89400
H  44.55600 26.03000 24.41300
H  44.35500 26.41900 22.73500
H  45.19000 27.63800 23.62100
H  47.59500 29.82700 26.19400
H  49.12700 29.64500 26.81200
H  48.02700 30.75500 27.67100
H  46.21200 29.01300 32.22900
H  48.78600 27.20200 35.31400
H  48.36100 28.93600 35.79100
H  49.82700 28.61600 35.01100

