158

Mg 9.62300 47.52700 26.49100
C  7.88100 47.54500 29.37300
C  12.33900 48.85300 28.14000
C  11.29000 47.37700 23.58100
C  6.62600 46.78200 24.78200
N  10.07800 48.10300 28.55200
C  9.19600 48.04900 29.53400
C  9.88000 48.33900 30.88500
C  11.02900 49.29800 30.42900
C  11.15900 48.78900 28.95500
C  10.70200 50.78900 30.36200
C  10.41900 47.13700 31.64300
C  10.54000 47.31300 33.13100
H  10.24500 46.22900 34.18000
N  11.55000 48.20700 25.90900
C  12.54800 48.57600 26.75900
C  13.73700 48.72000 25.92100
C  13.43900 48.16200 24.59900
C  12.04800 47.87100 24.65400
C  15.01400 49.33300 26.53300
C  14.42800 47.98400 23.44500
O  14.09300 47.55700 22.36000
C  15.98600 48.29500 23.60100
N  8.98600 47.29700 24.34600
C  9.89700 47.20400 23.38800
C  9.18400 46.79500 22.09900
C  7.78100 46.51400 22.51700
C  7.75000 46.90000 23.93400
C  9.41500 47.88100 21.01600
C  7.33000 45.00000 22.19000
C  7.90600 43.93800 23.15500
N  7.72400 47.03000 26.92200
C  6.54000 46.81100 26.19800
C  5.42200 46.70700 27.05600
C  5.88900 46.97000 28.28300
C  7.24900 47.15500 28.16300
C  3.93700 46.60900 26.74700
C  5.48200 47.14500 29.65100
O  4.31100 47.06100 30.05400
C  6.80400 47.40000 30.46400
C  6.93100 46.04000 31.21400
O  7.49900 45.07000 30.77900
O  6.30700 46.15300 32.37900
C  6.26500 44.94500 33.22200
H  13.17200 49.22700 28.73900
H  11.83500 47.07700 22.68400
H  5.68900 46.55500 24.27000
H  9.28200 48.97900 31.53400
H  11.94300 49.13300 30.99900
H  11.10700 51.30800 31.23000
H  9.64500 50.92800 30.59000
H  10.91500 51.29000 29.41700
H  11.36000 46.76400 31.23900
H  9.74500 46.28600 31.55600
H  9.81300 48.06900 33.43000
H  11.60300 47.52500 33.24600
H  14.73900 50.26900 27.01900
H  15.93200 49.44400 25.95600
H  15.43700 48.72400 27.33100
H  16.34000 47.78100 24.49500
H  16.07100 49.38200 23.59600
H  16.57100 47.90500 22.76900
H  9.58400 45.83000 21.78700
H  7.03100 47.12700 22.01800
H  9.68600 47.37000 20.09200
H  10.22600 48.51200 21.38000
H  8.57000 48.55200 20.86400
H  7.75500 44.71400 21.22800
H  6.24700 44.93000 22.08700
H  7.05100 43.52100 23.68600
H  8.56100 44.31600 23.94000
H  8.51100 43.18700 22.64600
H  3.59300 47.63000 26.91400
H  3.52600 45.95800 27.51900
H  3.68100 46.28900 25.73700
H  6.71000 48.32000 31.04200
H  6.59300 45.34300 34.18300
H  7.06400 44.23800 33.00000
H  5.26200 44.55000 33.37900
Mg -11.84900 15.65300 42.03300
C  -8.92400 13.81800 41.94400
C  -10.13900 18.29000 40.69100
C  -14.78700 17.23300 40.94800
C  -13.64500 12.76100 42.74100
N  -9.73600 15.97300 41.37900
C  -8.70600 15.09900 41.49000
C  -7.44900 15.63100 40.86600
C  -7.82600 17.12400 40.82000
C  -9.31100 17.16700 40.97000
C  -7.08100 17.97600 41.88600
C  -7.24300 14.93200 39.46200
C  -5.87400 14.38500 39.16400
H  -5.08800 14.80900 38.00700
N  -12.37400 17.50500 41.10500
C  -11.50100 18.44300 40.73100
C  -12.17100 19.63100 40.20600
C  -13.54500 19.26700 40.06000
C  -13.62600 17.92500 40.69500
C  -11.41000 20.89600 39.84600
C  -14.54100 19.94400 39.18000
O  -14.34500 21.02400 38.61600
C  -15.80800 19.13200 38.76800
N  -13.93300 15.11700 41.90000
C  -15.01800 15.94900 41.51700
C  -16.35200 15.17800 41.51100
C  -15.92100 13.76300 41.98300
C  -14.37500 13.86400 42.18400
C  -17.45900 15.84100 42.39100
C  -16.36600 12.60600 41.10700
C  -17.84200 12.14500 41.42700
N  -11.44500 13.67900 42.49000
C  -12.23600 12.60900 42.82900
C  -11.41800 11.49500 43.10500
C  -10.09700 11.87100 42.71000
C  -10.15700 13.25200 42.33400
C  -11.93900 10.07200 43.54100
C  -8.66300 11.46600 42.72900
O  -8.10300 10.53000 43.18400
C  -7.87600 12.71100 42.13600
C  -6.80100 13.12300 43.02600
O  -6.97000 13.40600 44.21000
O  -5.60400 13.28700 42.38200
C  -4.62000 14.15200 43.11400
H  -9.61000 19.21800 40.46300
H  -15.70300 17.78300 40.72100
H  -14.24300 11.86900 42.94200
H  -6.61700 15.48200 41.55500
H  -7.61900 17.56200 39.84300
H  -6.42600 17.38900 42.53000
H  -7.86000 18.54400 42.39500
H  -6.44200 18.70600 41.38900
H  -7.42600 15.57900 38.60400
H  -8.01400 14.16400 39.39100
H  -5.84600 13.30100 39.06200
H  -5.19100 14.60400 39.98500
H  -12.02600 21.76600 39.62000
H  -10.75300 20.77700 38.98500
H  -10.69000 21.21800 40.59900
H  -15.57800 18.08800 38.55000
H  -15.90700 19.44500 37.72800
H  -16.70300 19.42500 39.31700
H  -16.73500 15.12700 40.49200
H  -16.29600 13.53000 42.97900
H  -18.37200 15.82000 41.79600
H  -17.12600 16.82600 42.71700
H  -17.64200 15.27000 43.30100
H  -15.87100 11.67800 41.39300
H  -16.26300 12.79400 40.03800
H  -17.87300 11.51000 42.31300
H  -18.45000 11.67800 40.65200
H  -18.33600 13.06500 41.73800
H  -11.90500 9.32200 42.75200
H  -12.97800 10.16000 43.86000
H  -11.31000 9.79200 44.38600
H  -7.55800 12.31500 41.17200
H  -3.83200 13.55100 43.56800
H  -4.98600 14.88900 43.82800
H  -4.01700 14.64700 42.35200

