158

Mg 49.00600 34.72100 27.97700
C  46.89400 32.97900 30.26200
C  49.46600 37.12100 30.38200
C  50.33100 36.78400 25.51100
C  48.02400 32.48500 25.46500
N  48.36200 34.89600 30.11200
C  47.58300 34.04900 30.87000
C  47.70200 34.43500 32.30200
C  48.12300 35.93700 32.22900
C  48.73000 35.96700 30.84400
C  47.05400 37.12000 32.38600
C  48.74100 33.55700 33.11500
C  48.57000 33.38700 34.61200
H  47.95300 34.48700 35.39200
N  49.88100 36.67400 28.00600
C  50.07200 37.39600 29.10200
C  50.81400 38.60000 28.74400
C  51.04700 38.54200 27.32000
C  50.36600 37.30100 26.88200
C  51.08300 39.69100 29.80800
C  51.86100 39.51800 26.42200
O  51.90800 39.50200 25.21000
C  52.43600 40.69000 27.08900
N  49.20500 34.68200 25.76000
C  49.89500 35.52300 25.04600
C  50.15800 35.10600 23.58900
C  49.42900 33.65300 23.58600
C  48.83000 33.58500 25.02200
C  49.69400 36.07200 22.54800
C  50.34200 32.38400 23.28000
C  50.37700 32.02300 21.81600
N  47.83700 33.02000 27.90100
C  47.50400 32.26000 26.77900
C  46.65800 31.09300 27.23500
C  46.30900 31.42600 28.53100
C  47.08700 32.56400 28.93000
C  46.18500 29.99800 26.43200
C  45.42600 31.09300 29.67000
O  44.57600 30.23100 29.81900
C  45.75000 32.06900 30.84300
C  46.07600 31.36100 32.10900
O  46.69900 30.33300 32.21700
O  45.56100 32.07500 33.17400
C  45.46300 31.43500 34.55900
H  49.52700 37.90900 31.13500
H  50.85400 37.42100 24.79600
H  47.76800 31.78400 24.66800
H  46.68400 34.40500 32.68800
H  48.84200 36.12100 33.02700
H  45.97800 36.94300 32.40800
H  47.34100 37.83900 31.61900
H  47.17300 37.56100 33.37600
H  49.74800 33.93700 32.94200
H  48.72900 32.53200 32.74300
H  49.55700 33.21200 35.04100
H  47.92500 32.53100 34.80800
H  52.08100 40.11700 29.71300
H  50.98700 39.38700 30.85100
H  50.41700 40.52500 29.58400
H  53.44100 40.58900 27.49800
H  51.75800 40.98800 27.88900
H  52.67200 41.38200 26.28100
H  51.24700 35.08000 23.60600
H  48.61500 33.84800 22.88800
H  48.63100 35.89000 22.39100
H  50.26300 36.00400 21.62100
H  49.88300 37.09900 22.86100
H  49.99400 31.52000 23.84500
H  51.37900 32.57200 23.55600
H  51.40000 31.74300 21.56400
H  49.97800 32.83500 21.20700
H  49.68500 31.23900 21.50900
H  46.54200 28.99100 26.64900
H  46.51900 30.15100 25.40600
H  45.09600 30.00200 26.45700
H  44.90500 32.70100 31.11600
H  45.16200 32.22000 35.25300
H  46.43800 30.97200 34.71100
H  44.65600 30.71700 34.41800
Mg 36.06000 48.41300 25.96800
C  35.89500 46.63000 29.07300
C  35.37900 51.25100 27.56800
C  35.79200 49.87800 23.00800
C  36.74000 45.40200 24.44200
N  35.71200 48.87600 28.11700
C  35.75300 48.09200 29.20000
C  35.55700 48.85400 30.54200
C  35.27300 50.32800 30.00500
C  35.40900 50.18100 28.46500
C  33.83300 50.76800 30.57400
C  36.83900 48.75900 31.46200
C  36.58600 48.08100 32.81400
H  35.51200 48.67900 33.84800
N  35.69700 50.28000 25.35700
C  35.47700 51.33800 26.19600
C  35.24300 52.50900 25.46400
C  35.18400 52.11000 24.08700
C  35.53400 50.67000 24.09800
C  35.06900 53.95100 26.17500
C  34.88900 52.91800 22.86800
O  34.84100 52.47000 21.73900
C  34.73100 54.33000 23.06800
N  36.15200 47.72700 24.03800
C  36.01800 48.51800 22.94200
C  36.42600 47.80900 21.66700
C  36.96200 46.44700 22.18000
C  36.63300 46.54200 23.63800
C  35.23700 47.74400 20.67100
C  38.49100 46.23900 22.00400
C  38.80800 45.06600 21.09600
N  36.39100 46.43200 26.57000
C  36.66100 45.28100 25.83300
C  36.78400 44.16600 26.71900
C  36.47100 44.68500 27.99000
C  36.17300 46.00100 27.82400
C  37.17700 42.76800 26.38300
C  36.48700 44.27400 29.38800
O  36.77100 43.27400 29.96000
C  35.99400 45.59400 30.16200
C  34.65900 45.29400 30.69000
O  33.75900 44.78300 30.01100
O  34.68000 45.38100 32.09300
C  33.52900 44.78700 32.81100
H  35.07700 52.16600 28.08200
H  35.68900 50.31900 22.01400
H  37.06500 44.46300 23.98800
H  34.81100 48.29300 31.10500
H  36.07800 50.97800 30.34900
H  33.87100 51.81100 30.89200
H  33.43900 50.10400 31.34300
H  33.13200 50.68800 29.74300
H  37.22300 49.76100 31.65400
H  37.53400 48.13300 30.90200
H  37.54500 48.03900 33.33100
H  36.44900 47.00500 32.70800
H  35.42600 54.84000 25.65500
H  35.54500 53.95600 27.15500
H  34.03100 54.25700 26.31400
H  34.67200 54.78900 22.08100
H  35.61200 54.72300 23.57500
H  33.79600 54.52600 23.59300
H  37.25200 48.30900 21.16200
H  36.30700 45.67500 21.77600
H  34.32200 47.74300 21.26400
H  35.30600 46.83800 20.06900
H  35.25800 48.54300 19.93000
H  38.86000 45.97900 22.99600
H  39.02100 47.14700 21.71500
H  38.02400 44.31500 20.99400
H  39.67600 44.60400 21.56700
H  39.17600 45.34300 20.10800
H  36.91900 42.31600 25.42500
H  36.84500 42.15100 27.21900
H  38.26600 42.73000 26.40300
H  36.65500 45.85100 30.98900
H  33.15300 43.94600 32.22900
H  32.69300 45.47700 32.93400
H  33.84100 44.39600 33.77900

