158

Mg 41.18000 9.57400 29.53400
C  43.16800 10.49200 32.27300
C  39.07100 7.84500 31.70600
C  39.62500 8.30900 26.87900
C  43.86500 10.54700 27.41700
N  41.14800 9.18900 31.70300
C  41.96500 9.83000 32.66400
C  41.41400 9.63900 34.12500
C  40.30400 8.55600 33.87600
C  40.14800 8.47800 32.35300
C  40.65300 7.24700 34.59900
C  40.87600 11.02100 34.69900
C  41.73400 11.72000 35.69400
H  40.90500 12.35600 36.80600
N  39.49500 8.43200 29.35600
C  38.82700 7.75900 30.31000
C  37.70500 7.14900 29.68700
C  37.73800 7.41500 28.30400
C  39.02200 8.08900 28.10200
C  36.65700 6.29300 30.36500
C  36.79300 7.01500 27.17500
O  36.95500 7.28000 25.98800
C  35.55400 6.23500 27.50600
N  41.71600 9.34600 27.46800
C  40.87300 8.83800 26.57200
C  41.37600 8.94800 25.13400
C  42.57500 9.85700 25.30800
C  42.77600 9.91200 26.84100
C  41.74600 7.61900 24.47000
C  42.46900 11.20400 24.63600
C  43.55100 11.55800 23.57500
N  43.09100 10.40000 29.76200
C  44.04700 10.68700 28.79800
C  45.23700 11.15300 29.44000
C  44.88900 11.19900 30.80000
C  43.61500 10.64600 30.93700
C  46.55100 11.56000 28.84300
C  45.45600 11.53900 32.10900
O  46.48100 12.12500 32.37000
C  44.23800 11.16100 33.17900
C  44.73100 10.40200 34.37600
O  44.84800 9.18200 34.41800
O  44.92000 11.29200 35.37600
C  45.28800 10.55700 36.61200
H  38.42300 7.25300 32.35600
H  39.22900 7.83400 25.97900
H  44.56400 10.96800 26.69000
H  42.21600 9.24500 34.74800
H  39.29000 8.81800 34.17900
H  41.59000 7.29600 35.15400
H  40.75500 6.45100 33.86200
H  39.79400 7.02500 35.23200
H  39.81500 10.86800 34.89400
H  40.89100 11.73000 33.87100
H  42.29600 12.51000 35.19700
H  42.51500 11.06500 36.07900
H  35.68500 6.78500 30.32900
H  36.98200 6.17700 31.39900
H  36.63500 5.30000 29.91700
H  35.98100 5.24500 27.66900
H  34.88200 6.14700 26.65200
H  34.92500 6.67500 28.27900
H  40.60600 9.44400 24.54400
H  43.51700 9.43100 24.96300
H  41.12900 7.52200 23.57700
H  41.39300 6.88800 25.19800
H  42.79200 7.50500 24.18400
H  42.41500 11.98200 25.39800
H  41.48900 11.20300 24.15900
H  43.12800 11.36500 22.59000
H  44.40900 10.89200 23.67100
H  43.85600 12.60100 23.65800
H  46.54600 12.64400 28.73000
H  46.84200 11.03700 27.93200
H  47.20800 11.38300 29.69400
H  43.77400 12.06300 33.57800
H  46.10800 11.07900 37.10600
H  45.67700 9.55900 36.41300
H  44.45900 10.48900 37.31600
Mg -10.36800 38.75600 40.50900
C  -8.23200 36.09300 39.57300
C  -7.95600 40.92700 39.14900
C  -12.57300 41.13800 40.48100
C  -12.83100 36.39200 41.38300
N  -8.37700 38.48600 39.24700
C  -7.73700 37.33100 39.04100
C  -6.35200 37.58200 38.38300
C  -6.14900 39.13300 38.66200
C  -7.58300 39.59000 39.00300
C  -5.16300 39.60000 39.72800
C  -6.42800 37.22500 36.90100
C  -5.71200 35.93100 36.39800
H  -6.37400 35.38200 35.18100
N  -10.26800 40.79500 40.14000
C  -9.20100 41.52000 39.59800
C  -9.44900 42.91100 39.67700
C  -10.76900 43.07700 40.22500
C  -11.26900 41.65800 40.30900
C  -8.58900 43.99400 39.17900
C  -11.53500 44.40900 40.56200
O  -11.04700 45.52800 40.43000
C  -12.82900 44.25700 41.30000
N  -12.41500 38.72500 40.62400
C  -13.11500 39.90000 40.63600
C  -14.63800 39.59200 40.73300
C  -14.75800 38.03900 40.94200
C  -13.22000 37.70600 41.02300
C  -15.40100 40.43300 41.78900
C  -15.47600 37.25600 39.86000
C  -16.55500 36.33000 40.32700
N  -10.52600 36.68000 40.54800
C  -11.54000 35.89100 41.00000
C  -11.08000 34.52100 41.08100
C  -9.76100 34.57000 40.50300
C  -9.49400 35.90800 40.21400
C  -11.81900 33.35400 41.75800
C  -8.57300 33.77700 40.16800
O  -8.45700 32.58200 40.18800
C  -7.51300 34.74300 39.68900
C  -6.32800 34.76400 40.59200
O  -5.89300 35.76400 41.24800
O  -5.79600 33.47900 40.71000
C  -4.97500 33.09000 41.91400
H  -7.13700 41.62700 38.97000
H  -13.31600 41.93600 40.42100
H  -13.54600 35.65400 41.75300
H  -5.69900 36.94300 38.97700
H  -5.83900 39.57800 37.71700
H  -5.83000 39.88600 40.54100
H  -4.58500 40.44000 39.34300
H  -4.54700 38.83400 40.20000
H  -6.00500 38.04200 36.31700
H  -7.48000 37.23300 36.61600
H  -5.56200 35.19400 37.18700
H  -4.69500 36.24800 36.16500
H  -8.32400 44.66100 39.99900
H  -9.22100 44.50900 38.45600
H  -7.76600 43.54500 38.62200
H  -13.59400 44.03300 40.55600
H  -13.04100 45.23300 41.73700
H  -12.77000 43.58600 42.15600
H  -14.98400 39.79600 39.72000
H  -15.15400 37.79700 41.92800
H  -14.77700 41.14600 42.32800
H  -15.86100 39.92100 42.63500
H  -16.23900 40.92800 41.29800
H  -14.76800 36.51400 39.49200
H  -15.89400 37.90200 39.08800
H  -17.48100 36.88600 40.18300
H  -16.45200 36.06600 41.38000
H  -16.59200 35.47700 39.65000
H  -11.25900 32.43700 41.57200
H  -12.84900 33.14800 41.46700
H  -11.70000 33.53700 42.82600
H  -7.25900 34.35900 38.70000
H  -3.90700 33.17500 41.71200
H  -5.19800 32.06300 42.20200
H  -5.25200 33.74300 42.74200

