158

Mg 42.08300 7.06800 30.54800
C  43.88700 9.23500 32.60300
C  39.87900 6.40900 33.10200
C  40.25600 5.34400 28.41900
C  44.32600 7.89200 27.94500
N  41.88400 7.88500 32.58900
C  42.71200 8.73900 33.22600
C  42.30200 8.82100 34.72700
C  41.05600 7.93400 34.81800
C  40.94600 7.25200 33.42500
C  40.97100 6.90000 35.92000
C  42.09500 10.25400 35.27100
C  41.05900 10.53300 36.42700
H  41.67100 11.34900 37.59100
N  40.41200 5.89000 30.73900
C  39.55100 5.84300 31.82700
C  38.43400 4.92300 31.51900
C  38.56600 4.55900 30.19000
C  39.76200 5.29400 29.69100
C  37.38400 4.49000 32.57000
C  37.76800 3.61400 29.35800
O  38.05400 3.36300 28.15600
C  36.72900 2.77700 29.90200
N  42.34500 6.65700 28.54900
C  41.40200 5.91000 27.86100
C  41.68000 5.78700 26.41200
C  42.77500 6.93900 26.28300
C  43.31500 7.04400 27.64500
C  42.14400 4.31800 25.96000
C  42.11200 8.29600 25.87300
C  42.12400 8.68100 24.36700
N  43.90400 8.19300 30.27500
C  44.64900 8.44900 29.13600
C  45.72900 9.35900 29.46800
C  45.44400 9.70500 30.85100
C  44.36200 8.97200 31.25600
C  46.82100 9.95000 28.59600
C  45.92000 10.47200 31.96200
O  46.80100 11.34400 32.05300
C  45.04000 10.06700 33.18300
C  45.78700 9.41000 34.27800
O  46.21200 8.28800 34.17100
O  45.78200 10.22700 35.36700
C  45.79900 9.41500 36.60000
H  39.15700 6.23000 33.90100
H  39.58400 4.87100 27.69900
H  45.04500 8.27400 27.21600
H  43.13700 8.31500 35.21100
H  40.14200 8.52200 34.90300
H  41.77200 7.09600 36.63300
H  40.96300 5.84800 35.63500
H  40.03600 7.15800 36.41800
H  41.83300 10.82200 34.37800
H  43.07500 10.64800 35.54100
H  40.59800 9.63700 36.84200
H  40.22200 10.95500 35.87100
H  36.59300 5.21100 32.36300
H  37.74400 4.68200 33.58100
H  37.06400 3.45800 32.42000
H  37.18700 1.92200 30.40000
H  36.07600 2.39900 29.11500
H  36.00800 3.28800 30.54100
H  40.78200 6.01300 25.83700
H  43.56600 6.70500 25.57100
H  42.58700 3.82200 26.82400
H  42.97500 4.38300 25.25900
H  41.27000 3.76800 25.61200
H  42.58700 9.11900 26.40700
H  41.04600 8.22000 26.08700
H  42.99200 8.27100 23.85100
H  42.22300 9.76300 24.27500
H  41.31000 8.29800 23.75200
H  47.72800 9.99400 29.19900
H  46.66200 10.96800 28.24000
H  46.96600 9.32400 27.71600
H  44.80200 11.07300 33.52900
H  45.37000 8.41400 36.60700
H  45.15600 10.08500 37.17100
H  46.77100 9.39100 37.09200
Mg 9.09200 48.06800 27.05200
C  7.00100 47.58600 29.94200
C  11.71300 48.27100 29.05600
C  10.71900 49.09800 24.30700
C  6.09900 48.01500 25.09200
N  9.25200 48.11000 29.31200
C  8.38100 47.72800 30.28300
C  9.05700 47.70800 31.62900
C  10.50900 48.15200 31.34600
C  10.52900 48.09800 29.77300
C  10.79600 49.58300 31.91300
C  9.02300 46.43800 32.49500
C  8.78100 46.59900 34.00700
H  9.23600 45.49600 34.98900
N  11.01300 48.44700 26.71500
C  11.94200 48.42500 27.68500
C  13.22000 48.48600 26.93800
C  12.99500 48.74100 25.56700
C  11.55400 48.76100 25.48000
C  14.55100 48.36300 27.68700
C  13.89700 48.99500 24.50000
O  13.51900 49.20800 23.31500
C  15.37100 48.86200 24.73100
N  8.50500 48.48500 25.00800
C  9.38100 49.00600 24.12200
C  8.60600 49.43200 22.79600
C  7.28500 48.63900 22.93100
C  7.26500 48.41000 24.43600
C  8.54600 51.02700 22.73800
C  7.31300 47.36100 22.14600
C  6.26900 47.30900 20.97000
N  6.94200 47.97700 27.32000
C  5.89800 47.94900 26.48300
C  4.67000 47.77300 27.18200
C  5.05400 47.71400 28.52900
C  6.47600 47.75500 28.55600
C  3.30800 47.78800 26.59100
C  4.49600 47.52900 29.85300
O  3.39300 47.50000 30.31700
C  5.79200 47.37300 30.78000
C  5.69400 46.07400 31.43400
O  5.88100 45.00600 30.87300
O  5.20900 46.26400 32.72000
C  5.07800 45.05400 33.50700
H  12.58700 48.18800 29.70400
H  11.21500 49.47400 23.41000
H  5.25200 48.08300 24.40500
H  8.55100 48.49600 32.18700
H  11.31800 47.58800 31.81000
H  10.96700 50.30200 31.11300
H  11.68500 49.54800 32.54300
H  10.13200 49.96500 32.68900
H  9.99800 45.95200 32.46400
H  8.26800 45.76900 32.08300
H  7.69500 46.61600 34.09100
H  9.19600 47.55200 34.33700
H  15.07800 49.31000 27.80800
H  15.24900 47.60700 27.32900
H  14.24600 47.93800 28.64300
H  15.87900 48.89800 23.76700
H  15.58400 47.96200 25.30800
H  15.68800 49.72700 25.31300
H  9.13800 49.05500 21.92200
H  6.56300 49.33000 22.49400
H  9.50800 51.43300 23.05000
H  7.73100 51.34100 23.39100
H  8.29500 51.39000 21.74100
H  7.17200 46.46800 22.75500
H  8.30200 47.15800 21.73400
H  6.86900 47.18600 20.06800
H  5.70600 48.24200 20.93900
H  5.53300 46.50900 21.05300
H  2.57300 47.39600 27.29300
H  3.25200 47.39400 25.57600
H  2.93000 48.80700 26.66600
H  5.75800 48.06400 31.62300
H  5.91000 45.14100 34.20500
H  5.11300 44.06500 33.05100
H  4.09700 45.22700 33.95000

