158

Mg 16.48300 -2.97700 28.01300
C  15.89300 -0.92900 30.74300
C  18.26200 -5.04600 30.24700
C  17.71100 -4.76700 25.40100
C  15.36200 -0.49400 25.92700
N  17.02800 -2.94300 30.26100
C  16.54900 -2.08400 31.17700
C  16.90000 -2.49000 32.58900
C  17.65900 -3.78700 32.42800
C  17.74700 -3.89800 30.85200
C  19.09100 -3.96500 33.12700
C  15.66000 -2.73300 33.53000
C  15.67400 -1.93100 34.84600
H  17.03100 -1.58800 35.44600
N  17.64400 -4.76700 27.86600
C  18.28100 -5.47500 28.87200
C  18.82900 -6.59900 28.31900
C  18.78500 -6.48200 26.91200
C  18.03700 -5.29300 26.66400
C  19.40100 -7.56200 29.24200
C  19.51000 -7.38500 25.95800
O  19.44900 -7.22400 24.74100
C  20.31600 -8.51100 26.45100
N  16.59700 -2.60600 26.05100
C  17.11500 -3.49900 25.07700
C  17.10900 -2.90300 23.63600
C  16.20600 -1.65800 23.85700
C  16.01200 -1.56400 25.36900
C  18.51800 -2.45100 23.08000
C  14.87800 -1.56400 22.95300
C  13.61400 -1.99500 23.71100
N  15.47100 -1.21000 28.24200
C  15.12400 -0.25600 27.33500
C  14.47700 0.79600 27.94400
C  14.72800 0.57300 29.30500
C  15.42900 -0.66300 29.44900
C  13.74500 1.96400 27.27000
C  14.62400 1.12900 30.63300
O  14.15300 2.21500 30.95900
C  15.28500 0.17300 31.61100
C  16.32000 0.88100 32.38600
O  17.50800 1.04900 32.13000
O  15.71500 1.50900 33.38200
C  16.47800 2.47100 34.18400
H  18.76000 -5.62800 31.02600
H  17.92800 -5.28700 24.46600
H  15.08500 0.31200 25.24400
H  17.53100 -1.66900 32.92900
H  17.07400 -4.62600 32.80400
H  19.83800 -3.76100 32.36100
H  19.07300 -4.95500 33.58300
H  19.20600 -3.31700 33.99600
H  15.60100 -3.80400 33.72200
H  14.85800 -2.37900 32.88200
H  15.18300 -2.54200 35.60300
H  15.02900 -1.06200 34.71900
H  18.75000 -7.85500 30.06600
H  20.26800 -7.20400 29.79600
H  19.62000 -8.52000 28.76900
H  21.13000 -8.24000 27.12400
H  20.82500 -8.96600 25.60100
H  19.72500 -9.31100 26.89700
H  16.51000 -3.49300 22.94200
H  16.74200 -0.73500 23.63400
H  19.12700 -2.36600 23.98000
H  18.60600 -1.45200 22.65200
H  19.08000 -3.08900 22.40000
H  14.95700 -2.11400 22.01500
H  14.73100 -0.50700 22.73200
H  13.81500 -2.87100 24.32800
H  12.93900 -2.29500 22.91000
H  13.17900 -1.23000 24.35500
H  12.94000 1.65500 26.60400
H  14.48600 2.45800 26.64100
H  13.37500 2.57500 28.09300
H  14.53400 -0.11300 32.34700
H  16.51400 3.49000 33.79900
H  17.52700 2.23000 34.35200
H  16.01300 2.56100 35.16600
Mg 47.24900 34.81600 28.42400
C  45.78000 33.02000 30.79500
C  47.52500 37.62000 30.56600
C  47.95200 37.01500 25.80100
C  46.68000 32.27900 26.15000
N  46.71900 35.20900 30.41100
C  46.23400 34.28600 31.27900
C  46.10600 34.74800 32.73800
C  46.20700 36.29900 32.56700
C  46.86000 36.40100 31.08600
C  44.98200 37.13500 32.82400
C  47.24000 34.14700 33.67200
C  46.84000 33.76300 35.11400
H  47.52700 34.74200 36.09100
N  47.67800 36.94300 28.18600
C  47.86900 37.84900 29.21900
C  48.53300 39.10400 28.74600
C  48.62800 38.93900 27.34600
C  48.04300 37.61600 27.07600
C  49.14400 40.09800 29.63200
C  49.20000 39.90500 26.32200
O  49.35800 39.68100 25.10700
C  49.67500 41.31000 26.76200
N  47.31000 34.64800 26.34400
C  47.63300 35.70700 25.49900
C  47.76600 35.16600 24.00600
C  47.34300 33.65700 24.12000
C  47.14300 33.42600 25.60900
C  47.04700 35.96400 22.93300
C  48.29000 32.57500 23.44600
C  49.68100 32.48500 24.01500
N  46.52000 32.87300 28.46300
C  46.28800 31.97900 27.45300
C  45.72800 30.79800 27.93800
C  45.36800 31.17000 29.22700
C  45.87100 32.44500 29.49700
C  45.41000 29.53000 27.19300
C  44.70900 30.81100 30.44800
O  44.16500 29.75500 30.65900
C  44.88800 31.94800 31.52000
C  45.53100 31.29200 32.72000
O  46.68900 30.94500 32.81900
O  44.60900 31.07400 33.77600
C  45.17100 30.33600 34.93100
H  47.41200 38.53600 31.14900
H  48.39000 37.52000 24.93600
H  46.70000 31.48500 25.40000
H  45.11300 34.49700 33.11300
H  46.93500 36.77100 33.22700
H  44.99500 37.47500 33.86000
H  44.03900 36.59900 32.71700
H  45.00500 38.04000 32.21800
H  47.88300 35.02300 33.75900
H  47.83200 33.36900 33.19100
H  47.03000 32.73100 35.40800
H  45.77600 33.91100 35.29700
H  49.29100 39.67000 30.62300
H  48.48600 40.96700 29.60400
H  50.13300 40.34800 29.24800
H  49.68400 42.08000 25.99100
H  50.69700 41.14900 27.10500
H  49.09200 41.63200 27.62600
H  48.83300 35.18200 23.78500
H  46.34300 33.60900 23.68900
H  46.74300 36.98300 23.17200
H  46.14800 35.42700 22.63400
H  47.70200 36.00900 22.06200
H  48.41900 32.83300 22.39500
H  47.70800 31.65800 23.35300
H  49.90700 31.55500 24.53700
H  49.89800 33.30100 24.70400
H  50.45300 32.56500 23.25000
H  45.71100 29.74400 26.16800
H  44.33300 29.37000 27.14500
H  46.00000 28.69200 27.56400
H  43.90100 32.37700 31.69600
H  44.42300 30.50400 35.70600
H  46.18500 30.66700 35.15700
H  45.29600 29.28100 34.68700

