158

Mg 53.26900 23.04700 44.37200
C  50.87000 25.46100 43.19000
C  51.34900 20.61400 43.22900
C  55.80200 21.06100 44.99600
C  55.36500 25.88300 44.94700
N  51.42700 23.11600 43.25700
C  50.48200 24.15900 42.95400
C  49.20100 23.60500 42.42500
C  49.35100 22.04400 42.81900
C  50.78600 21.92500 43.11200
C  48.41300 21.63200 44.01600
C  49.13700 23.83200 40.92500
C  50.42400 23.75100 40.10300
H  51.15400 22.31300 40.01900
N  53.51000 21.05000 44.24800
C  52.56900 20.17800 43.79900
C  53.12900 18.83700 43.78300
C  54.39600 18.96700 44.47300
C  54.59900 20.37300 44.62600
C  52.44200 17.71500 43.11300
C  55.28300 17.86500 44.87500
O  54.96800 16.71000 44.58900
C  56.53400 18.00400 45.69400
N  55.35200 23.47600 44.65500
C  56.12900 22.48000 45.07000
C  57.53800 22.96100 45.64900
C  57.40100 24.43200 45.40400
C  55.93900 24.57600 44.96500
C  57.74800 22.52700 47.18700
C  58.36400 25.01200 44.25800
C  58.16700 24.45900 42.89700
N  53.14900 25.22000 44.29800
C  54.01900 26.16900 44.72200
C  53.31600 27.47400 44.85500
C  52.14500 27.19000 44.13200
C  52.06700 25.85700 43.85600
C  53.87100 28.73700 45.55500
C  50.87100 27.79800 43.81100
O  50.46500 28.93600 44.02300
C  50.04600 26.77400 43.02600
C  50.09200 27.28200 41.66600
O  51.10000 27.60400 41.06500
O  48.85700 27.35500 41.12900
C  48.73500 27.65600 39.68600
H  50.65300 19.87900 42.81900
H  56.66700 20.48200 45.32700
H  56.05900 26.66800 45.25400
H  48.32600 24.08900 42.85900
H  49.12400 21.41100 41.96100
H  47.89100 20.75200 43.64100
H  47.75200 22.48400 44.17700
H  49.00200 21.39600 44.90300
H  48.72100 24.80700 40.67200
H  48.53100 23.04000 40.48600
H  51.16100 24.43200 40.52800
H  50.16800 24.19900 39.14300
H  51.89300 18.02400 42.22400
H  51.64600 17.31700 43.74200
H  53.08200 16.90300 42.76700
H  56.86000 16.98100 45.88300
H  56.38500 18.51500 46.64500
H  57.23700 18.50600 45.03000
H  58.32800 22.44200 45.10600
H  57.41700 24.97700 46.34800
H  57.37500 21.50900 47.29800
H  57.34900 23.33300 47.80300
H  58.80000 22.47800 47.46800
H  59.39300 24.75500 44.51000
H  58.33100 26.09700 44.15900
H  57.31800 23.77800 42.95100
H  59.08200 23.93700 42.61800
H  57.74800 25.14800 42.16400
H  53.49400 28.61200 46.57000
H  53.62100 29.73800 45.20400
H  54.96100 28.76200 45.54600
H  49.01200 26.59400 43.32300
H  49.61200 27.51100 39.05500
H  48.54000 28.72800 39.65000
H  47.92200 27.06400 39.26500
Mg -12.32600 37.43400 42.46000
C  -10.16800 35.00800 41.41800
C  -10.21300 39.92500 40.93600
C  -14.71500 39.83800 43.11400
C  -14.65700 34.87500 43.31400
N  -10.46800 37.45000 41.23200
C  -9.72100 36.28700 40.99200
C  -8.46400 36.57600 40.22200
C  -8.44300 38.16600 40.16100
C  -9.80900 38.58800 40.77800
C  -7.25400 38.87300 40.90000
C  -8.54200 35.86200 38.76200
C  -7.45900 34.88300 38.39700
H  -6.54500 35.30000 37.18100
N  -12.45200 39.58500 42.08300
C  -11.43800 40.40700 41.49600
C  -11.87700 41.82100 41.58800
C  -13.26400 41.84400 42.07800
C  -13.52700 40.40400 42.47700
C  -11.00600 43.01600 41.21100
C  -14.33800 42.97400 42.02000
O  -13.92700 44.04800 41.55600
C  -15.72700 42.91400 42.64900
N  -14.40600 37.33800 43.13400
C  -15.11800 38.50400 43.34600
C  -16.52000 38.19000 43.84700
C  -16.50900 36.62800 43.73200
C  -15.11400 36.20900 43.36500
C  -16.96700 38.80300 45.17700
C  -17.56500 36.17000 42.54900
C  -18.66800 35.29500 43.00800
N  -12.40500 35.41400 42.43700
C  -13.40900 34.46000 42.91700
C  -12.84200 33.06800 42.73100
C  -11.54700 33.30900 42.24700
C  -11.36000 34.69400 42.10100
C  -13.52400 31.71200 43.13400
C  -10.41000 32.58300 41.81100
O  -10.26600 31.35900 41.75600
C  -9.34100 33.70800 41.33000
C  -8.09000 33.63700 42.16900
O  -7.00400 33.82000 41.64500
O  -8.19300 33.54200 43.49600
C  -7.08100 33.98700 44.34300
H  -9.52700 40.72000 40.63600
H  -15.50200 40.50800 43.46600
H  -15.36400 34.04800 43.22700
H  -7.61700 36.17300 40.77800
H  -8.63600 38.47600 39.13400
H  -7.44100 38.99000 41.96800
H  -6.94700 39.85400 40.53900
H  -6.36500 38.25900 40.75200
H  -8.40400 36.65500 38.02600
H  -9.50100 35.40100 38.52400
H  -7.86900 33.89100 38.20800
H  -6.81100 34.84800 39.27300
H  -10.01800 42.74400 41.58200
H  -11.30100 43.85100 41.84600
H  -10.81500 43.16800 40.14800
H  -16.24900 43.87200 42.64800
H  -15.51200 42.47600 43.62400
H  -16.33500 42.22900 42.05900
H  -17.25100 38.64000 43.17600
H  -16.68100 36.12000 44.68100
H  -16.16600 39.06700 45.86800
H  -17.72900 38.17500 45.63800
H  -17.55500 39.69900 44.97700
H  -17.02600 35.58500 41.80300
H  -18.08000 36.99500 42.05900
H  -18.50400 34.96000 44.03300
H  -18.69100 34.32600 42.50800
H  -19.62800 35.77500 42.82100
H  -13.25100 30.89500 42.46600
H  -14.60700 31.75800 43.24900
H  -13.04700 31.45600 44.08000
H  -9.21900 33.47700 40.27200
H  -7.34100 34.49600 45.27100
H  -6.27200 34.42800 43.76000
H  -6.67400 33.01800 44.63200

