158

Mg 1.56900 -1.62400 44.33300
C  4.93400 -0.86000 43.48100
C  0.57700 1.20000 42.53500
C  -1.63000 -2.75900 44.35600
C  2.73700 -4.83500 45.50100
N  2.51300 -0.10700 43.28400
C  3.94200 0.04000 43.00900
C  4.22200 1.22300 42.11400
C  2.85400 2.06500 42.27000
C  1.88700 0.98700 42.73500
C  2.88900 3.18900 43.38100
C  4.46800 0.84700 40.60400
C  5.75600 1.24000 40.03100
H  5.69200 2.00300 38.65700
N  -0.32800 -0.86700 43.59000
C  -0.47900 0.32900 42.79600
C  -1.82600 0.43000 42.37300
C  -2.47400 -0.76900 42.81500
C  -1.55200 -1.53700 43.63000
C  -2.43100 1.59800 41.66500
C  -3.82000 -1.21700 42.36400
O  -4.48200 -0.47400 41.72900
C  -4.37500 -2.48900 42.78100
N  0.70700 -3.52300 44.77300
C  -0.68800 -3.71700 44.83300
C  -0.95900 -5.13300 45.23400
C  0.40800 -5.72000 45.77700
C  1.35300 -4.62100 45.28600
C  -2.19500 -5.37000 46.10000
C  0.72500 -7.16200 45.16600
C  1.38000 -8.13200 46.13800
N  3.45600 -2.66500 44.69600
C  3.78000 -3.92700 45.19600
C  5.22300 -4.07100 45.16500
C  5.69200 -2.87100 44.53400
C  4.61200 -2.09300 44.21400
C  6.04400 -5.27100 45.70600
C  6.88800 -2.14600 44.12600
O  8.09100 -2.33700 44.29200
C  6.37800 -0.84500 43.38900
C  6.88100 0.33200 44.09800
O  6.76900 0.52200 45.28200
O  7.69300 1.03500 43.23300
C  8.48900 2.17100 43.84900
H  0.29200 2.09900 41.98400
H  -2.65400 -3.06600 44.57700
H  3.12000 -5.80700 45.81900
H  5.12800 1.62900 42.56400
H  2.43400 2.56200 41.39600
H  3.87700 3.51900 43.70200
H  2.47300 2.74500 44.28500
H  2.26100 3.99800 43.00800
H  3.72700 1.29100 39.94000
H  4.39900 -0.23600 40.49600
H  6.32400 0.32300 39.87800
H  6.33700 1.86400 40.71000
H  -2.64000 1.41400 40.61100
H  -1.82100 2.49900 41.72900
H  -3.34900 1.87100 42.18500
H  -5.07700 -2.75000 41.98900
H  -4.77300 -2.33500 43.78400
H  -3.58500 -3.23900 42.74500
H  -1.11500 -5.61300 44.26800
H  0.44400 -5.86300 46.85700
H  -2.73600 -4.43000 46.21200
H  -1.85700 -5.64600 47.09800
H  -2.91000 -6.03700 45.61800
H  1.50000 -6.88800 44.44900
H  -0.17800 -7.53000 44.67900
H  1.71700 -7.58300 47.01800
H  2.26900 -8.53200 45.64900
H  0.63200 -8.90500 46.31300
H  6.84000 -5.00600 46.40100
H  6.45000 -5.65000 44.76800
H  5.35100 -5.98800 46.14700
H  6.75000 -0.83300 42.36400
H  9.01200 1.77300 44.71900
H  7.89600 2.99400 44.24800
H  9.26900 2.56800 43.19900
Mg 41.24300 8.51800 29.38900
C  43.34000 9.36000 32.17600
C  39.18200 7.11500 31.60800
C  39.42200 7.61700 26.76800
C  43.89900 9.45900 27.19900
N  41.32500 8.20500 31.62600
C  42.16700 8.66800 32.52700
C  41.61100 8.51800 33.95500
C  40.56000 7.44000 33.77800
C  40.28900 7.57900 32.27100
C  41.00000 6.00500 34.06100
C  41.25000 9.90400 34.65700
C  40.79200 9.87100 36.18800
H  41.76700 10.40300 37.25300
N  39.54700 7.55100 29.25800
C  38.81700 7.01500 30.27700
C  37.53000 6.48900 29.73600
C  37.47300 6.81600 28.37700
C  38.84300 7.34700 28.06900
C  36.41800 5.78100 30.59200
C  36.34800 6.66000 27.30000
O  36.64100 6.79500 26.03700
C  34.92800 6.28400 27.64200
N  41.76400 8.27200 27.22300
C  40.72500 7.97700 26.41400
C  41.14300 8.33900 24.96200
C  42.57800 9.00800 25.10600
C  42.73600 8.92100 26.63700
C  41.21700 7.09500 24.14500
C  42.55500 10.50600 24.66900
C  43.70000 10.71500 23.57800
N  43.20600 9.18800 29.56500
C  44.16800 9.56200 28.60500
C  45.24500 10.19100 29.33700
C  44.96200 10.15100 30.65400
C  43.74300 9.50800 30.76600
C  46.49100 10.73300 28.65300
C  45.45900 10.45200 31.96600
O  46.49600 10.97900 32.26200
C  44.42600 9.99200 32.99800
C  45.05500 9.07800 33.96900
O  44.89600 7.88500 33.95600
O  45.78900 9.73800 34.90800
C  46.40900 8.84700 35.89900
H  38.46100 6.72600 32.33000
H  38.71700 7.56300 25.93600
H  44.62800 9.81900 26.46900
H  42.41600 8.10800 34.56600
H  39.66500 7.53800 34.39200
H  42.07600 5.85800 33.97400
H  40.48000 5.25800 33.46000
H  40.71500 5.69200 35.06500
H  40.49100 10.37000 34.02800
H  42.13700 10.53600 34.67300
H  40.47800 8.87600 36.50200
H  39.90600 10.49700 36.29700
H  36.69100 5.50400 31.61100
H  36.09100 4.88400 30.06700
H  35.53800 6.42300 30.63200
H  34.13500 6.60100 26.96400
H  34.73100 6.65000 28.65000
H  35.00600 5.19900 27.70200
H  40.36100 8.92600 24.48000
H  43.34900 8.36800 24.67700
H  41.15500 6.15300 24.69000
H  42.12000 7.06100 23.53500
H  40.43600 7.03500 23.38600
H  42.63600 11.03600 25.61800
H  41.58300 10.92500 24.40800
H  44.25300 9.80000 23.36400
H  44.37700 11.49000 23.93600
H  43.18500 11.01700 22.66600
H  46.19600 11.59600 28.05500
H  46.94000 10.00100 27.98200
H  47.17100 11.20100 29.36400
H  44.15500 10.96500 33.40800
H  46.92700 7.99900 35.45000
H  45.57100 8.59200 36.54700
H  47.17100 9.36800 36.47900

