158

Mg 24.88400 -6.75500 47.75500
C  27.66500 -4.73800 46.90100
C  22.94400 -4.81500 45.87900
C  22.73800 -9.34600 47.83200
C  27.24400 -8.77800 49.63500
N  25.35200 -5.13800 46.21400
C  26.47100 -4.36800 46.17200
C  26.21800 -3.09600 45.39400
C  24.66700 -3.04500 45.29300
C  24.28900 -4.43100 45.85900
C  23.94300 -1.89800 46.03200
C  26.92200 -3.01200 43.99600
C  26.89600 -1.63500 43.22500
H  25.99000 -1.57100 42.02000
N  23.03900 -6.98100 46.99500
C  22.33000 -6.10100 46.21400
C  21.02400 -6.65200 45.86200
C  20.85900 -7.88600 46.58100
C  22.26500 -8.15900 47.16000
C  20.09600 -5.89600 44.98400
C  19.62900 -8.76500 46.59000
O  18.59300 -8.43800 46.03200
C  19.55600 -10.09200 47.25600
N  25.10100 -8.79900 48.44900
C  24.01800 -9.62200 48.50400
C  24.10800 -10.89000 49.33100
C  25.56100 -10.64900 49.95300
C  26.04700 -9.37300 49.32700
C  23.01400 -10.90500 50.43300
C  26.53100 -11.85200 49.80200
C  27.72400 -12.07900 50.76900
N  26.90900 -6.71800 48.33000
C  27.73500 -7.62000 49.13700
C  29.04500 -7.08200 49.23900
C  29.09000 -5.94000 48.40400
C  27.81100 -5.78800 47.86500
C  30.23800 -7.76500 49.78600
C  29.94000 -4.94700 47.86400
O  31.15200 -4.75100 47.94700
C  29.07600 -4.15100 46.87400
C  29.15200 -2.70400 47.24500
O  29.35100 -2.22900 48.29900
O  29.02800 -1.98700 46.09800
C  28.76500 -0.58400 46.26800
H  22.25400 -4.16300 45.33900
H  22.02600 -10.12700 48.10400
H  27.87800 -9.26400 50.37900
H  26.68400 -2.36200 46.05200
H  24.31300 -3.02800 44.26200
H  24.56600 -1.00500 46.01900
H  23.73300 -2.24800 47.04200
H  22.97300 -1.80800 45.54100
H  26.40400 -3.71600 43.34400
H  27.95900 -3.32500 44.11000
H  27.92000 -1.42700 42.91700
H  26.48200 -0.84000 43.84500
H  20.50200 -5.70200 43.99200
H  19.91500 -4.99200 45.56500
H  19.14600 -6.40400 44.81700
H  18.68400 -10.73400 47.13400
H  19.78500 -9.95000 48.31300
H  20.32300 -10.64100 46.71000
H  24.10300 -11.76800 48.68500
H  25.52800 -10.35000 51.00100
H  22.27100 -10.12200 50.28300
H  23.45600 -10.76300 51.41900
H  22.56100 -11.89000 50.55200
H  26.93300 -11.83200 48.78900
H  25.92800 -12.75900 49.85900
H  27.53900 -13.05900 51.20900
H  27.69100 -11.44500 51.65500
H  28.65500 -12.07100 50.20200
H  31.11100 -7.25700 49.37800
H  30.28400 -8.79500 49.43200
H  30.23000 -7.78800 50.87600
H  29.54900 -4.37800 45.91900
H  29.68000 -0.22600 46.74000
H  27.90600 -0.28300 46.86700
H  28.74000 -0.14600 45.27000
Mg 0.73200 43.12800 26.13800
C  2.87400 43.43600 28.80300
C  -1.89400 42.46500 28.26500
C  -1.11000 42.56700 23.51600
C  3.62500 43.33300 23.98800
N  0.58500 42.97400 28.28700
C  1.58100 43.18300 29.15300
C  1.01600 43.15700 30.59500
C  -0.42200 42.60100 30.48200
C  -0.63300 42.73200 28.93700
C  -0.67400 41.23700 31.15500
C  1.02500 44.54100 31.32700
C  1.24200 44.52100 32.83400
H  0.93700 43.20400 33.67700
N  -1.23300 42.59500 25.90400
C  -2.15400 42.39600 26.89700
C  -3.41400 42.03900 26.32900
C  -3.20000 42.01000 24.88900
C  -1.76600 42.35800 24.73400
C  -4.69500 41.79400 27.08900
C  -4.15400 41.65800 23.78100
O  -3.93100 41.52700 22.58500
C  -5.59200 41.39700 24.10400
N  1.17700 43.10800 24.00500
C  0.19100 42.90800 23.16600
C  0.67900 43.01400 21.71200
C  2.18200 43.39100 21.84300
C  2.36300 43.28600 23.35800
C  0.40000 41.74800 20.88300
C  2.52100 44.74300 21.15800
C  2.26900 45.99000 22.11100
N  2.87700 43.27200 26.37700
C  3.86400 43.34600 25.39600
C  5.13100 43.54800 26.05800
C  4.82300 43.60100 27.43000
C  3.38600 43.45200 27.47800
C  6.41700 43.69600 25.34200
C  5.40000 43.77300 28.74900
O  6.54600 43.93700 29.12900
C  4.12700 43.61200 29.72400
C  4.43900 42.44100 30.55300
O  4.71000 41.34400 30.14600
O  4.46400 42.80000 31.92400
C  4.99400 41.80200 32.80200
H  -2.80300 42.23900 28.82700
H  -1.68100 42.40100 22.60100
H  4.43500 43.45900 23.26600
H  1.58500 42.46600 31.21600
H  -1.08800 43.33900 30.92700
H  -1.40600 41.25400 31.96200
H  0.23800 40.77000 31.53000
H  -1.19000 40.59600 30.44000
H  0.11300 45.05900 31.03100
H  1.86800 45.17800 31.06200
H  0.56900 45.28400 33.22400
H  2.18800 44.95800 33.15400
H  -5.43900 42.53600 26.79900
H  -4.65900 41.82900 28.17800
H  -4.96900 40.75300 26.91700
H  -5.68700 40.63800 24.88100
H  -6.00600 40.88400 23.23500
H  -6.02400 42.38000 24.28700
H  0.13100 43.89600 21.38100
H  2.81400 42.56700 21.51300
H  1.28700 41.38100 20.36600
H  -0.30900 41.89800 20.06900
H  0.11300 40.99900 21.62100
H  1.99500 44.89600 20.21600
H  3.57800 44.63300 20.91700
H  1.70100 46.74300 21.56400
H  3.19100 46.47700 22.42600
H  1.76600 45.85000 23.06800
H  6.39500 43.67800 24.25300
H  7.01500 42.82900 25.62300
H  6.79900 44.65000 25.70600
H  4.10600 44.46300 30.40400
H  4.14500 41.41300 33.36400
H  5.71400 42.21600 33.50800
H  5.42800 40.95100 32.27800

