158

Mg 1.74600 -2.84000 44.17700
C  5.06500 -1.83200 43.42400
C  0.67700 -0.42100 42.11300
C  -1.27600 -4.15700 44.58200
C  3.17600 -5.69500 45.76900
N  2.85300 -1.40700 42.77900
C  4.15500 -1.13800 42.63800
C  4.42200 0.00600 41.65400
C  3.02400 0.71400 41.72500
C  2.09500 -0.40800 42.23500
C  2.99900 1.98300 42.64800
C  4.76300 -0.52800 40.23000
C  6.04500 0.02300 39.56900
H  5.71500 0.83700 38.28800
N  -0.12600 -2.37700 43.51800
C  -0.37100 -1.29900 42.64000
C  -1.78800 -1.09000 42.45500
C  -2.36000 -2.20800 43.13400
C  -1.22800 -2.96200 43.84400
C  -2.42900 0.06900 41.68400
C  -3.84900 -2.54800 42.99500
O  -4.57600 -1.75400 42.39000
C  -4.41100 -3.73200 43.72700
N  1.03800 -4.62000 45.12900
C  -0.31600 -4.92800 45.18300
C  -0.55000 -6.29200 45.86400
C  0.87400 -6.77200 46.18300
C  1.79200 -5.68000 45.62800
C  -1.50200 -6.16800 47.06700
C  1.27000 -8.16000 45.55500
C  0.90600 -9.34800 46.45600
N  3.62500 -3.56400 44.71200
C  4.07100 -4.74700 45.35500
C  5.56600 -4.79200 45.36000
C  5.94300 -3.62700 44.67400
C  4.75600 -2.92000 44.31200
C  6.47200 -5.82100 45.94000
C  7.11900 -2.92400 44.22000
O  8.30200 -3.08500 44.45500
C  6.57400 -1.76700 43.28600
C  7.11400 -0.44500 43.77900
O  7.64500 0.41100 43.14500
O  6.90500 -0.44900 45.15300
C  7.46400 0.78500 45.80500
H  0.29000 0.40000 41.50600
H  -2.26200 -4.59700 44.73900
H  3.74800 -6.52900 46.18000
H  5.30300 0.54400 42.00400
H  2.74400 0.99000 40.70800
H  4.00700 2.04000 43.05900
H  2.25300 1.78600 43.41800
H  2.77800 2.82500 41.99300
H  3.97400 -0.28500 39.51700
H  4.74900 -1.60800 40.37200
H  6.59500 -0.83500 39.18300
H  6.75100 0.45700 40.27700
H  -2.21400 -0.07700 40.62500
H  -1.85200 0.94900 41.96700
H  -3.47900 0.28300 41.87900
H  -4.20100 -3.58100 44.78600
H  -3.88000 -4.65700 43.50100
H  -5.49800 -3.78000 43.66000
H  -0.98600 -7.01700 45.17600
H  0.98400 -6.87900 47.26200
H  -2.11300 -5.27500 46.93500
H  -0.92900 -6.14400 47.99500
H  -2.07900 -7.08900 46.98700
H  2.34500 -8.28400 45.43000
H  0.78700 -8.22800 44.58000
H  1.82700 -9.91100 46.60200
H  0.18400 -9.97500 45.93200
H  0.46100 -8.94000 47.36400
H  5.95100 -6.52100 46.59300
H  7.31000 -5.36400 46.46500
H  6.85000 -6.39900 45.09600
H  6.90100 -1.89600 42.25400
H  7.85800 0.44800 46.76400
H  6.74200 1.54800 46.09400
H  8.20400 1.31400 45.20500
Mg -1.51200 34.37900 26.26900
C  -3.14600 32.68500 28.94500
C  0.23600 36.17600 28.48900
C  -0.18900 36.20300 23.60400
C  -3.52700 32.70000 23.96500
N  -1.49500 34.39300 28.49900
C  -2.29600 33.65200 29.38300
C  -1.96600 34.09800 30.82100
C  -0.89800 35.23500 30.60900
C  -0.68300 35.28600 29.08500
C  -1.43600 36.62100 31.15700
C  -1.52700 32.95900 31.76900
C  -2.46500 32.61800 32.99600
H  -1.79000 32.34100 34.31200
N  -0.05900 35.83300 26.13600
C  0.55900 36.46600 27.16800
C  1.58100 37.38800 26.64300
C  1.35400 37.44800 25.23800
C  0.31900 36.45700 24.91800
C  2.54000 38.11900 27.48600
C  2.16800 38.23600 24.27900
O  2.05200 37.97700 23.03700
C  3.14800 39.11700 24.73000
N  -1.80600 34.40000 24.12000
C  -1.16300 35.21800 23.25700
C  -1.44800 34.75800 21.81300
C  -2.58500 33.62400 21.96000
C  -2.67300 33.54000 23.43600
C  -1.92900 35.80500 20.76900
C  -2.15700 32.36400 21.14800
C  -3.30200 31.47700 20.56100
N  -3.04800 33.01700 26.38700
C  -3.68300 32.35500 25.31500
C  -4.62700 31.40900 25.89400
C  -4.36300 31.43500 27.33200
C  -3.43800 32.46500 27.56600
C  -5.67100 30.64200 25.26700
C  -4.85000 30.82900 28.54800
O  -5.66300 29.94900 28.77400
C  -4.04700 31.68000 29.70500
C  -5.04900 32.47600 30.49300
O  -5.57200 33.48400 30.00000
O  -5.23800 31.95400 31.73600
C  -6.20200 32.69300 32.60400
H  0.87100 36.69900 29.20700
H  0.38800 36.51500 22.73000
H  -4.23600 32.16400 23.33100
H  -2.86000 34.55700 31.24300
H  -0.00100 35.12700 31.21900
H  -2.39200 36.91100 30.72100
H  -0.75500 37.41100 30.83800
H  -1.38500 36.74200 32.23900
H  -0.53400 33.16000 32.17100
H  -1.53000 32.04500 31.17600
H  -2.96300 31.67300 32.78000
H  -3.20200 33.41400 33.09200
H  3.59400 37.98600 27.24300
H  2.37800 37.80200 28.51600
H  2.17600 39.14500 27.42500
H  2.69900 39.87600 25.37100
H  3.59200 39.66500 23.90000
H  3.93000 38.56800 25.25500
H  -0.47800 34.35400 21.52100
H  -3.57800 33.81300 21.55200
H  -1.94200 36.77800 21.26100
H  -2.92000 35.70500 20.32700
H  -1.17300 35.82100 19.98300
H  -1.51200 31.74500 21.77200
H  -1.58300 32.67500 20.27500
H  -4.34200 31.69500 20.80200
H  -3.07200 30.45500 20.86500
H  -3.24600 31.50500 19.47300
H  -5.95000 29.72700 25.78900
H  -5.33900 30.42100 24.25300
H  -6.50100 31.34400 25.17600
H  -3.47300 31.00300 30.33800
H  -7.20400 32.31600 32.40000
H  -6.36900 33.75200 32.40400
H  -5.92800 32.51100 33.64300

