158

Mg 53.16500 24.27700 44.83600
C  50.73400 26.55500 43.77800
C  51.08000 21.78300 43.40800
C  55.67900 22.13300 45.09600
C  55.04200 26.83400 46.11400
N  51.19500 24.24400 43.65100
C  50.47900 25.30900 43.29500
C  49.21900 24.91800 42.51000
C  49.19800 23.34300 42.81500
C  50.64900 23.11200 43.22400
C  48.29700 22.89500 44.03300
C  49.28500 25.27700 40.91000
C  50.71700 25.45900 40.29200
H  50.77500 26.07200 38.90900
N  53.40800 22.23900 44.35000
C  52.32100 21.34300 43.90200
C  52.81000 20.02800 44.03200
C  54.15600 20.09000 44.48000
C  54.52100 21.47000 44.60800
C  52.09300 18.82800 43.44800
C  54.98200 18.86700 44.77700
O  54.54300 17.75400 44.57200
C  56.42100 18.92100 45.35900
N  55.18700 24.50000 45.42900
C  56.04700 23.44600 45.46200
C  57.51400 23.92700 45.75900
C  57.14300 25.38100 46.33300
C  55.70100 25.66200 45.91900
C  58.29000 23.00900 46.73200
C  58.08400 26.53100 45.84200
C  57.85600 27.29800 44.51100
N  52.94100 26.29300 44.97800
C  53.72500 27.18300 45.66700
C  53.07700 28.51900 45.67100
C  51.85500 28.30600 44.97100
C  51.82700 26.95500 44.53100
C  53.60600 29.81800 46.31700
C  50.65200 28.92500 44.50800
O  50.25200 30.08200 44.67700
C  49.90600 27.81300 43.75800
C  49.64100 28.16600 42.32300
O  50.50700 28.32900 41.48800
O  48.28800 28.27700 42.15100
C  47.89500 28.93700 40.90500
H  50.37700 20.97700 43.18900
H  56.51500 21.43700 45.20000
H  55.62000 27.66600 46.52300
H  48.29600 25.39500 42.84200
H  49.06600 22.71000 41.93700
H  47.58900 23.68800 44.27500
H  48.94800 22.66600 44.87600
H  47.66800 22.04200 43.77600
H  48.69400 26.16600 40.69000
H  48.90600 24.53000 40.21300
H  51.19200 24.48100 40.36000
H  51.24200 26.13800 40.96400
H  52.70600 18.23700 42.76700
H  51.25600 19.10100 42.80500
H  51.70500 18.14700 44.20600
H  56.85700 17.92600 45.44500
H  56.27000 19.33800 46.35500
H  56.98600 19.61400 44.73600
H  57.99900 23.98100 44.78400
H  57.13600 25.32200 47.42100
H  59.01100 23.64300 47.24900
H  58.88900 22.24400 46.23900
H  57.58500 22.50900 47.39600
H  59.10500 26.15400 45.79300
H  58.06500 27.20000 46.70200
H  57.82300 28.36800 44.71800
H  56.96100 27.01900 43.95500
H  58.72700 27.14500 43.87300
H  53.24600 29.72900 47.34200
H  53.19000 30.68900 45.81100
H  54.68100 29.86200 46.14400
H  49.03300 27.57600 44.36700
H  48.16800 28.23200 40.12000
H  48.25900 29.96100 40.83000
H  46.80500 28.96200 40.89700
Mg 47.20200 16.20800 28.54700
C  44.88700 16.13800 31.23500
C  49.16400 18.37200 30.53300
C  48.92200 17.02300 25.84400
C  44.61600 15.14800 26.56800
N  47.04300 17.06300 30.71100
C  46.07100 16.79800 31.60100
C  46.37100 17.41100 32.97000
C  47.67900 18.21400 32.67700
C  48.05600 17.87300 31.21900
C  47.53000 19.82300 32.85000
C  46.52600 16.22600 34.03900
C  46.03900 16.49800 35.46900
H  45.80500 18.01400 35.90700
N  48.97900 17.30300 28.28600
C  49.58800 18.13700 29.23400
C  50.73200 18.72000 28.53300
C  50.74400 18.32600 27.21000
C  49.48800 17.49300 27.03200
C  51.98100 19.47900 29.29400
C  51.70300 18.69000 26.03300
O  51.54400 18.19600 24.85300
C  52.65600 19.71900 26.28200
N  46.76700 16.23600 26.52400
C  47.70400 16.39500 25.59200
C  47.22500 16.14900 24.16100
C  45.97000 15.34200 24.47000
C  45.74200 15.61600 25.89100
C  46.99600 17.46300 23.33400
C  45.97800 13.92100 23.91800
C  46.77500 12.86000 24.72700
N  45.25800 15.37800 28.80200
C  44.27300 15.09900 27.89300
C  43.13200 14.49600 28.60100
C  43.30600 14.98200 29.87600
C  44.61400 15.57600 29.96900
C  41.81000 13.95300 28.16000
C  42.66600 15.04800 31.18700
O  41.53800 14.68200 31.56600
C  43.64800 15.74400 32.12200
C  42.92200 17.00300 32.74600
O  42.86400 18.03800 32.12400
O  42.50800 16.82000 34.05000
C  41.76700 17.95900 34.61200
H  49.84800 19.05400 31.04300
H  49.49200 17.18100 24.92600
H  43.79300 14.67000 26.03200
H  45.54400 18.06200 33.25300
H  48.57000 17.94500 33.24400
H  46.59400 20.01800 33.37400
H  47.33100 20.24100 31.86300
H  48.47900 20.08800 33.31500
H  47.57500 15.93100 34.06100
H  46.00400 15.36400 33.62300
H  46.79800 16.06800 36.12200
H  45.09200 15.97100 35.59300
H  51.82800 19.21300 30.34000
H  52.09900 20.54300 29.08900
H  52.87800 18.97800 28.92900
H  52.02600 20.54000 26.62300
H  53.02400 19.95600 25.28300
H  53.48200 19.37100 26.90100
H  47.99600 15.54400 23.68400
H  45.16300 15.81400 23.90900
H  47.84800 17.65200 22.68100
H  46.94300 18.32300 24.00100
H  46.06300 17.47400 22.77100
H  46.31100 14.00800 22.88400
H  44.95300 13.55100 23.88900
H  47.15200 13.33700 25.63100
H  47.55100 12.42800 24.09500
H  46.09700 12.05200 25.00200
H  41.84100 12.89800 28.43100
H  41.55600 14.19200 27.12700
H  41.03100 14.46000 28.72900
H  43.96200 15.06400 32.91400
H  40.86700 18.02300 34.00000
H  42.30300 18.90800 34.63800
H  41.33900 17.63400 35.56000

