158

Mg 39.97500 10.09500 30.02100
C  41.98600 11.02200 32.78000
C  37.82200 8.63200 32.22900
C  38.61400 8.67000 27.42900
C  42.72200 11.19000 27.90500
N  39.91300 9.85000 32.29200
C  40.80100 10.46900 33.20900
C  40.19200 10.37400 34.63600
C  38.96700 9.36300 34.48200
C  38.92900 9.25500 32.92700
C  39.14800 7.94900 35.10700
C  39.76100 11.76900 34.99200
C  40.55400 12.36800 36.13600
H  39.84000 13.17700 37.18800
N  38.30100 8.94900 29.87300
C  37.52100 8.49700 30.89500
C  36.40200 7.79600 30.33800
C  36.59200 7.84000 28.85400
C  37.88100 8.42900 28.67200
C  35.48200 6.98600 31.19200
C  35.70200 7.33900 27.88600
O  35.90600 7.43100 26.63900
C  34.38000 6.75400 28.29200
N  40.58700 9.93000 27.96800
C  39.80200 9.31300 27.08900
C  40.29700 9.39700 25.61000
C  41.63000 10.24800 25.80900
C  41.64600 10.52500 27.33400
C  40.48100 8.07400 24.86600
C  41.63100 11.63000 25.06400
C  40.97600 11.72900 23.75400
N  41.99100 10.77100 30.24200
C  42.90900 11.23400 29.30000
C  43.97800 11.80900 29.89000
C  43.63200 11.90300 31.28400
C  42.46200 11.12400 31.44500
C  45.28200 12.31000 29.31700
C  44.12500 12.22800 32.61500
O  45.11900 12.79200 32.93100
C  43.02000 11.82800 33.56500
C  43.73700 10.88200 34.43900
O  44.34600 9.89600 34.02300
O  43.56100 11.18500 35.77200
C  44.22800 10.36900 36.76900
H  37.08800 8.12200 32.85700
H  38.07600 8.29700 26.55400
H  43.51100 11.69600 27.34400
H  40.98300 9.86700 35.18900
H  37.98200 9.72000 34.78400
H  38.41300 7.82400 35.90200
H  40.10500 7.79900 35.60700
H  39.18000 7.09800 34.42800
H  38.76100 11.60900 35.39600
H  39.86500 12.47100 34.16500
H  41.24900 13.08200 35.69300
H  41.21500 11.65300 36.62500
H  34.80300 7.73100 31.60700
H  35.95100 6.50600 32.05100
H  34.97100 6.14600 30.72300
H  34.06700 7.45600 29.06500
H  34.51500 5.77800 28.75800
H  33.63300 6.71500 27.49900
H  39.54400 9.98000 25.08000
H  42.47600 9.64700 25.47700
H  41.35700 8.14800 24.22300
H  39.54100 7.89900 24.34200
H  40.77800 7.29700 25.57000
H  42.65800 11.88300 24.80100
H  41.32500 12.43800 25.72800
H  40.79900 10.73600 23.34000
H  41.62400 12.19000 23.00800
H  40.00200 12.21800 23.74500
H  45.90200 11.52200 28.89000
H  45.80600 12.72600 30.17700
H  44.90900 13.05000 28.60800
H  42.64500 12.67300 34.14300
H  43.83900 9.36000 36.63000
H  44.09100 10.75400 37.78000
H  45.30000 10.37600 36.57100
Mg -12.33100 15.52200 41.89500
C  -9.25700 13.91800 41.80000
C  -10.74000 18.26800 40.60700
C  -15.27500 16.90300 41.47900
C  -13.90700 12.38900 42.74400
N  -10.25900 15.94100 41.06100
C  -9.18200 15.12600 41.19600
C  -7.89600 15.76500 40.63500
C  -8.32900 17.24700 40.64500
C  -9.86400 17.24400 40.79300
C  -7.78200 18.09700 41.93700
C  -7.60900 15.15300 39.20400
C  -6.07600 14.88400 38.87000
H  -5.62500 15.76300 37.69600
N  -12.90700 17.39700 41.18900
C  -12.12900 18.42700 40.75000
C  -12.99500 19.55800 40.42700
C  -14.31800 19.21300 40.77400
C  -14.21500 17.76900 41.12700
C  -12.47500 20.87200 39.88700
C  -15.58700 20.02500 40.74300
O  -15.48800 21.14700 40.28900
C  -16.92200 19.59300 41.04500
N  -14.31100 14.65900 41.78800
C  -15.32500 15.51700 41.85500
C  -16.72900 14.87600 42.05700
C  -16.25600 13.36000 42.25800
C  -14.76600 13.46400 42.28900
C  -17.52900 15.36700 43.28300
C  -16.76200 12.39700 41.04100
C  -17.99600 11.53400 41.26900
N  -11.72300 13.58400 42.30800
C  -12.45600 12.48500 42.77100
C  -11.51400 11.46400 43.16900
C  -10.26700 11.93800 42.82600
C  -10.41400 13.18800 42.24300
C  -11.81100 10.12700 43.84500
C  -8.87500 11.64700 42.87700
O  -8.21600 10.69700 43.29200
C  -8.12100 12.96200 42.18000
C  -7.13700 13.63800 43.15900
O  -7.46600 14.38800 44.04500
O  -5.85600 13.49000 42.74900
C  -4.86100 14.31100 43.44400
H  -10.20900 19.21700 40.50400
H  -16.30800 17.25600 41.50300
H  -14.37600 11.42700 42.96100
H  -7.09700 15.56500 41.34900
H  -8.00800 17.76800 39.74300
H  -7.27500 17.42600 42.63100
H  -8.58000 18.70900 42.35700
H  -6.98500 18.70600 41.50900
H  -8.04800 15.80500 38.45000
H  -7.92700 14.11100 39.17700
H  -5.98900 13.84100 38.56500
H  -5.40600 15.06000 39.71100
H  -13.00400 21.28800 39.02900
H  -11.38900 20.89900 39.80700
H  -12.67800 21.56000 40.70800
H  -17.68300 20.37300 41.02100
H  -16.79800 19.30600 42.08900
H  -17.19500 18.73800 40.42700
H  -17.42400 14.88700 41.21800
H  -16.67200 12.95200 43.17900
H  -18.60300 15.44300 43.10900
H  -17.13200 16.32700 43.61200
H  -17.46300 14.72700 44.16300
H  -15.93600 11.84400 40.59500
H  -16.97500 13.11000 40.24400
H  -18.25800 11.40500 42.31900
H  -17.84800 10.49800 40.96400
H  -18.86400 11.96700 40.77300
H  -11.93400 10.22200 44.92400
H  -11.00500 9.45100 43.55900
H  -12.75000 9.65800 43.55200
H  -7.50000 12.66900 41.33300
H  -4.26300 14.79800 42.67400
H  -4.24500 13.62000 44.01900
H  -5.17600 15.10300 44.12300

