158

Mg 40.44700 9.61900 29.69700
C  42.20200 10.88400 32.43100
C  38.04800 8.74600 31.83000
C  38.90100 8.21700 27.04600
C  42.95600 10.70000 27.51700
N  40.10800 9.94200 31.87400
C  40.88200 10.50000 32.77500
C  40.30300 10.50900 34.15000
C  38.91600 9.72700 33.99900
C  39.02800 9.38800 32.48100
C  38.73100 8.54600 34.97500
C  40.22400 11.89100 34.80700
C  39.53600 11.90800 36.24700
H  40.33000 12.52800 37.34300
N  38.76100 8.54700 29.50100
C  37.86900 8.41100 30.46800
C  36.79100 7.59000 30.01500
C  36.92200 7.42500 28.62400
C  38.19400 8.06500 28.29700
C  35.62900 7.03400 30.92700
C  36.01200 6.73300 27.58400
O  36.29900 6.50100 26.42000
C  34.63200 6.29000 28.00100
N  40.95600 9.38200 27.57400
C  40.09200 8.86700 26.67800
C  40.47900 9.11500 25.19600
C  41.69100 10.09900 25.41300
C  41.86700 10.08400 26.91800
C  40.84500 7.75700 24.41200
C  41.44700 11.55800 24.93200
C  40.29300 12.33500 25.60500
N  42.23800 10.55000 29.94700
C  43.17700 10.90700 28.89100
C  44.32200 11.53100 29.58700
C  43.95600 11.56800 30.94200
C  42.70200 10.91700 31.11800
C  45.56200 11.97400 28.92600
C  44.39200 11.96500 32.21300
O  45.40400 12.58700 32.51000
C  43.33600 11.45000 33.29200
C  43.97700 10.48100 34.28900
O  44.26700 9.30200 34.17200
O  44.02600 11.04500 35.52000
C  44.33500 10.25100 36.75800
H  37.26900 8.52700 32.56300
H  38.24100 7.91600 26.23000
H  43.65700 11.00300 26.73600
H  40.97600 9.98100 34.82600
H  38.11300 10.42800 34.22600
H  37.83300 8.77300 35.54900
H  39.53500 8.46300 35.70700
H  38.57100 7.57800 34.49900
H  39.78200 12.56300 34.07100
H  41.22600 12.29400 34.95400
H  39.22100 10.92600 36.60000
H  38.73900 12.59000 35.94900
H  35.81800 5.96200 30.98800
H  34.64700 7.37200 30.59600
H  35.68000 7.39000 31.95600
H  34.05500 5.95200 27.14000
H  33.99700 6.98500 28.54900
H  34.99900 5.50000 28.65700
H  39.64600 9.58600 24.67200
H  42.57400 9.64200 24.96800
H  40.32700 7.64700 23.46000
H  40.70000 6.80200 24.91700
H  41.91000 7.69100 24.18700
H  41.25000 11.56300 23.86000
H  42.38600 12.06800 25.15000
H  39.71900 11.59100 26.15800
H  39.64000 12.88400 24.92600
H  40.71400 13.05700 26.30500
H  45.74000 11.42900 27.99900
H  46.38900 11.78100 29.60900
H  45.55100 13.05100 28.75900
H  42.99600 12.35000 33.80300
H  45.36800 10.33300 37.09500
H  44.07600 9.19800 36.64700
H  43.65100 10.69400 37.48200
Mg 49.05500 35.64100 27.19100
C  47.22400 33.84400 29.61600
C  49.11100 38.33700 29.49800
C  50.38500 37.48200 24.87100
C  48.43300 32.99700 24.97300
N  48.40900 35.94300 29.34300
C  47.75900 35.00700 30.11500
C  47.49500 35.56000 31.51700
C  47.68500 37.12200 31.28200
C  48.42900 37.15200 29.93600
C  46.48100 38.06700 31.35300
C  48.35400 34.89000 32.64300
C  48.63900 35.76200 33.89700
H  47.47500 36.52200 34.48900
N  49.82600 37.55400 27.24700
C  49.74800 38.49300 28.23200
C  50.45600 39.63200 27.80600
C  50.68800 39.48600 26.41500
C  50.27200 38.09600 26.15500
C  50.65500 40.83900 28.76500
C  51.10900 40.47200 25.40500
O  51.34900 40.25800 24.23600
C  51.22100 41.91800 25.83200
N  49.39700 35.26900 25.27600
C  50.06900 36.17700 24.55000
C  50.47100 35.52700 23.16400
C  50.19800 33.97800 23.38800
C  49.26100 34.03100 24.60700
C  49.60400 36.17300 22.09600
C  51.48000 33.18100 23.74300
C  51.99200 32.29200 22.61700
N  47.93500 33.86200 27.20500
C  47.73100 32.92100 26.16600
C  46.88300 31.84500 26.67900
C  46.61500 32.19700 27.98600
C  47.30800 33.41400 28.28000
C  46.62500 30.59300 25.96700
C  46.00200 31.70600 29.29100
O  45.23200 30.74400 29.51000
C  46.32700 32.71900 30.32800
C  47.03700 32.08400 31.43300
O  48.23100 31.85300 31.51200
O  46.15500 31.77900 32.43600
C  46.61900 31.02800 33.61000
H  49.04100 39.14100 30.23300
H  51.09600 37.96700 24.19800
H  48.36600 32.13400 24.30700
H  46.44600 35.37200 31.74200
H  48.40900 37.55600 31.97100
H  46.30800 38.67600 30.46600
H  46.72000 38.79400 32.12800
H  45.70100 37.37900 31.67900
H  49.28800 34.44200 32.30400
H  47.74100 34.09900 33.07300
H  49.54500 36.34900 33.74500
H  48.85500 35.25100 34.83500
H  49.98800 41.65500 28.48600
H  51.64900 41.27100 28.65000
H  50.56500 40.52600 29.80500
H  50.25100 42.23800 26.21400
H  51.61400 42.53400 25.02300
H  51.99200 41.89200 26.60200
H  51.53800 35.61400 22.96000
H  49.70700 33.56800 22.50500
H  48.70200 36.59400 22.53800
H  49.41400 35.42500 21.32600
H  50.14700 37.00300 21.64400
H  51.30500 32.56300 24.62300
H  52.28900 33.88600 23.93700
H  51.44200 32.47400 21.69400
H  51.86700 31.22400 22.79800
H  53.04600 32.49600 22.43000
H  47.51200 29.97300 26.10000
H  46.42800 30.69200 24.90000
H  45.69800 30.20900 26.39400
H  45.41400 33.14900 30.73900
H  45.90300 30.73900 34.37900
H  47.32200 31.66200 34.15000
H  47.00000 30.10300 33.17700

