158

Mg 0.60100 8.25600 26.84600
C  1.19600 10.16900 29.65800
C  0.84800 5.42300 28.92300
C  0.56700 6.22600 24.14800
C  0.79500 11.01500 24.83700
N  0.99800 7.85600 29.08400
C  0.96000 8.82100 30.02800
C  0.86200 8.21500 31.39700
C  1.17100 6.65400 31.15000
C  1.01400 6.61200 29.64200
C  2.55200 6.18700 31.58600
C  -0.51500 8.49300 32.13300
C  -0.49800 8.29800 33.68800
H  0.63600 7.71600 34.50600
N  0.65400 6.09300 26.54900
C  0.64700 5.15000 27.55900
C  0.36100 3.85800 26.99500
C  0.28000 4.07600 25.60600
C  0.46200 5.48900 25.36300
C  0.29500 2.59000 27.78400
C  0.10900 3.02800 24.37100
O  -0.18400 3.42400 23.20200
C  0.32000 1.63700 24.71200
N  0.91200 8.54500 24.76200
C  0.71500 7.55400 23.83000
C  0.83900 8.10700 22.45900
C  0.62700 9.64800 22.72400
C  0.73500 9.75200 24.22300
C  2.12000 7.75500 21.57400
C  -0.75300 10.19800 22.24600
C  -0.82200 11.42700 21.28300
N  0.87000 10.17500 27.13800
C  0.88700 11.21200 26.21200
C  1.14700 12.47000 26.85000
C  1.27400 12.08800 28.19800
C  1.13700 10.70100 28.30900
C  1.27900 13.84600 26.29100
C  1.47600 12.62400 29.50000
O  1.66500 13.80800 29.90600
C  1.28800 11.44100 30.51100
C  2.23000 11.44000 31.67600
O  3.45100 11.69800 31.60500
O  1.56400 11.13900 32.81600
C  2.41600 11.02000 34.03900
H  0.76200 4.52700 29.54100
H  0.55200 5.59800 23.25500
H  0.82100 11.90600 24.20600
H  1.63400 8.72600 31.97200
H  0.38600 6.01400 31.55200
H  2.93200 5.46300 30.86500
H  2.42000 5.61700 32.50500
H  3.28000 6.98200 31.74500
H  -1.30500 7.80900 31.82400
H  -0.76600 9.46700 31.71300
H  -1.35600 7.65200 33.87200
H  -0.68900 9.28800 34.10300
H  1.27100 2.11600 27.68200
H  -0.46600 1.99300 27.28000
H  0.15100 2.78900 28.84600
H  0.63600 0.94600 23.93000
H  -0.52100 1.25800 25.29200
H  1.19000 1.68000 25.36700
H  -0.06400 7.68100 22.02200
H  1.46600 10.26200 22.39800
H  2.75300 7.16900 22.24000
H  2.65200 8.61300 21.16300
H  1.83600 7.10600 20.74500
H  -1.27500 10.55800 23.13300
H  -1.35000 9.36800 21.86900
H  0.20300 11.60300 20.95600
H  -1.30100 12.23700 21.83300
H  -1.53400 11.10100 20.52500
H  0.28800 14.13500 25.94100
H  1.95200 13.73200 25.44100
H  1.70100 14.53200 27.02500
H  0.35000 11.77200 30.95700
H  2.76800 11.96200 34.46000
H  3.36800 10.53500 33.82200
H  1.80600 10.45900 34.74700
Mg 52.83400 23.97000 45.01300
C  50.18500 25.96400 43.85000
C  50.89300 21.28100 43.86500
C  55.62500 22.12400 45.03000
C  54.48900 26.72200 45.92400
N  50.88100 23.72600 43.68300
C  49.95800 24.69000 43.35600
C  48.77000 24.09200 42.67300
C  48.95200 22.58900 42.84500
C  50.33600 22.48500 43.44400
C  47.81000 21.80700 43.56500
C  48.76600 24.46200 41.13600
C  50.10200 24.69000 40.34100
H  50.17600 25.31400 38.90600
N  53.19300 21.90800 44.64100
C  52.24100 20.96000 44.27600
C  52.88900 19.66300 44.22800
C  54.28000 19.84900 44.58000
C  54.45500 21.34800 44.79700
C  52.21500 18.34100 43.96800
C  55.29700 18.76600 44.73000
O  54.89200 17.58000 44.54900
C  56.71700 19.08400 45.08700
N  54.81600 24.40700 45.25300
C  55.75900 23.48700 45.31100
C  57.16500 24.08200 45.48900
C  56.83700 25.58400 45.91800
C  55.32300 25.62800 45.66900
C  58.04200 23.44700 46.61600
C  57.61000 26.71500 45.18600
C  58.90000 27.25600 45.80100
N  52.45100 26.04300 44.88500
C  53.16300 26.99000 45.51100
C  52.40500 28.24600 45.57800
C  51.18200 27.85100 44.90500
C  51.26900 26.52700 44.54000
C  52.69900 29.38600 46.34300
C  49.80000 28.26900 44.51200
O  49.18200 29.31500 44.56200
C  49.12000 27.00900 43.79700
C  48.90400 27.51100 42.38800
O  49.80600 27.77300 41.65600
O  47.58100 27.69800 42.07500
C  47.42900 28.50300 40.88200
H  50.27500 20.39200 43.72300
H  56.56300 21.58900 45.18900
H  55.11800 27.51500 46.33300
H  47.88800 24.42400 43.22000
H  48.99000 22.06500 41.89000
H  48.33000 21.29500 44.37400
H  47.32600 21.05400 42.94200
H  47.04400 22.43100 44.02600
H  48.12000 25.33700 41.06700
H  48.18800 23.72600 40.57700
H  50.51500 23.68200 40.29200
H  50.83200 25.26900 40.90700
H  52.59500 17.89100 43.05100
H  51.14400 18.41300 43.78100
H  52.37200 17.69200 44.83000
H  57.27000 18.14900 45.17700
H  56.81100 19.60800 46.03700
H  57.06500 19.64100 44.21700
H  57.74500 23.98500 44.57100
H  56.92600 25.68000 47.00000
H  57.45300 22.93000 47.37400
H  58.55100 24.17800 47.24500
H  58.79700 22.79700 46.17300
H  57.08800 27.65600 45.01000
H  57.84500 26.27700 44.21600
H  59.76100 26.93300 45.21600
H  59.16100 26.94500 46.81300
H  58.83800 28.33000 45.97500
H  53.42800 29.18200 47.12700
H  51.72700 29.55100 46.80800
H  52.96900 30.24000 45.72100
H  48.14600 26.73900 44.20500
H  46.35400 28.54100 40.70800
H  47.72500 27.97100 39.97800
H  47.78100 29.53200 40.95900

