158

Mg 0.86800 7.20600 25.41500
C  1.55400 8.90100 28.38000
C  1.15500 4.27000 27.20800
C  0.40300 5.47100 22.63500
C  1.11100 10.24000 23.68000
N  1.07100 6.67200 27.60500
C  1.29700 7.56700 28.55000
C  1.36100 6.82800 29.87500
C  1.55000 5.28900 29.47000
C  1.26000 5.38400 27.97100
C  2.78900 4.59200 29.97800
C  0.10300 7.07200 30.72100
C  0.44400 7.49800 32.20600
H  1.73700 6.97700 32.85900
N  0.78100 5.12800 24.96700
C  0.95200 4.06900 25.81000
C  0.86400 2.84800 25.07200
C  0.68500 3.25700 23.71600
C  0.67000 4.68600 23.69400
C  1.12800 1.53600 25.73400
C  0.56500 2.33600 22.46200
O  0.49000 2.79800 21.30900
C  0.47800 0.89900 22.63100
N  0.86400 7.75600 23.44000
C  0.39900 6.89000 22.51400
C  0.10700 7.60600 21.21100
C  0.34900 9.09700 21.49700
C  0.78000 9.08500 22.98600
C  0.97400 6.95300 20.09900
C  -0.87700 10.04000 21.38700
C  -0.79200 11.24700 20.37600
N  1.39200 9.19100 25.90400
C  1.40000 10.31600 25.12800
C  1.57900 11.49900 25.93900
C  1.66300 10.98900 27.24500
C  1.63100 9.52600 27.15900
C  1.53000 12.91600 25.27200
C  1.84100 11.35200 28.67600
O  2.01900 12.43600 29.21700
C  1.83700 9.95500 29.42900
C  3.15300 9.82100 30.12900
O  4.20200 9.43100 29.60400
O  3.12800 10.49000 31.40200
C  4.43500 10.67800 32.14000
H  1.37400 3.39300 27.82100
H  0.07000 4.96100 21.72900
H  1.11400 11.20100 23.16100
H  2.23600 7.29500 30.32900
H  0.74100 4.69000 29.88900
H  3.43600 5.30100 30.49400
H  3.38600 4.19200 29.15800
H  2.51000 3.80100 30.67400
H  -0.49000 6.15900 30.78200
H  -0.60000 7.75300 30.24100
H  -0.44600 7.24300 32.78200
H  0.48900 8.58200 32.31100
H  2.05500 1.15800 25.30300
H  0.34200 0.84900 25.42100
H  1.02600 1.54900 26.81900
H  1.48800 0.52500 22.79600
H  0.05000 0.33500 21.80200
H  -0.25200 0.81600 23.43600
H  -0.97200 7.54100 21.07500
H  1.18600 9.39100 20.86300
H  1.14100 7.64800 19.27600
H  0.45500 6.06400 19.74000
H  1.97000 6.70100 20.46200
H  -1.07200 10.50000 22.35700
H  -1.77600 9.48000 21.13000
H  -0.92000 12.16800 20.94400
H  -1.45700 11.14600 19.51900
H  0.21000 11.34200 19.95700
H  1.33400 13.54800 26.13800
H  0.71400 13.07500 24.56600
H  2.41400 13.28700 24.75300
H  1.03000 10.06300 30.15300
H  5.22000 10.77900 31.39100
H  4.82900 9.87900 32.76900
H  4.29700 11.59500 32.71300
Mg 25.73600 -6.31900 48.41100
C  27.33800 -3.65900 46.82600
C  23.22300 -6.17300 46.08400
C  24.55300 -9.13200 49.59200
C  28.75300 -6.80600 50.17500
N  25.39600 -5.08700 46.61100
C  26.12200 -4.03600 46.19000
C  25.65500 -3.53500 44.82800
C  24.24200 -4.16000 44.74900
C  24.25700 -5.23400 45.89500
C  23.12500 -3.08500 44.93400
C  26.63500 -3.92000 43.68600
C  26.97000 -2.85900 42.64000
H  25.95600 -2.71500 41.47300
N  24.10500 -7.49600 47.92500
C  23.14300 -7.20700 47.01500
C  22.06500 -8.16900 47.08600
C  22.44800 -9.12200 48.05200
C  23.70800 -8.58500 48.60300
C  20.78600 -8.17000 46.32800
C  21.71300 -10.43000 48.32400
O  20.89200 -10.89700 47.50200
C  22.20200 -11.43600 49.35000
N  26.49400 -7.61500 49.83300
C  25.85400 -8.76700 50.06500
C  26.67400 -9.83600 50.92500
C  28.07700 -9.06300 51.02000
C  27.77700 -7.77900 50.28200
C  26.08100 -10.19200 52.31000
C  29.19100 -9.88500 50.30800
C  29.41700 -11.39300 50.78300
N  27.64000 -5.37600 48.58300
C  28.71800 -5.65900 49.42000
C  29.76100 -4.66700 49.15900
C  29.27100 -3.83900 48.17300
C  27.97600 -4.35200 47.83300
C  31.12200 -4.66400 49.75100
C  29.46200 -2.62600 47.38600
O  30.34400 -1.83400 47.41300
C  28.30300 -2.60600 46.37500
C  27.76800 -1.23900 46.44300
O  27.73000 -0.43900 45.48000
O  27.39300 -0.98400 47.76300
C  27.21600 0.34600 48.20900
H  22.33200 -6.12200 45.45500
H  24.16000 -10.04800 50.03800
H  29.74400 -6.92000 50.62100
H  25.60000 -2.45000 44.73200
H  24.09400 -4.66000 43.79200
H  22.90000 -2.44500 44.08100
H  23.57800 -2.52100 45.74900
H  22.18400 -3.56800 45.19700
H  26.18600 -4.74700 43.13700
H  27.59200 -4.26500 44.07700
H  27.93600 -3.04400 42.17000
H  26.94200 -1.88500 43.12800
H  20.47300 -7.26300 45.81000
H  19.91500 -8.55000 46.86200
H  20.80800 -8.89500 45.51400
H  23.08700 -11.92400 48.94200
H  21.50000 -12.26900 49.38200
H  22.36200 -11.05000 50.35700
H  26.79800 -10.78200 50.39800
H  28.26800 -8.91600 52.08400
H  25.67100 -11.20200 52.33200
H  25.32000 -9.44100 52.52400
H  26.87700 -10.17700 53.05400
H  30.15600 -9.39500 50.43100
H  29.06700 -9.82100 49.22600
H  30.48800 -11.50900 50.95000
H  29.23400 -12.14000 50.01100
H  28.87500 -11.57200 51.71200
H  31.88400 -4.14000 49.17400
H  31.42400 -5.67800 50.01400
H  31.05500 -4.03500 50.63900
H  28.81000 -2.73100 45.41800
H  27.33700 1.03700 47.37600
H  28.04100 0.55700 48.89000
H  26.23900 0.50400 48.66700

