158

Mg 26.39500 49.61500 26.74700
C  24.15900 50.77400 29.21100
C  28.77600 48.94500 29.10000
C  28.70100 48.91500 24.15300
C  24.21700 50.65300 24.44100
N  26.44900 49.78400 28.88800
C  25.39900 50.21900 29.69600
C  25.76400 50.16300 31.20200
C  27.27700 49.73400 31.17600
C  27.52300 49.35500 29.64200
C  28.26700 50.83200 31.64400
C  24.92600 49.20200 32.09700
C  24.60600 49.73600 33.52900
H  24.58000 48.73700 34.69300
N  28.40100 48.98200 26.65500
C  29.22300 48.85200 27.74300
C  30.47900 48.47000 27.34900
C  30.58800 48.63900 25.96300
C  29.16500 48.83500 25.53400
C  31.73500 48.24700 28.25700
C  31.79400 48.55000 25.00900
O  31.58100 48.87700 23.81400
C  33.20800 48.39100 25.36000
N  26.50900 49.87000 24.62000
C  27.44300 49.38800 23.77800
C  26.93400 49.34100 22.28000
C  25.47600 49.98300 22.44900
C  25.35800 50.13000 23.92200
C  27.87800 49.87500 21.25200
C  24.39300 49.00600 21.80600
C  23.25800 49.62600 20.92800
N  24.66600 50.67500 26.81300
C  23.79400 50.91000 25.73600
C  22.59900 51.58700 26.15500
C  22.66700 51.57300 27.57600
C  23.90400 50.98400 27.89400
C  21.51000 52.16200 25.21800
C  21.99300 51.91500 28.86800
O  20.98600 52.56500 29.16500
C  22.98600 51.32600 29.98300
C  23.31800 52.50200 30.90200
O  24.17500 53.38200 30.75300
O  22.73400 52.29200 32.07100
C  22.84300 53.35200 33.12800
H  29.58600 48.84400 29.82500
H  29.43800 48.55100 23.43400
H  23.40400 50.80100 23.72700
H  25.62800 51.19600 31.52100
H  27.56500 48.92400 31.84600
H  28.99300 50.38800 32.32600
H  27.87300 51.69000 32.19000
H  28.88300 51.08900 30.78300
H  25.49300 48.27700 32.20300
H  23.96400 49.03000 31.61500
H  23.64600 50.22300 33.35700
H  25.38900 50.46500 33.73300
H  32.06900 47.20900 28.26300
H  31.42500 48.60700 29.23800
H  32.56900 48.86300 27.91800
H  33.38800 47.82600 26.27500
H  33.62300 49.39600 25.43800
H  33.78700 47.82700 24.62900
H  26.75700 48.30400 21.99400
H  25.47200 50.97300 21.99300
H  28.75700 50.44400 21.55600
H  27.27500 50.55500 20.65000
H  28.16600 49.12300 20.51700
H  23.86500 48.48800 22.60700
H  24.87500 48.25200 21.18400
H  23.61700 50.55700 20.49100
H  22.45800 49.92300 21.60600
H  22.81300 48.96300 20.18600
H  21.33600 51.42800 24.43100
H  21.83900 53.06200 24.69800
H  20.60300 52.21900 25.81800
H  22.59800 50.49700 30.57400
H  23.81600 53.31100 33.61700
H  22.05700 53.20800 33.86900
H  22.67200 54.36300 32.75600
Mg 16.58700 51.20200 26.21600
C  18.49300 49.83800 29.01400
C  14.21900 52.02400 28.63500
C  14.97800 52.66000 23.81500
C  19.01400 49.83300 24.07800
N  16.39300 50.95300 28.58700
C  17.34400 50.49800 29.42800
C  17.10300 50.93800 30.89300
C  15.54800 51.31800 30.75900
C  15.33400 51.36200 29.22400
C  14.53800 50.37600 31.43000
C  18.04800 52.03700 31.31200
C  18.49200 52.05400 32.78300
H  17.74300 51.15300 33.82400
N  14.81300 52.18200 26.20900
C  13.99100 52.47300 27.27100
C  12.98700 53.39200 26.79300
C  13.26100 53.68200 25.41900
C  14.36200 52.82600 25.06300
C  11.95400 53.88900 27.68000
C  12.48900 54.52700 24.45700
O  12.82300 54.73200 23.29700
C  11.26300 55.23400 24.90000
N  16.91900 51.16300 24.17100
C  16.09400 51.85900 23.39200
C  16.46800 51.55800 21.89900
C  17.82500 50.78000 21.99700
C  17.97500 50.59500 23.49100
C  15.36000 50.72700 21.19200
C  19.12600 51.24700 21.27100
C  19.55900 50.38700 20.05900
N  18.31800 50.00000 26.46500
C  19.25800 49.61600 25.48100
C  20.38400 48.93400 26.12300
C  20.13100 49.04700 27.52100
C  18.88200 49.64300 27.66200
C  21.60300 48.41600 25.49200
C  20.68800 48.68600 28.90500
O  21.78000 48.13200 29.12400
C  19.63300 49.23500 29.90500
C  19.08600 48.00700 30.51200
O  18.10800 47.35300 30.17600
O  19.74300 47.88300 31.72000
C  19.18400 46.91000 32.62800
H  13.52100 52.34900 29.40900
H  14.44500 53.13400 22.98900
H  19.61000 49.21200 23.40500
H  17.03500 50.13500 31.62700
H  15.31500 52.24300 31.28600
H  13.84500 49.99300 30.68200
H  13.88000 50.90400 32.12000
H  14.88400 49.50800 31.99100
H  17.54200 52.98000 31.11100
H  18.97500 51.97100 30.74200
H  18.11600 53.02900 33.09300
H  19.58000 52.09800 32.73300
H  11.72600 53.23700 28.52400
H  11.02200 53.96300 27.11900
H  12.18400 54.90500 28.00000
H  11.45000 55.85300 25.77700
H  10.53600 54.44300 25.08200
H  10.91800 55.75600 24.00700
H  16.51900 52.50700 21.36500
H  17.77200 49.72100 21.74700
H  14.55200 50.48400 21.88200
H  15.63800 49.73200 20.84500
H  14.94000 51.31400 20.37500
H  19.96300 51.21000 21.96800
H  18.97000 52.23500 20.83800
H  20.47600 49.87200 20.34700
H  19.90100 51.01600 19.23700
H  18.88500 49.65200 19.61800
H  22.49500 48.61900 26.08500
H  21.89600 48.77700 24.50600
H  21.66000 47.32800 25.52200
H  19.91400 49.82400 30.77900
H  18.18200 46.50000 32.50500
H  19.10000 47.36700 33.61500
H  19.85300 46.05300 32.55600

