158

Mg 7.69200 3.24200 27.40500
C  8.86600 1.93800 30.42200
C  5.40600 5.10900 28.89900
C  6.65200 4.03000 24.40600
C  9.63200 0.46100 25.77400
N  7.14800 3.37300 29.41400
C  7.84500 2.89000 30.47300
C  7.21200 3.47200 31.78700
C  5.94400 4.24000 31.27800
C  6.19900 4.31100 29.75300
C  4.66000 3.63200 31.79200
C  8.21000 4.29500 32.59200
C  7.98400 4.11000 34.18500
H  9.28700 3.72200 34.94900
N  6.39000 4.71000 26.74900
C  5.45300 5.30500 27.51200
C  4.73200 6.18900 26.75300
C  5.01800 5.88700 25.39300
C  6.11200 4.86500 25.46800
C  3.78800 7.30000 27.35600
C  4.46200 6.57800 24.13400
O  4.86700 6.27300 23.02000
C  3.33400 7.57300 24.23500
N  8.05800 2.22700 25.30600
C  7.43400 2.86800 24.28700
C  7.72500 2.15900 22.93200
C  8.72800 1.04700 23.34100
C  8.78100 1.19300 24.89500
C  6.47500 1.61100 22.17100
C  10.14700 1.22600 22.65400
C  10.42400 0.25400 21.47300
N  8.96200 1.51100 27.95500
C  9.70800 0.62200 27.21900
C  10.60000 -0.10600 28.18300
C  10.33600 0.44200 29.43100
C  9.35800 1.39300 29.20900
C  11.63100 -1.04600 27.74700
C  10.73200 0.37900 30.77500
O  11.54900 -0.29200 31.38600
C  9.72900 1.38400 31.50700
C  8.88800 0.52300 32.40100
O  7.75200 0.05700 32.19800
O  9.52500 0.42500 33.64500
C  8.72900 -0.30500 34.56600
H  4.62100 5.67800 29.40200
H  6.18400 4.38100 23.48400
H  10.24500 -0.36600 25.40800
H  6.92100 2.60000 32.37200
H  5.95500 5.24500 31.69900
H  4.83300 2.79300 32.46700
H  3.99000 3.40100 30.96400
H  4.21100 4.38700 32.43700
H  8.03400 5.35500 32.40900
H  9.22200 4.08800 32.24700
H  7.30400 3.29900 34.44600
H  7.65900 5.07900 34.56500
H  4.06600 7.30700 28.41000
H  2.80400 6.87900 27.14900
H  3.94500 8.26400 26.87200
H  2.75000 7.73300 23.32900
H  3.78400 8.51900 24.53400
H  2.62200 7.22900 24.98500
H  8.27500 2.83400 22.27700
H  8.31900 0.04200 23.24500
H  5.57100 1.95200 22.67500
H  6.60900 0.53200 22.09500
H  6.36800 2.06700 21.18700
H  10.90600 1.02000 23.40900
H  10.40500 2.23800 22.34000
H  9.47800 -0.14300 21.10600
H  11.01700 -0.57100 21.86800
H  10.96700 0.77200 20.68300
H  11.24000 -2.06300 27.76500
H  12.56100 -1.07400 28.31400
H  11.76000 -0.85200 26.68200
H  10.31700 2.10800 32.07200
H  8.28200 -1.24900 34.25600
H  8.05100 0.37500 35.08100
H  9.41300 -0.78100 35.26900
Mg -11.57600 16.85200 41.59400
C  -8.42100 15.35000 41.09600
C  -10.11500 19.80900 40.41000
C  -14.63900 18.05600 41.38700
C  -12.82100 13.64000 42.38200
N  -9.51700 17.47900 40.68000
C  -8.43800 16.70000 40.72600
C  -7.20800 17.43300 40.28300
C  -7.74100 18.91100 40.26600
C  -9.22300 18.73500 40.44400
C  -7.04400 19.88600 41.32400
C  -6.65800 17.01200 38.87100
C  -5.15300 16.96200 38.73100
H  -4.63800 17.19700 37.27900
N  -12.33200 18.68800 40.93000
C  -11.57800 19.78500 40.58000
C  -12.49200 20.87300 40.25600
C  -13.85600 20.44300 40.53000
C  -13.68900 19.03000 41.00500
C  -12.06600 22.25100 39.75700
C  -15.11400 21.23500 40.27800
O  -15.08800 22.38500 39.79900
C  -16.47500 20.66100 40.61000
N  -13.47100 15.96000 41.86100
C  -14.57700 16.67700 41.70600
C  -15.86300 15.87600 41.98000
C  -15.28300 14.48500 42.37200
C  -13.74200 14.66500 42.26700
C  -16.81900 16.50300 42.98700
C  -15.80200 13.28100 41.48900
C  -16.98600 12.54100 42.03900
N  -10.78500 14.86100 41.80100
C  -11.40300 13.69400 42.24300
C  -10.35400 12.66500 42.23900
C  -9.17700 13.24200 41.82000
C  -9.48700 14.55600 41.56300
C  -10.66700 11.24400 42.45900
C  -7.75800 12.98400 41.46700
O  -7.07800 11.99600 41.51800
C  -7.16200 14.45900 41.03500
C  -6.16200 14.86000 42.04700
O  -6.37200 15.14600 43.21200
O  -4.86800 14.83600 41.44400
C  -3.69000 15.03500 42.30600
H  -9.67500 20.80100 40.28700
H  -15.65100 18.46400 41.34400
H  -13.29000 12.66700 42.54300
H  -6.51800 17.28400 41.11300
H  -7.58500 19.43400 39.32200
H  -6.17800 19.41700 41.79100
H  -7.76800 19.90800 42.13900
H  -6.84800 20.90000 40.97500
H  -7.03100 17.61900 38.04600
H  -6.99300 15.98900 38.70100
H  -4.68300 16.01900 39.00800
H  -4.86200 17.80900 39.35200
H  -12.33800 22.56400 38.74900
H  -10.99100 22.41200 39.83000
H  -12.40200 23.01400 40.46000
H  -16.64700 19.84700 39.90600
H  -17.23600 21.43000 40.47400
H  -16.43100 20.25300 41.61900
H  -16.23700 16.01700 40.96600
H  -15.52700 14.34800 43.42500
H  -16.98800 15.92200 43.89400
H  -17.81400 16.66800 42.57400
H  -16.40700 17.46600 43.28700
H  -14.96600 12.61500 41.27700
H  -16.11600 13.66400 40.51800
H  -17.25100 13.01800 42.98300
H  -16.68900 11.52600 42.30300
H  -17.80400 12.48500 41.32000
H  -11.40700 11.25300 43.25900
H  -9.80400 10.62600 42.70500
H  -11.17000 10.79100 41.60400
H  -6.64000 14.43800 40.07900
H  -3.88200 15.05500 43.37900
H  -3.31600 16.04300 42.13200
H  -2.92100 14.32000 42.01300

