158

Mg 25.15100 1.88800 29.82100
C  27.32500 1.64300 32.54800
C  22.48600 1.70500 32.03500
C  23.04500 1.80700 27.19900
C  27.85300 1.17900 27.73000
N  24.94000 1.77900 31.96700
C  26.00300 1.84800 32.84300
C  25.50000 2.15100 34.24300
C  23.97700 1.86000 34.19400
C  23.79100 1.86800 32.62700
C  23.56200 0.47300 34.82400
C  25.91700 3.53400 34.72800
C  26.51800 3.77500 36.11400
H  26.13000 2.81900 37.28100
N  23.05800 1.76500 29.64800
C  22.17400 1.66400 30.65200
C  20.86400 1.59300 30.18800
C  20.98600 1.55200 28.76600
C  22.39700 1.72600 28.46400
C  19.68500 1.40400 31.04700
C  19.84300 1.60400 27.75900
O  20.15100 1.78500 26.56900
C  18.46000 1.32400 28.22500
N  25.43400 1.70300 27.77700
C  24.42300 1.86600 26.89200
C  24.99300 2.10700 25.44700
C  26.47400 1.67800 25.57400
C  26.65100 1.51900 27.14700
C  24.14900 1.45200 24.32800
C  27.33300 2.90100 25.09800
C  27.53300 2.93600 23.55900
N  27.13200 1.48000 30.00500
C  28.08900 1.13600 29.04700
C  29.31000 0.90600 29.73500
C  29.11200 1.20600 31.07800
C  27.73500 1.42100 31.23000
C  30.61600 0.68500 29.02500
C  29.77300 1.23000 32.40000
O  30.97900 1.18300 32.71300
C  28.55100 1.55300 33.45800
C  28.43900 0.49700 34.50500
O  27.62800 -0.39300 34.47800
O  29.31900 0.61900 35.49600
C  28.99800 -0.38200 36.57400
H  21.76600 1.84500 32.84300
H  22.39100 1.85100 26.32500
H  28.67200 1.04300 27.02100
H  25.93700 1.44500 34.94900
H  23.15600 2.53800 34.42800
H  23.04500 -0.13700 34.08400
H  22.82300 0.71700 35.58700
H  24.42200 -0.14700 35.07600
H  25.09000 4.24300 34.77000
H  26.64600 3.97800 34.05000
H  26.05600 4.70800 36.43700
H  27.60700 3.79400 36.06500
H  19.08500 2.21400 30.63100
H  19.86600 1.59200 32.10500
H  19.19200 0.43300 31.01900
H  18.46400 0.55700 28.99900
H  17.72100 1.13700 27.44600
H  18.18700 2.23100 28.76500
H  24.71100 3.15300 25.33300
H  26.70900 0.74500 25.06300
H  24.86000 1.24400 23.52800
H  23.31400 2.10700 24.08100
H  23.67900 0.60200 24.82300
H  28.28800 2.77800 25.60900
H  26.82700 3.83900 25.32900
H  28.61100 2.90600 23.39700
H  27.18000 3.87400 23.13100
H  26.98700 2.14300 23.04900
H  30.50000 0.02600 28.16500
H  31.19200 0.24200 29.83800
H  30.98700 1.63400 28.63700
H  28.90200 2.50100 33.86800
H  29.63900 -0.29700 37.45100
H  28.99200 -1.38700 36.15300
H  28.06200 -0.28100 37.12400
Mg 47.39800 25.09300 28.76300
C  48.29300 27.18500 31.32900
C  46.14800 22.97500 31.25600
C  46.80400 22.96900 26.40000
C  48.77600 27.30700 26.42200
N  47.02800 25.18000 31.02400
C  47.46200 26.17200 31.82700
C  47.07100 25.96800 33.26800
C  46.54600 24.43700 33.27300
C  46.56800 24.17400 31.76500
C  47.24800 23.29800 34.06500
C  46.02700 26.99300 33.78100
C  46.23800 27.75800 35.13800
H  44.95600 28.08100 35.98700
N  46.51700 23.34300 28.79800
C  46.04200 22.59500 29.85100
C  45.43800 21.42600 29.43900
C  45.61800 21.35700 27.99000
C  46.38300 22.57200 27.67300
C  44.79400 20.41900 30.31400
C  45.32000 20.20100 27.04200
O  45.69100 20.25900 25.86200
C  44.74200 18.80700 27.49400
N  48.09200 24.98900 26.66800
C  47.40900 24.07700 25.91300
C  47.84600 24.24600 24.47000
C  48.14400 25.77900 24.41800
C  48.38500 26.07200 25.90200
C  49.09900 23.32200 24.16800
C  46.98700 26.59100 23.79300
C  47.03800 26.47900 22.21200
N  48.39100 26.86900 28.83900
C  48.86900 27.72000 27.79600
C  49.33000 28.93800 28.38300
C  49.22000 28.70600 29.75600
C  48.61200 27.48000 29.99200
C  49.84000 30.12800 27.64800
C  49.40100 29.31800 31.09500
O  49.82200 30.41500 31.45300
C  48.96800 28.25800 32.17300
C  50.05700 27.79200 33.11100
O  51.05400 27.15600 32.76100
O  49.82700 28.33100 34.38300
C  51.02300 28.23500 35.28500
H  45.64400 22.28900 31.94000
H  46.45300 22.28700 25.62200
H  49.10600 27.98100 25.63000
H  48.01100 26.02600 33.81700
H  45.48500 24.31700 33.49200
H  47.96600 22.70600 33.49800
H  46.56100 22.56300 34.48500
H  47.74900 23.79100 34.89900
H  45.04000 26.53300 33.79800
H  45.94200 27.79500 33.04700
H  46.77700 28.70500 35.11200
H  46.77500 27.10400 35.82500
H  45.54400 19.71000 30.66400
H  44.00200 19.84200 29.83800
H  44.36600 20.86700 31.21100
H  45.42400 18.43300 28.25800
H  44.67500 18.11000 26.65900
H  43.76100 18.97000 27.94200
H  47.06500 24.01100 23.74700
H  49.06300 25.99400 23.87300
H  49.16900 22.70200 25.06100
H  50.09100 23.76900 24.09400
H  48.98100 22.68100 23.29400
H  47.02700 27.63500 24.10500
H  46.04800 26.08300 24.00900
H  46.19900 26.07100 21.64700
H  47.93900 26.00300 21.82600
H  47.17100 27.51800 21.90900
H  50.88300 30.28100 27.92300
H  49.24400 30.97400 27.99000
H  49.71800 30.12800 26.56500
H  48.17100 28.81200 32.66800
H  50.88000 27.41200 35.98500
H  51.12700 29.21400 35.75200
H  51.93300 28.06400 34.71100

