158

Mg 8.84600 3.70100 27.39700
C  10.01000 2.20000 30.28500
C  6.53600 5.37300 29.26900
C  7.33200 4.74000 24.51400
C  10.53300 1.14600 25.51500
N  8.18900 3.59400 29.62300
C  9.02800 3.14000 30.60900
C  8.72900 3.80400 31.93500
C  7.52800 4.75800 31.48200
C  7.40300 4.59500 30.03500
C  6.18000 4.67800 32.25700
C  9.83200 4.65500 32.63400
C  10.17500 4.16200 34.07000
H  10.27600 5.21400 35.21500
N  7.30600 4.95200 26.94100
C  6.49700 5.58300 27.84500
C  5.61800 6.50000 27.11500
C  5.88700 6.41300 25.73800
C  6.88800 5.29400 25.70300
C  4.71400 7.51400 27.87800
C  5.42400 7.27300 24.57500
O  5.54000 6.98600 23.37200
C  4.70800 8.68800 24.84700
N  8.87900 3.04900 25.27900
C  8.29100 3.71600 24.29500
C  8.77300 3.12400 22.91500
C  9.83700 2.08800 23.24600
C  9.81100 2.13900 24.76000
C  7.59400 2.60400 22.03200
C  11.23700 2.47500 22.80100
C  11.37800 2.56300 21.30300
N  10.16400 2.10500 27.76100
C  10.70900 1.15300 26.94000
C  11.55400 0.29000 27.74200
C  11.34800 0.68500 29.07000
C  10.44600 1.76100 29.01500
C  12.35500 -0.92600 27.30700
C  11.66900 0.37300 30.43800
O  12.40700 -0.46300 30.93900
C  10.95000 1.50700 31.30300
C  10.22500 0.87200 32.36500
O  9.07600 0.43400 32.24500
O  10.93800 0.77100 33.49900
C  10.24200 0.04300 34.56100
H  6.04800 6.17800 29.82400
H  7.05600 5.13100 23.53200
H  11.03400 0.31200 25.02000
H  8.27000 3.08300 32.61200
H  7.68000 5.82500 31.64600
H  5.47500 4.16100 31.60700
H  5.84600 5.63100 32.66900
H  6.21200 3.95900 33.07600
H  9.48900 5.66600 32.85100
H  10.65500 4.86300 31.95000
H  11.14900 3.69000 33.93800
H  9.49400 3.39400 34.43800
H  3.80000 7.42100 27.29200
H  5.05700 8.54700 27.83300
H  4.49400 7.35000 28.93300
H  4.52200 9.03100 23.82900
H  5.38400 9.38600 25.34000
H  3.81200 8.54600 25.45200
H  9.09100 4.04100 22.41900
H  9.59400 1.07900 22.91200
H  7.70000 1.53100 21.87200
H  7.74800 3.00700 21.03100
H  6.62800 2.83400 22.48100
H  11.80500 1.59200 23.09600
H  11.76600 3.35700 23.16200
H  11.72400 3.50300 20.87300
H  10.37700 2.28200 20.97600
H  11.99300 1.73700 20.94400
H  12.42300 -0.89600 26.22000
H  11.83700 -1.84400 27.58500
H  13.38000 -0.97600 27.67700
H  11.69200 2.16400 31.75500
H  10.05000 -1.02100 34.42000
H  9.36600 0.61900 34.85900
H  10.90800 -0.04700 35.41900
Mg 36.05800 49.41300 24.61200
C  36.47100 47.14500 27.37000
C  34.79500 51.66100 26.64800
C  35.27600 51.02800 21.84100
C  36.83600 46.44700 22.45100
N  35.65100 49.36400 26.70400
C  36.03200 48.43000 27.69300
C  35.75600 48.90100 29.11900
C  35.00000 50.24500 28.85000
C  35.08000 50.43600 27.32200
C  33.47300 50.37800 29.42100
C  37.05800 49.04900 29.94000
C  37.01900 48.33100 31.32600
H  35.65900 48.56100 32.14800
N  35.27000 51.10400 24.29500
C  34.87400 51.97400 25.29100
C  34.60100 53.19400 24.63100
C  34.77900 53.11200 23.23000
C  35.13000 51.68100 23.06200
C  34.10000 54.37900 25.42600
C  34.68700 54.18000 22.10800
O  34.85700 53.82600 20.96900
C  34.44300 55.56200 22.43200
N  36.22200 48.81900 22.40800
C  35.72300 49.72500 21.54400
C  35.79400 49.16400 20.10500
C  36.72100 47.90000 20.28600
C  36.49600 47.65700 21.78000
C  34.41700 48.85700 19.53400
C  38.19200 48.12100 19.92400
C  38.92100 47.07900 19.16200
N  36.56500 47.25400 24.83200
C  36.79400 46.22400 23.82400
C  37.20200 45.03500 24.56300
C  37.00800 45.31200 25.90900
C  36.68000 46.69100 26.04300
C  37.70700 43.80600 23.91500
C  37.20700 44.80300 27.30700
O  37.58200 43.72100 27.67600
C  36.83600 45.99000 28.33100
C  35.66500 45.48600 29.18800
O  34.48100 45.55500 28.87500
O  36.17600 45.08800 30.34600
C  35.18000 44.69300 31.32400
H  34.45300 52.48600 27.27600
H  34.89000 51.53000 20.95100
H  37.01500 45.58000 21.81200
H  35.00900 48.27200 29.60500
H  35.31100 51.14800 29.37500
H  33.03400 49.46900 29.83300
H  32.81200 50.72700 28.62700
H  33.44500 51.18500 30.15300
H  37.21800 50.09800 30.18700
H  37.86900 48.71600 29.29200
H  37.84300 48.77400 31.88400
H  37.19400 47.29400 31.04000
H  33.66700 55.17500 24.82000
H  34.95500 54.75500 25.98800
H  33.41100 54.00700 26.18400
H  33.41000 55.60100 22.77800
H  34.54300 56.21500 21.56500
H  35.11300 55.98700 23.18000
H  36.22700 49.96200 19.50200
H  36.38500 46.96900 19.82800
H  34.02200 49.82600 19.23100
H  33.70400 48.39700 20.21800
H  34.57900 48.36600 18.57500
H  38.70900 48.37500 20.85000
H  38.26300 49.07700 19.40600
H  38.21500 46.54200 18.52900
H  39.33500 46.39700 19.90400
H  39.72000 47.52500 18.57000
H  36.87200 43.17200 23.61800
H  38.37400 43.25900 24.58200
H  38.17200 44.11600 22.97900
H  37.68800 46.09900 29.00200
H  35.53300 44.85500 32.34300
H  34.87800 43.66500 31.12600
H  34.28800 45.30300 31.18400

