158

Mg 40.87600 8.93500 29.95700
C  42.85300 9.88600 32.64400
C  38.29300 8.27300 32.20400
C  39.22500 7.54300 27.59300
C  43.59200 9.59500 27.82700
N  40.66000 9.03000 32.22600
C  41.60300 9.56000 33.09800
C  40.87000 9.81000 34.49200
C  39.52300 9.06100 34.32600
C  39.44400 8.76700 32.81800
C  39.36400 7.70500 35.11900
C  40.85800 11.19200 35.07700
C  40.06500 11.42700 36.33400
H  40.99500 12.10300 37.40800
N  38.98200 8.14700 29.87000
C  38.05300 8.00700 30.90400
C  36.91500 7.27100 30.33200
C  37.19200 7.02000 28.93600
C  38.49800 7.55700 28.74500
C  35.62700 7.02300 31.13400
C  36.34100 6.47100 27.81500
O  36.67400 6.37500 26.64500
C  34.99100 6.02000 28.09500
N  41.37800 8.59200 27.97900
C  40.47600 8.05300 27.16100
C  40.97200 7.92200 25.71200
C  42.27600 8.77300 25.74400
C  42.47100 8.95700 27.29700
C  41.22400 6.44800 25.37300
C  42.14600 10.13600 25.03500
C  41.06500 11.16800 25.44800
N  42.77200 9.63600 30.15500
C  43.76200 9.90200 29.17200
C  44.96200 10.41700 29.78500
C  44.67000 10.35700 31.16800
C  43.30300 9.84800 31.32300
C  46.14100 10.84900 29.00800
C  45.18000 10.67600 32.54100
O  46.27200 11.07200 32.79200
C  44.02900 10.42400 33.50100
C  44.37800 9.48800 34.65000
O  44.44100 8.27800 34.62800
O  44.63300 10.27800 35.70700
C  45.15000 9.58700 36.88700
H  37.49600 8.17700 32.94300
H  38.82300 6.89500 26.81100
H  44.41800 10.01300 27.24700
H  41.53700 9.29200 35.18200
H  38.66300 9.68900 34.55900
H  40.17600 7.57000 35.83300
H  39.22500 6.84300 34.46600
H  38.59400 7.75700 35.88900
H  40.55100 11.95000 34.35600
H  41.91100 11.42800 35.23300
H  39.91000 10.40700 36.68400
H  39.15800 12.01900 36.21100
H  34.71400 7.46000 30.72900
H  35.80300 7.31600 32.16900
H  35.39600 5.95700 31.14200
H  34.42700 6.90000 28.40600
H  34.87000 5.22400 28.82900
H  34.48600 5.68100 27.19000
H  40.25400 8.39800 25.04400
H  43.15700 8.26700 25.35100
H  41.14000 5.91100 26.31700
H  42.22300 6.29300 24.96500
H  40.40200 6.00400 24.81300
H  42.11800 9.79400 24.00000
H  43.13600 10.58700 25.09900
H  40.65500 10.81700 26.39500
H  40.22600 11.32700 24.77100
H  41.54500 12.10300 25.73700
H  46.77500 11.45100 29.66000
H  45.68700 11.39800 28.18300
H  46.73100 10.00700 28.64700
H  43.87700 11.44000 33.86400
H  46.14400 9.39400 36.48600
H  44.76500 8.59800 37.13700
H  45.18500 10.23700 37.76100
Mg -2.66900 34.31300 26.44500
C  -4.46200 33.09200 29.12100
C  -1.80300 37.09400 28.29200
C  -1.04800 35.61100 23.69900
C  -3.79300 31.76400 24.48200
N  -3.13900 34.94100 28.46500
C  -3.70700 34.17000 29.44700
C  -3.49500 34.78100 30.85100
C  -2.99400 36.25400 30.48000
C  -2.53600 36.10500 28.92400
C  -3.99800 37.47500 30.67000
C  -2.46700 33.94200 31.65100
C  -2.51200 34.46100 33.17700
H  -2.72400 33.34400 34.25100
N  -1.60200 36.12900 26.10300
C  -1.45100 37.13800 26.93200
C  -0.73300 38.19800 26.31400
C  -0.43700 37.81700 25.00200
C  -1.05800 36.44300 24.89100
C  -0.37900 39.47100 27.06400
C  0.27200 38.50400 23.88100
O  0.22800 38.02500 22.75700
C  0.94400 39.91400 24.06000
N  -2.55100 33.89000 24.31600
C  -1.73500 34.46700 23.43300
C  -1.72700 33.71500 22.12600
C  -2.56400 32.47900 22.37100
C  -3.01500 32.72600 23.83200
C  -2.27400 34.59000 20.99500
C  -1.73500 31.19900 22.19300
C  -2.49900 30.02600 21.52400
N  -4.06900 32.81800 26.62900
C  -4.33500 31.84700 25.80500
C  -5.22800 30.90800 26.41700
C  -5.33200 31.36300 27.71400
C  -4.56200 32.53100 27.82000
C  -5.94600 29.77800 25.80200
C  -5.87900 31.09300 29.02600
O  -6.59900 30.16300 29.41400
C  -5.28400 32.18400 29.94300
C  -6.44800 32.96800 30.51800
O  -6.91700 33.98600 30.07700
O  -6.95400 32.34800 31.64700
C  -7.88300 33.08300 32.55800
H  -1.47300 37.98100 28.83600
H  -0.35600 35.85800 22.89100
H  -4.05200 30.90600 23.85700
H  -4.47400 34.80800 31.32900
H  -2.13300 36.51500 31.09500
H  -4.80100 37.25700 31.37500
H  -4.20000 37.80900 29.65300
H  -3.42600 38.26800 31.15200
H  -1.52900 33.96300 31.09700
H  -2.76600 32.89400 31.63000
H  -3.27700 35.22300 33.32600
H  -1.58900 34.98500 33.42600
H  -0.84800 39.69300 28.02200
H  -0.48600 40.28000 26.34100
H  0.68300 39.42100 27.30100
H  1.65600 39.80300 24.87800
H  0.06900 40.52800 24.27200
H  1.29100 40.25200 23.08400
H  -0.69300 33.41900 21.94800
H  -3.50500 32.45400 21.82200
H  -3.04200 35.21900 21.44500
H  -2.80100 34.00500 20.24100
H  -1.47900 35.15500 20.51000
H  -1.31800 30.88300 23.14900
H  -0.94900 31.35300 21.45400
H  -3.38800 30.44600 21.05400
H  -2.89800 29.31100 22.24300
H  -1.88100 29.51300 20.78700
H  -6.30100 29.95500 24.78700
H  -6.81400 29.49600 26.39900
H  -5.20600 28.98300 25.70100
H  -4.80300 31.65200 30.76400
H  -8.88300 33.28800 32.17800
H  -7.51000 34.10100 32.67400
H  -7.94100 32.53400 33.49800

