158

Mg -1.97100 34.67500 26.12000
C  -3.73500 32.49800 28.42700
C  -0.60800 36.26900 28.80800
C  -0.58900 36.77700 23.92300
C  -3.86300 33.16200 23.54000
N  -2.18700 34.38400 28.42600
C  -2.86800 33.42800 29.08900
C  -2.61000 33.46900 30.61900
C  -1.68900 34.73500 30.75800
C  -1.50700 35.24100 29.25500
C  -2.05300 35.75000 31.84100
C  -1.97200 32.10900 31.09700
C  -2.63300 31.60100 32.40900
H  -1.83500 31.76100 33.69500
N  -0.72900 36.22100 26.32200
C  -0.27100 36.70600 27.50100
C  0.71600 37.67500 27.20200
C  0.81500 37.83700 25.77300
C  -0.16100 36.87900 25.26700
C  1.52100 38.44700 28.29300
C  1.70300 38.76100 24.89600
O  1.57400 38.82200 23.69300
C  2.76600 39.42700 25.51600
N  -2.31100 34.99600 24.04300
C  -1.58700 35.92900 23.32300
C  -1.77600 35.82600 21.82600
C  -2.49300 34.47800 21.79200
C  -2.89900 34.16100 23.22400
C  -2.48000 37.03000 21.12100
C  -1.72500 33.38800 21.12100
C  -0.50900 32.68400 21.74900
N  -3.42200 33.21600 25.97400
C  -4.01700 32.64900 24.86700
C  -4.81700 31.54700 25.24200
C  -4.76700 31.44900 26.66200
C  -3.86500 32.52300 27.02100
C  -5.66500 30.63600 24.30800
C  -5.21500 30.76800 27.84400
O  -5.94600 29.78200 28.00600
C  -4.60900 31.46500 29.07000
C  -5.66000 32.08600 30.05000
O  -6.31700 33.05800 29.77800
O  -5.58300 31.43500 31.25600
C  -6.49500 31.75800 32.37400
H  -0.16600 36.70000 29.70900
H  0.02200 37.22400 23.13600
H  -4.30300 32.75500 22.62700
H  -3.60900 33.67200 31.00400
H  -0.65300 34.51200 31.01600
H  -2.66200 36.58400 31.49400
H  -1.10800 36.07400 32.27800
H  -2.57500 35.24200 32.65200
H  -0.91700 32.23700 31.33800
H  -2.03000 31.34200 30.32500
H  -2.87600 30.54600 32.28400
H  -3.55000 32.15500 32.61200
H  1.36200 39.52300 28.22700
H  2.58300 38.23900 28.16100
H  1.35000 38.13200 29.32200
H  3.44800 39.71200 24.71500
H  3.25400 38.75700 26.22400
H  2.38300 40.28400 26.06900
H  -0.84100 35.77500 21.26800
H  -3.46200 34.69800 21.34500
H  -3.45600 37.11900 21.59700
H  -2.55900 37.03600 20.03400
H  -1.81300 37.85500 21.37300
H  -1.31700 33.76100 20.18100
H  -2.39300 32.56500 20.87000
H  -0.47700 33.04400 22.77700
H  0.41500 32.71700 21.17100
H  -0.64700 31.60300 21.77800
H  -5.51700 29.58800 24.56800
H  -5.47500 30.75900 23.24200
H  -6.71000 30.86800 24.51300
H  -4.13000 30.66100 29.62900
H  -5.94900 32.22800 33.19300
H  -6.94800 30.84700 32.76400
H  -7.18900 32.57800 32.18700
Mg -5.21800 25.41000 24.73100
C  -3.82200 26.81800 27.50700
C  -6.84000 23.11100 26.76500
C  -6.53900 23.79500 21.96600
C  -3.36200 27.37700 22.64600
N  -5.10100 24.87600 26.83400
C  -4.59800 25.70800 27.86600
C  -5.12500 25.24500 29.26000
C  -5.74900 23.85700 28.91700
C  -5.89300 23.93200 27.37700
C  -4.85700 22.61500 29.34000
C  -6.02400 26.30800 29.88200
C  -5.70100 26.70600 31.35200
H  -5.41400 25.54100 32.15300
N  -6.48900 23.73100 24.40500
C  -7.16200 23.04000 25.35400
C  -8.31700 22.35500 24.83100
C  -8.15000 22.43100 23.42700
C  -7.03700 23.31100 23.17700
C  -9.38000 21.73500 25.64100
C  -8.92000 21.63700 22.32100
O  -8.53300 21.60100 21.15600
C  -10.07500 20.72500 22.60200
N  -5.00300 25.61400 22.59300
C  -5.63200 24.81000 21.64500
C  -5.27100 25.23300 20.22000
C  -4.38200 26.51800 20.50500
C  -4.19400 26.52800 21.98700
C  -4.67300 24.07200 19.38900
C  -4.95300 27.76900 19.86700
C  -6.08800 28.55700 20.71400
N  -3.81000 26.76300 24.99600
C  -3.18900 27.55800 24.04200
C  -2.33300 28.51200 24.75600
C  -2.54500 28.31000 26.16600
C  -3.37100 27.17700 26.18900
C  -1.46100 29.47000 23.99900
C  -2.12700 28.62300 27.56200
O  -1.32900 29.46800 27.98100
C  -3.07400 27.70700 28.48600
C  -2.17800 26.85500 29.29800
O  -1.41700 25.90600 28.95000
O  -2.12100 27.29200 30.60000
C  -1.39100 26.47600 31.50000
H  -7.46700 22.50300 27.42000
H  -7.03200 23.42000 21.06600
H  -2.72800 27.98900 22.00100
H  -4.23400 25.11300 29.87400
H  -6.77200 23.77100 29.28300
H  -3.79900 22.85600 29.45100
H  -4.97900 21.83100 28.59300
H  -5.23000 22.22300 30.28600
H  -6.97400 25.77400 29.89000
H  -6.15200 27.20500 29.27500
H  -6.51300 27.26100 31.82100
H  -4.83000 27.35800 31.29000
H  -10.17200 21.09100 25.25800
H  -9.90300 22.64300 25.94100
H  -8.93800 21.21300 26.48900
H  -10.25300 20.19700 21.66500
H  -11.00000 21.20500 22.92200
H  -9.75600 19.97000 23.32000
H  -6.20500 25.57700 19.77500
H  -3.42600 26.28800 20.03400
H  -4.43900 23.31300 20.13500
H  -3.73700 24.36200 18.91100
H  -5.48400 23.90600 18.68000
H  -5.43500 27.49600 18.92800
H  -4.11900 28.39600 19.55200
H  -6.55300 28.00700 21.53300
H  -6.91600 28.60900 20.00800
H  -5.73800 29.56200 20.95100
H  -1.20500 29.16300 22.98500
H  -0.62000 29.68000 24.66000
H  -2.04300 30.38600 23.89100
H  -3.74300 28.31000 29.09900
H  -1.51900 26.92800 32.48400
H  -0.33400 26.46000 31.23400
H  -1.80100 25.46600 31.47700

