158

Mg 2.39600 -2.19200 44.18500
C  5.91400 -1.55100 43.80000
C  1.71500 0.48300 42.17400
C  -0.66900 -3.45600 43.65600
C  3.33600 -5.32200 45.61000
N  3.74800 -0.83400 43.04900
C  5.11400 -0.65800 43.11400
C  5.48200 0.55500 42.33200
C  4.04700 1.40300 42.10900
C  3.08100 0.25500 42.44200
C  3.85600 2.62400 43.13100
C  6.18500 0.09000 40.99700
C  7.50600 0.83400 40.64600
H  7.46000 1.69100 39.33900
N  0.71500 -1.44100 43.13700
C  0.63700 -0.29300 42.42700
C  -0.67600 -0.13600 41.99600
C  -1.49700 -1.23500 42.41600
C  -0.51600 -2.12600 43.10700
C  -1.12900 1.02200 41.18500
C  -2.89900 -1.50900 42.03700
O  -3.52900 -0.71000 41.37000
C  -3.69300 -2.74800 42.48100
N  1.51500 -4.08700 44.41200
C  0.22700 -4.38700 44.19000
C  -0.22500 -5.82900 44.61800
C  1.13500 -6.43600 45.07300
C  2.03400 -5.21900 45.12600
C  -1.22000 -5.94600 45.84900
C  1.70200 -7.69200 44.23400
C  1.61400 -9.09400 45.01300
N  4.23400 -3.15400 44.86400
C  4.45200 -4.43300 45.44900
C  5.83100 -4.53000 45.86900
C  6.43900 -3.45100 45.27400
C  5.40600 -2.63300 44.62000
C  6.52800 -5.65600 46.64300
C  7.70700 -2.67500 45.07100
O  8.83300 -2.90000 45.51100
C  7.37300 -1.38900 44.11700
C  7.70800 -0.12600 44.86000
O  7.07900 0.16700 45.83100
O  8.69600 0.60500 44.33100
C  9.00700 1.88900 44.94600
H  1.71300 1.49800 41.76900
H  -1.65100 -3.93000 43.59100
H  3.62600 -6.28900 46.02600
H  6.21700 1.08400 42.93900
H  4.01500 1.69700 41.06000
H  2.88400 2.71000 43.61600
H  3.99500 3.56000 42.59000
H  4.55500 2.62200 43.96600
H  5.37100 0.19800 40.28000
H  6.29500 -0.99300 41.04600
H  8.31100 0.10000 40.61300
H  7.76000 1.60100 41.37800
H  -1.66500 0.76100 40.27200
H  -0.24900 1.58300 40.87200
H  -1.64000 1.72600 41.84100
H  -4.74200 -2.64600 42.20600
H  -3.58300 -2.80300 43.56500
H  -3.29100 -3.60200 41.93500
H  -0.58000 -6.42600 43.77800
H  1.11500 -6.85100 46.08000
H  -1.37700 -5.03100 46.42100
H  -0.90100 -6.76500 46.49400
H  -2.20100 -6.30300 45.53500
H  2.73900 -7.63500 43.90300
H  1.16300 -7.84700 43.30000
H  1.01000 -8.92600 45.90500
H  2.56900 -9.43300 45.41500
H  1.16000 -9.86000 44.38500
H  7.61200 -5.54400 46.68500
H  6.38300 -6.62000 46.15600
H  6.33400 -5.72700 47.71300
H  7.94400 -1.31800 43.19200
H  8.10300 2.42500 45.23600
H  9.58300 2.43500 44.19900
H  9.64200 1.72800 45.81700
Mg -5.63200 25.43600 26.31000
C  -4.19600 26.65700 29.18500
C  -7.54900 23.40800 28.04800
C  -6.49000 24.05500 23.36600
C  -3.35900 27.54100 24.41300
N  -5.75000 25.07200 28.38600
C  -5.17800 25.69200 29.43700
C  -5.78300 25.27300 30.79000
C  -6.62600 24.01700 30.36200
C  -6.64700 24.15000 28.88100
C  -6.05100 22.67100 30.85600
C  -6.57700 26.45300 31.38700
C  -6.41200 26.73400 32.86600
H  -5.91400 25.50000 33.73600
N  -6.83700 23.92400 25.78300
C  -7.64700 23.23100 26.65700
C  -8.62100 22.37000 25.91800
C  -8.23000 22.49100 24.55300
C  -7.14500 23.52900 24.49700
C  -9.86800 21.77500 26.61200
C  -8.83400 21.76800 23.31900
O  -8.41100 21.99900 22.17200
C  -9.99700 20.73700 23.48800
N  -4.74800 25.54800 24.19700
C  -5.47700 24.98000 23.17600
C  -5.00700 25.46600 21.80500
C  -4.22300 26.74900 22.16400
C  -4.09100 26.61300 23.64900
C  -4.10000 24.43200 20.99400
C  -5.06100 28.08200 21.79800
C  -4.10400 29.18600 21.30800
N  -4.15600 26.86600 26.65800
C  -3.31200 27.59200 25.85600
C  -2.50300 28.48900 26.61600
C  -2.74700 28.12700 27.95300
C  -3.78500 27.13700 27.85600
C  -1.44100 29.50000 26.00800
C  -2.40600 28.28100 29.34500
O  -1.59900 29.01600 29.90800
C  -3.38900 27.37800 30.15000
C  -2.53900 26.50100 31.03800
O  -1.98200 25.46000 30.67700
O  -2.51600 27.03200 32.30900
C  -1.83000 26.11500 33.29900
H  -8.27000 22.88800 28.68300
H  -7.04200 23.71900 22.48500
H  -2.73200 28.19700 23.80700
H  -4.91700 25.10300 31.42800
H  -7.61700 24.11800 30.80300
H  -5.71100 22.78800 31.88500
H  -5.37200 22.25500 30.11100
H  -6.75100 21.83600 30.88100
H  -7.64100 26.41200 31.15600
H  -6.15600 27.31500 30.87100
H  -7.43200 26.95500 33.18100
H  -5.77100 27.58000 33.11200
H  -9.44200 20.94400 27.17400
H  -10.69300 21.48600 25.96100
H  -10.34500 22.51500 27.25400
H  -9.89600 20.01000 24.29400
H  -10.13000 20.23400 22.53000
H  -10.91200 21.32400 23.55900
H  -5.94600 25.53000 21.25500
H  -3.20300 26.75700 21.78000
H  -4.67000 24.11800 20.12000
H  -3.90300 23.64800 21.72500
H  -3.13100 24.82900 20.69100
H  -5.58500 28.51500 22.65000
H  -5.83400 27.95000 21.04100
H  -4.46400 29.53700 20.34100
H  -3.08200 28.84500 21.14100
H  -4.03400 30.00200 22.02700
H  -1.68900 30.49800 26.36700
H  -1.34200 29.44500 24.92400
H  -0.50600 29.28800 26.52700
H  -4.02000 27.93200 30.84500
H  -0.79700 25.93400 33.00300
H  -2.29800 25.13100 33.25900
H  -1.96700 26.57800 34.27700

