158

Mg 49.85900 46.63300 42.63200
C  46.74700 47.56400 41.43700
C  49.55900 43.68000 40.67700
C  53.19900 45.92500 43.11100
C  50.27500 49.68600 43.97500
N  48.35700 45.84900 41.07900
C  47.11500 46.31100 40.93300
C  46.22900 45.43900 40.06700
C  47.06700 44.07100 40.18600
C  48.47800 44.57000 40.53700
C  46.45200 43.09400 41.07600
C  46.08700 46.01200 38.62700
C  44.85600 45.61600 37.81000
H  45.06800 44.33400 36.99000
N  51.11500 44.99700 42.11200
C  50.83000 43.87000 41.36600
C  51.92000 42.99500 41.37600
C  52.95700 43.54400 42.10500
C  52.44300 44.94100 42.46300
C  51.86200 41.65700 40.82000
C  54.30500 42.92500 42.42600
O  54.68400 41.86800 41.93600
C  55.21800 43.51700 43.41400
N  51.55600 47.68800 43.26500
C  52.79700 47.16900 43.48800
C  53.72400 48.25900 44.00900
C  52.74300 49.38600 44.41000
C  51.41400 48.88700 43.83300
C  54.68700 47.83100 45.18400
C  53.11800 50.80800 43.91900
C  52.97000 51.96400 44.94200
N  48.81200 48.33700 42.68200
C  49.02500 49.54400 43.37000
C  47.91200 50.40100 43.25100
C  46.98200 49.68300 42.46800
C  47.58900 48.43200 42.18200
C  47.75500 51.74100 43.95300
C  45.65500 49.67600 41.96600
O  44.70200 50.46400 42.16900
C  45.49400 48.36900 41.13500
C  44.15600 47.78100 41.41800
O  43.25100 47.69000 40.56500
O  44.16900 47.05600 42.54400
C  43.00500 46.24000 42.90500
H  49.34900 42.74900 40.14700
H  54.27600 45.76400 43.18300
H  50.41000 50.54600 44.63400
H  45.19000 45.36500 40.38900
H  47.32400 43.57700 39.24900
H  45.52400 43.48600 41.49400
H  47.08600 42.91000 41.94300
H  46.18600 42.14100 40.62000
H  46.90700 45.60200 38.03700
H  46.11600 47.09800 38.53500
H  44.66800 46.48300 37.17500
H  43.91400 45.41700 38.32100
H  52.43600 41.61800 39.89500
H  50.87800 41.22100 40.64500
H  52.30800 40.96600 41.53500
H  56.02000 42.90400 43.82500
H  54.53900 43.94100 44.15500
H  55.73000 44.35600 42.94300
H  54.41400 48.49200 43.19800
H  52.57900 49.33500 45.48600
H  54.46400 46.89400 45.69300
H  54.83200 48.59600 45.94700
H  55.69400 47.69600 44.79100
H  52.67100 50.98400 42.94100
H  54.17800 50.85700 43.66800
H  52.40000 52.79200 44.51900
H  53.94300 52.35300 45.24200
H  52.45100 51.65300 45.84800
H  48.65200 52.28800 43.66400
H  47.70700 51.53200 45.02200
H  46.90700 52.15900 43.41000
H  45.55400 48.66300 40.08700
H  43.45200 45.46400 43.52700
H  42.52900 45.70900 42.08100
H  42.36600 46.91500 43.47500
Mg -4.80300 25.73000 26.42100
C  -3.19500 26.85000 29.30700
C  -6.64400 23.58000 28.28300
C  -5.82000 24.29200 23.57600
C  -2.33600 27.68100 24.58300
N  -4.81600 25.18400 28.53000
C  -4.22700 25.92600 29.54700
C  -4.86600 25.58300 30.93000
C  -5.76600 24.28400 30.66300
C  -5.75100 24.30000 29.09900
C  -5.17500 22.91300 31.03500
C  -5.63300 26.69400 31.77200
C  -5.67400 26.57300 33.28400
H  -5.41900 25.24100 34.03100
N  -6.18900 24.23300 26.02200
C  -6.90400 23.48700 26.92000
C  -7.87200 22.65700 26.23700
C  -7.65400 22.86300 24.85000
C  -6.50000 23.79300 24.73800
C  -8.86300 21.88400 27.02800
C  -8.32700 22.23000 23.65400
O  -7.96100 22.34800 22.49800
C  -9.53400 21.37000 23.86100
N  -3.89400 25.72700 24.41700
C  -4.63000 25.04000 23.40100
C  -4.18200 25.60700 21.96500
C  -3.00400 26.60900 22.37900
C  -3.06200 26.67700 23.88300
C  -3.64100 24.59000 20.89000
C  -3.25400 28.04700 21.71100
C  -2.71100 28.16600 20.28200
N  -3.11500 27.07600 26.75800
C  -2.25300 27.77100 25.96100
C  -1.39300 28.55400 26.81700
C  -1.77700 28.26900 28.09800
C  -2.78400 27.33200 27.98100
C  -0.23000 29.53100 26.45500
C  -1.43900 28.53700 29.45100
O  -0.53000 29.23600 29.92100
C  -2.37200 27.64600 30.26200
C  -1.55000 26.79700 31.09500
O  -0.88900 25.77600 30.70600
O  -1.57800 27.34600 32.36500
C  -1.00200 26.46100 33.39100
H  -7.25600 23.00000 28.97700
H  -6.27900 23.99800 22.63000
H  -1.78500 28.42800 24.00800
H  -4.07800 25.23800 31.59900
H  -6.72900 24.50600 31.12300
H  -4.41800 23.03700 31.81000
H  -4.80200 22.27300 30.23600
H  -6.02600 22.44600 31.53100
H  -6.66800 26.66500 31.43300
H  -5.12500 27.61400 31.48300
H  -6.69600 26.81200 33.57600
H  -4.97300 27.33800 33.61700
H  -9.63900 22.59500 27.31400
H  -8.38000 21.52600 27.93700
H  -9.21400 20.98100 26.53000
H  -9.17100 20.61600 24.55900
H  -9.76700 21.00100 22.86200
H  -10.38900 21.97500 24.16500
H  -5.12800 25.94300 21.53900
H  -2.08000 26.22500 21.94700
H  -4.12800 24.68900 19.92000
H  -3.89900 23.56600 21.16000
H  -2.60300 24.82800 20.65900
H  -2.81500 28.91200 22.20900
H  -4.31500 28.08900 21.46100
H  -2.12100 27.28900 20.01900
H  -1.96300 28.95400 20.19400
H  -3.43100 28.52200 19.54500
H  -0.53400 30.24600 25.69100
H  0.62100 28.94000 26.11700
H  0.18500 30.09100 27.29400
H  -3.02300 28.20700 30.93300
H  0.08800 26.47200 33.37200
H  -1.41900 25.46100 33.27900
H  -1.28200 26.74100 34.40600

