158

Mg 47.94900 15.38700 28.51000
C  45.71500 14.99000 31.01400
C  50.05300 17.13200 30.56800
C  49.88800 15.94700 25.76600
C  45.44000 14.09600 26.26100
N  47.92800 15.97300 30.47000
C  46.96400 15.54600 31.40400
C  47.28700 16.16500 32.78500
C  48.59000 17.00000 32.58300
C  48.87000 16.68900 31.14400
C  48.48400 18.54100 32.96800
C  47.27900 15.03900 33.90400
C  46.46900 15.42200 35.21800
H  46.50500 16.89800 35.68100
N  49.82400 16.30000 28.27800
C  50.59000 16.92100 29.24900
C  51.83800 17.34600 28.67200
C  51.75900 17.06500 27.26100
C  50.41800 16.43600 27.03400
C  52.98400 17.92500 29.49200
C  52.75400 17.17400 26.05400
O  52.54000 16.78300 24.94300
C  54.03400 17.88900 26.41300
N  47.67700 15.03200 26.30800
C  48.67700 15.38400 25.39800
C  48.32700 15.09000 23.92600
C  46.97100 14.40400 24.11000
C  46.62500 14.51500 25.62800
C  48.29300 16.32600 22.94200
C  46.77900 12.90200 23.76100
C  47.21500 11.82800 24.76800
N  45.97200 14.63300 28.58600
C  45.05600 14.17700 27.65500
C  43.84600 13.75700 28.30800
C  43.98800 14.05000 29.63800
C  45.28500 14.63200 29.76400
C  42.66500 13.21400 27.60100
C  43.37800 14.22200 30.94900
O  42.26600 13.90400 31.27500
C  44.43800 14.81600 31.86400
C  43.91400 16.08500 32.58300
O  43.87500 17.19400 32.08000
O  43.28800 15.62700 33.76900
C  42.31500 16.57700 34.36900
H  50.80400 17.50300 31.26900
H  50.44600 16.15000 24.84900
H  44.67500 13.66100 25.61400
H  46.48600 16.82900 33.11200
H  49.51400 16.50800 32.88800
H  47.44800 18.87600 32.93200
H  49.10600 18.96700 32.18100
H  48.90100 18.73800 33.95600
H  48.30300 14.91600 34.25500
H  46.92500 14.07700 33.53400
H  46.82600 14.80000 36.03900
H  45.42900 15.17800 35.00500
H  53.80900 17.22300 29.36900
H  52.83500 17.94400 30.57100
H  53.36000 18.89000 29.15000
H  54.55000 17.21900 27.10100
H  53.80400 18.83300 26.90600
H  54.73500 18.00800 25.58700
H  49.10600 14.42200 23.56000
H  46.27800 15.04100 23.56000
H  47.26500 16.53700 22.64700
H  48.88600 16.22000 22.03400
H  48.60700 17.16700 23.56000
H  47.31100 12.79700 22.81500
H  45.74100 12.69200 23.50300
H  47.90400 11.12000 24.30800
H  46.41600 11.21600 25.18500
H  47.84300 12.21800 25.56900
H  42.74300 13.45500 26.54100
H  41.78100 13.73900 27.96100
H  42.61300 12.14700 27.81600
H  44.62100 14.17000 32.72300
H  41.36100 16.60400 33.84400
H  42.67500 17.60200 34.46300
H  41.92800 16.15900 35.29800
Mg 0.44300 43.23200 26.40200
C  2.71800 43.50700 29.10800
C  -2.12500 42.75000 28.68800
C  -1.52500 42.96900 23.79800
C  3.16900 43.67000 24.24200
N  0.34000 43.25600 28.62200
C  1.39200 43.36800 29.48500
C  0.83300 43.44000 30.95100
C  -0.64700 42.95400 30.76800
C  -0.86000 43.00100 29.26000
C  -1.07600 41.57600 31.36600
C  0.98000 44.88200 31.56400
C  1.04300 44.97300 33.09200
H  0.75700 43.67100 33.86200
N  -1.43600 42.80800 26.26600
C  -2.36200 42.72600 27.31600
C  -3.72300 42.58600 26.70800
C  -3.57000 42.56700 25.24200
C  -2.15100 42.76200 25.03100
C  -4.95400 42.36000 27.66500
C  -4.66500 42.50900 24.25600
O  -4.48600 42.46700 23.04300
C  -6.09600 42.61800 24.67000
N  0.86200 42.93900 24.19800
C  -0.18500 43.09500 23.37600
C  0.24000 43.14000 21.88800
C  1.73600 43.67000 22.02600
C  1.97400 43.41000 23.53100
C  -0.05100 41.79900 21.17100
C  1.97900 45.17100 21.71900
C  3.24000 45.58700 20.97200
N  2.46500 43.45400 26.64100
C  3.44200 43.56600 25.61900
C  4.76300 43.67100 26.27300
C  4.53600 43.61100 27.63900
C  3.09200 43.56900 27.79700
C  6.03800 44.02600 25.59300
C  5.11100 43.57300 28.89500
O  6.27500 43.52900 29.17900
C  3.96600 43.42700 29.94100
C  4.22100 42.10900 30.73100
O  4.32400 40.95800 30.26100
O  4.24000 42.41100 32.08200
C  4.23500 41.32500 33.02600
H  -2.98600 42.50000 29.31000
H  -2.24400 42.81700 22.99000
H  4.08000 43.84100 23.66500
H  1.39000 42.76000 31.59500
H  -1.36000 43.61300 31.26400
H  -1.94800 41.63700 32.01700
H  -0.22100 41.21300 31.93700
H  -1.32900 41.00900 30.47000
H  0.19300 45.39700 31.01300
H  1.93800 45.20200 31.15600
H  0.37700 45.74200 33.48400
H  2.00400 45.38700 33.39800
H  -5.89500 42.42800 27.11900
H  -4.99200 43.14600 28.42000
H  -4.91000 41.40300 28.18500
H  -6.77700 42.75500 23.83100
H  -6.18100 43.46100 25.35600
H  -6.29300 41.77300 25.33000
H  -0.51700 43.77900 21.43300
H  2.44900 43.01400 21.52700
H  -0.44900 41.95000 20.16800
H  -0.74800 41.18900 21.74600
H  0.86900 41.24700 20.97700
H  1.96600 45.77300 22.62800
H  1.08400 45.53700 21.21500
H  3.14000 45.56700 19.88600
H  4.07200 45.02000 21.38800
H  3.52000 46.59400 21.27900
H  6.64100 44.75400 26.13500
H  5.96700 44.53500 24.63200
H  6.71100 43.20300 25.35500
H  4.06900 44.22800 30.67300
H  5.19500 40.84300 32.83900
H  3.45700 40.60400 32.77500
H  4.36000 41.67500 34.05100

