158

Mg 24.89200 -6.51500 47.94900
C  27.31700 -4.32400 46.81800
C  22.64600 -5.23600 45.60700
C  22.96500 -9.15200 48.69100
C  27.48700 -8.06300 50.12100
N  25.00800 -4.90200 46.52100
C  26.06900 -4.12400 46.17600
C  25.68700 -3.12800 45.09600
C  24.17800 -3.34900 44.85200
C  23.89500 -4.54600 45.76700
C  23.24400 -2.07700 45.05400
C  26.57900 -3.22400 43.78700
C  27.39800 -1.99400 43.31700
H  27.01500 -1.50100 41.89400
N  22.98600 -7.04600 47.24500
C  22.24800 -6.40400 46.35700
C  20.97600 -7.10000 46.29700
C  21.04500 -8.28600 47.10100
C  22.37200 -8.20200 47.73000
C  19.89500 -6.60000 45.36700
C  19.87700 -9.33300 47.29400
O  18.89200 -9.34200 46.57200
C  19.98600 -10.50500 48.31500
N  25.14700 -8.26500 49.27900
C  24.15600 -9.10900 49.41200
C  24.35000 -10.23300 50.44000
C  25.77800 -9.85600 50.94900
C  26.19500 -8.66700 50.06700
C  23.24500 -10.37400 51.49900
C  26.74000 -11.10500 50.95800
C  27.10000 -11.57400 52.36600
N  26.99000 -6.30100 48.45200
C  27.81700 -6.92100 49.35900
C  29.06800 -6.15900 49.36000
C  28.90900 -5.13600 48.41700
C  27.66500 -5.31700 47.80300
C  30.40200 -6.54800 50.18800
C  29.55500 -3.96100 47.86300
O  30.67000 -3.51300 48.07300
C  28.55700 -3.47900 46.77500
C  28.19100 -2.04700 47.18800
O  27.41600 -1.77200 48.06900
O  28.91700 -1.12700 46.38100
C  28.59300 0.28700 46.72300
H  22.02000 -4.91300 44.77300
H  22.34600 -10.01000 48.96400
H  28.24600 -8.36200 50.84700
H  25.74400 -2.17700 45.62600
H  23.96500 -3.70400 43.84400
H  23.25500 -1.54500 44.10300
H  23.70900 -1.44300 45.80900
H  22.23100 -2.26700 45.40800
H  25.85200 -3.34200 42.98400
H  27.07900 -4.19100 43.73100
H  28.46000 -2.24100 43.31100
H  27.24200 -1.15000 43.98900
H  19.93600 -5.51000 45.38800
H  18.91400 -6.91000 45.72600
H  20.16600 -6.93400 44.36600
H  20.67100 -11.19000 47.81500
H  18.95700 -10.86600 48.29800
H  20.27500 -10.11400 49.29100
H  24.34100 -11.16100 49.86900
H  25.51900 -9.42000 51.91400
H  23.66300 -10.30000 52.50200
H  22.70400 -11.32100 51.52200
H  22.48200 -9.60200 51.39200
H  27.60200 -10.88600 50.32900
H  26.18200 -11.90000 50.46400
H  26.80600 -10.97300 53.22600
H  28.18200 -11.55100 52.49300
H  26.84700 -12.62300 52.52000
H  30.26100 -6.14200 51.18900
H  31.26300 -6.24200 49.59300
H  30.45900 -7.63500 50.22700
H  28.95200 -3.42900 45.76000
H  28.84200 0.31600 47.78400
H  27.51200 0.40800 46.66000
H  29.00600 0.96300 45.97500
Mg 26.82700 50.66100 27.52100
C  24.61200 51.84600 29.92000
C  28.88500 49.68000 29.94000
C  28.87300 49.72200 25.09000
C  24.57300 52.03200 25.11200
N  26.69300 50.72500 29.61500
C  25.74300 51.29500 30.46000
C  26.00400 51.05200 31.90000
C  27.51200 50.49700 31.88700
C  27.71700 50.27200 30.37500
C  28.62700 51.48900 32.36700
C  25.07600 49.97200 32.54100
C  24.44700 50.34500 33.90400
H  25.42200 50.93700 35.01100
N  28.61000 49.86300 27.46500
C  29.30600 49.51300 28.61300
C  30.60700 48.98600 28.27000
C  30.71700 49.12300 26.85600
C  29.35700 49.56400 26.38400
C  31.60400 48.52700 29.21100
C  31.88500 48.77200 25.91300
O  31.80400 48.76000 24.67500
C  33.21400 48.27500 26.34100
N  26.76100 50.84400 25.31800
C  27.69400 50.32200 24.57200
C  27.26200 50.31200 23.14100
C  25.84700 50.91000 23.16900
C  25.71200 51.32000 24.62700
C  28.21000 51.07600 22.10400
C  24.71500 49.86800 22.84700
C  23.52900 50.40900 22.07000
N  24.97000 51.80400 27.44600
C  24.19100 52.36100 26.41600
C  23.08700 53.04800 26.94500
C  23.17200 52.91100 28.31200
C  24.35200 52.15400 28.57500
C  22.01300 53.72700 26.26500
C  22.56400 53.24600 29.55500
O  21.59600 53.95500 29.72000
C  23.52300 52.66900 30.69700
C  23.92700 53.86300 31.58300
O  24.94200 54.52400 31.33600
O  23.04700 54.02100 32.60400
C  23.46200 54.90400 33.70500
H  29.42300 49.26600 30.79600
H  29.55000 49.41800 24.28900
H  23.97700 52.34100 24.25100
H  25.85300 51.96700 32.47300
H  27.61800 49.54300 32.40400
H  29.29400 51.73700 31.54200
H  29.20000 50.97000 33.13500
H  28.27900 52.42700 32.79800
H  25.66300 49.06400 32.67800
H  24.26800 49.70800 31.85800
H  23.84500 49.49900 34.23700
H  23.76000 51.14100 33.61500
H  31.75000 47.44700 29.19600
H  31.36100 48.70500 30.25800
H  32.54800 49.07100 29.21300
H  33.62700 47.79400 25.45400
H  32.90300 47.40600 26.92100
H  33.59600 49.19200 26.79100
H  27.22300 49.24700 22.91100
H  25.78400 51.85600 22.63100
H  29.10100 51.55500 22.51200
H  27.65700 51.75900 21.46000
H  28.59000 50.27300 21.47200
H  24.40300 49.38800 23.77500
H  25.11500 49.00700 22.31000
H  22.55400 50.46200 22.55500
H  23.49200 49.63300 21.30600
H  23.69800 51.35600 21.55800
H  22.32700 54.09300 25.28700
H  21.69700 54.53700 26.92200
H  21.19200 53.02000 26.14900
H  22.90000 52.01800 31.31000
H  23.47800 55.93700 33.35800
H  24.40200 54.60400 34.16900
H  22.79700 54.85800 34.56800

