158

Mg 48.46800 35.59600 27.46800
C  46.58000 34.11200 30.08200
C  48.92200 38.30900 29.60300
C  50.12700 37.24100 25.03700
C  47.67200 33.05400 25.31600
N  47.72200 36.11600 29.63000
C  47.27100 35.23700 30.55100
C  47.43200 35.72500 31.95400
C  47.69700 37.27100 31.59700
C  48.20500 37.26600 30.17600
C  46.42200 38.13400 31.71000
C  48.65100 35.02200 32.58600
C  48.70500 34.98600 34.09900
H  47.62600 35.69500 34.83100
N  49.47000 37.47600 27.36900
C  49.52600 38.43900 28.28800
C  50.26700 39.50100 27.83700
C  50.84000 39.10300 26.59000
C  50.10500 37.94700 26.24100
C  50.47500 40.81100 28.60700
C  51.79400 39.81300 25.68900
O  52.22300 39.36400 24.65900
C  52.58400 40.98200 26.28900
N  49.06700 35.08500 25.48500
C  49.64100 35.95600 24.70500
C  49.59900 35.48600 23.23400
C  48.98400 34.09100 23.32100
C  48.54500 34.04400 24.81900
C  48.93200 36.48900 22.24200
C  50.01800 32.92700 23.15400
C  50.04000 32.11400 21.86600
N  47.35400 33.86800 27.61300
C  47.07800 32.95200 26.64500
C  46.19200 31.96000 27.22600
C  45.91500 32.37600 28.53100
C  46.70100 33.52800 28.74100
C  45.62400 30.86200 26.39900
C  45.24500 32.05300 29.75400
O  44.54800 31.08200 30.08900
C  45.55200 33.24400 30.77700
C  45.91200 32.68000 32.13200
O  46.89700 31.91200 32.38900
O  44.95300 33.06200 33.06000
C  45.08200 32.52900 34.45600
H  49.13400 39.18500 30.21900
H  50.50600 37.82300 24.19400
H  47.36900 32.28300 24.60500
H  46.52400 35.50200 32.51400
H  48.45900 37.61800 32.29500
H  45.53700 37.58600 32.03300
H  46.32300 38.66100 30.76000
H  46.71900 38.86000 32.46700
H  49.57200 35.34800 32.10200
H  48.56200 34.00900 32.19300
H  49.51800 35.60500 34.48100
H  48.84200 33.95700 34.43300
H  50.46500 41.60800 27.86400
H  51.43200 40.84900 29.12700
H  49.63600 40.93600 29.29300
H  51.90300 41.83000 26.36500
H  53.32200 41.48300 25.66200
H  53.01100 40.73900 27.26200
H  50.63800 35.43600 22.90700
H  48.04000 33.86500 22.82400
H  48.14800 36.02100 21.64700
H  49.67300 36.80600 21.50700
H  48.57400 37.34700 22.80900
H  49.96800 32.27500 24.02600
H  50.99300 33.40900 23.23000
H  49.30100 32.53200 21.18300
H  49.77600 31.06600 22.00900
H  51.02700 32.24300 21.42200
H  46.33400 30.32300 25.77200
H  44.85500 31.26600 25.74100
H  45.05000 30.18200 27.02900
H  44.64600 33.84500 30.86000
H  44.43900 31.66900 34.64400
H  44.69200 33.30900 35.10900
H  46.11300 32.35100 34.76200
Mg 9.23600 48.11600 25.83000
C  7.30700 48.32600 28.68000
C  11.90200 49.46100 27.60800
C  10.97400 48.34300 23.05700
C  6.18100 47.44300 23.94100
N  9.52300 48.83400 27.92800
C  8.61100 48.80500 28.94200
C  9.23100 49.18800 30.33100
C  10.60200 49.85800 29.85500
C  10.71000 49.30500 28.38100
C  10.51300 51.41000 29.90200
C  9.53400 48.07300 31.32300
C  9.02900 48.36700 32.72400
H  9.32400 47.24800 33.70000
N  11.25000 48.69000 25.39200
C  12.17600 49.11800 26.26700
C  13.38900 49.24300 25.49200
C  13.14700 48.94400 24.09300
C  11.74500 48.63800 24.14200
C  14.71300 49.38500 26.10100
C  14.13400 48.91300 22.89700
O  13.66700 48.67000 21.76100
C  15.48800 49.26800 23.02100
N  8.63700 47.82800 23.75900
C  9.58100 48.04900 22.81500
C  9.02900 47.70700 21.41400
C  7.53000 47.19400 21.72000
C  7.40600 47.49100 23.22700
C  9.11400 48.86500 20.41900
C  7.25800 45.70500 21.51800
C  8.13600 44.74400 22.34900
N  7.08900 47.93600 26.10600
C  6.02700 47.61500 25.32000
C  4.83300 47.46000 26.17400
C  5.29100 47.74400 27.48200
C  6.69900 48.01800 27.40900
C  3.54700 46.98900 25.69200
C  4.89600 47.88200 28.85800
O  3.80400 47.72700 29.40000
C  6.23000 48.10400 29.66400
C  6.49800 46.89000 30.42200
O  6.90000 45.86800 29.88900
O  6.04900 47.07900 31.67400
C  6.46900 45.97400 32.59200
H  12.74200 49.93000 28.12500
H  11.43400 48.40100 22.06900
H  5.30300 47.24400 23.32400
H  8.63100 49.87900 30.92200
H  11.41700 49.53800 30.50400
H  9.48300 51.72300 29.73000
H  11.14100 51.94500 29.18900
H  10.79100 51.73200 30.90600
H  10.59700 47.89600 31.49200
H  8.98400 47.18100 31.02200
H  7.95900 48.54300 32.62300
H  9.44800 49.26400 33.18000
H  14.62900 49.40400 27.18800
H  15.17000 50.31200 25.75600
H  15.27100 48.49300 25.81500
H  16.05600 48.37700 23.29200
H  15.62000 50.11600 23.69200
H  15.75900 49.65100 22.03700
H  9.75100 47.01300 20.98400
H  6.76200 47.76000 21.19300
H  8.24500 49.01500 19.77700
H  9.99300 48.76000 19.78200
H  9.31400 49.78500 20.96700
H  7.40900 45.53700 20.45200
H  6.22200 45.56100 21.82200
H  7.35200 44.27600 22.94200
H  8.95900 45.30900 22.78700
H  8.48700 43.90700 21.74500
H  3.68900 45.99200 25.27600
H  3.29700 47.63300 24.84800
H  2.82100 47.08000 26.50000
H  6.18200 49.00400 30.27800
H  7.40900 45.46600 32.38100
H  5.65200 45.27200 32.76100
H  6.72200 46.47200 33.52800

