158

Mg -0.41900 7.28900 26.30100
C  0.56000 9.29000 29.01600
C  -0.90600 4.72100 28.62900
C  -0.75100 5.22400 23.77500
C  0.38000 9.93600 24.21500
N  -0.08800 7.06100 28.55000
C  0.25700 8.01300 29.53300
C  0.19300 7.46600 31.00900
C  -0.09000 5.92400 30.68200
C  -0.45700 5.90600 29.15600
C  1.02600 4.95300 31.07800
C  -0.80900 8.16600 31.92600
C  -0.42000 8.07400 33.45900
H  0.73700 7.32200 33.99300
N  -0.76100 5.24400 26.19800
C  -1.05500 4.37700 27.25300
C  -1.56600 3.17500 26.72500
C  -1.49300 3.28700 25.29900
C  -1.00800 4.61700 25.01100
C  -1.97700 1.96200 27.66100
C  -1.72800 2.18500 24.27200
O  -1.43200 2.43200 23.11200
C  -2.38500 0.87800 24.63000
N  -0.17400 7.44200 24.30700
C  -0.37300 6.52700 23.37000
C  -0.42200 7.09900 21.95500
C  -0.44000 8.65900 22.24100
C  0.01500 8.71400 23.71000
C  0.79300 6.52500 21.05300
C  -1.87500 9.20500 21.86500
C  -1.88800 10.65800 21.19900
N  0.32200 9.20000 26.48600
C  0.60400 10.16700 25.59900
C  1.09400 11.38100 26.22000
C  1.07900 11.08700 27.53800
C  0.53300 9.75200 27.66800
C  1.48500 12.62400 25.59500
C  1.27400 11.64800 28.84900
O  1.60900 12.81900 29.11200
C  0.90700 10.51300 29.80300
C  2.01300 10.28400 30.81500
O  2.96500 9.59200 30.52600
O  1.69500 10.93600 31.97000
C  2.73900 10.90900 33.01400
H  -1.19300 3.93800 29.33400
H  -1.12200 4.65900 22.91800
H  0.69000 10.78900 23.60700
H  1.19200 7.47200 31.44500
H  -0.99200 5.60200 31.20400
H  0.55600 4.06500 31.50200
H  1.58400 5.42200 31.88900
H  1.65700 4.69300 30.22900
H  -1.74400 7.67000 31.66600
H  -0.94200 9.22900 31.72300
H  -1.34000 7.58800 33.78000
H  -0.44300 9.00600 34.02500
H  -1.97200 2.12500 28.73900
H  -1.40600 1.07100 27.40200
H  -2.97400 1.72000 27.29100
H  -3.39200 1.11600 24.97100
H  -1.83400 0.29000 25.36400
H  -2.45000 0.34000 23.68400
H  -1.35000 6.60500 21.66500
H  0.30600 9.23500 21.69400
H  1.35100 7.35200 20.61500
H  0.46100 5.73300 20.38100
H  1.49600 6.12700 21.78500
H  -2.47300 9.34000 22.76600
H  -2.47500 8.42000 21.40500
H  -2.35900 10.71200 20.21800
H  -0.85900 10.98300 21.04000
H  -2.46300 11.32800 21.83600
H  0.51000 13.09800 25.48500
H  1.87200 12.41300 24.59800
H  2.09300 13.22500 26.27100
H  0.01100 10.76300 30.37100
H  3.27200 9.95900 33.06300
H  2.25800 11.02700 33.98500
H  3.53200 11.57400 32.67400
Mg 1.33700 42.64700 24.84300
C  2.33400 42.79200 28.25300
C  -1.54700 41.27000 25.90800
C  0.58700 42.20300 21.65700
C  4.57600 43.56300 23.98300
N  0.43500 42.28600 26.86400
C  0.99200 42.45800 28.12000
C  -0.00200 42.22000 29.19500
C  -1.24500 41.51000 28.44100
C  -0.75600 41.66400 26.97100
C  -1.40300 40.07800 28.81800
C  -0.38200 43.46600 30.11300
C  -0.07600 43.21900 31.64000
H  -0.63400 41.92100 32.26400
N  -0.32700 41.99300 23.93900
C  -1.40900 41.46900 24.53600
C  -2.47700 41.15300 23.49600
C  -1.80000 41.48600 22.24900
C  -0.42200 41.93000 22.60800
C  -3.94300 40.70700 23.81400
C  -2.33100 41.24400 20.89700
O  -1.67600 41.42500 19.87600
C  -3.68200 40.72000 20.72900
N  2.45100 42.71700 23.08300
C  1.86900 42.54200 21.91300
C  2.91000 42.68900 20.75700
C  4.06600 43.40600 21.51100
C  3.69000 43.22400 22.99100
C  3.30000 41.34100 20.08100
C  4.40400 44.85400 20.96700
C  3.23700 45.87700 21.14900
N  3.08900 43.06500 25.85800
C  4.29800 43.51100 25.34200
C  5.27400 43.72000 26.38700
C  4.52500 43.49100 27.58600
C  3.20600 43.06800 27.17300
C  6.66900 44.09200 26.27200
C  4.59200 43.44200 28.99300
O  5.45400 43.73500 29.79300
C  3.14300 42.87900 29.51800
C  3.49200 41.65300 30.26300
O  3.85600 40.62700 29.71900
O  3.49300 41.85600 31.63300
C  3.83200 40.68800 32.40400
H  -2.51700 40.81700 26.12400
H  0.41600 42.14400 20.58000
H  5.47800 44.01000 23.55900
H  0.51900 41.46200 29.78000
H  -2.12100 42.13600 28.60900
H  -2.46800 39.92200 28.98900
H  -0.74700 39.83400 29.65400
H  -0.93800 39.50800 28.01300
H  -1.41300 43.67800 29.83000
H  0.14300 44.35500 29.76200
H  -0.70800 43.97300 32.10900
H  0.98100 43.36500 31.86500
H  -4.05700 39.62300 23.81300
H  -4.73300 41.18900 23.23700
H  -4.12200 41.05000 24.83300
H  -3.96400 39.80100 21.24300
H  -3.87100 40.49500 19.67900
H  -4.34900 41.52400 21.03800
H  2.49400 43.30800 19.96200
H  5.02100 42.88300 21.47600
H  2.64300 40.48300 20.22600
H  4.30200 41.05000 20.39700
H  3.44400 41.54800 19.02100
H  4.54700 44.71600 19.89500
H  5.25800 45.33200 21.44700
H  2.43800 45.48300 21.77800
H  2.87400 46.26000 20.19500
H  3.62300 46.72200 21.71900
H  7.15800 43.69600 25.38100
H  7.22100 43.81300 27.16900
H  6.73600 45.18000 26.26900
H  2.66800 43.60300 30.18000
H  3.27800 39.86300 31.95500
H  3.67600 40.73900 33.48100
H  4.90500 40.51400 32.31700

