158

Mg 6.87000 53.01100 41.37700
C  6.22200 49.58500 41.35300
C  10.13500 52.49200 40.60600
C  7.28100 56.45300 40.88500
C  3.41600 53.66300 41.67900
N  8.00000 51.26100 41.04000
C  7.57600 49.93700 41.00300
C  8.81300 49.06400 40.63100
C  10.06600 49.90100 40.73900
C  9.36900 51.31600 40.82100
C  11.03500 49.81200 41.98400
C  8.73500 48.25100 39.34500
C  8.73800 48.99000 38.05100
H  7.64900 48.73400 37.00100
N  8.48500 54.33200 40.92500
C  9.78200 53.89800 40.68100
C  10.68700 55.01400 40.39700
C  9.86800 56.17600 40.36700
C  8.46400 55.71400 40.72400
C  12.16800 54.90100 40.18000
C  10.35900 57.59900 40.09100
O  11.54600 57.78100 39.93200
C  9.38800 58.82400 39.89300
N  5.57600 54.81900 41.43800
C  6.01500 56.11800 41.16200
C  4.84100 57.09400 41.49500
C  3.67400 56.20600 41.38000
C  4.24400 54.75800 41.56200
C  4.90900 57.95200 42.78400
C  2.86500 56.31300 40.09300
C  1.45100 55.79900 40.28700
N  5.13800 51.89300 41.71700
C  3.82300 52.28700 41.83500
C  3.06100 51.08400 42.07000
C  3.96500 50.01500 41.84600
C  5.25900 50.54900 41.63500
C  1.54500 51.01300 42.19600
C  3.99700 48.54600 41.73600
O  3.09600 47.69200 41.80400
C  5.49900 48.24500 41.48000
C  5.63200 47.44700 40.22200
O  5.45800 47.93200 39.16200
O  5.88700 46.10000 40.45700
C  5.61700 45.29600 39.30700
H  11.18100 52.34700 40.32800
H  7.35900 57.53600 40.76400
H  2.34600 53.81200 41.83600
H  8.97500 48.37700 41.46200
H  10.78900 49.80900 39.92800
H  11.13700 50.67600 42.64200
H  11.96100 49.45700 41.53400
H  10.70700 48.99300 42.62400
H  7.92000 47.52900 39.31500
H  9.64300 47.65100 39.41000
H  9.59300 48.57000 37.52000
H  8.92000 50.06100 38.14700
H  12.72000 55.70500 40.66500
H  12.35700 54.80100 39.11100
H  12.43600 53.96800 40.67600
H  8.65900 58.51100 39.14500
H  9.93000 59.71900 39.58800
H  8.91300 58.96800 40.86400
H  4.80000 57.72700 40.60900
H  3.07600 56.40600 42.27000
H  5.55900 58.80700 42.59800
H  5.39900 57.23000 43.43700
H  3.88600 58.20100 43.06600
H  3.35700 55.67300 39.36000
H  2.79800 57.33000 39.70600
H  1.35600 54.99400 39.55800
H  0.72000 56.53400 39.95000
H  1.26300 55.49700 41.31800
H  1.23200 51.02900 43.24000
H  1.16200 50.25700 41.51000
H  1.13100 51.94600 41.81500
H  5.87700 47.70500 42.34800
H  5.70300 44.25900 39.63300
H  6.30600 45.38400 38.46700
H  4.58200 45.57700 39.11200
Mg 1.19000 42.94000 26.05000
C  3.50800 42.75600 28.61400
C  -1.21100 41.99900 28.22900
C  -0.87100 42.27400 23.42500
C  3.82500 43.22400 23.77600
N  1.30400 42.28300 28.15600
C  2.25200 42.49600 29.10300
C  1.73900 42.32700 30.57400
C  0.36700 41.71300 30.26400
C  0.15200 42.07900 28.80200
C  0.11700 40.24300 30.67800
C  1.67200 43.70700 31.38400
C  1.93500 43.64500 32.94100
H  1.59500 42.28300 33.65100
N  -0.81400 42.35400 25.88800
C  -1.66700 42.14300 26.94600
C  -2.95100 41.85000 26.43400
C  -2.84400 41.83200 25.02400
C  -1.38400 42.13800 24.71900
C  -4.12300 41.45900 27.31800
C  -3.97400 41.58600 24.05400
O  -3.79700 41.73700 22.85800
C  -5.37300 41.26100 24.47800
N  1.44500 42.82000 23.87300
C  0.41700 42.58600 23.05600
C  0.88300 42.56100 21.59300
C  2.36400 42.78300 21.70300
C  2.59500 43.01600 23.18100
C  0.27700 41.29700 20.85100
C  2.90000 44.03900 20.91500
C  2.72200 45.41700 21.54600
N  3.26800 43.15100 26.09300
C  4.26900 43.15900 25.11000
C  5.57900 43.18300 25.67500
C  5.31000 43.10600 27.08000
C  3.92800 42.98700 27.28800
C  6.89200 43.27200 24.97200
C  5.91900 42.99500 28.38100
O  7.09600 43.07300 28.68800
C  4.76200 42.96500 29.45200
C  5.02800 41.86900 30.41300
O  5.04000 40.68500 30.16200
O  5.26000 42.45500 31.68300
C  5.76000 41.59600 32.72700
H  -1.90200 41.86300 29.06400
H  -1.57900 42.04000 22.62800
H  4.75200 43.37700 23.21900
H  2.38700 41.64000 31.11900
H  -0.45100 42.18400 30.80800
H  -0.81000 40.24000 31.25100
H  0.92400 39.86300 31.30500
H  0.03000 39.65600 29.76400
H  0.66900 44.11000 31.24000
H  2.32600 44.36700 30.81500
H  1.29700 44.38700 33.42100
H  2.99200 43.86100 33.10200
H  -3.89600 41.58000 28.37800
H  -4.41400 40.42400 27.14000
H  -4.96400 42.13600 27.16400
H  -5.77000 42.06600 25.09700
H  -5.25900 40.27300 24.92500
H  -6.10200 41.31200 23.66900
H  0.62700 43.53500 21.17600
H  2.95100 41.88000 21.53500
H  -0.47800 40.69800 21.36000
H  1.07800 40.60200 20.60300
H  -0.14400 41.59800 19.89100
H  2.40300 44.01400 19.94500
H  3.96300 43.83700 20.78300
H  2.02000 45.41600 22.38000
H  2.22000 46.01100 20.78200
H  3.61400 45.89200 21.95300
H  6.85500 42.66300 24.06800
H  7.65700 42.82200 25.60400
H  7.30000 44.25100 24.71900
H  4.74500 43.96200 29.89400
H  4.99300 41.05100 33.27700
H  6.47200 42.07700 33.39800
H  6.28700 40.78900 32.21800

