158

Mg 47.13100 25.35700 28.42100
C  48.01400 27.53000 31.07000
C  46.26900 23.02100 30.73100
C  46.57500 23.15500 25.88500
C  48.67900 27.55300 26.21900
N  46.95600 25.42900 30.64600
C  47.41200 26.41000 31.50700
C  47.21100 25.99100 32.96900
C  46.51400 24.53900 32.82600
C  46.53100 24.31700 31.33200
C  47.15900 23.33200 33.66900
C  46.16200 26.96700 33.60900
C  46.70000 27.65300 34.85000
H  45.74200 28.14900 35.92600
N  46.43400 23.36400 28.32000
C  46.09700 22.59300 29.39400
C  45.57900 21.36600 28.89400
C  45.71000 21.34000 27.52900
C  46.25700 22.64400 27.14100
C  45.06900 20.24400 29.78000
C  45.39600 20.19400 26.48700
O  45.48100 20.31300 25.26500
C  44.77700 18.92600 26.93100
N  47.59100 25.37400 26.42200
C  47.21900 24.41400 25.54600
C  47.50500 24.77800 24.10200
C  48.07700 26.13100 24.20300
C  48.14300 26.35600 25.74600
C  48.34200 23.78400 23.33500
C  47.18400 27.22900 23.45700
C  47.65800 27.72100 22.14300
N  48.10600 27.18800 28.56200
C  48.74400 27.91800 27.55500
C  49.25500 29.14100 28.15600
C  49.12500 28.91300 29.49800
C  48.31400 27.82900 29.71000
C  49.97700 30.27100 27.49700
C  49.38600 29.45300 30.81700
O  50.10400 30.41500 31.16100
C  48.68000 28.59000 31.90000
C  49.77000 28.02300 32.80100
O  50.47900 27.15600 32.38600
O  49.83400 28.63800 34.00700
C  51.07600 28.37400 34.79600
H  46.03500 22.39800 31.59600
H  46.43100 22.60700 24.95100
H  49.05400 28.29800 25.51400
H  48.13600 25.92800 33.54200
H  45.50100 24.49900 33.22700
H  46.43600 22.69100 34.17300
H  47.84900 23.70600 34.42500
H  47.74200 22.72700 32.97400
H  45.25200 26.51000 33.99700
H  45.98000 27.82800 32.96700
H  47.21100 28.55200 34.50400
H  47.38800 26.97400 35.35500
H  44.09000 19.89700 29.45100
H  45.08100 20.51100 30.83600
H  45.80500 19.44300 29.70800
H  45.59900 18.33800 27.34100
H  44.38100 18.46900 26.02500
H  43.89700 19.17100 27.52600
H  46.51200 24.84200 23.65700
H  49.09900 26.20400 23.83200
H  48.72700 23.11400 24.10400
H  49.16300 24.28900 22.82700
H  47.71700 23.17400 22.68200
H  47.02100 28.06200 24.14000
H  46.18300 26.86500 23.22700
H  48.57300 27.16800 21.93200
H  47.90300 28.77700 22.26000
H  46.92800 27.55600 21.35100
H  51.05800 30.17700 27.40000
H  49.69200 31.13900 28.09200
H  49.67000 30.36200 26.45500
H  48.01500 29.22100 32.49000
H  52.00700 28.71000 34.33900
H  51.09100 27.30000 34.97900
H  51.00700 28.87700 35.76100
Mg 9.57500 48.26100 25.00400
C  7.65500 47.90300 28.01400
C  12.04500 49.58900 26.88400
C  11.22600 48.33700 22.27600
C  6.69100 46.96100 23.24500
N  9.76700 48.83500 27.18400
C  8.88700 48.56900 28.25900
C  9.53500 49.07300 29.59400
C  10.64700 50.03100 29.08300
C  10.87500 49.48500 27.65400
C  10.30600 51.59800 29.04800
C  10.05000 47.99100 30.53600
C  9.32600 48.08400 31.92000
H  9.76700 47.00300 32.97200
N  11.37800 48.93900 24.61300
C  12.29100 49.35100 25.49100
C  13.60400 49.59900 24.82200
C  13.31200 49.15300 23.51900
C  11.93200 48.85200 23.38500
C  14.83400 50.03500 25.53800
C  14.27600 49.02200 22.37900
O  13.97400 48.53000 21.26900
C  15.71400 49.35900 22.60700
N  8.90800 47.93200 23.07600
C  9.88000 48.00100 22.07100
C  9.32800 47.64000 20.69700
C  8.02900 47.05300 21.09500
C  7.84000 47.33000 22.61600
C  9.25200 48.78300 19.62100
C  7.90300 45.49700 20.73800
C  8.53200 44.45000 21.54400
N  7.50400 47.67600 25.47900
C  6.50000 47.11000 24.67900
C  5.32600 46.84900 25.46300
C  5.77300 47.08700 26.80400
C  7.11600 47.57500 26.74500
C  3.97000 46.65500 25.07700
C  5.31900 47.21900 28.18700
O  4.20000 46.95800 28.69800
C  6.57200 47.58500 28.99200
C  6.86600 46.28900 29.79200
O  7.59600 45.37500 29.54300
O  6.23200 46.42700 30.99400
C  6.37400 45.29700 31.97000
H  12.87200 49.87400 27.53800
H  11.79800 48.32100 21.34500
H  5.96900 46.34700 22.70300
H  8.84600 49.74200 30.11000
H  11.56900 49.86400 29.64000
H  10.88500 52.11100 29.81500
H  9.22500 51.72100 29.10700
H  10.73700 51.87900 28.08600
H  11.13000 48.08000 30.65200
H  10.00400 47.01400 30.05500
H  8.25400 47.90700 31.82500
H  9.59800 49.02100 32.40600
H  15.41800 49.12100 25.65100
H  14.61000 50.36400 26.55300
H  15.41900 50.87600 25.16800
H  16.30900 49.14400 21.71900
H  16.17000 48.72200 23.36400
H  15.83400 50.41600 22.84700
H  9.95600 46.85900 20.26800
H  7.27400 47.57000 20.50100
H  9.38100 49.70700 20.18400
H  8.30500 48.82400 19.08300
H  10.18200 48.63000 19.07300
H  8.17900 45.25900 19.71100
H  6.81900 45.38100 20.74800
H  8.86300 44.92000 22.47100
H  9.37300 44.04800 20.97900
H  7.87700 43.63100 21.84100
H  3.60700 47.59800 24.66900
H  3.43500 46.42300 25.99800
H  3.86400 45.90700 24.29100
H  6.43400 48.42700 29.66900
H  6.27900 45.81600 32.92400
H  7.28200 44.69300 31.98900
H  5.53600 44.60700 31.87300

