158

Mg 48.61500 44.95300 43.00900
C  45.18200 44.80100 42.47100
C  48.64300 41.65000 42.34200
C  51.93900 45.14500 43.20800
C  48.38500 48.39500 43.19900
N  47.10700 43.43700 42.32400
C  45.81700 43.54800 42.23600
C  45.00700 42.28100 41.97300
C  46.15500 41.24400 42.16300
C  47.39800 42.17300 42.16300
C  46.09200 40.48100 43.49700
C  44.29400 42.14700 40.52300
C  44.83700 42.99400 39.31800
H  44.77500 42.31000 37.91300
N  50.08000 43.63000 42.75100
C  49.89000 42.25100 42.59900
C  51.18900 41.51700 42.64500
C  52.14600 42.54300 42.92700
C  51.41700 43.90000 42.97600
C  51.30300 40.02400 42.53000
C  53.62800 42.25400 43.06000
O  54.05500 41.17100 42.76200
C  54.58000 43.36300 43.37800
N  49.98900 46.57900 42.98200
C  51.31900 46.39600 43.21900
C  52.10200 47.74200 43.44000
C  50.95600 48.82200 43.50200
C  49.67200 47.88900 43.14000
C  53.00300 47.77800 44.71800
C  51.16200 50.06400 42.56900
C  50.94400 51.45800 43.27500
N  47.10500 46.36200 42.97500
C  47.15100 47.68000 43.00200
C  45.80700 48.25100 42.82100
C  45.01300 47.15300 42.73900
C  45.83000 46.02300 42.68700
C  45.44700 49.71600 42.69900
C  43.67800 46.70300 42.60200
O  42.64000 47.38200 42.46400
C  43.74600 45.16100 42.45500
C  43.06000 44.48300 43.51100
O  42.12100 43.75800 43.30500
O  43.76100 44.68000 44.71300
C  43.42600 43.63200 45.70300
H  48.53600 40.57200 42.21000
H  53.02700 45.24200 43.20000
H  48.24000 49.47300 43.29900
H  44.26300 42.25300 42.76800
H  46.13800 40.51200 41.35600
H  45.17200 40.42500 44.07900
H  46.84300 40.82600 44.20700
H  46.30600 39.44000 43.25400
H  43.22300 42.34100 40.58800
H  44.35900 41.11000 40.19400
H  45.90900 43.09100 39.49600
H  44.32700 43.95700 39.27300
H  51.52000 39.78700 41.48900
H  50.49800 39.33900 42.79900
H  52.16100 39.68500 43.11100
H  54.23500 44.04100 44.15900
H  54.77100 43.89700 42.44700
H  55.55800 42.97500 43.66300
H  52.74000 47.97400 42.58700
H  50.76400 49.14400 44.52600
H  54.02100 48.16600 44.68900
H  53.14100 46.78800 45.15300
H  52.50600 48.25800 45.56100
H  50.53400 50.03800 41.67900
H  52.21100 49.98700 42.28500
H  50.61400 51.38600 44.31100
H  50.17100 51.97600 42.70800
H  51.88000 52.01700 43.28800
H  45.66800 50.09700 41.70200
H  46.07400 50.23100 43.42700
H  44.37600 49.77500 42.89300
H  43.26700 44.88300 41.51600
H  42.42600 43.79800 46.10500
H  44.20500 43.74400 46.45700
H  43.53200 42.67100 45.20100
Mg 29.09300 57.67300 41.06900
C  26.23600 56.01300 39.91700
C  31.13500 55.49400 39.30800
C  31.85700 59.62200 41.72300
C  26.96100 60.35700 42.01800
N  28.68900 55.97600 39.75900
C  27.47300 55.44500 39.43100
C  27.74000 54.02600 38.72500
C  29.31700 53.79800 38.75400
C  29.75500 55.20800 39.30100
C  29.76100 52.57600 39.58600
C  26.91300 53.75900 37.34400
C  26.77700 54.96700 36.39700
H  27.41700 54.79900 34.98700
N  31.19900 57.52800 40.69900
C  31.85300 56.48400 39.98900
C  33.27500 56.77200 39.88600
C  33.54400 58.05200 40.62200
C  32.19400 58.46000 41.07100
C  34.20500 55.73200 39.25600
C  34.85900 58.68800 40.79000
O  35.89100 58.09800 40.45000
C  35.10900 59.99800 41.56500
N  29.39300 59.77700 41.50000
C  30.60200 60.26400 41.85200
C  30.50000 61.72000 42.48100
C  28.99300 61.90600 42.66300
C  28.35000 60.63300 42.00400
C  31.32800 62.06500 43.75700
C  28.48300 63.27000 42.02400
C  27.23300 63.89300 42.76200
N  27.07100 58.03400 41.24400
C  26.32800 59.15300 41.59500
C  24.89200 58.84200 41.55700
C  24.86100 57.62700 40.87600
C  26.16800 57.22300 40.65600
C  23.83000 59.71700 42.00500
C  23.91400 56.66600 40.37400
O  22.66300 56.56100 40.44800
C  24.81800 55.56000 39.78200
C  24.56500 54.20900 40.35800
O  25.04500 53.66800 41.34900
O  23.60800 53.67200 39.48400
C  23.37800 52.26400 39.78200
H  31.72000 54.72900 38.79300
H  32.75300 60.06300 42.16300
H  26.32500 61.16400 42.38800
H  27.27800 53.30500 39.40000
H  29.69000 53.88500 37.73400
H  30.68800 52.77900 40.12200
H  29.95600 51.78000 38.86600
H  29.07300 52.25300 40.36700
H  25.91700 53.36500 37.54300
H  27.49200 52.92500 36.94500
H  27.12600 55.88800 36.86500
H  25.71700 55.19600 36.28800
H  35.08000 56.23300 38.84200
H  33.76100 55.28600 38.36600
H  34.51300 54.95100 39.95100
H  34.50900 60.86100 41.27800
H  36.10000 60.40800 41.37100
H  35.05600 59.73300 42.62100
H  30.77300 62.47300 41.74200
H  28.64700 61.96500 43.69500
H  32.08000 61.32500 44.03100
H  30.68800 62.08400 44.63900
H  31.73800 63.06500 43.61500
H  28.07500 63.02300 41.04400
H  29.23300 64.05500 41.93400
H  27.51500 64.92400 42.97700
H  26.99700 63.41900 43.71500
H  26.31500 63.82600 42.17700
H  22.82700 59.29300 41.96000
H  23.93900 60.70000 41.54700
H  23.92300 59.87900 43.07900
H  24.58500 55.50100 38.71900
H  23.82200 51.64600 39.00100
H  22.31600 52.11800 39.58500
H  23.61700 51.87200 40.77000

