158

Mg 24.76000 1.04700 28.75300
C  26.68400 0.60000 31.73400
C  21.99900 1.14700 30.63200
C  22.90700 1.13800 25.91200
C  27.64100 0.19200 26.93100
N  24.42000 0.78600 30.90800
C  25.32100 0.84500 31.95200
C  24.61600 1.05300 33.28900
C  23.07700 1.01200 32.88800
C  23.15200 0.91600 31.34200
C  22.17200 -0.02600 33.67100
C  25.07300 2.38100 34.06200
C  25.87900 2.07800 35.37700
H  25.67400 2.95300 36.60900
N  22.71800 1.23700 28.33500
C  21.73300 1.26900 29.24000
C  20.43300 1.36900 28.63000
C  20.66700 1.22100 27.24300
C  22.16700 1.21600 27.09700
C  19.10900 1.37800 29.48300
C  19.66200 1.07600 26.13500
O  20.03300 0.81400 25.01600
C  18.24100 1.16700 26.42000
N  25.17700 0.67000 26.73400
C  24.25800 0.90300 25.74400
C  24.98000 1.18700 24.42100
C  26.52900 0.97200 24.74700
C  26.48800 0.47300 26.16300
C  24.55300 0.22800 23.27000
C  27.52100 2.24800 24.48000
C  27.11300 3.51900 25.22200
N  26.75300 0.45900 29.14300
C  27.85200 0.19600 28.33500
C  29.04400 0.07200 29.04500
C  28.62700 0.21500 30.39700
C  27.30000 0.43400 30.44100
C  30.43600 -0.17900 28.47400
C  29.08700 0.34200 31.78400
O  30.18400 0.29300 32.21800
C  27.83200 0.65100 32.71600
C  27.92600 -0.37000 33.82400
O  27.69100 -1.52400 33.72500
O  28.46900 0.20600 34.96600
C  28.60100 -0.64800 36.11200
H  21.12100 1.24900 31.27300
H  22.38300 1.14100 24.95400
H  28.62400 0.08100 26.47000
H  24.89900 0.17900 33.87600
H  22.65900 2.00400 33.05800
H  21.42400 0.60300 34.15400
H  22.76000 -0.54400 34.42800
H  21.79300 -0.75800 32.95600
H  24.25800 3.00000 34.43500
H  25.69000 2.97400 33.38700
H  26.92500 2.27800 35.14300
H  25.78400 1.01600 35.60400
H  19.15500 1.48400 30.56700
H  18.48100 0.53500 29.19500
H  18.42900 2.14900 29.12100
H  18.04100 2.14300 26.86300
H  18.10500 0.35100 27.13000
H  17.45900 0.99400 25.68000
H  24.71200 2.20200 24.13100
H  26.92200 0.22500 24.05800
H  24.04100 -0.62400 23.71700
H  25.48400 -0.18500 22.88200
H  24.11000 0.78500 22.44400
H  27.46400 2.47800 23.41600
H  28.54200 1.99400 24.76400
H  27.93800 4.21500 25.06400
H  26.85000 3.36800 26.26900
H  26.27200 3.95900 24.68500
H  31.12900 0.12000 29.26000
H  30.62800 0.44700 27.60300
H  30.70200 -1.20900 28.23600
H  27.84000 1.62500 33.20500
H  29.57000 -0.62300 36.60900
H  28.48300 -1.69600 35.83900
H  27.80200 -0.38600 36.80500
Mg 45.05500 4.10700 46.18700
C  43.15300 7.02800 46.12800
C  42.11900 2.27200 45.65600
C  46.95400 1.38600 45.71900
C  47.86800 6.11100 46.25900
N  42.86600 4.57500 46.04200
C  42.37400 5.81600 46.03100
C  40.81300 5.75500 45.76500
C  40.58400 4.22700 45.70100
C  41.95100 3.60600 45.77900
C  39.47300 3.74100 46.65000
C  40.22100 6.52700 44.56400
C  41.17800 6.90700 43.45700
H  40.57200 7.13400 42.10000
N  44.57500 2.10000 45.76100
C  43.31600 1.56600 45.59500
C  43.50900 0.23700 45.16300
C  44.87700 -0.11100 45.09700
C  45.56300 1.10200 45.52600
C  42.34100 -0.58400 44.66300
C  45.46400 -1.50800 44.74700
O  44.74700 -2.49600 44.47900
C  46.90000 -1.73800 44.79500
N  47.10800 3.78800 45.70800
C  47.64100 2.52700 45.84700
C  49.20700 2.58600 45.79900
C  49.47200 4.10200 46.03000
C  48.02700 4.73200 45.90800
C  50.02700 1.76700 46.78400
C  50.62200 4.87200 45.14300
C  52.01800 5.22600 45.88700
N  45.45100 6.18600 46.27600
C  46.66500 6.82800 46.35700
C  46.53200 8.26800 46.50400
C  45.11200 8.43900 46.47000
C  44.54800 7.11000 46.34600
C  47.61200 9.29400 46.70500
C  44.00500 9.33200 46.55700
O  43.94600 10.52600 46.69600
C  42.75000 8.44600 46.32500
C  41.84800 8.62500 47.50800
O  41.81300 7.78600 48.41400
O  40.97300 9.69700 47.39500
C  39.76400 9.71200 48.28800
H  41.18600 1.71500 45.55000
H  47.66900 0.56500 45.63000
H  48.73400 6.72400 46.51500
H  40.30900 6.12000 46.66000
H  40.28600 4.01700 44.67400
H  38.84700 4.58600 46.93500
H  39.87300 3.30600 47.56600
H  38.91700 2.98900 46.08900
H  39.80400 7.49700 44.83800
H  39.37000 5.97800 44.16100
H  42.06700 6.29100 43.32300
H  41.63000 7.85200 43.75900
H  41.57100 -0.70100 45.42600
H  42.63100 -1.61800 44.47600
H  41.89500 -0.23500 43.73100
H  47.18800 -2.72900 44.44500
H  47.08200 -1.59900 45.86100
H  47.50500 -0.96900 44.31300
H  49.60100 2.39500 44.80100
H  49.76700 4.29200 47.06200
H  50.90100 2.32200 47.12600
H  50.23900 0.76300 46.41500
H  49.38200 1.45100 47.60400
H  50.04700 5.75100 44.85400
H  50.64800 4.26700 44.23700
H  52.04700 4.69000 46.83600
H  52.27900 6.27100 46.05300
H  52.90000 4.85700 45.36300
H  47.91800 9.74500 45.76200
H  48.47500 8.85100 47.20200
H  47.24400 10.08600 47.35700
H  42.19600 8.81800 45.46300
H  39.82600 9.74200 49.37600
H  39.10000 8.89800 47.99700
H  39.20300 10.62300 48.08400

