158

Mg 35.06900 2.99500 29.88000
C  32.86200 4.28400 32.36500
C  37.31300 2.58600 32.13800
C  37.04900 1.88400 27.40700
C  32.43700 3.45600 27.59100
N  34.99400 3.40800 32.04800
C  34.03500 3.92800 32.88600
C  34.55200 3.76500 34.35800
C  36.07100 3.45100 34.24000
C  36.14500 3.12200 32.73400
C  37.11000 4.55800 34.52600
C  33.73300 2.69100 35.10000
C  33.30800 3.05800 36.54500
H  33.87200 4.25600 37.19500
N  36.90700 2.29300 29.75200
C  37.74500 2.19600 30.85500
C  38.90800 1.56800 30.51500
C  38.89400 1.35700 29.09900
C  37.59400 1.83900 28.69000
C  40.08100 1.22600 31.43300
C  39.98200 0.68000 28.28900
O  39.87200 0.51400 27.08200
C  41.28700 0.03300 28.92800
N  34.83100 2.83700 27.71700
C  35.82600 2.40800 26.89600
C  35.25500 2.32400 25.41800
C  33.71300 2.39500 25.64800
C  33.63000 2.95400 27.04100
C  35.75700 3.46700 24.45400
C  32.91900 1.05600 25.39900
C  33.10400 0.57600 23.94700
N  33.04200 3.75600 29.90300
C  32.08900 3.87500 28.83600
C  30.88000 4.40200 29.37300
C  31.11600 4.53600 30.76800
C  32.45300 4.15200 31.02300
C  29.55800 4.63900 28.59100
C  30.43100 4.90500 31.98800
O  29.33400 5.31700 32.28400
C  31.60300 4.73800 33.16100
C  31.54500 6.13800 33.75700
O  32.27400 7.07200 33.40700
O  30.72800 6.12300 34.88500
C  30.79100 7.22500 35.84200
H  38.17300 2.63800 32.80900
H  37.69000 1.56900 26.58100
H  31.65900 3.42300 26.82600
H  34.31800 4.73200 34.80300
H  36.28800 2.57600 34.85200
H  37.86400 4.13900 35.19300
H  36.54900 5.35600 35.01200
H  37.49500 4.95500 33.58600
H  34.27300 1.75000 35.21000
H  32.88100 2.38200 34.49400
H  33.52600 2.28100 37.27800
H  32.22700 3.18200 36.47700
H  40.34200 0.16900 31.40300
H  39.94500 1.51700 32.47400
H  40.97300 1.80900 31.20300
H  41.92500 0.75700 29.43400
H  41.93500 -0.49100 28.22500
H  41.01200 -0.70600 29.68100
H  35.52800 1.33400 25.05500
H  33.25300 3.19100 25.06200
H  34.98900 4.07300 23.97400
H  36.36100 3.06300 23.64200
H  36.37600 4.16900 25.01400
H  31.85200 1.17900 25.58200
H  33.28400 0.35000 26.14400
H  33.66500 1.35700 23.43300
H  32.22000 0.51100 23.31200
H  33.69000 -0.34200 23.99000
H  29.02500 3.70600 28.41000
H  29.75300 5.12500 27.63500
H  28.93100 5.34300 29.13900
H  31.34900 3.95400 33.87400
H  31.00000 6.70000 36.77300
H  29.82500 7.71900 35.94700
H  31.57400 7.97500 35.73200
Mg 47.83500 16.22800 27.72900
C  46.09100 16.35200 30.74900
C  50.37100 17.96300 29.21900
C  49.31900 16.60700 24.80200
C  45.01300 14.95200 26.19400
N  48.12000 17.04600 29.68500
C  47.28900 16.93600 30.78400
C  47.92300 17.63100 32.01700
C  49.20200 18.26600 31.46900
C  49.24200 17.69300 30.03500
C  49.14500 19.80300 31.57100
C  48.18600 16.56900 33.13900
C  47.61500 16.88900 34.51600
H  47.46000 18.37900 34.82700
N  49.65600 17.08600 27.12600
C  50.55200 17.70900 27.88900
C  51.74900 17.94100 27.13000
C  51.52900 17.59300 25.81000
C  50.10300 17.06600 25.85000
C  52.94600 18.74500 27.78900
C  52.36600 17.67900 24.55800
O  51.96200 17.24500 23.49600
C  53.79800 18.18600 24.64600
N  47.14200 15.99600 25.69200
C  48.02400 16.07300 24.70200
C  47.33100 15.75400 23.35400
C  46.02800 15.08200 23.89800
C  45.99400 15.39500 25.34900
C  47.14200 17.03200 22.46200
C  45.83000 13.57600 23.65800
C  44.73700 13.25100 22.72600
N  45.89700 15.75000 28.28100
C  44.92700 15.13500 27.61200
C  43.77700 14.84900 28.49400
C  44.16600 15.33700 29.72900
C  45.47200 15.78400 29.60100
C  42.51000 14.16300 28.08900
C  43.75700 15.49300 31.11100
O  42.76700 15.21300 31.75200
C  45.02600 16.16100 31.81200
C  44.54000 17.43500 32.45600
O  44.48200 18.54700 31.94300
O  44.07700 17.16900 33.72900
C  43.44800 18.20500 34.51800
H  51.24900 18.27300 29.78900
H  49.78000 16.71300 23.81700
H  44.17100 14.36600 25.81900
H  47.17600 18.35300 32.34900
H  50.08500 17.93500 32.01600
H  50.11700 20.25600 31.77100
H  48.52800 19.88000 32.46600
H  48.58600 20.14300 30.69900
H  49.24300 16.39300 33.33600
H  47.67600 15.67800 32.77300
H  48.29000 16.34500 35.17700
H  46.67600 16.33800 34.58400
H  53.83200 18.48800 27.20700
H  53.16800 18.28500 28.75100
H  52.77500 19.82000 27.85500
H  54.34800 17.40300 25.16600
H  53.82500 19.15100 25.15300
H  54.16400 18.23700 23.62000
H  47.94400 15.02400 22.82500
H  45.23600 15.63900 23.39600
H  46.19800 16.79900 21.96900
H  47.81700 17.26500 21.63900
H  46.92400 17.88600 23.10300
H  45.59000 13.09000 24.60300
H  46.75600 13.17900 23.24100
H  44.17100 12.33900 22.91400
H  45.22700 12.92700 21.80700
H  44.13500 14.09400 22.38800
H  42.58100 13.11900 27.78600
H  41.88800 14.71400 27.38300
H  41.91600 14.13100 29.00200
H  45.37900 15.42200 32.53100
H  43.49800 17.91100 35.56700
H  42.40500 18.05700 34.23800
H  43.70800 19.21300 34.19500

