158

Mg 48.76000 36.30500 27.73000
C  46.60600 34.76800 30.11200
C  49.04700 38.87500 29.82600
C  50.35300 37.82900 25.22800
C  47.88200 33.67700 25.53100
N  48.21500 36.56500 29.93500
C  47.27500 35.83500 30.65100
C  47.15900 36.41300 32.10500
C  47.64500 37.96000 31.89200
C  48.34700 37.80200 30.44900
C  46.47800 39.01800 31.84000
C  48.00100 35.62100 33.12400
C  49.38400 36.13400 33.53400
H  49.47200 36.92100 34.88700
N  49.64300 38.03900 27.57600
C  49.66000 38.96000 28.52700
C  50.46200 40.06600 28.11800
C  50.88000 39.76800 26.79600
C  50.32400 38.46900 26.46500
C  50.96000 41.17000 29.03300
C  51.66800 40.68400 25.85200
O  52.08000 40.26900 24.78800
C  51.85100 42.15600 26.21500
N  48.83600 35.88700 25.56600
C  49.67000 36.67400 24.78600
C  50.15000 35.90400 23.52500
C  49.39000 34.50000 23.62500
C  48.64100 34.64400 24.99300
C  49.99800 36.65200 22.16400
C  50.18400 33.09600 23.65200
C  51.31700 32.94900 22.60600
N  47.65600 34.57600 27.79900
C  47.31100 33.60700 26.75100
C  46.46000 32.64400 27.30000
C  46.20200 33.02600 28.56300
C  46.90200 34.21300 28.83800
C  46.00000 31.38400 26.60400
C  45.39900 32.68300 29.78900
O  44.89700 31.67100 30.16400
C  45.53400 33.88100 30.75200
C  45.80100 33.42300 32.11700
O  46.69600 32.67600 32.48800
O  44.71700 33.71000 32.90900
C  44.71500 33.05800 34.22200
H  49.05100 39.78100 30.43600
H  50.99100 38.22800 24.43700
H  47.58200 32.87000 24.85900
H  46.09800 36.47700 32.34500
H  48.42800 38.30500 32.56800
H  46.10100 39.17600 32.85000
H  45.74200 38.66300 31.11900
H  46.85300 39.97100 31.46700
H  48.12700 34.65000 32.64400
H  47.46600 35.51100 34.06700
H  49.85400 36.75600 32.77200
H  49.99900 35.25500 33.72300
H  50.70500 40.91100 30.06000
H  50.54100 42.11700 28.69500
H  52.03500 41.35200 29.03200
H  52.01000 42.72600 25.29900
H  52.69500 42.30500 26.88900
H  50.89800 42.47600 26.63600
H  51.19600 35.74600 23.78800
H  48.71900 34.38200 22.77400
H  49.51400 37.61200 22.34400
H  49.62400 35.99100 21.38200
H  51.02700 36.80900 21.84000
H  49.51200 32.25300 23.49100
H  50.62200 32.98800 24.64400
H  52.30100 32.96400 23.07500
H  51.17600 33.76700 21.90000
H  51.11800 32.06800 21.99600
H  45.51600 30.73200 27.33200
H  46.80500 30.74900 26.23300
H  45.37000 31.68800 25.76900
H  44.61300 34.46400 30.77900
H  45.27100 33.74900 34.85500
H  45.10200 32.04000 34.24000
H  43.71100 33.15900 34.63400
Mg 17.47600 51.92100 25.94700
C  19.30800 50.71900 28.50800
C  15.05700 52.84000 28.13600
C  15.62300 52.92800 23.28900
C  20.00100 50.86100 23.74600
N  17.17700 51.63600 28.03100
C  18.08700 51.20600 28.92600
C  17.67300 51.41000 30.35900
C  16.20900 51.83500 30.17400
C  16.11300 52.17100 28.70700
C  15.28200 50.67400 30.41200
C  18.54300 52.48500 31.05000
C  18.95400 52.24000 32.57500
H  18.00100 51.48000 33.46800
N  15.55000 52.64600 25.71900
C  14.75300 53.10700 26.74200
C  13.63400 53.88100 26.21700
C  13.62300 53.62300 24.75800
C  14.96400 53.04000 24.52900
C  12.65000 54.57400 27.21300
C  12.68200 54.08300 23.69300
O  12.83700 53.80300 22.50400
C  11.47200 55.01500 24.08200
N  17.76300 51.78400 23.74800
C  16.90400 52.47500 22.92700
C  17.43300 52.39800 21.47900
C  18.83000 51.84300 21.60900
C  18.90700 51.43300 23.10400
C  16.61900 51.54800 20.40100
C  19.94100 52.90400 21.42800
C  21.37600 52.33400 21.06400
N  19.30400 50.92100 26.06400
C  20.19000 50.45300 25.10400
C  21.35300 49.80900 25.72500
C  21.03200 49.85900 27.10600
C  19.81300 50.55200 27.21700
C  22.45200 49.23600 24.93900
C  21.40800 49.45700 28.46200
O  22.38200 48.92300 28.82100
C  20.34200 50.06900 29.43800
C  19.83400 48.87800 30.32700
O  19.03200 48.09600 29.87600
O  20.35400 48.92600 31.48900
C  19.68700 48.00400 32.47200
H  14.47800 53.29100 28.94500
H  15.11300 53.41000 22.45200
H  20.77100 50.71600 22.98600
H  17.69100 50.47900 30.92500
H  15.89000 52.60500 30.87600
H  14.74900 50.83200 31.35000
H  15.78300 49.70700 30.45300
H  14.61900 50.57400 29.55300
H  18.09000 53.45600 30.85000
H  19.45100 52.61200 30.46000
H  18.89700 53.22500 33.03700
H  19.93700 51.80000 32.74600
H  12.10800 53.76000 27.69300
H  11.87700 55.26900 26.88500
H  13.26400 54.98900 28.01100
H  10.59900 54.48900 24.46900
H  11.08700 55.69700 23.32400
H  11.85500 55.66800 24.86700
H  17.35300 53.44200 21.17600
H  18.99600 50.89200 21.10300
H  17.16700 50.78500 19.84800
H  16.43500 52.22600 19.56800
H  15.75300 51.11600 20.90200
H  19.97300 53.45600 22.36800
H  19.58700 53.71400 20.79100
H  21.60700 52.87800 20.14900
H  21.54300 51.26300 20.94900
H  22.13000 52.59600 21.80700
H  22.81700 49.93800 24.19000
H  22.10300 48.39500 24.34000
H  23.12700 48.87700 25.71600
H  20.87900 50.80400 30.03900
H  20.47100 47.24800 32.51200
H  18.80800 47.38600 32.29200
H  19.61200 48.48300 33.44800

