158

Mg 23.75400 -3.90800 45.30100
C  25.84900 -1.38100 44.02200
C  21.29800 -2.91000 43.16300
C  22.43800 -6.92800 45.57200
C  26.73200 -5.22300 46.91100
N  23.66600 -2.35900 43.68400
C  24.62200 -1.45800 43.34900
C  24.17400 -0.58100 42.19700
C  22.56000 -0.75000 42.25100
C  22.49400 -2.15000 43.05100
C  21.61400 0.17100 43.10200
C  24.85600 -1.13400 40.91500
C  25.11600 -0.07700 39.89200
H  25.27000 -0.39000 38.37600
N  22.02300 -4.81300 44.55100
C  21.10100 -4.17300 43.74900
C  20.00100 -5.05400 43.49500
C  20.33800 -6.25900 44.21100
C  21.62200 -6.05300 44.84200
C  18.86400 -4.73800 42.60000
C  19.40900 -7.42400 44.20100
O  18.36900 -7.50600 43.55300
C  19.86200 -8.63100 44.95900
N  24.53800 -5.80700 46.12100
C  23.70900 -6.82500 46.07500
C  24.29000 -7.99400 46.88000
C  25.68100 -7.52300 47.33100
C  25.67500 -6.04800 46.79400
C  23.43600 -8.77300 48.03300
C  26.88500 -8.27900 46.77200
C  27.65900 -9.01200 47.88600
N  25.76500 -3.32400 45.65400
C  26.78000 -3.89000 46.41100
C  27.97200 -3.01500 46.31500
C  27.62600 -2.03500 45.42800
C  26.30200 -2.23900 44.98600
C  29.30500 -3.38300 47.01900
C  28.25500 -0.94100 44.71300
O  29.38400 -0.38200 44.79700
C  27.14300 -0.46200 43.71700
C  26.76400 0.92300 44.08100
O  25.99200 1.20700 44.98300
O  27.50900 1.82000 43.33000
C  27.31700 3.27000 43.47900
H  20.42300 -2.46000 42.68900
H  22.13500 -7.95900 45.77000
H  27.59300 -5.75200 47.32500
H  24.44800 0.43700 42.47200
H  22.21300 -1.07200 41.27000
H  20.76900 0.50900 42.50100
H  22.14200 1.08500 43.37400
H  21.36400 -0.28400 44.06000
H  24.16500 -1.87900 40.52000
H  25.82100 -1.53900 41.22200
H  26.00500 0.48900 40.17000
H  24.27600 0.61400 39.82100
H  19.07100 -5.06000 41.57900
H  18.69400 -3.66200 42.56700
H  17.90900 -5.09600 42.98600
H  19.22600 -9.51600 44.96900
H  19.89400 -8.35100 46.01200
H  20.83800 -8.94000 44.58500
H  24.48800 -8.76400 46.13400
H  25.71200 -7.50300 48.42100
H  22.63100 -8.06500 48.22800
H  23.93100 -8.88700 48.99800
H  23.09300 -9.74900 47.69100
H  27.57500 -7.62500 46.23800
H  26.65300 -9.06400 46.05200
H  27.40700 -10.03900 47.61900
H  27.43000 -8.61700 48.87600
H  28.73200 -8.84600 47.79200
H  29.26700 -4.43200 47.31400
H  29.55800 -2.83100 47.92400
H  30.10700 -3.27800 46.28800
H  27.55100 -0.53200 42.70900
H  26.51600 3.47400 44.19000
H  27.20900 3.75700 42.51000
H  28.13100 3.75400 44.02000
Mg 49.30800 35.37300 28.34600
C  47.32900 34.01300 30.82400
C  49.68400 38.21100 30.22500
C  50.80300 36.91200 25.61400
C  48.60000 32.60100 26.27500
N  48.46100 36.06100 30.26700
C  47.83600 35.24800 31.17000
C  47.91300 35.92800 32.64600
C  48.33100 37.39800 32.29800
C  48.93300 37.23500 30.87800
C  47.17600 38.40400 32.30200
C  48.89900 35.15200 33.52100
C  49.82300 35.83600 34.60100
H  49.14500 36.39600 35.87800
N  50.14200 37.28700 27.97800
C  50.24600 38.25900 28.94500
C  50.80100 39.47800 28.35600
C  51.21900 39.18400 26.99500
C  50.72600 37.75200 26.80100
C  51.00400 40.74200 29.13100
C  51.89200 39.95900 25.89200
O  52.24800 39.46500 24.85100
C  52.27500 41.40700 26.10600
N  49.55500 34.85600 26.29500
C  50.37400 35.61900 25.42500
C  50.73500 34.80100 24.19100
C  50.34100 33.34200 24.51400
C  49.42000 33.61900 25.74700
C  50.02100 35.41500 22.92300
C  51.51000 32.28100 24.79400
C  51.55600 31.17800 23.70800
N  48.29800 33.63200 28.52100
C  48.07600 32.59000 27.61600
C  47.43600 31.51200 28.22500
C  46.97100 32.07000 29.47400
C  47.55800 33.37300 29.60300
C  47.13900 30.15300 27.64700
C  46.23400 31.77600 30.62800
O  45.62800 30.78400 30.93300
C  46.32500 33.05000 31.49000
C  46.71300 32.53900 32.83100
O  47.75900 32.08100 33.16800
O  45.69200 32.91400 33.66800
C  46.05600 32.88900 35.10400
H  49.95500 39.01700 30.90900
H  51.24100 37.32700 24.70400
H  48.57100 31.69100 25.67200
H  46.94000 35.85900 33.13400
H  49.13000 37.74300 32.95400
H  46.80900 38.31100 33.32400
H  46.45000 38.19800 31.51500
H  47.56900 39.40400 32.12200
H  49.49200 34.57400 32.81300
H  48.41300 34.48500 34.23400
H  50.31600 36.65900 34.08300
H  50.64600 35.18600 34.90100
H  51.02000 40.53700 30.20200
H  50.23700 41.45900 28.83600
H  51.95500 41.23300 28.92400
H  52.43500 41.96200 25.18100
H  53.00400 41.64900 26.87900
H  51.31100 41.81600 26.40600
H  51.82400 34.82100 24.18000
H  49.72800 33.06900 23.65500
H  49.67100 36.40800 23.20800
H  49.23900 34.82400 22.44700
H  50.74300 35.65500 22.14300
H  51.50800 31.99100 25.84500
H  52.48000 32.76900 24.69900
H  50.62800 31.06100 23.14900
H  51.64500 30.18600 24.15200
H  52.38700 31.37500 23.03000
H  47.90700 29.47800 28.02300
H  47.20600 30.15800 26.55900
H  46.13900 29.91800 28.01100
H  45.29000 33.38200 31.56800
H  47.03500 33.35300 35.22100
H  45.92900 31.85800 35.43500
H  45.38300 33.52400 35.67900

