158

Mg 45.51200 4.32700 47.47300
C  43.23900 6.98700 47.01600
C  42.84900 2.09800 47.10300
C  47.82100 1.81700 47.49600
C  48.10400 6.70500 47.41100
N  43.28100 4.54500 47.22200
C  42.59100 5.69700 46.97400
C  41.09100 5.48500 46.65100
C  40.91700 3.93300 46.81200
C  42.44500 3.45600 47.13200
C  39.81700 3.56200 47.94300
C  40.72100 5.94000 45.20700
C  39.29800 6.48200 45.15200
H  38.45200 6.13800 43.97000
N  45.33700 2.19600 47.19200
C  44.17800 1.44300 47.19500
C  44.52700 0.12900 47.07100
C  45.95100 0.04200 47.18700
C  46.51200 1.36800 47.30900
C  43.48000 -0.93700 46.86200
C  46.69500 -1.29800 47.10400
O  46.09000 -2.32700 46.79800
C  48.20000 -1.33300 47.18000
N  47.64900 4.25700 47.34600
C  48.33100 3.11800 47.52300
C  49.83300 3.31800 47.74100
C  49.92300 4.86500 47.61700
C  48.44700 5.30600 47.39800
C  50.28600 2.76200 49.07500
C  51.00600 5.37000 46.55600
C  52.37600 5.83800 47.06300
N  45.74200 6.44500 47.22800
C  46.83400 7.25400 47.30200
C  46.46500 8.64700 47.21900
C  45.07400 8.58100 47.05700
C  44.61800 7.22200 47.12500
C  47.36100 9.91500 47.31500
C  43.91900 9.42300 47.00000
O  43.81500 10.61700 46.96400
C  42.64600 8.42600 46.86500
C  41.62700 8.72700 47.89300
O  41.45000 8.07900 48.91200
O  40.93500 9.86500 47.61100
C  40.54100 10.59000 48.86100
H  42.08900 1.37800 46.79300
H  48.67000 1.13100 47.47800
H  48.93600 7.40900 47.46900
H  40.43400 5.96300 47.37700
H  40.56900 3.53000 45.86100
H  39.30500 2.68100 47.55600
H  39.00800 4.28600 48.03800
H  40.19200 3.19600 48.89900
H  40.89500 5.07500 44.56700
H  41.49600 6.67600 44.99200
H  39.34200 7.57100 45.18400
H  38.78000 6.31200 46.09600
H  43.73800 -1.55500 46.00100
H  42.45800 -0.60600 46.67800
H  43.53700 -1.62000 47.71000
H  48.55000 -2.35900 47.06300
H  48.54300 -1.11400 48.19100
H  48.66000 -0.78700 46.35700
H  50.30900 2.82900 46.89100
H  50.16000 5.19200 48.62900
H  49.48400 2.29600 49.64800
H  50.85000 3.45800 49.69500
H  51.06100 2.01100 48.91600
H  50.64700 6.20300 45.95100
H  51.16300 4.63400 45.76800
H  53.13800 5.25100 46.55100
H  52.39500 5.75300 48.14900
H  52.46400 6.90300 46.84800
H  47.02100 10.56900 48.11800
H  47.29800 10.49700 46.39600
H  48.41600 9.64300 47.32400
H  42.15800 8.70800 45.93300
H  41.42500 10.52900 49.49600
H  39.57200 10.28800 49.26000
H  40.55800 11.65000 48.60900
Mg 35.44300 49.75600 25.65400
C  36.03300 47.87100 28.51600
C  34.27500 52.25800 27.82600
C  34.46700 51.52300 23.16900
C  36.24200 46.87000 23.64200
N  35.16800 49.99100 27.95200
C  35.54300 49.13200 28.92400
C  35.41300 49.68400 30.37300
C  34.61300 51.08700 30.11100
C  34.65700 51.08500 28.52800
C  33.16800 51.04000 30.64800
C  36.73200 49.91500 31.08700
C  36.90100 49.11500 32.43800
H  36.72800 49.92700 33.68500
N  34.71200 51.71300 25.50000
C  34.35100 52.59400 26.44900
C  34.03400 53.87800 25.83600
C  33.94500 53.67700 24.46300
C  34.33000 52.21100 24.33600
C  33.79700 55.12300 26.66800
C  33.59700 54.65300 23.33200
O  33.42000 54.24300 22.19900
C  33.55600 56.16600 23.57000
N  35.41000 49.26500 23.74300
C  34.88000 50.21500 22.89500
C  34.77400 49.62800 21.41800
C  35.47600 48.20600 21.59000
C  35.67700 48.04200 23.10800
C  33.35600 49.54900 20.82900
C  36.88100 48.03400 20.84000
C  37.48600 46.56700 20.54500
N  36.05100 47.79300 25.94600
C  36.40100 46.75700 25.05500
C  36.83900 45.56600 25.86100
C  36.74500 45.97700 27.17800
C  36.35100 47.34100 27.20900
C  37.38100 44.33800 25.19000
C  37.01500 45.58900 28.54600
O  37.44100 44.46900 28.93100
C  36.58000 46.81200 29.45500
C  35.54700 46.34700 30.45000
O  34.31800 46.44100 30.32100
O  36.10000 45.85500 31.54300
C  35.22500 45.55200 32.68500
H  33.94700 53.06300 28.48700
H  34.20100 52.06300 22.25800
H  36.60800 46.06700 23.00000
H  34.77100 49.03900 30.97300
H  35.12000 51.98800 30.45700
H  32.82400 51.78500 31.36600
H  32.79100 50.12500 31.10500
H  32.61000 51.17600 29.72200
H  36.63900 50.94000 31.44600
H  37.64600 49.70800 30.53100
H  37.89300 48.66400 32.41900
H  36.16000 48.31500 32.43400
H  34.42500 55.93000 26.29100
H  34.10100 55.06500 27.71300
H  32.75400 55.33500 26.43200
H  34.37900 56.43100 24.23300
H  32.57500 56.31400 24.02200
H  33.51400 56.65000 22.59400
H  35.37900 50.21900 20.73100
H  34.75300 47.42000 21.37000
H  33.45500 49.95800 19.82300
H  32.72300 50.26200 21.35700
H  32.88600 48.56600 20.86900
H  37.56900 48.40400 21.60100
H  36.92700 48.70600 19.98400
H  37.98700 46.48000 19.58100
H  36.58500 45.95300 20.55000
H  38.29200 46.34100 21.24200
H  38.47100 44.32100 25.18800
H  36.86400 44.27600 24.23300
H  37.19000 43.51800 25.88300
H  37.43800 47.19100 30.01000
H  35.66700 45.96300 33.59300
H  35.06300 44.53500 33.04000
H  34.23400 46.00100 32.75300

