158

Mg 1.93400 -1.21100 44.99200
C  5.30300 -0.39600 44.48300
C  1.08200 1.32300 42.61700
C  -1.15500 -2.44800 44.66800
C  2.97500 -4.08500 46.72200
N  3.13300 0.17200 43.60000
C  4.48500 0.37900 43.67800
C  4.86100 1.48700 42.72000
C  3.49600 2.11200 42.27700
C  2.44200 1.19700 42.88800
C  3.15100 3.50900 42.93000
C  5.70700 0.92200 41.44600
C  7.11100 1.56600 41.45500
H  7.58900 2.24300 40.19300
N  0.16200 -0.56900 43.94700
C  0.07400 0.46700 43.04200
C  -1.37500 0.63700 42.72100
C  -2.07800 -0.49100 43.29400
C  -0.97700 -1.21000 44.01500
C  -1.98200 1.69500 41.85300
C  -3.56800 -0.72400 43.12300
O  -4.15500 -0.15900 42.22100
C  -4.38900 -1.68200 43.96800
N  1.04400 -2.98400 45.61200
C  -0.29300 -3.23600 45.43800
C  -0.67300 -4.65800 46.05800
C  0.69000 -5.11500 46.73100
C  1.60800 -4.00200 46.37200
C  -1.93100 -4.67800 47.02900
C  1.20300 -6.49400 46.13900
C  2.03800 -7.31600 47.18600
N  3.72200 -2.09000 45.62700
C  4.01300 -3.22600 46.35600
C  5.43800 -3.24000 46.57600
C  5.99500 -2.14000 45.89900
C  4.89700 -1.49700 45.26700
C  6.18600 -4.26100 47.23600
C  7.24200 -1.43300 45.58200
O  8.43900 -1.56600 45.92800
C  6.78200 -0.28600 44.62400
C  7.25600 1.03600 45.16300
O  6.75900 1.55100 46.14200
O  8.30900 1.54100 44.38400
C  8.46000 3.00100 44.54500
H  0.74100 2.07300 41.90000
H  -2.17000 -2.83400 44.55900
H  3.27800 -4.90800 47.37200
H  5.49200 2.08600 43.37700
H  3.33600 1.97300 41.20800
H  3.10400 4.19800 42.08700
H  3.87800 3.90100 43.64100
H  2.23800 3.67900 43.49900
H  5.20200 1.25200 40.53800
H  5.85700 -0.15100 41.56100
H  7.92700 0.93500 41.81000
H  7.16900 2.38900 42.16700
H  -2.25300 1.35000 40.85500
H  -1.25200 2.47700 41.64400
H  -2.91100 2.11000 42.24200
H  -5.37600 -1.24600 44.12000
H  -3.90300 -1.86100 44.92700
H  -4.42800 -2.60600 43.39000
H  -0.89300 -5.34000 45.23700
H  0.64400 -5.18700 47.81800
H  -1.65100 -5.08900 48.00000
H  -2.82100 -5.16600 46.63300
H  -2.10300 -3.61600 47.20000
H  1.80600 -6.35000 45.24200
H  0.38400 -7.17000 45.89500
H  1.29500 -8.08400 47.40500
H  2.24300 -6.74700 48.09200
H  2.95600 -7.81800 46.88100
H  7.21800 -3.96000 47.41500
H  6.15500 -5.23900 46.75500
H  5.74400 -4.60300 48.17200
H  7.24200 -0.43200 43.64700
H  9.18000 3.13000 45.35400
H  7.56200 3.54200 44.84700
H  8.80400 3.48000 43.62900
Mg 26.67000 50.45600 27.04300
C  24.52900 51.22600 29.73400
C  28.95600 49.57800 29.34300
C  28.73000 49.89200 24.53900
C  24.20000 51.68900 24.87800
N  26.67300 50.30700 29.35300
C  25.67200 50.62900 30.19400
C  26.05000 50.17800 31.62600
C  27.51100 49.76400 31.48500
C  27.77300 49.96900 29.99100
C  28.64200 50.48500 32.27900
C  25.03200 49.19500 32.34400
C  24.17200 49.74100 33.44400
H  24.36300 49.19300 34.85300
N  28.59900 49.94300 26.95200
C  29.35600 49.53000 28.00800
C  30.67800 49.06500 27.50700
C  30.67300 49.33800 26.10600
C  29.33200 49.79900 25.79400
C  31.66100 48.43700 28.39300
C  31.80700 48.97300 25.20200
O  31.69600 49.05300 23.94100
C  33.01300 48.40800 25.68500
N  26.39700 50.62400 25.05700
C  27.41600 50.22400 24.14800
C  26.84200 50.25900 22.69600
C  25.41000 50.81300 22.86000
C  25.30700 51.06700 24.32800
C  27.59000 50.95400 21.57100
C  24.26600 49.89900 22.26300
C  23.84100 50.47300 20.88000
N  24.79300 51.40600 27.25900
C  23.92000 51.90800 26.26400
C  22.68000 52.24900 26.85900
C  22.89500 52.06100 28.26000
C  24.18900 51.57500 28.41200
C  21.45500 52.61700 26.15800
C  22.24900 52.18500 29.51800
O  21.11700 52.60800 29.84100
C  23.32100 51.65500 30.55500
C  23.66900 52.79900 31.43400
O  24.30800 53.78200 31.07100
O  23.08500 52.68300 32.59900
C  23.26000 53.77300 33.60200
H  29.63500 49.34300 30.16500
H  29.33200 49.65600 23.65900
H  23.43900 52.03400 24.17600
H  26.10700 51.17800 32.05700
H  27.52900 48.68600 31.64700
H  29.25600 49.68400 32.69100
H  28.22000 51.12700 33.05100
H  29.23700 51.11500 31.61700
H  25.67100 48.40500 32.74000
H  24.39700 48.81700 31.54300
H  23.11100 49.57100 33.26100
H  24.40400 50.80600 33.46300
H  32.49900 49.11300 28.56300
H  32.03800 47.48000 28.03000
H  31.25600 48.04700 29.32700
H  33.74300 48.39600 24.87600
H  32.71900 47.43200 26.07000
H  33.31600 49.11700 26.45700
H  26.90400 49.17700 22.57800
H  25.36500 51.79700 22.39400
H  28.56000 51.40000 21.79300
H  26.95900 51.64800 21.01500
H  27.72600 50.05900 20.96400
H  23.47700 49.89200 23.01600
H  24.55500 48.86200 22.09400
H  24.23400 51.48300 20.76200
H  22.75300 50.53500 20.85000
H  24.18400 49.78200 20.11000
H  21.46500 52.20900 25.14700
H  21.36200 53.69700 26.05200
H  20.69900 52.17800 26.81000
H  22.83900 50.80600 31.03900
H  23.97300 54.55900 33.35300
H  23.72000 53.09500 34.32100
H  22.38300 54.34300 33.91000

