158

Mg -9.53800 38.33400 41.00600
C  -8.26700 35.08900 40.76100
C  -6.51400 39.44700 39.78600
C  -10.89700 41.48500 40.51600
C  -12.71400 37.09800 41.68400
N  -7.60800 37.36000 40.43300
C  -7.24800 36.01000 40.48700
C  -5.83100 35.77800 40.19800
C  -5.20800 37.26100 40.30600
C  -6.48900 38.09300 40.10800
C  -4.44200 37.67200 41.68000
C  -5.79800 34.93100 38.83100
C  -5.89700 35.78000 37.57500
H  -7.08800 35.53900 36.56700
N  -8.84500 40.20700 40.28400
C  -7.54700 40.45900 39.88400
C  -7.39200 41.82900 39.43000
C  -8.58600 42.51700 39.74200
C  -9.52000 41.40100 40.19100
C  -6.10000 42.40300 38.95600
C  -8.69700 43.94900 39.57000
O  -7.75000 44.56600 39.13100
C  -9.98800 44.73300 39.83200
N  -11.57000 39.16100 41.02800
C  -11.83600 40.51700 40.89000
C  -13.34700 40.78100 41.17000
C  -13.88000 39.35000 41.54800
C  -12.65600 38.50500 41.50700
C  -13.41100 41.86300 42.25200
C  -15.12100 38.88300 40.69800
C  -16.46900 39.07400 41.40300
N  -10.39100 36.49000 41.26600
C  -11.65100 36.15900 41.63800
C  -11.72400 34.73800 41.98400
C  -10.43400 34.26300 41.57300
C  -9.62100 35.39600 41.13900
C  -12.88700 33.97700 42.48500
C  -9.59100 33.18200 41.55700
O  -9.75400 31.98600 41.83300
C  -8.27000 33.62200 40.87000
C  -7.05600 32.91800 41.33000
O  -6.18600 32.45300 40.62200
O  -7.02800 32.83500 42.71900
C  -5.81500 32.26800 43.29800
H  -5.60400 39.85900 39.34300
H  -11.32900 42.48700 40.46900
H  -13.68900 36.72200 42.00000
H  -5.29000 35.23400 40.97200
H  -4.51100 37.39100 39.47800
H  -3.39700 37.92200 41.49900
H  -4.55100 36.92600 42.46800
H  -4.93200 38.57700 42.03900
H  -6.63400 34.23400 38.76900
H  -4.82800 34.43700 38.88100
H  -4.99000 35.60100 36.99800
H  -5.95000 36.84700 37.78900
H  -6.30600 42.96100 38.04300
H  -5.34500 41.66600 38.67900
H  -5.55500 43.08200 39.61200
H  -9.71200 45.77500 39.99400
H  -10.60500 44.31600 40.62800
H  -10.62400 44.75100 38.94700
H  -13.70800 40.94000 40.15400
H  -14.08400 39.35000 42.61800
H  -13.74200 42.73600 41.69000
H  -12.47500 42.23700 42.66800
H  -14.07800 41.55300 43.05600
H  -15.04900 37.81600 40.48400
H  -15.12300 39.42500 39.75300
H  -16.54200 39.75800 42.24900
H  -16.71900 38.09800 41.81700
H  -17.15200 39.30800 40.58600
H  -12.54200 33.57700 43.43900
H  -13.17000 33.20100 41.77300
H  -13.68100 34.71700 42.58100
H  -8.29400 33.21300 39.86000
H  -5.65900 31.22700 43.01500
H  -5.89200 32.26700 44.38600
H  -4.94600 32.86000 43.01200
Mg -10.31900 16.90100 41.65900
C  -6.90600 16.08200 41.40500
C  -9.65200 20.09200 41.13500
C  -13.61900 17.27500 40.99100
C  -11.01200 13.24200 41.58400
N  -8.44600 17.98100 41.45500
C  -7.19500 17.47600 41.33300
C  -6.20800 18.72500 41.03800
C  -7.15500 19.91200 41.65400
C  -8.50900 19.33700 41.46900
C  -6.96800 20.47500 43.09500
C  -5.99700 18.91000 39.51200
C  -4.52100 18.60600 38.98300
H  -4.38400 17.71900 37.74400
N  -11.46700 18.48100 41.11900
C  -10.98800 19.73500 40.91700
C  -11.99200 20.48600 40.43200
C  -13.23100 19.73500 40.39900
C  -12.85500 18.41900 40.84900
C  -11.87900 21.92600 40.14700
C  -14.64100 20.23900 40.00900
O  -14.76900 21.47400 39.88000
C  -15.97000 19.37800 39.96000
N  -12.06800 15.40000 41.48300
C  -13.25700 15.90600 41.22100
C  -14.33200 14.83000 41.35800
C  -13.55400 13.47000 41.28800
C  -12.12900 14.01500 41.43900
C  -15.25300 14.93600 42.60500
C  -13.77700 12.61000 40.04800
C  -13.82500 11.10500 40.24300
N  -9.26900 15.07000 41.74400
C  -9.67400 13.73200 41.68200
C  -8.49200 12.90100 41.79500
C  -7.39400 13.78400 41.64900
C  -7.91800 15.07000 41.59400
C  -8.50700 11.40100 42.01800
C  -5.91900 13.78900 41.51600
O  -5.07700 12.93300 41.55100
C  -5.60200 15.39400 41.39500
C  -4.69400 15.66900 42.47500
O  -3.47000 15.44600 42.33600
O  -5.24800 16.35300 43.55200
C  -4.38200 17.02700 44.49900
H  -9.52200 21.17000 41.02100
H  -14.69900 17.43300 40.95200
H  -11.17200 12.17600 41.41100
H  -5.31700 18.63100 41.66000
H  -6.90200 20.74000 40.99200
H  -5.94900 20.36300 43.46500
H  -7.61700 19.93200 43.78200
H  -7.31100 21.50600 43.00600
H  -6.10900 19.95600 39.22800
H  -6.64000 18.32800 38.85200
H  -3.86700 18.25700 39.78200
H  -4.08100 19.56400 38.70700
H  -12.70300 22.49600 40.57700
H  -11.98000 22.00500 39.06500
H  -11.01800 22.50800 40.47700
H  -15.82300 18.76900 39.06700
H  -16.86700 19.96400 39.76200
H  -16.30000 18.92400 40.89400
H  -14.97500 14.87400 40.47900
H  -13.77900 12.87000 42.16900
H  -14.65100 14.76900 43.49800
H  -15.93300 14.08500 42.59100
H  -15.80700 15.84900 42.82500
H  -12.99300 12.77400 39.30900
H  -14.66900 12.89200 39.48800
H  -13.12400 10.60500 39.57400
H  -14.84800 10.77300 40.06600
H  -13.53500 10.77500 41.24000
H  -9.45800 10.93700 42.28000
H  -7.73000 11.10300 42.72100
H  -8.16900 10.98700 41.06800
H  -4.95400 15.50700 40.52600
H  -4.70600 16.78600 45.51100
H  -4.44700 18.09600 44.29400
H  -3.30900 16.83800 44.48500

