158

Mg 26.12300 0.88000 29.26300
C  28.06200 0.00300 32.10700
C  23.36900 1.11400 31.11800
C  24.31500 0.97200 26.30100
C  28.95000 -0.05800 27.31000
N  25.83000 0.64100 31.32400
C  26.76800 0.42900 32.35500
C  26.18600 0.59200 33.73900
C  24.71100 0.82100 33.41700
C  24.60000 0.82500 31.85000
C  23.70200 -0.14400 34.15000
C  26.85400 1.75300 34.57300
C  26.06200 2.25200 35.83700
H  26.91900 2.52000 37.11700
N  24.09000 1.02500 28.76500
C  23.08800 1.14900 29.69700
C  21.83400 1.30600 28.95600
C  22.15100 1.42100 27.55300
C  23.57700 1.10400 27.45900
C  20.50500 1.38000 29.50900
C  21.23800 1.75700 26.43300
O  21.70700 1.86400 25.28100
C  19.89700 2.14800 26.63900
N  26.56000 0.57900 27.17300
C  25.66500 0.81800 26.15900
C  26.26200 0.67900 24.77000
C  27.74400 0.56600 25.08400
C  27.81100 0.39700 26.64500
C  25.76900 -0.54200 24.04300
C  28.48800 1.93900 24.69400
C  27.95500 3.18200 25.48800
N  28.11200 0.19100 29.59400
C  29.15300 -0.12900 28.68300
C  30.33500 -0.54400 29.39200
C  29.93700 -0.54400 30.74200
C  28.61800 -0.10700 30.81800
C  31.60500 -0.91500 28.73500
C  30.37300 -0.78800 32.13100
O  31.43900 -1.13300 32.57200
C  29.16900 -0.30500 33.02000
C  28.93400 -1.46700 33.96600
O  28.46000 -2.61000 33.66600
O  29.25700 -1.08300 35.24000
C  29.20300 -2.15900 36.22800
H  22.49800 1.46800 31.67400
H  23.83700 1.09400 25.32600
H  29.81000 -0.39200 26.72600
H  26.51500 -0.36100 34.15300
H  24.36900 1.83700 33.61700
H  23.09200 -0.76500 33.49400
H  23.07900 0.53800 34.72800
H  24.23600 -0.82800 34.81000
H  26.87100 2.61400 33.90500
H  27.89000 1.50800 34.80800
H  25.18300 1.64600 36.05300
H  25.54100 3.15300 35.51300
H  20.03700 2.36200 29.58600
H  20.58100 1.00600 30.53000
H  19.86600 0.76800 28.87300
H  19.89900 2.85900 27.46500
H  19.39700 1.21800 26.91100
H  19.41400 2.53500 25.74200
H  25.90200 1.54400 24.21200
H  28.18300 -0.33200 24.65000
H  24.71600 -0.31900 23.87200
H  25.80800 -1.51000 24.54100
H  26.22900 -0.58000 23.05500
H  28.60000 2.13100 23.62700
H  29.52100 1.80700 25.01500
H  27.46000 2.87000 26.40700
H  27.24000 3.70400 24.85100
H  28.85500 3.74200 25.73900
H  32.22800 -0.02100 28.74800
H  31.47100 -1.15800 27.68100
H  31.95900 -1.71200 29.38900
H  29.54600 0.41400 33.74700
H  28.23900 -2.13800 36.73600
H  29.88600 -1.79000 36.99400
H  29.36700 -3.17100 35.85900
Mg 47.62200 16.47000 28.73600
C  45.88300 15.74800 31.73000
C  49.91900 18.21600 30.57900
C  49.31700 16.98700 25.96500
C  44.98400 14.79200 27.00500
N  47.80700 16.92500 30.86600
C  47.04100 16.50600 31.89500
C  47.67800 16.83400 33.23300
C  48.63800 18.09700 32.81400
C  48.80500 17.71500 31.29300
C  47.86400 19.48200 33.01800
C  48.36000 15.64500 33.96400
C  48.28000 15.74200 35.51900
H  47.90300 17.16700 36.20900
N  49.43500 17.25800 28.36200
C  50.28900 17.96800 29.20900
C  51.52000 18.32600 28.47400
C  51.23100 18.10800 27.15900
C  49.93500 17.46000 27.12600
C  52.81800 18.97700 29.18500
C  52.12600 18.53700 25.95900
O  51.89600 18.31100 24.79100
C  53.39700 19.37200 26.14800
N  47.08100 16.13900 26.74600
C  48.01200 16.40400 25.77200
C  47.54600 15.82800 24.46800
C  46.34200 14.96000 24.76900
C  46.10900 15.26700 26.26800
C  47.28000 16.96800 23.38500
C  46.55700 13.55700 24.35400
C  45.32500 12.69400 24.19800
N  45.71300 15.52300 29.24600
C  44.81300 14.85900 28.47000
C  43.77100 14.25700 29.26600
C  44.19600 14.54900 30.58200
C  45.31100 15.32400 30.50200
C  42.53100 13.69200 28.82900
C  43.90500 14.34600 31.97400
O  43.14100 13.63100 32.54100
C  44.94300 15.19100 32.75500
C  44.22300 16.33500 33.47600
O  44.13300 17.48900 33.14300
O  43.80600 15.85900 34.67400
C  43.29400 16.81400 35.66400
H  50.66500 18.70700 31.20700
H  49.70100 17.17600 24.96000
H  44.35400 14.17200 26.36300
H  46.84400 17.07000 33.89300
H  49.60600 18.18000 33.30800
H  47.91900 19.95600 33.99800
H  46.81800 19.25400 32.81300
H  48.14900 20.22900 32.27700
H  49.41800 15.64500 33.70300
H  47.81800 14.75200 33.65400
H  49.27400 15.48800 35.88600
H  47.69800 14.90000 35.89400
H  53.68500 18.31900 29.12200
H  52.57200 18.88800 30.24300
H  52.93800 20.03400 28.94500
H  53.24900 20.27300 26.74400
H  53.77300 19.74300 25.19500
H  54.17900 18.79900 26.64600
H  48.31800 15.23100 23.98200
H  45.52000 15.32900 24.15400
H  47.55800 17.99400 23.62600
H  46.22800 16.99900 23.10100
H  47.84400 16.76400 22.47500
H  47.16800 13.05800 25.10600
H  47.18400 13.42900 23.47200
H  45.46800 11.82000 24.83300
H  45.23700 12.48800 23.13100
H  44.40100 13.15600 24.54500
H  42.71200 12.64200 28.60100
H  42.15400 14.24000 27.96500
H  41.78900 13.88200 29.60400
H  45.42300 14.48500 33.43300
H  42.25600 16.61200 35.93000
H  43.42200 17.87600 35.45400
H  43.82500 16.68600 36.60700

