158

Mg 41.41500 8.81100 30.33800
C  43.25600 10.01700 32.92500
C  39.01300 7.69400 32.54800
C  39.82800 7.27700 27.79900
C  44.21300 9.43600 28.22300
N  41.32100 8.61000 32.50200
C  42.05600 9.41500 33.31900
C  41.34200 9.72900 34.62200
C  40.11900 8.70800 34.59900
C  40.16200 8.30000 33.10000
C  40.24300 7.50200 35.54200
C  40.98900 11.20800 34.72200
C  40.31100 11.59300 35.98700
H  41.02600 12.03000 37.31500
N  39.57900 7.85500 30.14600
C  38.78800 7.44900 31.18800
C  37.64500 6.76500 30.61600
C  37.71400 6.85700 29.22900
C  39.05600 7.32200 28.99500
C  36.53700 6.28000 31.57000
C  36.70700 6.37500 28.18100
O  36.92500 6.29900 26.97000
C  35.32500 5.96900 28.70600
N  41.97200 8.37300 28.30200
C  41.10200 7.68600 27.50000
C  41.85600 7.60400 26.08700
C  43.08600 8.47800 26.25700
C  43.09600 8.79200 27.67300
C  42.19900 6.11500 25.79700
C  43.20900 9.58700 25.20200
C  42.50500 10.95500 25.41700
N  43.41500 9.57700 30.48500
C  44.44400 9.87800 29.58200
C  45.47300 10.58500 30.25100
C  45.11500 10.64000 31.62300
C  43.85200 9.97400 31.70200
C  46.75300 11.09200 29.56700
C  45.49300 11.07400 32.89100
O  46.45400 11.66200 33.38900
C  44.32500 10.67000 33.82700
C  44.76300 9.52900 34.76400
O  44.49900 8.30800 34.68900
O  45.57700 10.14600 35.66900
C  45.78700 9.19400 36.74000
H  38.30900 7.55800 33.37200
H  39.32600 6.79900 26.95500
H  45.10600 9.82300 27.72900
H  42.08200 9.52900 35.39700
H  39.11600 9.08200 34.80500
H  39.60800 7.57700 36.42500
H  41.29100 7.38200 35.81700
H  39.82100 6.61700 35.06600
H  40.43700 11.47500 33.82100
H  41.86700 11.85200 34.66700
H  39.76600 10.69500 36.27700
H  39.46300 12.24500 35.77400
H  36.07100 7.22300 31.85700
H  36.95100 5.84200 32.47800
H  35.87000 5.55600 31.10100
H  34.63600 5.95800 27.86200
H  35.00500 6.76000 29.38400
H  35.40000 4.98800 29.17400
H  41.29500 7.99100 25.23700
H  44.00200 7.88700 26.27500
H  41.89800 6.06300 24.75100
H  41.84700 5.44900 26.58500
H  43.26900 5.92600 25.70700
H  42.93100 9.33900 24.17800
H  44.26700 9.84400 25.15400
H  43.22700 11.76600 25.32200
H  42.03400 10.96100 26.40000
H  41.74200 11.12300 24.65600
H  46.56800 11.22000 28.50100
H  47.58400 10.39000 29.63200
H  47.06300 12.08900 29.88300
H  43.93200 11.56000 34.31700
H  44.92300 8.91100 37.34000
H  46.50700 9.68900 37.39300
H  46.25300 8.30700 36.31100
Mg 48.47600 15.64700 29.34700
C  46.32800 15.29300 32.13700
C  50.61100 17.37600 31.33300
C  50.33500 15.99900 26.63700
C  45.77700 14.38200 27.29700
N  48.53300 16.12800 31.43100
C  47.60500 15.83900 32.43100
C  48.04400 16.19300 33.84600
C  49.29700 17.10800 33.58600
C  49.49500 16.94700 32.04500
C  49.15700 18.59700 33.95500
C  48.34900 14.89800 34.52800
C  48.04700 14.93100 36.05700
H  47.85200 16.22500 36.83000
N  50.28100 16.45500 29.04300
C  51.06400 17.10500 30.03700
C  52.27200 17.46600 29.44500
C  52.30200 16.98400 28.08200
C  50.92300 16.43600 27.85200
C  53.44300 18.08100 30.19500
C  53.44400 17.00100 27.01200
O  53.26400 16.55700 25.85900
C  54.79100 17.48800 27.45200
N  48.11600 15.19700 27.28100
C  49.10900 15.37100 26.41400
C  48.59600 14.87400 25.00000
C  47.25900 14.16100 25.29000
C  47.00300 14.60900 26.71200
C  48.48100 16.10400 24.06000
C  47.22500 12.62500 25.12400
C  46.41600 12.12200 23.95900
N  46.46700 15.04100 29.59600
C  45.48000 14.66600 28.67900
C  44.24000 14.30500 29.35000
C  44.59200 14.48800 30.71800
C  45.93700 14.97200 30.78800
C  43.01500 13.70000 28.73100
C  44.04800 14.50400 32.03200
O  42.93100 14.26600 32.44900
C  45.19600 14.92000 33.03200
C  44.60900 16.11300 33.76500
O  44.51500 17.24400 33.22600
O  44.13300 15.87000 35.03200
C  43.57200 16.95500 35.78900
H  51.23900 18.01800 31.95400
H  50.95800 16.16900 25.75700
H  44.91000 14.08000 26.70600
H  47.23100 16.78900 34.26200
H  50.08400 16.57900 34.12300
H  48.16200 18.79800 34.35300
H  49.32100 19.25800 33.10400
H  49.87800 18.84900 34.73300
H  49.35200 14.52600 34.31800
H  47.65900 14.12100 34.19900
H  48.89700 14.40800 36.49600
H  47.19600 14.28500 36.27200
H  53.78000 18.97200 29.66300
H  54.24400 17.35300 30.07000
H  53.37300 18.27100 31.26600
H  55.23700 16.76700 28.13800
H  54.76700 18.54500 27.71600
H  55.38300 17.45000 26.53700
H  49.21800 14.08200 24.58400
H  46.51600 14.48900 24.56300
H  49.09400 16.93600 24.40800
H  47.49300 16.55500 23.97100
H  48.81600 15.80000 23.06800
H  46.84300 12.22700 26.06400
H  48.24800 12.25800 25.04000
H  46.92900 11.41400 23.30900
H  45.95800 12.92900 23.38700
H  45.52700 11.61000 24.32800
H  42.34900 14.52800 28.97300
H  42.67400 12.77100 29.18900
H  43.05500 13.65900 27.64300
H  45.44900 14.23900 33.84400
H  42.52800 16.95500 35.47400
H  43.97500 17.91700 35.47200
H  43.71700 16.71200 36.84100

