158

Mg 35.75600 49.24600 25.96100
C  36.05700 47.65300 29.03800
C  34.57600 52.15700 27.67200
C  35.54200 50.95100 23.02700
C  37.17400 46.52500 24.41100
N  35.29300 49.85800 28.07600
C  35.71400 49.02000 29.15300
C  35.70000 49.80000 30.42400
C  35.06600 51.21900 30.02800
C  35.04000 51.14900 28.57100
C  33.67300 51.42300 30.65400
C  37.08500 49.92100 31.00700
C  37.25000 49.62200 32.48800
H  36.02700 49.60200 33.45600
N  35.10100 51.21700 25.42800
C  34.70100 52.24200 26.30500
C  34.51100 53.42900 25.60200
C  34.94500 53.14300 24.30600
C  35.19000 51.71800 24.20700
C  33.88800 54.70000 26.19300
C  34.97900 54.04200 23.04700
O  35.21600 53.78000 21.86400
C  34.99300 55.60400 23.32100
N  35.98200 48.64500 23.94100
C  35.92600 49.58500 22.95900
C  36.38500 48.89600 21.61100
C  37.02200 47.60200 22.12500
C  36.65100 47.52900 23.57400
C  35.02000 48.69500 20.75200
C  38.63100 47.59800 21.94600
C  39.15800 46.68200 20.85200
N  36.32500 47.37700 26.46500
C  36.97300 46.39700 25.79700
C  37.21500 45.27900 26.69800
C  36.82700 45.74700 27.98700
C  36.35100 47.01500 27.80700
C  37.76500 43.94200 26.26600
C  36.82100 45.35100 29.35700
O  37.12000 44.30700 29.89900
C  36.30300 46.50300 30.07600
C  35.12100 46.15100 30.94700
O  33.97600 45.89600 30.60000
O  35.54800 46.05000 32.24400
C  34.61300 45.51600 33.20800
H  34.26600 53.07000 28.18500
H  35.55000 51.50900 22.08800
H  37.75700 45.77400 23.87400
H  35.11100 49.25700 31.16300
H  35.67300 52.06600 30.34800
H  33.04300 51.70900 29.81100
H  33.78700 52.31800 31.26600
H  33.22600 50.57400 31.17000
H  37.27400 50.93900 30.66600
H  37.85800 49.29900 30.55600
H  37.91600 50.40300 32.85600
H  37.69800 48.64800 32.68700
H  34.66300 55.23100 26.74500
H  33.16800 54.38700 26.95000
H  33.31700 55.33700 25.51800
H  35.71900 55.67300 24.13200
H  34.00700 55.99000 23.58100
H  35.30800 56.16000 22.43800
H  36.98900 49.59500 21.03300
H  36.66100 46.70300 21.62500
H  34.05600 48.75100 21.25800
H  35.09400 47.81700 20.11000
H  34.97500 49.51200 20.03200
H  39.14500 47.44300 22.89500
H  38.91400 48.61500 21.67500
H  38.37400 46.36700 20.16300
H  39.45600 45.79700 21.41400
H  39.86100 47.19200 20.19300
H  36.92500 43.26900 26.09300
H  38.44000 43.60600 27.05400
H  38.38300 44.20500 25.40800
H  37.09700 46.86800 30.72800
H  34.94100 45.94000 34.15700
H  34.64300 44.44800 33.42400
H  33.59000 45.84700 33.03000
Mg 26.84700 51.51900 26.98100
C  24.54600 52.43600 29.50400
C  28.96100 50.46000 29.39600
C  29.13300 50.79000 24.56200
C  24.71900 53.01500 24.54900
N  26.71800 51.49100 29.20200
C  25.70800 51.95200 30.04000
C  26.04900 51.53600 31.47400
C  27.62200 51.17000 31.41600
C  27.80100 51.05900 29.91700
C  28.68600 52.08100 32.02100
C  25.09000 50.40700 32.04100
C  24.64900 50.49100 33.53000
H  25.63000 51.23000 34.55800
N  28.72900 50.58900 26.95100
C  29.45400 50.24800 28.09800
C  30.67200 49.59000 27.64000
C  30.71500 49.57200 26.27700
C  29.49000 50.26700 25.85700
C  31.68500 48.92400 28.62300
C  31.73100 48.96300 25.29800
O  31.65200 49.06400 24.05900
C  32.83900 48.09300 25.82000
N  26.91200 51.92100 24.85400
C  28.01500 51.43300 24.06000
C  27.71100 51.62400 22.47500
C  26.22600 52.33100 22.56900
C  25.88600 52.44500 24.07200
C  28.68900 52.41100 21.60900
C  25.12000 51.54000 21.87900
C  24.72300 50.17600 22.41000
N  25.12000 52.60800 26.95500
C  24.35900 53.15800 25.94000
C  23.12000 53.71400 26.49800
C  23.18900 53.51600 27.85700
C  24.41300 52.79400 28.10700
C  22.03100 54.40000 25.70800
C  22.49100 53.75400 29.12100
O  21.46600 54.36700 29.36700
C  23.35400 53.12900 30.25700
C  23.77500 54.12800 31.30300
O  24.66600 54.98400 31.20800
O  23.06100 54.01200 32.45600
C  23.33000 54.79300 33.64500
H  29.67600 50.00000 30.08300
H  29.79800 50.57400 23.72400
H  24.02000 53.43900 23.82600
H  26.03300 52.44000 32.08400
H  27.77700 50.17900 31.84300
H  28.26200 52.86000 32.65400
H  29.38700 52.45500 31.27600
H  29.25800 51.49500 32.74200
H  25.46300 49.39100 31.91200
H  24.19400 50.48300 31.42600
H  24.57100 49.45300 33.85500
H  23.66200 50.95000 33.47600
H  31.62900 47.85700 28.40700
H  31.42300 49.04100 29.67400
H  32.68800 49.34900 28.57800
H  33.68300 47.87900 25.16500
H  32.52300 47.09300 26.11700
H  33.26300 48.62900 26.66900
H  27.58800 50.58100 22.18300
H  26.14000 53.33200 22.14600
H  29.47300 52.70800 22.30400
H  28.12600 53.25700 21.21500
H  29.06700 51.75900 20.82100
H  25.35400 51.41000 20.82200
H  24.20200 52.12500 21.82000
H  25.43800 49.84800 23.16500
H  24.84800 49.40600 21.64800
H  23.74300 50.02900 22.86400
H  22.46800 55.24300 25.17200
H  21.18600 54.70900 26.32400
H  21.64300 53.73300 24.93800
H  22.74000 52.38700 30.76700
H  23.36300 54.10100 34.48700
H  22.48400 55.47800 33.70500
H  24.22200 55.41700 33.58500

