158

Mg 3.35000 0.76000 44.07900
C  6.35400 2.58900 43.97500
C  1.87200 3.54600 42.54500
C  0.73100 -1.06400 43.47400
C  5.28300 -2.04000 44.94100
N  4.10700 2.70600 43.09400
C  5.31900 3.23400 43.31400
C  5.42100 4.62200 42.78800
C  3.93900 4.94800 42.33500
C  3.22500 3.71100 42.69600
C  3.32800 6.23600 42.89600
C  6.51800 4.80600 41.71300
C  6.85400 3.67000 40.73800
H  7.15800 4.11100 39.26700
N  1.46300 1.20400 43.21900
C  1.05700 2.42300 42.76200
C  -0.28800 2.28800 42.37500
C  -0.65400 0.91000 42.53700
C  0.51200 0.25900 43.03500
C  -1.05900 3.37900 41.73400
C  -2.02300 0.40200 42.23900
O  -2.87400 1.14400 41.84300
C  -2.38700 -1.06700 42.32900
N  3.10500 -1.37600 43.92300
C  1.87000 -1.83500 43.76800
C  1.79800 -3.34500 44.12300
C  3.29100 -3.68300 44.57400
C  3.93700 -2.25800 44.56400
C  0.65200 -3.89600 45.18600
C  4.20100 -4.66800 43.77100
C  4.83600 -5.95600 44.36900
N  5.36400 0.30200 44.52800
C  5.96000 -0.80600 44.96700
C  7.30000 -0.53300 45.36200
C  7.51300 0.82000 45.03000
C  6.29300 1.28400 44.51400
C  8.33200 -1.50300 45.89400
C  8.50400 1.89800 45.03300
O  9.68400 1.99200 45.39800
C  7.74800 3.14900 44.31800
C  7.71600 4.34900 45.22700
O  8.58200 5.19100 45.19900
O  6.61000 4.38700 46.11000
C  6.56400 5.51600 46.98900
H  1.43700 4.41500 42.04700
H  -0.21700 -1.60100 43.55400
H  5.66200 -2.94100 45.42900
H  5.58900 5.40800 43.52400
H  3.83500 5.00600 41.25200
H  4.14000 6.85200 43.28200
H  2.56600 6.00200 43.63900
H  2.89700 6.77300 42.05100
H  7.38300 5.11100 42.30000
H  6.17300 5.65300 41.12000
H  5.99800 3.02600 40.53700
H  7.84300 3.28100 40.98000
H  -1.99500 3.45200 42.28800
H  -1.13800 3.28200 40.65200
H  -0.70500 4.40400 41.84000
H  -2.53400 -1.19200 43.40200
H  -1.56100 -1.63400 41.89800
H  -3.25100 -1.34200 41.72400
H  1.66400 -3.76500 43.12600
H  3.22000 -4.18500 45.53900
H  0.38500 -2.95000 45.65700
H  0.96100 -4.70800 45.84500
H  -0.19000 -4.35800 44.66900
H  5.03000 -4.11500 43.32900
H  3.54000 -5.12400 43.03500
H  4.72500 -6.80200 43.69000
H  4.48100 -6.29600 45.34200
H  5.91400 -5.85200 44.48700
H  8.21800 -1.48800 46.97800
H  9.29500 -1.06800 45.62700
H  8.19900 -2.49500 45.46000
H  8.41200 3.29800 43.46600
H  7.48900 6.07700 47.12300
H  6.45900 4.97900 47.93200
H  5.71100 6.15600 46.76700
Mg 8.08200 47.76400 24.69400
C  5.76900 48.20800 27.19600
C  10.55000 48.90400 26.70300
C  10.22000 47.54100 21.95100
C  5.42200 47.29900 22.39600
N  8.14200 48.33200 26.72700
C  7.11000 48.45600 27.57600
C  7.61300 48.79800 29.02000
C  9.05400 49.32600 28.82700
C  9.27800 48.84500 27.34600
C  9.34300 50.79800 29.23700
C  7.41600 47.73500 30.11400
C  8.29800 47.83400 31.41400
H  7.73400 47.12100 32.65900
N  10.02700 48.14400 24.42900
C  10.90500 48.59100 25.37400
C  12.29300 48.55700 24.90100
C  12.23100 48.17800 23.46800
C  10.82000 47.92700 23.22100
C  13.48500 48.88900 25.71800
C  13.34700 47.94100 22.56300
O  13.19100 47.69400 21.36600
C  14.75700 48.07600 23.00200
N  7.86900 47.38900 22.48400
C  8.85400 47.28700 21.62200
C  8.36600 47.29200 20.13500
C  6.85400 47.14700 20.28200
C  6.70000 47.29600 21.81200
C  8.87500 48.61800 19.46200
C  6.18800 45.95500 19.60300
C  6.39700 45.73600 18.06200
N  6.00000 47.91100 24.69600
C  5.07900 47.54800 23.73600
C  3.78700 47.46500 24.38200
C  4.00100 47.80400 25.74700
C  5.37400 48.00600 25.86100
C  2.47500 47.26500 23.67900
C  3.36500 47.98800 27.04500
O  2.15000 47.87500 27.34600
C  4.48500 48.16600 28.01300
C  4.41400 46.88900 28.81200
O  5.00100 45.84100 28.57600
O  3.91800 47.21900 30.04900
C  3.93600 46.20000 31.08800
H  11.32300 49.28400 27.37400
H  10.86400 47.37600 21.08400
H  4.63600 47.17000 21.64900
H  7.05500 49.69500 29.29000
H  9.75800 48.72500 29.40100
H  9.36600 51.57800 28.47600
H  10.32100 50.84700 29.71500
H  8.56000 51.09800 29.93400
H  7.59200 46.78000 29.61800
H  6.38500 47.71000 30.46700
H  8.42900 48.89800 31.61100
H  9.26400 47.41900 31.12600
H  13.16300 49.19400 26.71400
H  14.05800 49.71400 25.29400
H  14.16200 48.05800 25.91800
H  14.97800 47.28000 23.71300
H  15.04300 49.10000 23.24100
H  15.34000 47.81800 22.11800
H  8.78800 46.41000 19.65400
H  6.30700 48.03000 19.95200
H  9.29700 49.26300 20.23300
H  8.02300 49.13300 19.01900
H  9.63500 48.33900 18.73200
H  5.10500 45.88300 19.71200
H  6.64100 45.11700 20.13300
H  6.47400 46.67900 17.52100
H  5.59100 45.11100 17.67900
H  7.31900 45.18200 17.88300
H  1.99300 48.23000 23.52000
H  1.93200 46.71400 24.44800
H  2.65700 46.67200 22.78400
H  4.25500 49.05200 28.60600
H  3.97100 46.71600 32.04700
H  4.86900 45.63500 31.06200
H  3.11100 45.50400 30.93800

