158

Mg 41.46900 9.32600 29.83500
C  43.39200 10.55300 32.47500
C  39.34600 7.94600 32.18600
C  39.58100 8.24700 27.25200
C  43.90700 10.28100 27.59700
N  41.48400 9.09200 32.14100
C  42.27200 9.86500 32.94100
C  41.82400 9.81900 34.36200
C  40.65000 8.77400 34.28000
C  40.43200 8.57900 32.81300
C  41.04600 7.40100 34.86500
C  41.50500 11.21200 34.92400
C  40.39100 11.36800 36.03000
H  40.92000 11.89000 37.34300
N  39.73800 8.18100 29.74600
C  39.00700 7.74600 30.85100
C  37.83000 6.98100 30.34700
C  37.90100 7.11800 28.91900
C  39.11600 7.82100 28.60200
C  36.84600 6.27400 31.29500
C  36.83200 6.72500 27.89800
O  36.90100 6.90200 26.65000
C  35.66000 6.08900 28.49100
N  41.65000 9.25600 27.75900
C  40.66500 9.04000 26.92600
C  41.15300 9.11700 25.44900
C  42.40600 10.01400 25.52500
C  42.71700 9.78800 27.02900
C  41.50300 7.77200 24.85200
C  42.14100 11.45800 25.10900
C  41.19600 12.34400 25.89200
N  43.34000 10.10600 29.93800
C  44.21600 10.52400 28.96200
C  45.40200 11.04900 29.51600
C  45.09200 11.12300 30.89400
C  43.80100 10.58000 31.08800
C  46.51800 11.73400 28.83400
C  45.53000 11.59100 32.15200
O  46.55200 12.15100 32.54600
C  44.46900 11.21900 33.21200
C  45.16700 10.31200 34.19100
O  45.40000 9.10800 34.05700
O  45.58500 11.11600 35.26600
C  46.32300 10.41100 36.27300
H  38.62900 7.62300 32.94500
H  39.05600 7.79900 26.40600
H  44.71600 10.65900 26.96900
H  42.63600 9.47700 35.00300
H  39.64000 9.10500 34.52100
H  40.20300 6.80000 35.20600
H  41.77900 7.52500 35.66200
H  41.45900 6.79500 34.05800
H  41.16000 11.85900 34.11800
H  42.45200 11.63200 35.26600
H  39.91000 10.42200 36.27800
H  39.63200 12.07800 35.70300
H  35.83800 6.68900 31.26000
H  37.18800 6.37900 32.32400
H  36.86500 5.24400 30.94100
H  35.97500 5.17800 29.00100
H  34.91600 5.85800 27.72800
H  35.11600 6.76700 29.14900
H  40.43200 9.62300 24.80700
H  43.26800 9.60800 24.99600
H  42.47600 7.81100 24.36100
H  40.77700 7.52700 24.07700
H  41.54700 6.96100 25.57900
H  41.74500 11.31800 24.10300
H  43.08200 11.99500 24.99200
H  40.75100 11.85700 26.75900
H  40.38900 12.64500 25.22400
H  41.59500 13.31000 26.20100
H  46.89800 12.50300 29.50700
H  46.52600 12.04900 27.79100
H  47.21800 10.89900 28.82400
H  44.13700 12.11300 33.74000
H  47.31600 10.11200 35.93600
H  45.79800 9.54100 36.66900
H  46.52200 11.06600 37.12100
Mg 30.48300 57.86300 40.26100
C  27.63400 56.11600 39.04000
C  32.38900 55.12800 39.30900
C  33.22600 59.77600 40.42500
C  28.45000 60.60700 40.87300
N  30.04100 55.86000 39.04500
C  28.78300 55.31000 38.90500
C  28.86000 53.83800 38.52500
C  30.36400 53.44200 39.02000
C  30.98200 54.90100 39.15400
C  30.51500 52.52600 40.25600
C  28.67100 53.66100 37.02200
C  28.90900 54.79000 36.02500
H  28.01000 54.93300 34.78000
N  32.52000 57.49600 39.93900
C  33.11700 56.29700 39.54900
C  34.51000 56.48500 39.31100
C  34.76300 57.91600 39.51400
C  33.44800 58.49400 39.93700
C  35.35900 55.31200 38.87600
C  36.02300 58.62300 39.29300
O  37.06800 58.00900 39.05700
C  36.20000 60.17700 39.28800
N  30.83000 59.94200 40.61000
C  32.02900 60.47200 40.74100
C  31.91200 62.02800 41.06800
C  30.35000 62.20500 41.26300
C  29.84100 60.86900 40.86400
C  32.82000 62.52700 42.21200
C  29.74800 63.32700 40.34000
C  28.71100 64.40300 40.87800
N  28.48200 58.27200 40.03300
C  27.78800 59.41200 40.41200
C  26.37300 59.26100 40.11900
C  26.25800 57.97800 39.56500
C  27.55100 57.46100 39.53300
C  25.32000 60.29300 40.31200
C  25.33600 57.02200 39.03100
O  24.13800 57.09800 39.01700
C  26.20000 55.62000 38.81000
C  25.72300 54.66200 39.84300
O  25.61400 55.02100 40.98800
O  25.31300 53.48900 39.32100
C  24.57800 52.49600 40.14100
H  32.91600 54.19300 39.10900
H  34.06500 60.47100 40.50000
H  27.83800 61.49000 41.06600
H  28.09900 53.23600 39.02200
H  30.79500 52.80100 38.25000
H  31.00300 51.56000 40.12500
H  29.54900 52.32900 40.72100
H  31.11300 53.02500 41.01900
H  27.66800 53.30100 36.79600
H  29.35200 52.84300 36.78400
H  29.84600 54.51700 35.54000
H  28.83700 55.78100 36.47400
H  36.30200 55.62800 38.43000
H  34.91500 54.55400 38.23100
H  35.64300 54.79000 39.79000
H  36.14600 60.57200 40.30200
H  35.44400 60.71200 38.71300
H  37.08800 60.54900 38.77800
H  32.26300 62.53900 40.17100
H  30.09300 62.35700 42.31100
H  33.35200 61.68000 42.64400
H  32.22600 62.91200 43.04100
H  33.46700 63.33400 41.87000
H  29.38700 62.83300 39.43800
H  30.60800 63.87100 39.94900
H  29.24800 65.34000 41.02400
H  28.40300 64.12700 41.88700
H  27.79400 64.53300 40.30300
H  24.75900 60.05300 41.21600
H  24.63800 60.43500 39.47400
H  25.77300 61.26100 40.52600
H  25.96600 55.15100 37.85400
H  24.92200 52.41900 41.17200
H  24.54400 51.52100 39.65500
H  23.56000 52.88500 40.11900

