158

Mg 41.76600 41.67300 27.30600
C  40.76200 44.15000 29.67900
C  42.54800 39.58700 29.78900
C  42.93200 39.48200 24.93000
C  41.31500 44.06400 24.75500
N  41.61800 41.91300 29.47500
C  41.08400 42.87200 30.24900
C  41.08800 42.44300 31.72500
C  41.72000 41.02300 31.67200
C  41.97900 40.80600 30.19500
C  42.92900 40.70600 32.58000
C  39.81100 42.59100 32.56600
C  39.57000 41.53900 33.57800
H  38.99200 42.02300 34.95500
N  42.55600 39.83500 27.39400
C  42.82000 39.11100 28.52300
C  43.29700 37.79900 28.19700
C  43.48700 37.80900 26.76300
C  42.94000 39.04600 26.30900
C  43.55600 36.73100 29.26700
C  44.14400 36.68400 25.93800
O  44.37600 36.79700 24.77200
C  44.69600 35.43200 26.60500
N  42.01500 41.72000 25.06100
C  42.58600 40.70000 24.36400
C  42.50800 41.04300 22.87700
C  41.92000 42.47700 22.81500
C  41.73500 42.79000 24.32200
C  43.92500 40.84400 22.26300
C  40.55600 42.49800 22.07600
C  39.43800 41.58900 22.47500
N  41.23500 43.78700 27.14700
C  41.04600 44.55500 26.05000
C  40.67800 45.93500 26.54000
C  40.46400 45.70100 27.92800
C  40.83700 44.43000 28.28400
C  40.55900 47.14600 25.73800
C  40.02500 46.42300 29.10100
O  39.62500 47.54600 29.27400
C  40.07800 45.32200 30.36600
C  40.86000 45.92600 31.41900
O  42.03400 46.27100 31.41300
O  39.99000 46.29400 32.39500
C  40.54700 46.96400 33.56500
H  42.64900 38.97200 30.68600
H  43.09000 38.72600 24.15700
H  41.26200 44.87200 24.02200
H  41.83600 43.14600 32.09000
H  40.90000 40.32100 31.82600
H  42.88700 41.24900 33.52300
H  43.87800 40.93600 32.09600
H  42.85800 39.67400 32.92300
H  39.03500 42.54800 31.80200
H  39.86700 43.48200 33.19200
H  40.53000 41.10300 33.85300
H  38.84100 40.81000 33.22300
H  44.58800 36.39100 29.18900
H  42.91700 35.86800 29.07400
H  43.23400 36.78200 30.30700
H  45.53900 35.66300 27.25600
H  44.95500 34.73000 25.81200
H  43.93300 34.99700 27.25100
H  41.81400 40.35200 22.39800
H  42.71000 43.08600 22.37500
H  43.93200 40.27700 21.33200
H  44.57500 40.31400 22.95900
H  44.28300 41.85700 22.08000
H  40.84800 42.21400 21.06500
H  40.19500 43.52200 22.18100
H  39.16200 40.86900 21.70500
H  38.58400 42.24200 22.65600
H  39.60300 41.15800 23.46300
H  40.91500 47.89100 26.44900
H  39.53200 47.35200 25.43800
H  41.33100 47.08200 24.97100
H  39.10900 44.94900 30.69600
H  40.90800 46.34200 34.38400
H  39.64800 47.47900 33.90300
H  41.39100 47.60100 33.30200
Mg 16.79300 52.56000 25.40200
C  18.21400 51.43500 28.32400
C  14.34800 53.94000 27.31400
C  15.09400 53.06900 22.56000
C  19.15500 50.66400 23.54300
N  16.36100 52.54300 27.63600
C  17.23000 52.29900 28.61300
C  16.60100 52.57900 30.01600
C  15.30600 53.44200 29.60100
C  15.33500 53.39700 28.09400
C  13.94500 52.88600 30.19700
C  17.58100 53.32700 31.02500
C  17.37800 53.40900 32.55300
H  16.27000 52.41400 33.07600
N  15.05200 53.45400 24.97600
C  14.14300 53.91700 25.91500
C  12.98300 54.46600 25.22000
C  13.17500 54.25300 23.81900
C  14.45300 53.53300 23.73900
C  11.83400 55.27400 25.97600
C  12.30400 54.71500 22.66600
O  12.50000 54.43200 21.47500
C  11.08200 55.59000 22.97000
N  17.18800 52.11600 23.33700
C  16.29100 52.37800 22.37800
C  16.68400 51.72400 21.08100
C  18.11000 51.14900 21.30700
C  18.15000 51.31300 22.84400
C  15.69700 50.58000 20.61900
C  19.39500 51.83800 20.68500
C  19.83000 51.20700 19.40900
N  18.33800 51.30900 25.81700
C  19.30100 50.68600 24.97700
C  20.32400 50.06500 25.77900
C  19.85600 50.25100 27.09000
C  18.71600 51.07900 27.04700
C  21.56400 49.30700 25.38800
C  20.17200 50.06400 28.53200
O  21.10700 49.44400 29.02000
C  19.12300 50.77700 29.35700
C  18.58500 49.72900 30.37100
O  17.90700 48.68500 30.12400
O  19.03900 50.03100 31.60500
C  18.94600 49.03300 32.60700
H  13.54400 54.30900 27.95300
H  14.67800 53.25800 21.56800
H  19.85400 50.01500 23.01000
H  16.31300 51.60200 30.40400
H  15.24200 54.49000 29.89400
H  13.19000 52.55600 29.48400
H  13.45500 53.62000 30.83600
H  14.16800 52.02100 30.82200
H  17.43900 54.33800 30.64400
H  18.63200 53.10100 30.84500
H  17.25300 54.44900 32.85400
H  18.28100 53.02200 33.02500
H  11.45100 56.15400 25.45800
H  12.15000 55.49600 26.99600
H  11.01600 54.56800 26.11900
H  10.55400 55.80800 22.04200
H  11.41800 56.56300 23.32800
H  10.45200 55.09300 23.70800
H  16.68900 52.52400 20.34100
H  18.01400 50.08600 21.08800
H  14.64200 50.75200 20.83400
H  15.99800 49.61000 21.01500
H  15.77200 50.46600 19.53800
H  20.14500 51.92300 21.47100
H  19.03500 52.85200 20.51100
H  20.78500 50.71400 19.58800
H  20.16700 51.98300 18.72000
H  19.07800 50.52300 19.01500
H  21.58800 49.18100 24.30600
H  21.49900 48.28700 25.76800
H  22.45600 49.86000 25.68100
H  19.49100 51.52600 30.05800
H  19.53200 49.44200 33.42900
H  19.36700 48.08200 32.27700
H  17.92700 48.84300 32.94300

