158

Mg 29.78600 57.01000 40.09500
C  27.19500 55.06100 38.76700
C  31.96700 54.63800 38.97300
C  32.15700 59.28800 40.30000
C  27.28000 59.43500 40.95600
N  29.58100 55.23300 38.84500
C  28.46100 54.57900 38.50100
C  28.69000 53.20300 37.95300
C  30.14200 52.99000 38.21100
C  30.63200 54.37000 38.72300
C  30.56700 51.89400 39.26400
C  28.35200 52.92300 36.46500
C  28.12200 54.20400 35.59600
H  28.45400 54.28300 34.15000
N  31.78300 56.95900 39.78700
C  32.51600 55.91600 39.37800
C  33.91900 56.24300 39.33900
C  34.03700 57.59700 39.71100
C  32.62200 58.01300 39.94000
C  34.98100 55.19800 39.01400
C  35.28400 58.47600 39.70300
O  36.36300 57.94700 39.41300
C  35.23500 59.99300 40.01300
N  29.75100 59.01000 40.66700
C  30.87700 59.73700 40.64900
C  30.49700 61.25900 40.85100
C  29.03800 61.18600 41.49500
C  28.58400 59.82000 40.97100
C  31.57200 62.01600 41.70300
C  28.11300 62.41200 41.09200
C  27.38000 63.06700 42.23700
N  27.66600 57.17400 40.00700
C  26.82000 58.19700 40.38100
C  25.45500 57.79400 40.11400
C  25.53700 56.52700 39.57800
C  26.88700 56.22300 39.47500
C  24.16600 58.50600 40.34700
C  24.82900 55.45400 38.98200
O  23.65100 55.31400 38.82700
C  25.88400 54.39900 38.53000
C  25.60300 53.16500 39.34900
O  26.04900 52.91700 40.47400
O  24.76300 52.35200 38.67700
C  24.44300 51.07600 39.22400
H  32.66000 53.79600 38.93000
H  32.84900 60.13200 40.29100
H  26.54900 60.14800 41.34600
H  28.09200 52.47200 38.49800
H  30.64400 52.73600 37.27800
H  29.85100 51.09700 39.46700
H  30.80000 52.31500 40.24100
H  31.44000 51.47800 38.76200
H  27.50100 52.24400 36.41200
H  29.10800 52.25900 36.04600
H  28.59900 55.05000 36.08900
H  27.03300 54.23600 35.61200
H  35.25700 55.26400 37.96200
H  34.79900 54.16600 39.31600
H  35.85300 55.42000 39.62900
H  36.29200 60.25000 39.94900
H  34.81100 60.05700 41.01500
H  34.71500 60.57100 39.24900
H  30.44300 61.70100 39.85600
H  29.08100 61.05600 42.57600
H  32.14500 61.35600 42.35400
H  31.10400 62.68900 42.42200
H  32.23600 62.77500 41.29000
H  27.40600 62.09000 40.32800
H  28.54800 63.32900 40.69500
H  26.95500 64.02100 41.92600
H  28.03300 63.16100 43.10600
H  26.49800 62.48200 42.49900
H  23.37300 57.88300 39.93400
H  24.05400 59.44700 39.80800
H  24.06300 58.64900 41.42300
H  25.65500 54.22800 37.47800
H  25.22200 50.45400 39.66500
H  24.09800 50.50300 38.36300
H  23.68800 51.07800 40.01100
Mg -5.25800 25.06500 26.14100
C  -4.03300 26.54500 28.98300
C  -7.27700 23.08900 28.11600
C  -6.20700 23.61100 23.38900
C  -2.88000 27.13900 24.27400
N  -5.64600 24.85000 28.40500
C  -4.98700 25.53200 29.34100
C  -5.57100 25.19300 30.78700
C  -6.47300 23.90600 30.46500
C  -6.51000 23.99100 28.90800
C  -5.98300 22.53700 30.87200
C  -6.37400 26.41700 31.30300
C  -6.00200 26.90700 32.75500
H  -5.69400 25.94100 33.82800
N  -6.54100 23.53800 25.78200
C  -7.34200 22.91800 26.71500
C  -8.27200 22.00600 26.02700
C  -7.98000 22.10300 24.61700
C  -6.82100 23.11500 24.55200
C  -9.35600 21.19100 26.77100
C  -8.57300 21.39200 23.47700
O  -8.11200 21.50300 22.37700
C  -9.71100 20.34800 23.67000
N  -4.56500 25.29300 24.10500
C  -5.18000 24.55300 23.16700
C  -4.71400 24.95200 21.76400
C  -3.60400 26.10500 22.02100
C  -3.63100 26.20900 23.59200
C  -4.13700 23.73000 20.99400
C  -3.91700 27.41900 21.31900
C  -3.09800 27.89900 20.09500
N  -3.71700 26.54900 26.46700
C  -2.89900 27.28600 25.65700
C  -2.10600 28.26500 26.48000
C  -2.58100 27.98000 27.73400
C  -3.57300 27.00200 27.70900
C  -1.08600 29.24400 25.95300
C  -2.25700 28.23100 29.04500
O  -1.29700 28.97400 29.45000
C  -3.25900 27.40200 29.97800
C  -2.49200 26.57200 30.89500
O  -2.26100 25.39900 30.67900
O  -2.18600 27.32400 32.00300
C  -1.10900 26.71500 32.78000
H  -7.97400 22.53500 28.74800
H  -6.56000 23.28000 22.41100
H  -2.23700 27.88700 23.80500
H  -4.83000 24.98300 31.55900
H  -7.49300 24.06400 30.81700
H  -6.71500 22.13900 31.57400
H  -5.01300 22.60000 31.36400
H  -5.93200 21.92300 29.97300
H  -7.40500 26.06100 31.28600
H  -6.36000 27.30700 30.67500
H  -6.91900 27.40300 33.07400
H  -5.30800 27.73600 32.61500
H  -10.14500 21.89300 27.04000
H  -8.89600 20.80900 27.68300
H  -9.82400 20.32100 26.31100
H  -10.68900 20.71800 23.98000
H  -9.19600 19.57600 24.24100
H  -9.90500 20.11200 22.62400
H  -5.53200 25.42100 21.21700
H  -2.62800 25.73000 21.71300
H  -4.30100 23.64300 19.92000
H  -4.48900 22.81500 21.46900
H  -3.08900 23.70300 21.29400
H  -3.77600 28.22300 22.04200
H  -4.98300 27.40800 21.09100
H  -2.90600 28.97100 20.13400
H  -3.69400 27.69700 19.20500
H  -2.18800 27.31900 19.93800
H  -1.26500 30.24200 26.35400
H  -1.07200 29.32500 24.86600
H  -0.09700 28.86400 26.20900
H  -3.92800 28.15700 30.39100
H  -0.25300 26.74600 32.10500
H  -1.28500 25.64300 32.86600
H  -0.81400 27.16800 33.72600

