158

Mg 53.64700 24.24900 44.18400
C  50.89400 26.53900 43.87700
C  51.53600 21.79900 43.12300
C  56.33800 22.28200 43.90400
C  55.63700 26.98600 45.03400
N  51.54500 24.24800 43.29800
C  50.58600 25.26200 43.42900
C  49.19000 24.72700 43.17600
C  49.36400 23.18900 43.42100
C  50.91800 23.04900 43.32900
C  48.68100 22.77200 44.76500
C  48.64500 25.23500 41.82700
C  48.56500 24.28200 40.59900
H  48.60700 24.84200 39.18800
N  53.91200 22.25300 43.61500
C  52.91800 21.43700 43.20500
C  53.50700 20.10200 43.01000
C  54.94000 20.22300 43.03800
C  55.13400 21.65000 43.51800
C  52.75300 18.91300 42.70900
C  55.98700 19.13600 42.81600
O  55.61900 17.97900 42.40900
C  57.38800 19.47800 42.87200
N  55.70600 24.66200 44.28300
C  56.66200 23.62600 44.21500
C  58.02200 24.12600 44.65700
C  57.74800 25.63100 45.01100
C  56.31000 25.79600 44.72500
C  58.84800 23.30400 45.66400
C  58.57000 26.67900 44.22100
C  59.53400 27.46800 45.12800
N  53.36800 26.27100 44.53700
C  54.28900 27.24100 44.89900
C  53.61200 28.46100 45.17200
C  52.26400 28.16300 44.90800
C  52.17500 26.86100 44.34000
C  54.16700 29.77600 45.72700
C  50.97100 28.73100 44.75300
O  50.59400 29.88500 45.03400
C  50.02800 27.73500 44.05500
C  49.49200 28.34600 42.75100
O  50.17700 28.58800 41.73700
O  48.17600 28.46900 42.92500
C  47.45400 28.98000 41.70600
H  50.92400 20.92700 42.88400
H  57.18300 21.61500 44.09200
H  56.28500 27.74700 45.47300
H  48.60700 25.16900 43.98300
H  48.97600 22.52000 42.65300
H  47.95700 23.50800 45.11300
H  49.53100 22.61700 45.43000
H  48.08300 21.87900 44.58600
H  49.39200 25.94000 41.46000
H  47.83400 25.94700 41.98100
H  47.70100 23.65100 40.80400
H  49.35900 23.53500 40.58200
H  53.04100 18.64300 41.69300
H  51.68600 19.12800 42.77600
H  53.09300 18.12100 43.37500
H  57.60500 20.46000 42.45200
H  57.88600 18.68800 42.31000
H  57.75200 19.38800 43.89500
H  58.55700 24.17500 43.70900
H  57.89600 25.65400 46.09100
H  59.91400 23.17200 45.47400
H  58.58500 22.25700 45.81400
H  58.81100 23.84400 46.61000
H  57.90700 27.40600 43.75100
H  59.15100 26.17700 43.44700
H  59.34400 27.14900 46.15300
H  59.33800 28.53900 45.07500
H  60.55100 27.22500 44.82100
H  53.40100 30.51700 45.50100
H  55.12800 29.87100 45.22000
H  54.26100 29.70200 46.81000
H  49.19200 27.66000 44.75100
H  47.72400 30.01200 41.47700
H  46.39800 28.71900 41.78200
H  47.70800 28.51000 40.75600
Mg 0.51500 43.35000 25.29500
C  2.55400 42.89200 28.25800
C  -2.25100 42.31800 27.20600
C  -1.25300 43.32200 22.51800
C  3.44700 43.91400 23.49100
N  0.23100 42.51200 27.52300
C  1.21600 42.57700 28.49200
C  0.47100 42.13700 29.75900
C  -0.96700 41.94800 29.45400
C  -1.01300 42.25000 28.03600
C  -1.47100 40.47600 29.71700
C  0.81300 43.14700 30.88600
C  1.32700 42.55100 32.26400
H  0.58000 41.30600 32.75600
N  -1.50400 43.01500 24.92200
C  -2.46500 42.57000 25.80800
C  -3.71500 42.44700 25.03500
C  -3.42200 42.79600 23.65100
C  -2.02300 43.01000 23.65900
C  -5.04400 42.12600 25.72000
C  -4.39800 42.90500 22.50800
O  -4.18100 43.29300 21.33600
C  -5.78200 42.47600 22.68800
N  1.05800 43.47700 23.27000
C  0.05000 43.59600 22.35500
C  0.55100 44.16000 21.00900
C  2.07400 44.51800 21.31400
C  2.21500 43.96000 22.77200
C  0.36500 43.09300 19.87800
C  2.55000 46.02500 21.41400
C  1.80100 47.05900 22.26700
N  2.56100 43.52600 25.71900
C  3.62400 43.69000 24.86300
C  4.86700 43.64100 25.61900
C  4.45800 43.35000 26.93700
C  3.09100 43.26100 26.94900
C  6.27500 43.64800 25.10900
C  5.01400 43.01400 28.20600
O  6.11600 42.86000 28.66000
C  3.75000 42.72800 29.19500
C  3.96000 41.46500 29.95700
O  3.49400 40.35000 29.63100
O  4.80700 41.58800 31.03100
C  4.82600 40.53800 31.97900
H  -3.17900 42.13100 27.75100
H  -1.81200 43.23900 21.58300
H  4.37100 44.27500 23.03600
H  0.80600 41.13200 30.01700
H  -1.53700 42.63600 30.07700
H  -0.83500 39.84400 30.33700
H  -1.49600 39.93100 28.77300
H  -2.46700 40.57100 30.14700
H  -0.06500 43.77600 31.03500
H  1.55100 43.88400 30.57000
H  1.31700 43.33000 33.02700
H  2.32600 42.16200 32.07200
H  -4.87600 41.68000 26.70000
H  -5.77700 41.48000 25.23700
H  -5.58500 43.07000 25.79100
H  -6.45200 42.65700 21.84800
H  -6.09000 43.18000 23.46100
H  -5.77500 41.46300 23.09100
H  -0.05200 45.02500 20.73100
H  2.73100 43.97600 20.63500
H  0.43900 42.05000 20.18600
H  1.13100 43.27300 19.12500
H  -0.62600 43.32900 19.48900
H  2.19100 46.32400 20.42900
H  3.63300 46.14500 21.46000
H  2.47200 47.35100 23.07500
H  0.81900 46.73300 22.60900
H  1.43000 47.91500 21.70400
H  6.97200 43.51000 25.93600
H  6.46400 44.56500 24.55100
H  6.38200 42.74000 24.51700
H  3.67600 43.50300 29.95800
H  5.38700 40.82200 32.86900
H  5.30500 39.63900 31.59100
H  3.91600 40.13100 32.42000

