158

Mg 7.24100 53.39800 41.70400
C  6.55900 49.93800 40.86800
C  10.44000 52.88500 40.27200
C  7.73000 56.61000 41.71000
C  3.86100 53.69500 42.63500
N  8.27300 51.63500 40.45000
C  7.82300 50.34200 40.38500
C  8.88600 49.53600 39.69400
C  10.18800 50.32000 39.90300
C  9.61600 51.71300 40.16200
C  11.11900 49.89000 41.08700
C  8.46000 49.46800 38.14100
C  8.76100 48.13100 37.35800
H  7.78200 47.78200 36.27300
N  8.90800 54.59800 41.15400
C  10.09400 54.20800 40.67700
C  10.98400 55.31700 40.61500
C  10.25700 56.38300 41.18100
C  8.93200 55.88100 41.41000
C  12.38100 55.25000 40.08200
C  10.67700 57.86700 41.43400
O  11.76200 58.23500 40.92000
C  9.93500 58.67700 42.32400
N  5.97300 54.88500 42.02600
C  6.39400 56.20000 41.91500
C  5.24900 57.17300 42.20200
C  4.14100 56.23300 42.78000
C  4.63000 54.83300 42.38300
C  5.52700 58.48700 43.06000
C  2.69800 56.54300 42.38300
C  2.11000 56.14500 41.06900
N  5.59600 52.08800 41.88400
C  4.26600 52.36400 42.27100
C  3.53500 51.07500 42.36900
C  4.46200 50.14500 41.84800
C  5.60400 50.75300 41.54000
C  2.11600 50.78900 42.82600
C  4.60000 48.77400 41.36300
O  3.79600 47.83200 41.39400
C  6.02100 48.54000 40.91700
C  5.99200 47.75600 39.64200
O  5.59100 48.08800 38.54100
O  6.28800 46.46500 40.01000
C  6.18700 45.38100 39.05500
H  11.49300 52.66000 40.08900
H  7.84700 57.69300 41.78500
H  2.84900 53.86100 43.01100
H  8.90300 48.49500 40.01600
H  10.74300 50.39600 38.96900
H  10.97800 50.63700 41.86700
H  12.17300 49.80800 40.82100
H  10.79200 48.94000 41.50900
H  8.92700 50.26600 37.56300
H  7.39200 49.68100 38.17700
H  8.86600 47.41400 38.17200
H  9.66800 48.29400 36.77600
H  12.96600 55.42300 40.98500
H  12.65600 55.98700 39.32700
H  12.71500 54.24100 39.84000
H  9.49100 58.12800 43.15500
H  9.15400 59.21700 41.78800
H  10.56700 59.43700 42.78200
H  4.90700 57.46800 41.21000
H  4.08300 56.21900 43.86800
H  5.30100 59.41800 42.54100
H  6.56300 58.52100 43.39600
H  4.85500 58.51300 43.91900
H  2.80400 57.62500 42.45600
H  2.02400 56.28800 43.20200
H  2.06400 56.90600 40.29000
H  1.07700 55.80300 41.14100
H  2.57500 55.28400 40.59000
H  2.04900 50.81700 43.91400
H  1.88000 49.77600 42.49800
H  1.40900 51.52300 42.43900
H  6.42700 47.89200 41.69400
H  5.61700 44.56800 39.50300
H  7.09800 45.09400 38.52900
H  5.59000 45.53000 38.15500
Mg -11.77600 16.88900 40.41600
C  -8.70400 15.27200 40.24300
C  -10.18000 19.74000 39.22200
C  -14.78200 18.38300 40.01300
C  -13.36900 13.71900 40.51700
N  -9.64800 17.46900 39.91000
C  -8.63200 16.58400 39.80300
C  -7.34600 17.27600 39.30500
C  -7.74200 18.67600 39.18000
C  -9.29000 18.59500 39.35500
C  -7.12800 19.67800 40.21300
C  -6.75500 16.71900 37.89700
C  -5.17700 16.67300 37.87600
H  -4.52200 16.96100 36.54800
N  -12.37700 18.82200 39.90400
C  -11.54300 19.83300 39.49300
C  -12.32100 21.09100 39.23100
C  -13.65700 20.74300 39.42500
C  -13.68100 19.25900 39.77700
C  -11.68900 22.34700 38.81400
C  -14.82900 21.72200 39.27000
O  -14.54500 22.91200 39.13800
C  -16.32100 21.37100 39.39000
N  -13.73400 16.15100 40.20500
C  -14.87100 17.00600 40.15700
C  -16.20400 16.25800 40.24300
C  -15.67000 14.78200 40.46800
C  -14.15600 14.85100 40.31200
C  -17.26400 16.68000 41.34400
C  -16.27500 13.80200 39.48200
C  -17.41600 12.98300 39.99500
N  -11.20400 14.93700 40.59900
C  -11.99200 13.73300 40.65800
C  -11.08500 12.59200 40.75100
C  -9.79700 13.17200 40.56600
C  -9.87500 14.58100 40.44300
C  -11.38600 11.15300 40.81700
C  -8.35900 12.88600 40.59200
O  -7.79200 11.86500 40.74900
C  -7.58400 14.24700 40.30500
C  -6.59500 14.45600 41.43200
O  -6.81500 14.98300 42.47500
O  -5.44700 13.86500 41.06400
C  -4.29700 14.24700 41.88800
H  -9.57500 20.53300 38.77800
H  -15.75000 18.87100 39.88400
H  -13.85500 12.74100 40.53000
H  -6.50100 17.12600 39.97700
H  -7.68600 19.13900 38.19500
H  -7.95600 20.23000 40.65800
H  -6.33900 20.23300 39.70500
H  -6.53600 19.12900 40.94500
H  -7.00200 17.33200 37.03000
H  -7.17000 15.74100 37.65600
H  -4.94300 15.64400 38.14600
H  -4.84800 17.27800 38.72200
H  -12.13800 23.10900 39.45300
H  -12.00100 22.47600 37.77800
H  -10.61300 22.38700 38.98100
H  -16.84500 22.31600 39.24800
H  -16.58500 20.82800 40.29800
H  -16.56000 20.70600 38.56100
H  -16.65900 16.35600 39.25800
H  -15.93400 14.39300 41.45200
H  -17.65400 15.93500 42.03900
H  -18.18400 17.11200 40.95000
H  -16.75800 17.45000 41.92500
H  -15.62800 13.01500 39.09400
H  -16.69500 14.34700 38.63700
H  -17.42600 11.89600 39.91500
H  -18.35200 13.35000 39.57400
H  -17.57200 13.36900 41.00300
H  -12.41100 10.86300 40.58300
H  -11.32300 10.86800 41.86800
H  -10.70700 10.59700 40.17200
H  -7.08400 14.26400 39.33700
H  -4.10500 15.31100 42.02900
H  -3.46300 13.74700 41.39500
H  -4.36100 13.88600 42.91400

