158

Mg 35.89600 1.80000 29.32600
C  33.90200 3.15400 31.81200
C  38.64700 1.99600 31.60400
C  38.07500 1.55900 26.72300
C  33.34000 2.36700 27.06000
N  36.18900 2.39600 31.50400
C  35.18100 2.84200 32.27800
C  35.67700 2.89900 33.74800
C  37.26800 2.80800 33.65800
C  37.37800 2.37300 32.16400
C  38.13400 4.03500 33.99700
C  34.99900 1.88600 34.69300
C  34.27300 2.46200 35.89200
H  35.05200 3.49000 36.67000
N  38.00500 1.49800 29.23100
C  38.92800 1.62000 30.24600
C  40.21000 1.21200 29.72600
C  40.10600 1.21800 28.26900
C  38.67200 1.36800 27.96600
C  41.44400 0.85700 30.56200
C  41.17200 1.13300 27.26300
O  40.92800 1.22100 26.09600
C  42.56000 1.29100 27.62400
N  35.70300 1.81200 27.18900
C  36.77300 1.66100 26.35500
C  36.33900 1.58300 24.89000
C  34.78600 1.56400 25.03000
C  34.54400 1.88100 26.50400
C  36.95400 2.72700 23.98600
C  34.14600 0.24300 24.64500
C  33.24600 0.08400 23.33900
N  34.04600 2.56000 29.38000
C  33.08700 2.70600 28.38900
C  31.90200 3.30700 28.93200
C  32.13800 3.42200 30.29100
C  33.48500 2.96500 30.48800
C  30.62800 3.60900 28.14400
C  31.55700 3.79000 31.54600
O  30.45900 4.27200 31.71700
C  32.69400 3.62800 32.55800
C  32.90500 4.95100 33.26300
O  33.62200 5.84300 32.92600
O  32.04200 5.05000 34.32900
C  32.19800 6.13900 35.26300
H  39.41400 1.87500 32.37200
H  38.58900 1.53600 25.76100
H  32.43500 2.34100 26.45000
H  35.39200 3.92800 33.96500
H  37.60100 2.02200 34.33600
H  37.56500 4.68200 34.66500
H  38.65100 4.47500 33.14300
H  39.00400 3.65900 34.53600
H  35.72200 1.27000 35.22800
H  34.34700 1.21700 34.13300
H  33.93600 1.66500 36.55400
H  33.34500 2.93600 35.57100
H  41.74100 -0.19200 30.56100
H  41.23000 0.99700 31.62100
H  42.28800 1.50700 30.33300
H  42.83700 0.43400 28.23800
H  42.81800 2.21800 28.13600
H  43.14300 1.27500 26.70300
H  36.66000 0.59000 24.57300
H  34.31300 2.37800 24.48000
H  37.95900 2.44400 23.67200
H  37.02100 3.65800 24.54800
H  36.36800 2.96200 23.09700
H  33.44900 -0.08900 25.41400
H  34.94300 -0.49500 24.55600
H  32.20500 0.25200 23.61600
H  33.33300 -0.86900 22.81700
H  33.47200 0.99000 22.77600
H  30.05200 2.71800 27.89400
H  30.79200 4.25700 27.28400
H  30.01900 4.09100 28.90800
H  32.35500 2.84200 33.23300
H  31.26500 6.05300 35.82000
H  32.14700 7.12200 34.79400
H  32.97700 6.02600 36.01700
Mg 47.34100 25.07800 29.67600
C  48.07600 27.58200 31.99300
C  45.88700 23.29800 32.04600
C  46.66400 22.76300 27.29600
C  49.10300 27.00500 27.16400
N  47.15000 25.27800 31.75900
C  47.35300 26.49800 32.54400
C  46.92300 26.31500 34.03900
C  46.48800 24.74200 34.07200
C  46.52000 24.39800 32.54600
C  47.33300 23.89200 35.09200
C  45.85700 27.33100 34.50600
C  45.94300 27.99800 35.90100
H  46.39700 27.08200 37.07400
N  46.38200 23.28800 29.72200
C  45.81500 22.71500 30.78500
C  45.07400 21.52200 30.46800
C  45.23900 21.36600 29.05700
C  46.07800 22.45600 28.59100
C  44.23300 20.67900 31.41100
C  44.72100 20.27000 28.18000
O  45.03400 20.18900 27.03100
C  43.76900 19.26100 28.75200
N  47.96800 24.85100 27.55900
C  47.57400 23.78700 26.81000
C  48.15700 23.86600 25.33900
C  48.76500 25.32000 25.33400
C  48.62300 25.76100 26.77600
C  49.12700 22.69700 25.04400
C  48.24700 26.39100 24.36900
C  49.24800 27.14900 23.45500
N  48.41300 26.84900 29.50100
C  48.97300 27.57500 28.44300
C  49.49800 28.75300 28.95500
C  49.25000 28.78900 30.35700
C  48.49900 27.65000 30.66600
C  50.15700 29.84400 28.18200
C  49.38600 29.55400 31.58700
O  49.93600 30.68700 31.74200
C  48.51000 28.85900 32.65600
C  49.31400 28.64900 33.88300
O  50.04600 27.66800 34.02800
O  49.10000 29.67400 34.71700
C  49.61500 29.55500 36.08100
H  45.36300 22.69100 32.78700
H  46.35800 22.03500 26.54200
H  49.44200 27.65100 26.35200
H  47.73500 26.47400 34.74900
H  45.42900 24.65600 34.31600
H  48.20300 23.62000 34.49300
H  46.87600 22.91700 35.26300
H  47.66500 24.52700 35.91300
H  44.92800 26.76100 34.49500
H  45.77000 28.21000 33.86800
H  45.07800 28.59200 36.19500
H  46.78000 28.69100 35.82000
H  43.19100 20.77500 31.10700
H  44.32900 21.10300 32.41100
H  44.81400 19.77000 31.56700
H  44.30600 18.76900 29.56300
H  43.63700 18.52000 27.96400
H  42.78000 19.57400 29.08700
H  47.32100 23.93700 24.64300
H  49.85000 25.31400 25.23400
H  49.99600 23.23500 24.66600
H  48.70900 22.09600 24.23600
H  49.26700 22.16600 25.98500
H  47.73800 27.15000 24.96200
H  47.45500 25.97000 23.75000
H  50.28200 26.84900 23.62600
H  49.30200 28.23400 23.54600
H  49.09200 27.04200 22.38200
H  49.65400 30.70700 28.61700
H  49.92400 29.68400 27.12900
H  51.23700 29.97400 28.25100
H  47.64500 29.50300 32.81200
H  49.95000 30.54600 36.39000
H  50.38800 28.79200 35.99100
H  48.81100 29.15900 36.70100

