158

Mg 1.54300 -2.91900 45.56700
C  4.77800 -2.11300 44.57400
C  0.33000 -0.61100 43.37700
C  -1.47000 -4.38700 45.94800
C  2.92800 -5.62700 47.29400
N  2.46100 -1.62600 43.99900
C  3.74200 -1.37600 43.88000
C  4.02800 -0.19700 42.90000
C  2.61500 0.36800 42.57300
C  1.70700 -0.62700 43.41000
C  2.28900 1.83000 42.75800
C  4.79000 -0.81500 41.70000
C  6.16200 -0.19500 41.30700
H  6.09100 0.78300 40.04000
N  -0.31900 -2.60600 44.72400
C  -0.59100 -1.55700 43.88800
C  -1.99300 -1.59700 43.49500
C  -2.52100 -2.65000 44.26000
C  -1.42400 -3.31800 44.98900
C  -2.69100 -0.56600 42.61700
C  -4.05300 -2.91900 44.18600
O  -4.75700 -2.29300 43.45600
C  -4.53700 -3.95600 45.12100
N  0.82700 -4.80400 46.44800
C  -0.45400 -5.10600 46.54800
C  -0.69900 -6.45300 47.26800
C  0.73400 -6.85000 47.74900
C  1.55000 -5.69000 47.18700
C  -1.70800 -6.50900 48.46500
C  1.16900 -8.28000 47.42900
C  1.57500 -8.56100 46.03500
N  3.49200 -3.70400 46.00300
C  3.87500 -4.76200 46.74300
C  5.31300 -4.70100 46.91500
C  5.76500 -3.60100 46.14600
C  4.57200 -3.11900 45.54700
C  6.12700 -5.64000 47.67000
C  6.89700 -2.82200 45.66100
O  8.07000 -2.89200 45.94400
C  6.25400 -1.82200 44.62300
C  6.52800 -0.50900 45.32100
O  6.04600 -0.03200 46.36100
O  7.39700 0.09500 44.56600
C  7.69900 1.47700 44.78600
H  -0.00000 0.11700 42.63400
H  -2.39700 -4.93400 46.12900
H  3.40400 -6.44300 47.84100
H  4.62500 0.51700 43.46800
H  2.28400 0.00400 41.60000
H  1.69700 2.16300 41.90600
H  3.18300 2.42200 42.95400
H  1.74700 1.95500 43.69600
H  4.15200 -0.87900 40.81800
H  5.13600 -1.83800 41.84700
H  6.88500 -0.99600 41.14800
H  6.56400 0.33000 42.17300
H  -3.08200 -0.98400 41.68900
H  -1.95700 0.14600 42.24100
H  -3.43500 0.00500 43.17200
H  -4.14000 -4.92000 44.80600
H  -5.62300 -3.94100 45.02500
H  -4.21500 -3.73300 46.13800
H  -1.07800 -7.15300 46.52400
H  0.79200 -6.73900 48.83100
H  -2.68700 -6.77200 48.06500
H  -1.92500 -5.55200 48.94000
H  -1.44000 -7.18600 49.27600
H  0.42300 -9.00000 47.76700
H  2.03400 -8.49500 48.05800
H  1.81100 -7.61900 45.53900
H  0.72100 -8.97400 45.49900
H  2.50500 -9.11700 45.91800
H  7.14800 -5.28100 47.80100
H  6.18100 -6.62900 47.21600
H  5.67300 -5.74300 48.65600
H  6.80000 -1.83500 43.68000
H  6.80800 2.10500 44.78300
H  8.27000 1.82000 43.92400
H  8.37700 1.71200 45.60700
Mg 49.63100 45.79600 42.69800
C  46.31900 46.22500 41.80600
C  49.48100 42.68300 41.32200
C  53.04900 45.43900 43.11800
C  49.98400 49.13800 43.18600
N  48.09400 44.59700 41.69300
C  46.77900 44.94300 41.45200
C  45.99200 43.90800 40.74100
C  46.97200 42.72700 40.89900
C  48.26200 43.33900 41.26200
C  46.48800 41.59500 41.88000
C  45.63600 44.31800 39.25200
C  44.35100 43.72500 38.84700
H  43.90500 43.84800 37.36600
N  51.04200 44.26200 42.34700
C  50.75900 43.01700 41.85600
C  51.89900 42.15900 41.78800
C  52.98700 42.93400 42.14600
C  52.36900 44.30600 42.61400
C  51.78900 40.71300 41.33200
C  54.43400 42.49400 42.21600
O  54.79500 41.48800 41.65800
C  55.52400 43.17700 42.97900
N  51.27300 47.05900 43.19700
C  52.54600 46.70400 43.35800
C  53.43200 47.93100 43.57100
C  52.41800 49.05600 43.83000
C  51.09500 48.38900 43.47900
C  54.50500 47.80200 44.70300
C  52.79900 50.23000 42.87500
C  54.00900 51.13100 43.28900
N  48.41200 47.49500 42.48800
C  48.72900 48.72000 42.75900
C  47.53000 49.52000 42.65000
C  46.47500 48.56700 42.33600
C  47.15600 47.30100 42.23500
C  47.50700 51.01700 42.99300
C  45.04300 48.40300 42.11100
O  44.10400 49.20200 42.22300
C  44.89200 46.78600 41.74100
C  44.04300 46.12000 42.82400
O  44.15500 46.33600 43.96800
O  43.10700 45.37000 42.16100
C  42.28100 44.57000 43.06900
H  49.43000 41.66300 40.93600
H  54.10600 45.24500 43.31100
H  50.08700 50.21100 43.36000
H  45.12100 43.82900 41.39100
H  47.09900 42.20400 39.95100
H  47.12300 41.42900 42.75100
H  46.53500 40.66400 41.31700
H  45.43500 41.68900 42.14700
H  46.28700 43.76200 38.57700
H  45.62800 45.39500 39.08400
H  43.64500 44.29000 39.45700
H  44.40500 42.66300 39.08900
H  52.73300 40.25800 41.03100
H  50.96900 40.64500 40.61800
H  51.47200 40.17000 42.22300
H  55.35400 43.10500 44.05300
H  55.64100 44.18600 42.58300
H  56.45000 42.62900 42.80700
H  53.91700 47.91400 42.59500
H  52.45600 49.41900 44.85800
H  54.23400 48.48800 45.50500
H  55.49700 47.87300 44.25700
H  54.43700 46.81700 45.16300
H  51.96100 50.92600 42.84800
H  52.84400 49.81600 41.86700
H  53.69900 52.16500 43.44400
H  54.92300 50.95600 42.72200
H  54.29100 50.87300 44.30900
H  48.23200 51.65600 42.49000
H  47.73800 51.22500 44.03700
H  46.47100 51.34300 42.89800
H  44.36000 46.55600 40.81800
H  41.41500 44.12600 42.57700
H  41.89500 45.19900 43.87000
H  42.92600 43.81100 43.51200

