158

Mg 1.24900 7.28000 26.57700
C  1.95600 9.38300 29.43300
C  0.99200 4.68600 28.90600
C  0.85700 5.33700 24.04500
C  1.86700 10.05200 24.62400
N  1.36400 7.11000 28.97500
C  1.66000 8.05100 29.88600
C  1.68200 7.45800 31.35500
C  1.57700 5.92400 31.05200
C  1.30500 5.91200 29.54200
C  2.82600 5.05000 31.35500
C  0.52300 8.06400 32.16000
C  0.69300 8.40800 33.62900
H  1.75900 7.62100 34.36900
N  0.79600 5.32800 26.48600
C  0.76100 4.40700 27.55300
C  0.35000 3.18100 26.98700
C  0.30000 3.30400 25.56700
C  0.66100 4.68100 25.29900
C  0.25700 1.92800 27.80000
C  -0.10200 2.36600 24.52100
O  -0.30800 2.68100 23.33300
C  -0.42400 0.95300 24.79700
N  1.67900 7.56500 24.61300
C  1.28100 6.58100 23.71100
C  1.39200 7.16400 22.22900
C  1.48800 8.66800 22.55200
C  1.66700 8.81800 24.09200
C  2.63100 6.70200 21.36300
C  0.14900 9.44200 22.15200
C  0.42300 10.69200 21.26200
N  1.84300 9.32000 26.89700
C  1.87900 10.34200 25.98700
C  2.14000 11.61900 26.63800
C  2.17000 11.27900 28.01000
C  2.02900 9.84900 28.08600
C  2.14700 12.97300 25.98200
C  2.27400 11.86100 29.35200
O  2.34500 13.04300 29.63600
C  2.17500 10.53900 30.33400
C  3.28600 10.49200 31.31100
O  4.29300 9.76100 31.28600
O  2.93900 11.36000 32.35300
C  3.92400 11.44100 33.41900
H  0.99300 3.79800 29.54100
H  0.54800 4.77800 23.15900
H  1.97900 10.95100 24.01500
H  2.60900 7.74800 31.85000
H  0.75000 5.51000 31.62900
H  2.64600 4.20500 32.02000
H  3.64900 5.60700 31.80400
H  3.28500 4.63700 30.45700
H  -0.32600 7.38700 32.06200
H  0.16000 8.95200 31.64300
H  -0.22900 8.26100 34.19200
H  1.07900 9.42100 33.51700
H  -0.75600 1.52500 27.79600
H  0.51100 1.89400 28.86000
H  0.83400 1.19600 27.23500
H  -0.71500 0.34900 23.93900
H  -1.32000 0.95400 25.41700
H  0.44700 0.42900 25.19100
H  0.54400 6.82900 21.63300
H  2.37400 9.19200 22.19400
H  3.05100 7.58000 20.87200
H  2.41100 5.86700 20.69800
H  3.43300 6.52700 22.08000
H  -0.38500 9.79700 23.03300
H  -0.49400 8.77700 21.57600
H  0.07300 10.41300 20.26800
H  1.42000 11.12000 21.16400
H  -0.25000 11.49700 21.55800
H  2.08000 12.92400 24.89500
H  3.03700 13.47000 26.36900
H  1.20300 13.39000 26.33100
H  1.25000 10.69800 30.88900
H  4.86000 11.66300 32.90500
H  4.20300 10.51500 33.92100
H  3.53300 12.20700 34.08900
Mg 47.81300 34.63300 27.59100
C  45.79300 33.10600 29.83800
C  48.16400 37.29700 29.50200
C  49.42800 36.32200 24.99200
C  47.13700 32.02000 25.19800
N  47.01200 35.13600 29.45900
C  46.29100 34.28600 30.28900
C  46.26300 34.89400 31.70700
C  46.65700 36.40100 31.51300
C  47.26800 36.33200 30.07000
C  45.50500 37.45400 31.63400
C  47.28900 34.08700 32.66000
C  46.77500 33.80900 34.07100
H  47.62800 34.57600 35.13600
N  48.83800 36.41700 27.32200
C  48.87000 37.34000 28.31100
C  49.78100 38.35600 27.97400
C  50.30800 38.03400 26.68200
C  49.50000 36.87800 26.26700
C  50.00500 39.60900 28.78500
C  51.29100 38.82800 25.78900
O  51.53700 38.43300 24.64200
C  52.11600 40.04800 26.29100
N  48.04400 34.32300 25.33200
C  48.90700 35.07700 24.61100
C  49.03800 34.54100 23.14800
C  48.33300 33.11200 23.23000
C  47.75100 33.17800 24.65200
C  48.44600 35.39600 22.03000
C  49.44500 31.96000 23.03400
C  50.26500 31.50500 24.32800
N  46.67000 33.01500 27.43500
C  46.62600 31.95200 26.53700
C  45.88000 30.88700 27.09200
C  45.50700 31.28900 28.34300
C  45.97900 32.56300 28.48600
C  45.43800 29.59700 26.42100
C  44.78400 30.97900 29.55600
O  44.27700 29.89900 29.92000
C  44.82100 32.22400 30.43900
C  44.91500 31.79400 31.84300
O  45.85900 31.16100 32.41900
O  43.69900 32.00600 32.51500
C  43.69700 31.56000 33.89100
H  48.24400 38.11400 30.22300
H  49.81800 36.85000 24.12000
H  47.22600 31.08300 24.64400
H  45.23400 34.77300 32.04600
H  47.43700 36.70600 32.21100
H  44.64300 37.16700 32.23600
H  45.17500 37.78200 30.64800
H  45.84200 38.32300 32.19900
H  48.21700 34.65400 32.58800
H  47.63400 33.17100 32.17900
H  46.87100 32.75700 34.34000
H  45.75000 34.11900 34.27300
H  49.71600 40.41200 28.10800
H  51.06900 39.67000 29.01600
H  49.46100 39.69300 29.72600
H  51.48800 40.93800 26.32500
H  52.93500 40.21600 25.59100
H  52.46200 39.90800 27.31500
H  50.11600 34.52800 22.98600
H  47.57300 32.90600 22.47600
H  49.14100 35.54900 21.20400
H  48.20000 36.33100 22.53300
H  47.48100 35.10000 21.62100
H  50.02800 32.25000 22.16000
H  48.99700 31.03000 22.68400
H  49.87900 31.91500 25.26100
H  51.31200 31.80100 24.26000
H  50.37200 30.42100 24.36000
H  45.32900 28.84900 27.20500
H  46.21900 29.36500 25.69700
H  44.47200 29.83200 25.97400
H  43.81400 32.63000 30.34300
H  42.86600 30.85400 33.89000
H  43.51100 32.39200 34.56900
H  44.60200 31.26800 34.42400

