158

Mg 47.48400 24.03500 28.21000
C  48.45600 26.32600 30.64900
C  46.65700 21.88200 30.56900
C  46.86800 21.90100 25.67100
C  48.89800 26.35000 25.73600
N  47.82300 24.13500 30.39900
C  47.87700 25.19800 31.21600
C  47.60700 24.85600 32.68700
C  47.10600 23.38200 32.54900
C  47.18800 23.10900 31.03300
C  47.72300 22.36300 33.48700
C  46.55700 25.72300 33.43600
C  47.11600 26.59500 34.59400
H  46.12900 26.82200 35.80100
N  46.87400 22.11400 28.15000
C  46.56700 21.34700 29.25700
C  46.10700 20.10300 28.80200
C  46.23300 20.15500 27.31400
C  46.76300 21.42600 26.98300
C  45.43900 19.07800 29.63900
C  45.84800 19.08200 26.37000
O  46.07600 19.12600 25.17100
C  45.23300 17.81100 26.93400
N  47.95000 24.09400 26.00500
C  47.32700 23.15000 25.19200
C  47.51700 23.47100 23.66300
C  48.10500 24.92500 23.68800
C  48.34100 25.16300 25.23300
C  48.45000 22.47500 22.92200
C  47.10600 25.97200 23.19300
C  47.62700 27.16400 22.38400
N  48.45300 25.96800 28.14000
C  48.97000 26.75700 27.10700
C  49.52600 28.03600 27.66500
C  49.25100 27.95100 29.06000
C  48.71100 26.62700 29.30900
C  49.95200 29.14600 26.87700
C  49.34400 28.67000 30.31900
O  49.75100 29.81800 30.55700
C  48.81100 27.63600 31.39200
C  49.86700 27.45800 32.40100
O  50.59500 26.45700 32.44300
O  49.90500 28.48300 33.29900
C  50.39600 28.10300 34.56000
H  46.23100 21.34200 31.41700
H  46.84600 21.23700 24.80500
H  49.14800 27.02500 24.91500
H  48.61000 24.77100 33.10600
H  46.02700 23.30700 32.69000
H  48.23200 21.60600 32.89000
H  47.00800 21.83700 34.12000
H  48.40800 22.89600 34.14700
H  45.81400 25.10100 33.93400
H  46.01700 26.35800 32.73300
H  47.42900 27.57600 34.23500
H  47.97400 26.14100 35.08900
H  45.49700 19.45300 30.66100
H  46.08600 18.20800 29.53200
H  44.40100 18.78000 29.49300
H  45.75100 17.30500 27.74900
H  45.28300 17.06900 26.13800
H  44.21400 17.96700 27.28800
H  46.51800 23.40800 23.23100
H  49.04000 25.02100 23.13700
H  49.14800 21.96200 23.58300
H  48.95600 22.97200 22.09400
H  47.85400 21.65400 22.52300
H  46.49500 26.30000 24.03400
H  46.44300 25.51400 22.45800
H  47.54500 27.02200 21.30600
H  48.68000 27.25400 22.65000
H  47.19000 28.14600 22.56100
H  49.09600 29.38700 26.24700
H  50.75800 28.86200 26.20000
H  50.20800 29.99900 27.50600
H  47.97500 28.09000 31.92400
H  51.40200 27.69100 34.47300
H  49.68200 27.44800 35.05900
H  50.44700 28.98400 35.19900
Mg 49.03200 45.13300 42.07000
C  45.96600 45.74000 40.48200
C  48.96200 42.00100 40.95600
C  52.34500 44.99000 42.83400
C  49.25000 48.60200 42.67600
N  47.55100 43.92100 40.97200
C  46.37800 44.36400 40.43500
C  45.69100 43.24000 39.67500
C  46.60000 41.99200 40.02500
C  47.79100 42.63200 40.67000
C  45.98800 40.88000 40.98400
C  45.65500 43.64900 38.16800
C  44.26700 43.54600 37.53600
H  44.16900 42.56100 36.30700
N  50.41100 43.62800 41.95400
C  50.14900 42.37800 41.54000
C  51.34700 41.55000 41.61100
C  52.33600 42.41000 42.20600
C  51.73900 43.72600 42.43200
C  51.48100 40.02400 41.23400
C  53.77900 41.97900 42.50400
O  54.02900 40.76300 42.38400
C  54.96200 42.85700 42.85000
N  50.66100 46.66600 42.31000
C  51.84300 46.28400 42.67300
C  52.78600 47.51800 42.89800
C  51.79600 48.62400 43.04000
C  50.48800 47.96600 42.70600
C  53.76000 47.48600 44.16400
C  52.06600 49.95400 42.30400
C  52.09300 51.28400 43.12700
N  47.80300 46.78000 41.83200
C  48.10700 48.08400 42.12400
C  46.95300 48.91200 41.69300
C  46.07300 47.99000 41.05500
C  46.64300 46.75900 41.12500
C  46.83600 50.45700 41.88100
C  44.86800 47.90000 40.32500
O  44.11400 48.73200 39.83800
C  44.67600 46.42600 40.02700
C  43.44000 45.95900 40.75500
O  42.43200 45.56200 40.12000
O  43.64600 45.93600 42.05800
C  42.59600 45.39200 42.88000
H  48.99000 40.93400 40.72300
H  53.42000 44.90000 43.00600
H  49.26400 49.68200 42.83700
H  44.72200 43.05300 40.13900
H  47.04800 41.46100 39.18500
H  45.90600 39.92100 40.47400
H  44.97000 41.16700 41.24600
H  46.49800 40.70600 41.93200
H  46.29600 42.98300 37.58900
H  46.14600 44.60800 38.00400
H  44.00500 44.54800 37.19700
H  43.57700 43.21600 38.31400
H  50.62900 39.81200 40.58800
H  51.29100 39.45800 42.14600
H  52.39000 39.84700 40.65900
H  54.89400 43.22800 43.87300
H  55.05200 43.69900 42.16400
H  55.84400 42.21800 42.80600
H  53.45900 47.69200 42.05900
H  51.68700 48.82100 44.10600
H  53.77500 46.41800 44.38400
H  53.37400 48.01000 45.03900
H  54.78400 47.76300 43.91600
H  51.37400 50.03100 41.46600
H  52.98400 49.79900 41.73900
H  53.03400 51.82800 43.05200
H  51.85200 51.07400 44.16900
H  51.29500 51.98300 42.87500
H  46.48500 50.87700 40.93800
H  47.76500 50.94500 42.17600
H  46.01400 50.68100 42.56000
H  44.38900 46.27900 38.98600
H  42.18400 46.19300 43.49400
H  42.96300 44.62700 43.56400
H  41.68400 45.01500 42.41600

