158

Mg 7.61200 1.72900 28.60800
C  9.25600 0.28100 31.27200
C  6.09300 4.01200 30.70100
C  6.03700 3.10900 25.97800
C  9.35400 -0.51600 26.35200
N  7.62200 1.98700 30.68400
C  8.42200 1.33300 31.65200
C  8.31200 1.99900 32.99900
C  7.13600 3.06400 32.78200
C  6.93000 3.03900 31.27400
C  5.75200 2.68500 33.48700
C  9.62300 2.66400 33.47600
C  9.47500 3.44900 34.77700
H  10.49400 3.01600 35.80700
N  6.17100 3.27500 28.36300
C  5.66300 4.07700 29.31100
C  4.72700 5.03100 28.73600
C  4.59100 4.67300 27.36400
C  5.61500 3.65300 27.17800
C  4.04400 6.18800 29.51100
C  3.69800 5.17100 26.29000
O  3.88800 4.78000 25.16900
C  2.73200 6.34200 26.58600
N  7.79200 1.34200 26.52100
C  6.90700 2.06900 25.67600
C  7.06000 1.48500 24.21400
C  8.19600 0.37900 24.29600
C  8.48300 0.45300 25.78700
C  5.78100 0.96600 23.53400
C  9.50900 0.53000 23.41300
C  10.01300 -0.78700 22.72400
N  8.99900 0.12700 28.70600
C  9.59600 -0.71500 27.76100
C  10.45300 -1.64200 28.44700
C  10.37700 -1.27700 29.83300
C  9.55000 -0.18000 29.93100
C  11.30000 -2.74000 27.87200
C  10.80200 -1.59100 31.19700
O  11.67000 -2.36000 31.66600
C  10.19900 -0.57300 32.12000
C  9.55600 -1.23600 33.25500
O  8.59700 -1.97700 33.19200
O  10.13000 -0.96900 34.44200
C  9.50400 -1.55700 35.67700
H  5.76600 4.83900 31.33500
H  5.65900 3.44700 25.01100
H  10.09600 -0.97200 25.69500
H  8.02700 1.31000 33.79400
H  7.34700 4.05700 33.17900
H  5.97000 2.50200 34.53900
H  5.40000 1.75700 33.03600
H  4.98000 3.43600 33.31600
H  9.97700 3.42600 32.78100
H  10.33600 1.84100 33.52700
H  8.44300 3.30700 35.09600
H  9.77000 4.48400 34.60000
H  4.46900 7.17400 29.32000
H  4.19600 5.96300 30.56700
H  2.98300 6.30900 29.29400
H  2.13600 6.43600 25.67800
H  3.24200 7.22900 26.96100
H  2.13400 5.94800 27.40700
H  7.53800 2.26500 23.62200
H  7.66700 -0.53300 24.01800
H  5.01300 0.85900 24.30000
H  5.92900 0.11700 22.86700
H  5.27200 1.81000 23.06900
H  10.38600 0.82800 23.98900
H  9.31500 1.34200 22.71300
H  9.31300 -1.60400 22.90000
H  11.04500 -0.96200 23.02900
H  10.12100 -0.73600 21.64000
H  11.34500 -2.57800 26.79500
H  10.87100 -3.69700 28.16900
H  12.30700 -2.60600 28.26900
H  11.05300 -0.01200 32.49900
H  8.55800 -2.09500 35.60700
H  9.31200 -0.70600 36.33100
H  10.31100 -2.21200 36.00200
Mg -11.81700 37.75000 42.11300
C  -9.88600 34.98700 41.00400
C  -9.27200 39.78800 40.98700
C  -13.97200 40.41700 42.46000
C  -14.42600 35.58100 42.93900
N  -9.75700 37.40500 41.01700
C  -9.27800 36.20600 40.62800
C  -7.97600 36.34000 39.78500
C  -7.77400 37.92300 39.84000
C  -8.98600 38.38300 40.64800
C  -6.41300 38.42400 40.18800
C  -8.05200 35.73500 38.37300
C  -6.95000 34.77500 37.84900
H  -5.78100 35.42500 37.07600
N  -11.67200 39.75000 41.73700
C  -10.51300 40.38200 41.29100
C  -10.84700 41.81500 41.12600
C  -12.25400 41.99100 41.38100
C  -12.71500 40.63700 41.88200
C  -9.76100 42.75700 40.60500
C  -13.03800 43.32100 41.15700
O  -12.39600 44.29400 40.76200
C  -14.53200 43.42600 41.30900
N  -13.97300 38.00500 42.40900
C  -14.52000 39.16500 42.73000
C  -15.91000 39.01100 43.27600
C  -16.10200 37.45400 43.37800
C  -14.73000 36.97500 42.90300
C  -16.12200 39.76100 44.55500
C  -17.21500 36.73000 42.50300
C  -18.23000 36.02300 43.35200
N  -12.15800 35.65200 42.00200
C  -13.30000 34.96000 42.39000
C  -12.99600 33.47200 42.20600
C  -11.67600 33.42300 41.62800
C  -11.22500 34.77600 41.53900
C  -13.88600 32.30500 42.66200
C  -10.54800 32.59000 41.10800
O  -10.50300 31.35800 41.06000
C  -9.40600 33.58200 40.66700
C  -8.05600 33.20800 41.23800
O  -7.36100 32.30600 40.86000
O  -7.62800 33.98300 42.29900
C  -6.36000 33.59600 43.07600
H  -8.53100 40.53400 40.69200
H  -14.71300 41.17700 42.71600
H  -15.26100 35.05000 43.40200
H  -7.08400 35.89100 40.22100
H  -7.97200 38.26300 38.82300
H  -5.62800 37.70800 39.94300
H  -6.40800 38.48300 41.27600
H  -6.17400 39.34000 39.64800
H  -7.96100 36.55700 37.66300
H  -9.06700 35.39900 38.16100
H  -7.52600 34.16600 37.15200
H  -6.45800 34.19400 38.62900
H  -9.18400 42.24900 39.83300
H  -9.14600 42.98800 41.47500
H  -10.14300 43.67900 40.16800
H  -15.08600 42.72400 40.68500
H  -14.81300 44.46100 41.11200
H  -14.93200 43.28100 42.31200
H  -16.64800 39.40100 42.57600
H  -16.26200 37.15100 44.41300
H  -15.14600 40.07700 44.92400
H  -16.45800 39.21800 45.43800
H  -16.68000 40.68600 44.40700
H  -16.81900 36.04400 41.75400
H  -17.73200 37.46900 41.89000
H  -19.07800 36.67200 43.56900
H  -17.85600 35.67200 44.31400
H  -18.62900 35.29600 42.64500
H  -14.36800 32.01100 41.72900
H  -14.75600 32.52800 43.28000
H  -13.29400 31.50100 43.09900
H  -9.40900 33.61100 39.57700
H  -6.06700 32.55700 42.92000
H  -6.50000 33.67200 44.15400
H  -5.53000 34.22700 42.75900

