158

Mg 49.98500 46.02400 43.35300
C  46.56200 46.34500 42.49300
C  49.75500 42.72700 42.11200
C  53.37900 45.70700 43.53700
C  50.21700 49.36300 44.19900
N  48.40300 44.72300 42.31400
C  47.06300 45.08000 42.13400
C  46.24800 43.95100 41.39400
C  47.20600 42.72700 41.59700
C  48.55100 43.35200 42.10200
C  46.74400 41.71900 42.68200
C  46.05300 44.40000 39.88700
C  44.92300 43.65700 39.10400
H  45.38500 43.07100 37.75900
N  51.39800 44.43300 42.82000
C  51.07200 43.14100 42.46900
C  52.27800 42.35900 42.35000
C  53.38100 43.17500 42.80500
C  52.76600 44.51100 43.00200
C  52.23800 40.89600 41.96300
C  54.88700 42.79800 42.85200
O  55.25200 41.67000 42.57400
C  55.97400 43.78000 43.27400
N  51.54800 47.34200 43.75500
C  52.86600 47.02800 43.81500
C  53.78100 48.12600 44.24700
C  52.74300 49.30000 44.56500
C  51.40700 48.62700 44.14100
C  54.92800 47.77000 45.33400
C  53.16000 50.57600 43.79000
C  52.73400 51.94500 44.38500
N  48.66300 47.52600 43.43200
C  48.88500 48.86800 43.80100
C  47.64600 49.59900 43.73800
C  46.71900 48.65700 43.18700
C  47.36900 47.40300 43.08200
C  47.47300 51.05800 44.10800
C  45.33600 48.49300 42.65900
O  44.40100 49.30400 42.36400
C  45.18100 46.96600 42.31100
C  44.13200 46.42000 43.23700
O  43.96600 46.72700 44.41100
O  43.53500 45.35700 42.58900
C  42.70600 44.42900 43.30600
H  49.63100 41.71100 41.73100
H  54.46100 45.64100 43.67100
H  50.31800 50.41700 44.46500
H  45.29100 43.85100 41.90600
H  47.34000 42.24700 40.62700
H  46.40800 40.79100 42.22100
H  45.98000 42.21300 43.28300
H  47.51800 41.54600 43.43000
H  47.00900 44.18300 39.41200
H  45.95600 45.48200 39.80000
H  44.09600 44.34600 38.93700
H  44.50000 42.94600 39.81400
H  52.59200 40.56800 40.98600
H  51.36200 40.25100 42.02900
H  52.92900 40.49300 42.70300
H  55.60400 43.98000 44.28000
H  55.95300 44.61600 42.57500
H  56.93600 43.27200 43.21100
H  54.38700 48.39500 43.38200
H  52.74600 49.56100 45.62300
H  55.92400 48.15000 45.10700
H  55.16400 46.70800 45.39000
H  54.67300 48.24000 46.28400
H  52.51100 50.50400 42.91800
H  54.18700 50.67100 43.43700
H  53.50800 52.69300 44.21200
H  52.57400 51.88400 45.46200
H  51.88800 52.34000 43.82300
H  47.48500 51.27000 45.17700
H  46.49200 51.37200 43.75200
H  48.29500 51.54200 43.57900
H  44.68300 46.92000 41.34200
H  42.00100 43.90700 42.66000
H  42.23600 44.82300 44.20700
H  43.37900 43.61100 43.56600
Mg 26.80100 49.26300 26.68600
C  24.70800 50.34300 29.27700
C  29.19800 48.64700 29.16500
C  28.92200 48.16500 24.25800
C  24.42500 50.30700 24.41900
N  26.76500 49.17800 28.98300
C  25.74300 49.60800 29.80100
C  26.09000 49.28900 31.28300
C  27.62800 48.96900 31.18600
C  27.93000 48.86500 29.65400
C  28.47700 49.89800 32.11000
C  25.10200 48.21900 32.01300
C  24.29900 48.77500 33.19400
H  25.10500 49.34500 34.35200
N  28.73900 48.54200 26.66400
C  29.55600 48.44200 27.76000
C  30.89900 48.06000 27.39500
C  30.92200 47.89500 26.01200
C  29.48000 48.13400 25.58300
C  31.99900 47.72500 28.30500
C  32.04700 47.64100 25.10200
O  31.88700 47.61500 23.88300
C  33.38100 47.41500 25.66600
N  26.66600 49.25600 24.63700
C  27.61800 48.62800 23.83700
C  27.13000 48.59100 22.37400
C  25.61700 49.10300 22.46700
C  25.56400 49.59100 23.93200
C  27.98000 49.37200 21.31800
C  24.63600 47.97700 22.15100
C  23.58100 48.28000 21.06100
N  24.99200 50.15600 26.72600
C  24.11600 50.60200 25.75400
C  23.01800 51.37000 26.29700
C  23.25400 51.24600 27.64000
C  24.45600 50.54000 27.88100
C  21.84300 51.99000 25.46200
C  22.69000 51.65700 28.89100
O  21.64900 52.35800 29.15000
C  23.62000 51.11800 30.03200
C  24.20300 52.24000 30.81700
O  25.02400 53.09000 30.52800
O  23.59400 52.28400 32.10000
C  23.79300 53.51000 32.93600
H  29.92800 48.36300 29.92700
H  29.65900 47.93400 23.48600
H  23.68700 50.40300 23.62000
H  26.03700 50.27100 31.75400
H  27.72700 47.99300 31.66000
H  29.53100 49.78900 31.85200
H  28.45800 49.52000 33.13300
H  28.17800 50.94500 32.06200
H  25.80600 47.40500 32.18800
H  24.32700 47.87500 31.32800
H  23.58700 48.03100 33.55300
H  23.77400 49.63900 32.78800
H  32.83500 48.42500 28.31200
H  32.42500 46.78800 27.94600
H  31.79400 47.63600 29.37100
H  34.17100 47.29300 24.92500
H  33.30200 46.43900 26.14500
H  33.71600 48.19000 26.35500
H  27.19400 47.54800 22.06300
H  25.58300 49.94800 21.78000
H  28.67300 50.03800 21.83200
H  27.44500 50.07700 20.68000
H  28.64000 48.74300 20.72100
H  24.08100 47.53400 22.97700
H  25.15800 47.06800 21.85200
H  23.71300 47.55800 20.25500
H  23.72400 49.32900 20.80100
H  22.56500 48.15300 21.43500
H  20.95000 51.66800 25.99700
H  22.09400 51.57700 24.48500
H  21.86000 53.07500 25.35100
H  23.07900 50.48100 30.73200
H  23.71800 54.42200 32.34500
H  24.55300 53.48900 33.71700
H  22.95200 53.53200 33.62900

