158

Mg 46.41100 24.46200 28.48600
C  46.63900 26.83600 31.06400
C  45.37900 22.19400 30.88900
C  46.42500 22.09600 26.09700
C  47.62400 26.78300 26.34700
N  45.77600 24.57100 30.62800
C  46.13700 25.61800 31.50300
C  45.76500 25.25100 32.98600
C  45.43500 23.71900 32.89800
C  45.49600 23.46000 31.41700
C  46.42300 22.89300 33.71400
C  44.49100 26.08200 33.39600
C  44.56200 27.01400 34.60200
H  43.57000 26.83700 35.75400
N  45.98700 22.45300 28.50500
C  45.36900 21.74800 29.54900
C  45.11300 20.36800 29.11700
C  45.36500 20.33300 27.73000
C  45.90200 21.63600 27.35200
C  44.51400 19.34700 30.10100
C  45.18500 19.14400 26.71500
O  45.64800 19.29100 25.56100
C  44.52600 17.90300 27.08900
N  47.14300 24.37800 26.60000
C  46.93300 23.35900 25.74400
C  47.26900 23.72300 24.25700
C  47.46200 25.26600 24.43100
C  47.50500 25.48200 25.89600
C  48.49600 22.92800 23.70200
C  46.35300 26.15100 23.70900
C  45.08000 26.63300 24.54500
N  47.03300 26.45200 28.62800
C  47.46600 27.30100 27.66100
C  47.60600 28.61900 28.18100
C  47.35800 28.47000 29.51800
C  47.00900 27.15700 29.77200
C  48.00400 29.82100 27.42400
C  47.36700 29.15600 30.75700
O  47.82900 30.24900 30.99100
C  46.90500 28.08000 31.89300
C  48.04900 27.90100 32.86900
O  49.06300 27.27500 32.64400
O  47.76200 28.48400 34.04700
C  48.58000 28.14400 35.21500
H  45.14000 21.47100 31.67200
H  46.31600 21.40600 25.25800
H  48.03700 27.45300 25.59000
H  46.62100 25.40900 33.64200
H  44.43000 23.54400 33.28300
H  45.99500 22.78800 34.71000
H  47.33200 23.47800 33.85800
H  46.64600 21.90600 33.31000
H  43.72900 25.34300 33.64000
H  44.20600 26.67000 32.52400
H  44.59200 28.06700 34.32300
H  45.55800 26.97400 35.04300
H  43.58100 18.91800 29.73700
H  44.32800 19.68700 31.12000
H  45.23900 18.54400 30.23700
H  45.20200 17.09700 27.37500
H  44.12000 17.60400 26.12300
H  43.76500 17.93100 27.86800
H  46.42700 23.61000 23.57400
H  48.38300 25.70400 24.04800
H  49.17800 23.70000 23.34500
H  48.02600 22.37000 22.89200
H  48.82800 22.27400 24.50800
H  45.97300 25.69900 22.79200
H  46.94000 26.93400 23.22900
H  45.02300 26.22100 25.55300
H  44.14900 26.27600 24.10600
H  45.08600 27.72300 24.56000
H  47.28200 30.14300 26.67300
H  48.97100 29.56700 26.99100
H  48.21600 30.60600 28.15100
H  46.05600 28.50000 32.43300
H  49.62400 27.94700 34.97100
H  48.22700 27.11900 35.32600
H  48.48800 28.73700 36.12500
Mg 9.51100 47.16400 27.49300
C  7.28400 47.24000 30.24400
C  12.13200 47.95000 29.45300
C  11.39900 47.74700 24.66700
C  6.55700 47.16000 25.36800
N  9.72600 47.38900 29.57700
C  8.70100 47.46000 30.52200
C  9.30500 47.60900 31.89800
C  10.87600 47.87900 31.58900
C  10.93200 47.74400 30.08100
C  11.40100 49.20700 31.98300
C  8.90000 46.50300 32.90700
C  9.90400 46.20900 34.01200
H  9.38700 45.89700 35.46000
N  11.48400 47.61900 27.15900
C  12.38200 47.94300 28.10300
C  13.71100 48.14800 27.45400
C  13.54800 47.98000 26.06600
C  12.12800 47.79200 25.93100
C  14.97300 48.37800 28.22100
C  14.60900 47.96100 24.97100
O  14.35500 47.77300 23.81500
C  16.05100 48.10100 25.30300
N  9.02400 47.59600 25.35000
C  10.00400 47.72100 24.43100
C  9.47500 47.70700 23.01700
C  7.91300 47.32200 23.18100
C  7.80700 47.33900 24.73100
C  9.79900 49.09500 22.39500
C  7.35900 46.10200 22.51800
C  7.09200 46.20900 21.02300
N  7.36500 47.09100 27.67800
C  6.29700 47.05900 26.78000
C  4.98800 47.01100 27.43200
C  5.35300 47.00400 28.75900
C  6.78900 47.06900 28.88500
C  3.67700 47.03000 26.73600
C  4.82000 46.95100 30.15200
O  3.67900 46.84100 30.53300
C  6.02800 47.02800 31.09700
C  5.95800 45.68800 31.79900
O  6.41600 44.65100 31.34000
O  5.43900 45.83500 33.04700
C  5.60400 44.73300 33.98500
H  12.95100 48.09900 30.15900
H  12.04600 47.80100 23.78800
H  5.65300 47.02500 24.77000
H  8.94800 48.57200 32.26500
H  11.51100 47.18100 32.13400
H  10.74000 49.53300 32.78700
H  11.47000 49.89900 31.14400
H  12.34100 49.10700 32.52500
H  8.67100 45.63200 32.29300
H  7.94300 46.81000 33.32800
H  10.58600 47.05900 34.04800
H  10.57000 45.39400 33.73100
H  15.52700 47.47100 27.97900
H  14.82200 48.44200 29.29900
H  15.52800 49.23800 27.84800
H  16.43000 47.27200 25.90100
H  16.16000 49.08600 25.75700
H  16.50200 47.97300 24.31800
H  9.96300 46.89600 22.47700
H  7.26400 48.11400 22.80800
H  10.38400 49.71600 23.07400
H  8.82600 49.52500 22.15900
H  10.45900 49.00700 21.53200
H  6.35200 45.95200 22.90900
H  8.01100 45.29400 22.85000
H  7.67100 45.55800 20.36900
H  7.25000 47.19700 20.59000
H  6.04900 46.06000 20.74300
H  3.48600 46.03100 26.34300
H  3.63300 47.66900 25.85400
H  2.84400 47.25800 27.40100
H  5.83100 47.95000 31.64400
H  6.61300 44.33000 33.90600
H  4.90600 43.91400 33.81000
H  5.54700 45.10200 35.00900

