158

Mg 0.03600 7.14700 25.74000
C  0.86100 9.14800 28.56900
C  0.24400 4.44100 27.95900
C  -0.38000 5.08600 23.10600
C  0.46200 9.84200 23.72200
N  0.39000 6.92700 28.13000
C  0.66400 7.88000 29.00000
C  0.68500 7.36600 30.45600
C  0.92000 5.81900 30.18100
C  0.49000 5.66900 28.67600
C  2.41500 5.32500 30.43600
C  -0.56800 7.73700 31.31000
C  -0.31500 7.67400 32.89900
H  0.72700 6.69500 33.39500
N  -0.16100 5.14300 25.58100
C  -0.07200 4.18800 26.60500
C  -0.34900 2.85600 26.03700
C  -0.43300 2.98100 24.60300
C  -0.31700 4.44700 24.38200
C  -0.51200 1.76000 27.01600
C  -0.52500 1.86800 23.50000
O  -0.39800 2.20100 22.28000
C  -0.57300 0.36800 23.92200
N  0.03200 7.46500 23.66000
C  -0.14100 6.43000 22.76700
C  -0.24900 6.98300 21.35500
C  0.13100 8.47500 21.52800
C  0.20400 8.61100 23.05000
C  0.51800 6.21600 20.24200
C  -0.80400 9.45800 20.87700
C  -0.15200 10.56000 19.94600
N  0.55900 9.10300 26.05500
C  0.55000 10.05100 25.13400
C  0.72900 11.33600 25.80200
C  0.91900 11.04100 27.10900
C  0.76400 9.67100 27.26400
C  0.70500 12.65500 25.08400
C  1.24100 11.63700 28.40400
O  1.70800 12.77100 28.61200
C  1.07700 10.43100 29.40000
C  2.28700 10.40900 30.24900
O  3.43900 10.19200 29.85700
O  2.02200 10.72700 31.57800
C  3.17400 10.81400 32.44000
H  0.45600 3.59100 28.61200
H  -0.43700 4.48100 22.19800
H  0.58400 10.77400 23.16500
H  1.60100 7.81900 30.83600
H  0.29100 5.19000 30.81000
H  2.89700 6.06500 31.07400
H  2.83600 5.34500 29.43000
H  2.47500 4.33100 30.88000
H  -1.47500 7.19300 31.04800
H  -0.63900 8.81500 31.16700
H  -1.25700 7.34800 33.33900
H  -0.23300 8.69100 33.28400
H  -0.73300 2.05700 28.04100
H  0.41900 1.20600 26.90200
H  -1.32100 1.15700 26.60300
H  0.13000 0.22700 24.74400
H  -0.22500 -0.31400 23.14600
H  -1.58300 0.05500 24.18500
H  -1.29900 6.91000 21.07300
H  1.13100 8.59100 21.11000
H  0.03300 6.20600 19.26600
H  0.56600 5.17700 20.56800
H  1.58000 6.43000 20.12500
H  -1.45700 9.92300 21.61400
H  -1.44400 8.82700 20.26000
H  -0.53100 10.41900 18.93400
H  0.93300 10.45600 19.96000
H  -0.37200 11.59100 20.22100
H  1.70200 12.95200 24.76000
H  0.53800 13.45500 25.80600
H  -0.13300 12.72900 24.39000
H  0.17300 10.57000 29.99400
H  4.04900 11.26900 31.97600
H  3.25500 9.82900 32.90000
H  3.03400 11.62600 33.15300
Mg -11.93900 16.48200 41.91900
C  -8.88900 14.89400 41.16700
C  -10.89400 19.39500 40.32000
C  -15.06200 17.54900 41.94200
C  -13.08700 13.14400 42.93100
N  -10.19400 17.03300 40.84900
C  -9.07800 16.25200 40.65000
C  -7.95700 17.13300 39.98100
C  -8.55500 18.54800 39.96100
C  -10.00300 18.31200 40.39500
C  -7.83300 19.57000 40.88700
C  -7.43100 16.52100 38.66000
C  -5.92600 16.71000 38.36400
H  -5.53800 17.10000 36.89300
N  -12.83200 18.23200 41.28000
C  -12.22600 19.34500 40.71200
C  -13.20200 20.43200 40.63600
C  -14.43400 19.93000 41.20800
C  -14.14900 18.49900 41.46200
C  -12.92900 21.80800 40.21000
C  -15.76000 20.68300 41.25300
O  -15.92400 21.81500 40.82500
C  -16.99800 20.07500 41.99500
N  -13.80500 15.40000 42.13700
C  -14.94900 16.16300 42.23000
C  -16.16700 15.35200 42.92600
C  -15.44800 13.96300 43.25900
C  -14.03800 14.12200 42.72700
C  -16.78100 16.06500 44.27700
C  -16.17500 12.84800 42.40300
C  -15.79500 11.40800 42.61000
N  -11.14400 14.45700 42.20000
C  -11.74600 13.27000 42.73600
C  -10.71500 12.28000 42.77400
C  -9.55700 12.86800 42.18300
C  -9.89400 14.16600 41.83900
C  -10.91200 10.88200 43.21500
C  -8.10400 12.74100 41.81100
O  -7.26700 11.81400 41.93200
C  -7.65400 14.02700 41.19800
C  -6.56400 14.67400 41.96000
O  -6.74400 15.18100 43.07300
O  -5.37100 14.60200 41.31200
C  -4.15000 14.94400 42.10100
H  -10.50000 20.33800 39.93700
H  -16.05900 17.86700 42.25400
H  -13.42300 12.25600 43.47000
H  -7.12300 17.08700 40.68300
H  -8.61700 18.92600 38.94000
H  -7.44200 20.39100 40.28600
H  -7.02000 19.14200 41.47400
H  -8.62500 19.94500 41.53500
H  -8.02200 16.97700 37.86600
H  -7.60800 15.44600 38.62100
H  -5.35600 15.80200 38.56200
H  -5.68500 17.52400 39.04700
H  -13.08100 22.39000 41.11900
H  -13.66400 22.05700 39.44500
H  -11.91200 21.86600 39.82200
H  -17.69900 20.88200 42.20600
H  -16.70300 19.68400 42.96800
H  -17.40600 19.24300 41.42100
H  -16.95400 15.24800 42.17900
H  -15.60000 13.69400 44.30500
H  -16.57700 17.12600 44.42200
H  -16.36600 15.59300 45.16700
H  -17.86700 16.05600 44.17700
H  -16.01600 13.03100 41.34000
H  -17.25000 13.02200 42.45000
H  -16.68100 10.81200 42.83100
H  -15.26400 11.39400 43.56200
H  -15.17500 10.98600 41.81800
H  -10.14000 10.24900 42.77700
H  -11.83900 10.55200 42.74600
H  -10.91600 10.75000 44.29700
H  -7.22600 13.85200 40.21100
H  -4.24000 15.97400 42.44400
H  -3.22700 14.67600 41.58500
H  -4.04700 14.42200 43.05300

