158

Mg 23.14600 -7.70500 45.87600
C  25.67200 -5.37200 44.74800
C  21.10100 -6.20500 43.54100
C  20.94900 -10.21500 46.41600
C  25.67000 -9.67000 47.35100
N  23.43900 -6.07200 44.25900
C  24.46900 -5.15900 44.07600
C  24.06900 -4.05400 43.05000
C  22.58100 -4.29300 42.84700
C  22.33900 -5.59700 43.55200
C  21.74900 -3.06600 43.31900
C  24.92300 -4.12400 41.66200
C  25.76000 -2.85400 41.31600
H  26.38000 -2.80300 39.94200
N  21.19800 -8.13400 45.15400
C  20.56200 -7.36000 44.24500
C  19.30000 -7.98800 44.00900
C  19.26300 -9.10700 44.82900
C  20.46300 -9.18500 45.60900
C  18.29100 -7.38800 43.04800
C  18.12700 -10.04100 44.90700
O  17.16200 -9.83500 44.13200
C  17.97000 -11.04600 46.04300
N  23.24200 -9.57500 47.05700
C  22.19400 -10.43700 47.01400
C  22.61300 -11.81000 47.59000
C  24.06800 -11.54200 48.09300
C  24.36900 -10.24300 47.43200
C  21.63700 -12.51000 48.54700
C  25.10000 -12.68800 47.87400
C  25.16600 -13.63900 48.98000
N  25.16800 -7.58800 46.12800
C  26.06900 -8.46200 46.70000
C  27.38200 -7.88900 46.65400
C  27.29300 -6.69800 45.93500
C  25.94400 -6.55500 45.56700
C  28.66500 -8.58200 47.14700
C  28.01400 -5.56500 45.57600
O  29.17400 -5.26500 45.81100
C  27.02100 -4.58900 44.74600
C  26.95300 -3.28200 45.42300
O  26.77000 -3.15700 46.58000
O  27.25300 -2.25300 44.52800
C  27.48000 -0.89300 45.10300
H  20.49300 -5.69100 42.79500
H  20.37400 -11.14200 46.46500
H  26.46100 -10.21600 47.87100
H  24.20800 -3.04700 43.44500
H  22.44000 -4.38500 41.77100
H  22.33800 -2.29400 43.81600
H  21.04600 -3.40500 44.08000
H  21.22200 -2.65600 42.45800
H  24.35600 -4.42400 40.78100
H  25.69300 -4.89200 41.74000
H  26.50300 -2.71200 42.10000
H  24.98800 -2.08700 41.38200
H  18.02200 -8.14500 42.31100
H  18.64100 -6.54200 42.45700
H  17.41100 -7.07000 43.60600
H  18.17000 -10.61700 47.02500
H  18.44500 -11.97000 45.71300
H  16.90600 -11.25300 46.15800
H  22.77100 -12.43000 46.70800
H  24.15400 -11.33600 49.16000
H  21.68700 -13.58400 48.36700
H  20.65400 -12.08000 48.35400
H  21.94700 -12.42700 49.58800
H  26.07300 -12.24200 47.67100
H  24.88000 -13.26900 46.97900
H  24.13900 -13.88200 49.25200
H  25.73500 -13.31500 49.85200
H  25.64300 -14.56800 48.66700
H  28.61900 -9.04700 48.13200
H  29.47400 -7.85300 47.11500
H  28.98900 -9.32100 46.41500
H  27.56100 -4.46200 43.80700
H  26.62000 -0.46600 45.62000
H  27.45900 -0.21400 44.25100
H  28.44700 -0.77200 45.59200
Mg 41.49500 41.56200 26.65300
C  40.70800 43.88700 29.02900
C  42.38500 39.28600 29.01500
C  42.55400 39.51800 24.07100
C  40.70000 43.99100 24.13100
N  41.62400 41.59900 28.73000
C  41.08400 42.61800 29.54300
C  41.13100 42.22600 31.02200
C  41.70900 40.77900 31.03700
C  41.86900 40.49600 29.48100
C  42.99800 40.62600 31.79700
C  39.87200 42.42600 31.78000
C  39.97900 43.24700 33.09400
H  39.46600 42.83000 34.42900
N  42.42800 39.74000 26.52000
C  42.70700 38.93300 27.65800
C  43.36000 37.73700 27.26100
C  43.32200 37.77600 25.84100
C  42.73800 39.07000 25.40300
C  43.74800 36.63900 28.17300
C  43.69500 36.63400 24.86200
O  43.64000 36.77400 23.65700
C  44.07700 35.30200 25.35800
N  41.55600 41.75700 24.43800
C  41.99600 40.69400 23.63400
C  41.74900 41.06600 22.11400
C  40.79500 42.32100 22.17400
C  41.02000 42.77200 23.64000
C  43.08200 41.28800 21.28500
C  39.28000 42.08200 21.76600
C  38.57600 40.91000 22.37500
N  40.98100 43.47900 26.52900
C  40.64100 44.37900 25.50600
C  40.28700 45.68300 26.00000
C  40.36500 45.58400 27.38300
C  40.74000 44.19200 27.66000
C  39.75600 46.74800 25.12600
C  40.08300 46.16900 28.61900
O  39.66100 47.31700 28.82500
C  40.39000 45.14300 29.74200
C  41.42400 45.64500 30.72800
O  42.56800 45.24800 30.79100
O  40.75300 46.58300 31.57800
C  41.53400 46.93700 32.80300
H  42.70400 38.59800 29.80100
H  42.97200 38.83200 23.33100
H  40.42900 44.71700 23.36100
H  41.86500 42.89500 31.47000
H  41.01100 40.02900 31.40800
H  43.31900 41.55600 32.26500
H  43.82300 40.37100 31.13100
H  42.87400 39.84300 32.54500
H  39.42600 41.47200 32.05900
H  39.16700 42.88400 31.08600
H  39.49700 44.19800 32.86600
H  40.99900 43.57500 33.29800
H  43.13500 35.76800 27.94000
H  43.51200 36.96000 29.18700
H  44.75700 36.22800 28.15800
H  43.24400 34.82300 25.87300
H  44.96000 35.37400 25.99200
H  44.30900 34.72500 24.46300
H  41.20000 40.29300 21.57500
H  41.05600 43.16800 21.54100
H  43.36400 42.31500 21.05100
H  42.98300 40.77200 20.32900
H  43.92900 40.83600 21.80100
H  39.30600 41.85700 20.70000
H  38.74100 43.00100 21.99700
H  38.15800 40.35600 21.53400
H  37.76200 41.33400 22.96300
H  39.22400 40.28600 22.99000
H  39.07900 46.31200 24.39100
H  40.51000 47.23800 24.51000
H  39.19100 47.43800 25.75300
H  39.43500 44.94800 30.23000
H  42.56800 46.59300 32.78500
H  41.11000 46.39900 33.65100
H  41.51200 48.00600 33.01300

