158

Mg 9.18600 3.66900 27.50700
C  10.24500 1.96700 30.40600
C  7.42500 5.71100 29.48100
C  7.78700 4.86900 24.69300
C  10.45400 0.87200 25.56600
N  8.92900 3.78200 29.69300
C  9.44600 3.02100 30.69100
C  9.15900 3.60400 32.03800
C  8.15100 4.77400 31.69900
C  8.19600 4.75700 30.18000
C  6.81000 4.75500 32.43200
C  10.41900 4.06000 32.79000
C  10.71700 3.47100 34.21900
H  10.67100 4.40500 35.45300
N  7.99400 5.23400 27.13500
C  7.35200 5.95700 28.10000
C  6.59600 6.95500 27.48100
C  6.68500 6.77400 26.05000
C  7.50300 5.55100 25.88300
C  5.83600 7.97200 28.26400
C  5.99300 7.58500 24.90600
O  6.16300 7.28500 23.69800
C  5.16700 8.75600 25.28900
N  9.16500 3.01100 25.46100
C  8.61100 3.68600 24.45200
C  8.70600 3.03600 23.04800
C  9.76100 1.92800 23.34000
C  9.84100 1.94200 24.89100
C  7.37200 2.55500 22.53900
C  11.21900 2.18700 22.91300
C  11.91500 1.26800 21.86700
N  10.22300 1.83600 27.85800
C  10.73300 0.88700 26.97800
C  11.42400 -0.14500 27.79400
C  11.28100 0.29400 29.13300
C  10.52300 1.46400 29.12600
C  12.07800 -1.44400 27.37600
C  11.67400 0.00600 30.51900
O  12.24100 -0.99000 30.95700
C  10.89100 1.03300 31.41100
C  9.87600 0.34900 32.30200
O  8.79700 -0.08900 31.96400
O  10.45500 0.07100 33.45500
C  9.63900 -0.61800 34.49900
H  7.03800 6.47400 30.16000
H  7.16700 5.00000 23.80400
H  10.86200 0.04400 24.98300
H  8.69900 2.80200 32.61500
H  8.56500 5.71300 32.06700
H  5.88900 4.45900 31.92800
H  6.50700 5.75800 32.73100
H  6.93800 4.19100 33.35600
H  10.42300 5.14800 32.84800
H  11.29000 3.69700 32.24400
H  11.66600 2.93500 34.18200
H  10.00000 2.69300 34.48500
H  5.62600 7.72800 29.30500
H  4.79700 8.02100 27.94000
H  6.42700 8.87400 28.42300
H  5.36800 9.47000 24.49000
H  5.42300 9.26500 26.21800
H  4.11900 8.48000 25.40500
H  9.13300 3.80700 22.40600
H  9.34300 1.01500 22.91700
H  6.51200 2.55900 23.21000
H  7.53700 1.57600 22.09000
H  7.26000 3.33000 21.78100
H  11.92900 2.16900 23.73900
H  11.21900 3.23500 22.61100
H  12.09200 1.92700 21.01600
H  11.20200 0.52500 21.51100
H  12.83200 0.97100 22.37500
H  13.06800 -1.14000 27.03300
H  11.50500 -1.99600 26.63200
H  12.33200 -2.03000 28.25900
H  11.56000 1.63600 32.02400
H  9.66100 -1.69700 34.34600
H  8.58900 -0.33900 34.58700
H  10.16300 -0.46000 35.44200
Mg 6.86700 53.84800 41.29500
C  6.64300 50.31000 41.04600
C  10.23000 53.59900 40.16800
C  6.85200 57.10200 40.97400
C  3.43500 53.85700 42.02100
N  8.28100 52.09400 40.74200
C  7.92800 50.80200 40.55500
C  9.03000 49.90400 40.11200
C  10.27900 50.92200 40.14100
C  9.57500 52.32400 40.27400
C  11.21800 50.59100 41.35700
C  8.83300 49.16900 38.75300
C  8.23000 50.03100 37.57000
H  7.25400 49.28900 36.56300
N  8.35000 55.18900 40.79400
C  9.63900 54.92500 40.37900
C  10.32500 56.08600 40.07600
C  9.38600 57.20600 40.29200
C  8.08900 56.54200 40.65700
C  11.77100 56.08300 39.49600
C  9.65600 58.70300 40.15200
O  10.79900 59.11800 40.03200
C  8.49300 59.64200 40.09000
N  5.28900 55.16200 41.32000
C  5.61900 56.53600 41.39800
C  4.53300 57.40300 41.96800
C  3.43600 56.32400 42.32000
C  4.13400 54.99200 41.93100
C  4.98200 58.23200 43.22900
C  1.90200 56.51400 41.79500
C  0.72900 56.76600 42.78400
N  5.24900 52.37800 41.52100
C  3.95100 52.57300 41.85600
C  3.35900 51.18400 42.05100
C  4.36900 50.30500 41.78100
C  5.51900 51.10200 41.43200
C  1.94700 50.98000 42.51800
C  4.71100 48.89600 41.85600
O  4.07800 47.89900 42.26500
C  6.11600 48.93200 41.11700
C  5.84200 48.15200 39.78300
O  5.39000 48.52100 38.71300
O  6.40600 46.87900 39.91100
C  6.36200 46.05800 38.66800
H  11.31500 53.59700 40.04000
H  6.97700 58.15300 41.24400
H  2.40900 53.95700 42.38200
H  9.12900 49.18600 40.92600
H  10.75600 51.03800 39.16800
H  12.25100 50.68600 41.02200
H  11.02000 49.55300 41.62500
H  10.90700 51.21000 42.19900
H  8.24700 48.25300 38.81800
H  9.81200 48.82100 38.42400
H  9.09100 50.26900 36.94400
H  7.68900 50.91100 37.91800
H  12.32000 56.91700 39.93300
H  11.67300 56.07500 38.41100
H  12.36900 55.21200 39.76100
H  8.09800 59.81900 41.09100
H  7.87800 59.11900 39.35800
H  8.81800 60.59200 39.66700
H  4.20100 58.07500 41.17700
H  3.39700 56.21600 43.40400
H  4.26600 58.37800 44.03700
H  5.07100 59.25600 42.86400
H  5.93600 57.92500 43.65600
H  1.63400 55.59500 41.27400
H  1.77900 57.34600 41.10100
H  0.15200 55.85100 42.91200
H  0.10400 57.60500 42.47900
H  1.15500 56.92700 43.77500
H  1.49800 50.12900 42.00700
H  1.42800 51.90400 42.26200
H  2.01500 50.82000 43.59400
H  6.75200 48.21300 41.63300
H  6.81200 45.09000 38.88500
H  6.92700 46.55700 37.88100
H  5.32800 45.83800 38.39900

