158

Mg 24.64700 -8.55400 46.98000
C  27.07400 -6.16400 46.03700
C  22.58200 -7.56500 44.39400
C  22.72600 -11.23700 47.62300
C  27.21700 -9.95700 49.17200
N  24.95000 -7.05000 45.38900
C  25.93500 -6.19000 45.17800
C  25.57200 -5.22400 44.09200
C  24.17000 -5.58100 43.70000
C  23.87000 -6.86400 44.57600
C  22.99900 -4.52100 43.73100
C  26.64900 -5.15300 42.93000
C  27.18800 -3.71300 42.56900
H  27.09200 -3.15800 41.18100
N  22.82300 -9.26900 46.20500
C  22.13000 -8.68900 45.15400
C  20.94500 -9.40600 44.94200
C  20.86000 -10.46800 45.82400
C  22.19200 -10.41400 46.61200
C  20.03700 -8.95600 43.81900
C  19.76200 -11.54500 45.92600
O  18.75700 -11.52400 45.19900
C  19.98900 -12.82500 46.78900
N  25.09200 -10.37200 48.10200
C  23.99900 -11.23100 48.27300
C  24.44700 -12.48400 49.16800
C  25.88000 -12.08700 49.64500
C  26.09900 -10.75400 48.90700
C  23.47400 -12.68100 50.43200
C  27.01000 -13.10900 49.43300
C  27.43300 -14.04500 50.52100
N  26.66700 -8.08900 47.61000
C  27.58700 -8.75100 48.52100
C  28.84200 -8.02600 48.63500
C  28.64600 -6.96100 47.70600
C  27.36500 -7.09200 47.08400
C  29.95200 -8.40400 49.47200
C  29.17500 -5.72800 47.20100
O  30.27800 -5.27200 47.50800
C  28.19700 -5.20700 46.12900
C  27.76200 -3.82400 46.38000
O  26.95700 -3.49900 47.26000
O  28.19500 -2.98600 45.39700
C  28.01300 -1.56600 45.66700
H  21.97300 -7.02200 43.66900
H  22.16100 -12.15900 47.77800
H  27.96800 -10.31700 49.87800
H  25.42100 -4.24700 44.55100
H  24.26200 -5.94600 42.67700
H  23.43900 -3.53500 43.87700
H  22.20900 -4.68500 44.46400
H  22.57500 -4.58900 42.72900
H  26.11300 -5.31900 41.99600
H  27.46600 -5.84700 43.12800
H  28.24700 -3.80100 42.81100
H  26.63800 -3.16400 43.33300
H  20.20000 -7.92400 43.50900
H  19.01800 -9.09300 44.18100
H  20.08700 -9.62400 42.95900
H  20.97700 -13.16000 46.47100
H  19.19600 -13.46100 46.39700
H  19.79700 -12.33600 47.74400
H  24.59400 -13.42700 48.64200
H  25.90800 -11.77200 50.68800
H  22.57000 -13.13400 50.02500
H  23.12100 -11.69900 50.74500
H  23.83100 -13.35800 51.20800
H  27.91700 -12.53600 49.24100
H  26.83400 -13.64900 48.50300
H  26.69500 -13.92200 51.31400
H  28.42500 -13.75100 50.86600
H  27.50300 -15.08200 50.19300
H  30.50300 -9.29000 49.15400
H  29.61700 -8.64900 50.48000
H  30.62500 -7.55300 49.57500
H  28.78100 -5.13100 45.21200
H  28.50700 -1.43300 46.62900
H  26.94600 -1.34600 45.70000
H  28.46600 -0.92700 44.90900
Mg 46.62400 15.89000 29.44300
C  44.50000 15.51400 32.10300
C  48.29300 18.30700 31.13500
C  48.50500 16.24700 26.73700
C  44.44500 13.91800 27.58200
N  46.39000 16.87300 31.38900
C  45.57400 16.36500 32.36400
C  45.89200 16.97900 33.74600
C  46.78700 18.31000 33.38600
C  47.18300 17.80200 31.91300
C  45.98400 19.59800 33.27400
C  46.62600 15.98400 34.68100
C  46.45400 16.16500 36.17800
H  47.72400 16.19100 37.11400
N  48.25700 17.07000 29.02200
C  48.79400 18.06500 29.84600
C  49.92500 18.61000 29.22500
C  49.93500 18.04400 27.94300
C  48.88600 17.04600 27.82100
C  50.72600 19.80400 29.74800
C  50.90600 18.38800 26.75300
O  50.73500 18.00600 25.61900
C  52.10000 19.24900 26.96900
N  46.42000 15.36000 27.34800
C  47.38400 15.50000 26.41900
C  47.30100 14.59200 25.14900
C  45.93600 13.94900 25.44400
C  45.58900 14.38300 26.87000
C  47.45300 15.35200 23.76400
C  45.67700 12.34900 25.19200
C  46.45700 11.34500 26.06000
N  44.80500 14.95400 29.72100
C  44.03300 14.22500 28.88600
C  42.84500 13.75400 29.57600
C  43.01700 14.22100 30.90400
C  44.20500 14.94900 30.88200
C  41.72700 12.99500 28.92800
C  42.42600 14.24100 32.18600
O  41.34300 13.79200 32.52000
C  43.45600 15.08900 33.11100
C  42.65400 16.12100 33.72100
O  42.43700 17.21300 33.16000
O  42.40800 15.75300 35.08900
C  41.80200 16.82000 35.86100
H  48.94600 18.85500 31.81800
H  49.04800 16.23800 25.78900
H  43.84800 13.19600 27.02100
H  44.96300 17.35500 34.17400
H  47.67000 18.48900 33.99900
H  46.52400 20.27000 32.60800
H  45.67100 20.08000 34.20100
H  45.08300 19.38000 32.70100
H  47.68700 16.04800 34.44300
H  46.26000 14.99200 34.41400
H  45.74500 15.37000 36.40900
H  46.00200 17.15500 36.24200
H  50.63600 20.03400 30.81000
H  50.44900 20.66800 29.14400
H  51.79700 19.69400 29.58000
H  52.79200 18.84500 27.70800
H  51.73900 20.16300 27.44100
H  52.71700 19.47500 26.09800
H  48.13900 13.90700 25.28100
H  45.23700 14.51500 24.82800
H  46.65100 14.98300 23.12500
H  48.35800 14.99100 23.27500
H  47.36600 16.43400 23.86200
H  45.92700 12.18200 24.14400
H  44.60700 12.18200 25.31100
H  45.70100 10.72300 26.53800
H  47.07600 11.83000 26.81400
H  46.97300 10.66800 25.37900
H  42.01900 12.55100 27.97600
H  40.94700 13.74400 28.78700
H  41.38500 12.20200 29.59300
H  43.88600 14.40700 33.84400
H  41.55000 17.70000 35.26800
H  42.44100 17.15300 36.67900
H  41.01300 16.32900 36.43100

