158

Mg -3.35300 17.43100 26.63800
C  -3.72900 15.10500 29.28200
C  -3.20500 19.93400 28.77500
C  -3.41600 19.55900 23.94800
C  -3.94900 14.74800 24.34600
N  -3.44400 17.48200 28.66300
C  -3.55400 16.44600 29.62100
C  -3.42200 16.95200 31.06200
C  -3.30400 18.49900 30.90000
C  -3.41900 18.64000 29.34400
C  -4.43200 19.39500 31.61500
C  -2.25400 16.35000 31.99600
C  -1.88700 17.07800 33.33600
H  -2.03600 16.38300 34.67100
N  -3.33900 19.51100 26.34200
C  -3.19600 20.35900 27.41200
C  -3.13600 21.73000 26.93900
C  -3.05600 21.62900 25.52100
C  -3.22200 20.20500 25.18000
C  -3.16600 22.98600 27.78300
C  -2.77300 22.64000 24.44100
O  -2.58100 22.32400 23.23400
C  -2.64200 24.06400 24.83000
N  -3.77400 17.20800 24.45700
C  -3.65800 18.24100 23.63100
C  -3.79700 17.74000 22.09000
C  -3.88200 16.27400 22.25400
C  -3.88000 16.05000 23.76600
C  -4.99400 18.38500 21.41000
C  -2.68700 15.42800 21.52400
C  -1.24400 15.71400 22.05400
N  -3.82600 15.41800 26.71000
C  -3.87000 14.43900 25.70600
C  -3.97900 13.11400 26.28500
C  -4.05700 13.33600 27.69200
C  -3.88100 14.69200 27.94100
C  -4.09400 11.87100 25.60200
C  -4.26300 12.71900 28.96100
O  -4.36300 11.52900 29.37400
C  -4.14700 13.82300 30.08600
C  -2.99700 13.29900 30.95200
O  -1.79800 13.41000 30.76300
O  -3.49100 12.50400 31.96700
C  -2.60000 11.76600 32.85500
H  -3.10400 20.77600 29.46200
H  -3.36700 20.21000 23.07300
H  -4.11500 13.89400 23.68600
H  -4.31800 16.74100 31.64500
H  -2.35100 18.81000 31.33000
H  -5.41200 18.92300 31.68200
H  -4.55300 20.32900 31.06600
H  -4.08800 19.71000 32.60000
H  -1.35600 16.31100 31.37900
H  -2.53400 15.34700 32.31800
H  -2.56100 17.93100 33.41500
H  -0.85900 17.43900 33.30900
H  -2.22500 23.53600 27.80200
H  -3.42300 22.76900 28.82000
H  -3.85900 23.74300 27.41700
H  -3.58400 24.26300 25.34000
H  -2.44200 24.72100 23.98400
H  -1.75800 24.03800 25.46800
H  -2.89900 18.04300 21.55300
H  -4.84200 15.90600 21.88900
H  -4.66000 18.80600 20.46200
H  -5.41000 19.17800 22.03000
H  -5.78000 17.67400 21.15300
H  -2.64300 15.70500 20.47100
H  -2.96800 14.37500 21.52000
H  -0.67200 15.93300 21.15100
H  -0.71600 14.82100 22.38800
H  -1.13300 16.48300 22.81800
H  -3.44700 11.12200 26.05800
H  -3.68200 11.88300 24.59300
H  -5.12800 11.53900 25.50700
H  -5.03700 14.03600 30.67800
H  -1.91100 11.08700 32.35300
H  -3.09000 11.13900 33.60000
H  -2.10800 12.55500 33.42500
Mg 46.79500 16.81600 28.30200
C  45.38100 16.58400 31.51500
C  49.35400 18.62900 29.73000
C  47.69700 17.73700 25.22300
C  43.80700 15.53700 26.95900
N  47.22200 17.57100 30.42900
C  46.67300 17.12500 31.59900
C  47.41400 17.53800 32.84700
C  48.68500 18.22500 32.23100
C  48.37300 18.14900 30.64100
C  49.04600 19.65100 32.72800
C  47.69000 16.26100 33.78000
C  47.24600 16.32400 35.23300
H  46.97400 17.68300 35.88400
N  48.31100 17.95000 27.54300
C  49.29900 18.51100 28.27900
C  50.19100 19.15900 27.36400
C  49.68100 19.01700 26.08200
C  48.46300 18.29600 26.28000
C  51.43300 19.78000 27.84000
C  50.27400 19.53200 24.74500
O  49.89900 19.21900 23.60900
C  51.43800 20.53700 24.75300
N  45.81000 16.73500 26.33700
C  46.53100 17.02600 25.20100
C  45.71800 16.64100 23.97200
C  44.48300 15.89600 24.58700
C  44.70500 16.02900 26.05000
C  45.27000 17.86300 22.99900
C  44.46500 14.40900 24.07000
C  43.38200 14.12300 22.91300
N  44.93600 16.09100 29.04600
C  43.86600 15.61100 28.40000
C  42.84400 15.31900 29.34400
C  43.38000 15.66600 30.62800
C  44.70900 16.11100 30.37300
C  41.55000 14.63800 29.09000
C  43.09300 15.69200 32.00400
O  42.06800 15.36500 32.61600
C  44.42000 16.32400 32.70000
C  43.92700 17.51100 33.49000
O  43.63500 18.62100 33.00300
O  43.66500 17.12800 34.80700
C  42.91700 18.02500 35.62000
H  50.16600 19.13500 30.25500
H  48.10900 17.89800 24.22400
H  42.91900 15.12000 26.47900
H  46.92400 18.36500 33.36000
H  49.55900 17.58500 32.34700
H  48.41000 19.89000 33.58000
H  48.63900 20.30000 31.95300
H  50.11100 19.86500 32.82600
H  48.72600 15.92300 33.81600
H  47.17800 15.43300 33.29000
H  48.05200 15.83400 35.77900
H  46.33600 15.73200 35.33500
H  51.54500 19.67500 28.91900
H  51.34500 20.80100 27.46800
H  52.24500 19.25200 27.33900
H  52.30800 20.03000 25.16800
H  51.23900 21.35700 25.44300
H  51.65800 20.99300 23.78700
H  46.38600 15.96700 23.43600
H  43.57600 16.40800 24.26500
H  44.20200 18.08300 23.00900
H  45.49400 17.53400 21.98500
H  45.75500 18.81200 23.22800
H  44.26600 13.66300 24.83900
H  45.48900 14.18400 23.77300
H  42.68600 14.96100 22.88300
H  42.86100 13.17100 23.02000
H  43.79300 14.26900 21.91400
H  40.95900 15.41900 28.61200
H  41.15100 14.28900 30.04200
H  41.67600 13.76400 28.45000
H  44.93400 15.63500 33.37000
H  42.97300 19.03600 35.21600
H  43.35300 18.08200 36.61800
H  41.87700 17.72000 35.73900

