158

Mg -2.86700 17.72900 27.03600
C  -3.25600 15.40500 29.60800
C  -3.24400 20.24500 29.36300
C  -3.00700 19.97600 24.51000
C  -3.09100 15.16700 24.82400
N  -3.52500 17.80900 29.26400
C  -3.38500 16.74800 30.07500
C  -3.27800 17.19700 31.50300
C  -3.59500 18.74700 31.42300
C  -3.48400 18.94500 29.91700
C  -4.93100 19.21700 32.10400
C  -1.95600 16.73500 32.21300
C  -1.40100 17.62200 33.42300
H  -1.15100 16.79900 34.70700
N  -2.98000 19.85600 26.98600
C  -2.99200 20.67100 28.07300
C  -2.72900 21.99100 27.67100
C  -2.54100 22.03700 26.26000
C  -2.83400 20.58600 25.81400
C  -2.78100 23.20200 28.60500
C  -2.05200 23.17000 25.31800
O  -1.90800 22.94400 24.12700
C  -1.52300 24.38500 25.95500
N  -3.20500 17.62200 25.01100
C  -3.30800 18.67700 24.11800
C  -3.49700 18.27700 22.69300
C  -3.56700 16.71700 22.81200
C  -3.24800 16.47300 24.28200
C  -4.74900 18.86400 21.86800
C  -2.56100 16.00000 21.92800
C  -1.07700 16.00200 22.37400
N  -3.02900 15.69900 27.16100
C  -3.04700 14.78800 26.17200
C  -3.08800 13.46500 26.72400
C  -3.19400 13.67600 28.00000
C  -3.12600 15.03600 28.26900
C  -3.09000 12.24300 25.97400
C  -3.21800 12.99500 29.20100
O  -3.25400 11.80500 29.42000
C  -3.30400 14.05700 30.30800
C  -2.17900 13.65900 31.19300
O  -1.04300 13.67900 30.87200
O  -2.66100 13.23700 32.40900
C  -1.78900 12.78400 33.47400
H  -3.04600 21.04800 30.07600
H  -2.82900 20.58300 23.62000
H  -3.30400 14.32400 24.16300
H  -4.03000 16.68900 32.10700
H  -2.68900 19.23100 31.78900
H  -5.31800 18.27500 32.49200
H  -5.55000 19.68600 31.33900
H  -4.83100 19.96600 32.89000
H  -1.12600 16.68200 31.50800
H  -2.11300 15.72800 32.59900
H  -2.16600 18.34900 33.69800
H  -0.49100 18.11900 33.08500
H  -3.11600 24.04900 28.00700
H  -1.77000 23.50700 28.87700
H  -3.55000 23.15500 29.37600
H  -0.77500 24.21500 26.73000
H  -2.33000 25.07000 26.21400
H  -1.05800 24.97800 25.16700
H  -2.55400 18.48600 22.18800
H  -4.56000 16.30600 22.62600
H  -5.31600 19.51500 22.53200
H  -5.37300 18.04100 21.51800
H  -4.44400 19.51100 21.04600
H  -2.68700 16.50100 20.96800
H  -2.95300 15.00100 21.73700
H  -0.97500 16.75800 23.15200
H  -0.45900 16.30300 21.52900
H  -0.78700 15.04800 22.81600
H  -2.93800 11.35000 26.58100
H  -2.35300 12.22000 25.17100
H  -4.07600 12.19100 25.51200
H  -4.28500 13.88200 30.74900
H  -1.83200 13.52900 34.26900
H  -0.73400 12.65500 33.23000
H  -2.13200 11.87800 33.97200
Mg 25.43400 2.41700 29.64400
C  27.59800 2.28900 32.41100
C  22.77100 2.42200 31.88900
C  23.47800 2.44500 27.01500
C  28.17000 1.47600 27.59800
N  25.25100 2.48800 31.88900
C  26.28900 2.58300 32.79100
C  25.79500 2.78400 34.22300
C  24.20900 2.71500 34.06000
C  24.03300 2.57900 32.50800
C  23.63200 1.48200 34.89500
C  26.44700 4.08900 34.84000
C  27.14400 3.96500 36.23100
H  26.70500 4.75700 37.54300
N  23.42300 2.51600 29.44400
C  22.50700 2.40600 30.42800
C  21.17700 2.32100 29.85800
C  21.31700 2.35300 28.46900
C  22.79500 2.47500 28.23400
C  19.93600 2.22100 30.70100
C  20.29700 2.22600 27.32500
O  20.56100 2.04100 26.17200
C  18.87300 2.25800 27.59500
N  25.70800 1.75300 27.58300
C  24.78400 2.18900 26.68900
C  25.33800 2.17900 25.28700
C  26.86200 1.92200 25.45900
C  26.91800 1.74400 26.98400
C  24.53200 1.07600 24.47900
C  27.74300 3.13200 24.86400
C  27.93000 4.42500 25.83900
N  27.43000 1.84700 29.93700
C  28.37100 1.47500 28.96800
C  29.63500 1.28500 29.69200
C  29.35600 1.66900 31.03700
C  28.01800 1.91700 31.10300
C  30.89200 0.71200 29.15500
C  29.85900 1.76500 32.37500
O  31.03100 1.58600 32.80000
C  28.71700 2.12400 33.30200
C  28.67400 1.02200 34.22000
O  28.17200 -0.06200 34.03700
O  29.15400 1.40300 35.43300
C  28.82000 0.52700 36.62600
H  21.88000 2.55600 32.50500
H  22.79400 2.62400 26.18300
H  28.88800 1.34800 26.78500
H  26.16100 1.87400 34.69900
H  23.71300 3.60800 34.43900
H  22.64600 1.21400 34.51400
H  23.56000 1.90900 35.89500
H  24.38500 0.70800 34.74100
H  25.73200 4.88800 35.03900
H  27.08500 4.60300 34.12200
H  28.20100 4.20800 36.11700
H  27.22100 2.91000 36.49300
H  20.14000 2.13000 31.76700
H  19.45600 1.29100 30.39700
H  19.28100 3.09100 30.64100
H  18.47500 1.33500 28.01700
H  18.41400 2.39800 26.61600
H  18.77700 3.06200 28.32400
H  25.15400 3.18800 24.91800
H  27.11000 0.97400 24.98100
H  23.85600 0.52200 25.13000
H  25.12300 0.33900 23.93400
H  23.96300 1.62100 23.72600
H  27.28500 3.47500 23.93600
H  28.60500 2.62700 24.42700
H  28.08100 4.15800 26.88500
H  27.00400 4.99800 25.78400
H  28.81800 4.98400 25.54400
H  30.49900 -0.07100 28.50500
H  31.56300 0.23200 29.86600
H  31.40300 1.47000 28.56200
H  28.93900 2.98800 33.92900
H  27.77200 0.46700 36.92000
H  29.45700 0.78000 37.47400
H  29.23100 -0.45100 36.37500

