158

Mg 44.17900 4.10500 47.63200
C  42.15900 6.93400 47.04400
C  41.37100 2.12300 47.39200
C  46.25800 1.54300 47.94200
C  47.02300 6.37300 47.53000
N  41.99400 4.52700 47.13000
C  41.44500 5.72400 46.98200
C  39.97200 5.55500 46.56700
C  39.63900 4.09300 47.01400
C  41.08200 3.47900 47.17500
C  38.83600 3.94300 48.25500
C  39.77000 5.79500 45.07600
C  38.85500 6.97100 44.65800
H  39.27700 7.72100 43.46000
N  43.88900 2.05800 47.73600
C  42.62600 1.45200 47.57200
C  42.78600 0.05700 47.69200
C  44.18400 -0.18600 47.95800
C  44.85100 1.14900 47.90600
C  41.75700 -0.94500 47.46600
C  44.74800 -1.60800 48.08800
O  44.10500 -2.65700 48.02000
C  46.21200 -1.75200 48.25000
N  46.31700 3.98200 47.59500
C  46.86600 2.78800 47.83500
C  48.40500 2.90300 47.70000
C  48.65700 4.44900 47.55400
C  47.23400 5.00400 47.47800
C  49.31400 2.19100 48.79700
C  49.59600 4.88500 46.38700
C  50.73000 5.89300 46.69700
N  44.60800 6.30100 47.40800
C  45.77300 7.04200 47.50200
C  45.39400 8.48500 47.43000
C  44.00600 8.50700 47.23300
C  43.57100 7.12000 47.17200
C  46.27100 9.76000 47.69900
C  42.79600 9.39200 47.08900
O  42.64000 10.56900 47.05000
C  41.59300 8.36800 46.86000
C  40.40700 8.56800 47.84900
O  40.31900 8.01500 48.90700
O  39.54800 9.51800 47.32600
C  38.35600 9.80900 48.11600
H  40.49200 1.47700 47.36000
H  46.94600 0.70200 48.05400
H  47.92700 6.96800 47.67500
H  39.42700 6.28900 47.16000
H  39.19800 3.53900 46.18500
H  38.49700 4.96600 48.42100
H  39.37500 3.57700 49.12900
H  37.97000 3.28300 48.18900
H  39.44900 4.88100 44.57500
H  40.74800 6.11200 44.71400
H  38.80000 7.69100 45.47500
H  37.86300 6.67500 44.31600
H  40.86800 -0.55800 46.96800
H  41.45800 -1.44200 48.38800
H  42.15800 -1.62600 46.71500
H  46.85000 -1.68400 47.37000
H  46.61100 -2.58900 48.82400
H  46.49800 -0.96700 48.95000
H  48.71600 2.36500 46.80500
H  48.95600 4.82600 48.53100
H  48.53700 1.86200 49.48700
H  50.07200 2.81100 49.27600
H  49.84200 1.28000 48.51400
H  48.94100 5.37300 45.66600
H  50.01900 3.99400 45.92300
H  50.55300 6.89700 46.31100
H  51.70900 5.44800 46.51600
H  50.81100 6.00300 47.77800
H  45.81900 10.63800 47.23800
H  47.23300 9.57200 47.22000
H  46.43300 9.79200 48.77600
H  41.25800 8.35100 45.82300
H  38.31600 9.17200 48.99900
H  37.55900 9.73800 47.37600
H  38.39400 10.84300 48.45900
Mg 41.32700 7.93200 29.51300
C  43.11400 9.73500 32.05900
C  39.07800 6.99200 31.89800
C  39.76200 6.42900 27.15900
C  44.10000 8.58500 27.42100
N  41.16300 8.30800 31.77000
C  41.91200 9.16200 32.50200
C  41.35200 9.20900 33.94300
C  40.18900 8.12100 33.95600
C  40.14600 7.71500 32.51100
C  40.33400 6.87200 34.92500
C  40.88800 10.70000 34.37100
C  40.15100 10.80700 35.79500
H  40.50000 11.88800 36.82200
N  39.60000 6.88200 29.51100
C  38.84900 6.57500 30.58600
C  37.77800 5.74000 30.17800
C  37.81800 5.78200 28.76100
C  39.07700 6.41200 28.35900
C  36.77200 5.22800 31.18400
C  36.85100 5.11000 27.75900
O  37.01500 5.27400 26.53800
C  35.64200 4.28000 28.32300
N  41.91000 7.54400 27.58000
C  41.02800 6.82300 26.81500
C  41.65800 6.47600 25.38700
C  42.94900 7.37900 25.44000
C  42.99600 7.89400 26.87400
C  41.89400 4.92100 25.19400
C  42.94700 8.58600 24.44500
C  41.83900 9.56000 24.62200
N  43.27500 8.83200 29.67600
C  44.26000 9.05600 28.73700
C  45.42100 9.82400 29.37400
C  44.90400 10.19400 30.53700
C  43.65700 9.53500 30.74300
C  46.63800 10.38500 28.74200
C  45.25300 10.99900 31.65900
O  46.15700 11.75900 31.92500
C  44.09400 10.77100 32.68700
C  44.67500 10.27600 33.98900
O  45.16100 9.23400 34.11100
O  44.56500 11.22500 34.95000
C  45.25100 11.02700 36.23100
H  38.33300 6.87500 32.68800
H  39.24800 5.89100 26.35900
H  44.87800 8.91500 26.72900
H  42.22900 8.87100 34.49300
H  39.23400 8.62100 34.11300
H  41.37300 6.75800 35.23100
H  40.17200 5.97100 34.33300
H  39.58700 6.88600 35.71900
H  40.24000 11.04400 33.56500
H  41.74700 11.37100 34.40600
H  40.40000 9.87100 36.29500
H  39.07000 10.85000 35.66300
H  36.57100 4.17800 30.96900
H  35.89500 5.87200 31.12700
H  37.11200 5.26300 32.22000
H  35.05700 4.93600 28.96900
H  36.02500 3.46400 28.93400
H  34.97300 3.97500 27.51700
H  40.89100 6.77000 24.67100
H  43.90000 6.85000 25.38900
H  41.32700 4.39900 25.96500
H  42.91000 4.64900 25.48300
H  41.68500 4.45100 24.23300
H  42.94500 8.03200 23.50600
H  43.86800 9.16900 24.40900
H  41.16500 9.40200 25.46400
H  41.33500 9.55000 23.65600
H  42.20500 10.57500 24.77800
H  46.45500 11.30600 28.18800
H  46.95500 9.58600 28.07200
H  47.34800 10.56600 29.54900
H  43.62500 11.69700 33.02200
H  44.52400 10.66100 36.95500
H  45.77800 11.93500 36.52400
H  46.09300 10.33400 36.20700

