158

Mg 17.28700 -2.43800 27.49800
C  16.00800 -0.44000 30.10400
C  18.99800 -4.18700 29.92800
C  18.53300 -4.40500 25.06100
C  15.42100 -0.70500 25.21700
N  17.60500 -2.16000 29.71600
C  16.82100 -1.38700 30.56500
C  17.29400 -1.54500 32.10000
C  18.25800 -2.82700 32.07300
C  18.32900 -3.10600 30.46500
C  19.56900 -2.58300 32.85700
C  16.10200 -1.68100 33.08900
C  16.13200 -0.97100 34.43100
H  17.48900 -0.43500 35.03600
N  18.56800 -4.11900 27.49500
C  19.21700 -4.67400 28.61900
C  19.92600 -5.90200 28.19500
C  19.75800 -6.02400 26.82500
C  18.92900 -4.77600 26.37100
C  20.65500 -6.90000 29.14000
C  20.24500 -7.10300 25.81400
O  19.81900 -7.05300 24.64200
C  21.15500 -8.18900 26.30200
N  17.01300 -2.54400 25.39600
C  17.73700 -3.34600 24.65000
C  17.50600 -3.05700 23.19100
C  16.35000 -2.01300 23.19900
C  16.18700 -1.77100 24.70100
C  18.86700 -2.61600 22.45400
C  14.99500 -2.40500 22.50200
C  13.67800 -2.69600 23.32900
N  15.89700 -0.91800 27.57900
C  15.23000 -0.27800 26.56600
C  14.37300 0.76700 27.11400
C  14.72400 0.78200 28.49100
C  15.64800 -0.23600 28.71300
C  13.22300 1.59000 26.46900
C  14.40400 1.42000 29.73400
O  13.57300 2.24700 30.05900
C  15.24700 0.66700 30.85200
C  16.05300 1.61800 31.58800
O  16.90800 2.36000 31.08200
O  15.52000 1.81000 32.80800
C  15.99000 3.07700 33.44200
H  19.46000 -4.81100 30.69600
H  18.74600 -5.11700 24.26100
H  14.79900 -0.21900 24.46200
H  17.86300 -0.62600 32.23700
H  17.84600 -3.70400 32.57300
H  19.88900 -1.54500 32.77700
H  20.36100 -3.22900 32.48000
H  19.31100 -2.94400 33.85300
H  16.16100 -2.71200 33.43800
H  15.21400 -1.51200 32.48000
H  15.72900 -1.59300 35.23100
H  15.39700 -0.17600 34.30700
H  20.32000 -7.92600 28.98200
H  20.37800 -6.62100 30.15700
H  21.72800 -6.92200 28.95000
H  21.95800 -7.83000 26.94500
H  21.61500 -8.79000 25.51700
H  20.64200 -8.86600 26.98600
H  17.02700 -3.92900 22.74700
H  16.73300 -1.10200 22.74000
H  19.67700 -2.93500 23.11000
H  18.96900 -1.53100 22.44500
H  18.97900 -3.27300 21.59200
H  15.21200 -3.28100 21.89000
H  14.75700 -1.63000 21.77400
H  13.06400 -1.80100 23.23200
H  13.89200 -2.88700 24.38000
H  13.12100 -3.50700 22.85800
H  12.49100 1.39400 27.25100
H  12.96100 1.09100 25.53600
H  13.40000 2.63600 26.21600
H  14.50700 0.22400 31.51900
H  15.81000 3.84300 32.68800
H  17.04300 2.92700 33.67800
H  15.46200 3.46900 34.31100
Mg 35.41400 2.99000 29.82700
C  33.12100 3.73000 32.30700
C  37.91100 2.94500 32.12300
C  37.62300 2.65000 27.21700
C  32.82700 3.07400 27.45900
N  35.58300 3.34500 31.94600
C  34.47100 3.57400 32.72700
C  34.89500 3.59000 34.16500
C  36.44900 3.69100 34.05200
C  36.72100 3.37200 32.60800
C  37.06000 5.00700 34.45700
C  34.35400 2.29600 34.99500
C  34.06700 2.34500 36.48100
H  34.70300 3.42400 37.29200
N  37.43800 2.84300 29.67800
C  38.34600 2.84600 30.69700
C  39.67100 2.71100 30.23100
C  39.59900 2.55300 28.79100
C  38.17000 2.66800 28.47700
C  40.83800 2.76000 31.14800
C  40.76700 2.25000 27.72200
O  40.66500 2.19300 26.49000
C  42.24500 2.25900 28.23900
N  35.27700 2.94400 27.67500
C  36.26700 2.70000 26.81600
C  35.76600 2.35900 25.46700
C  34.29700 2.60300 25.53100
C  34.07500 2.88200 27.00800
C  36.52700 3.06100 24.24300
C  33.34600 1.53200 24.91900
C  33.29000 0.05800 25.48500
N  33.37400 3.25600 29.82800
C  32.43100 3.32200 28.77800
C  31.09900 3.67500 29.32200
C  31.33900 3.80400 30.70500
C  32.72600 3.62700 30.95300
C  29.77000 3.84200 28.77100
C  30.69700 4.01300 32.00100
O  29.57400 4.39900 32.32700
C  31.87900 3.96900 33.07000
C  31.86700 5.18900 33.91000
O  31.94800 6.31700 33.46700
O  31.63100 4.82200 35.24200
C  31.64600 5.90500 36.27900
H  38.73900 2.88600 32.83300
H  38.35000 2.53800 26.41000
H  32.02700 3.20400 26.72700
H  34.54200 4.55900 34.52000
H  36.94800 2.98200 34.71200
H  37.71000 5.35200 33.65300
H  37.73200 5.05400 35.31400
H  36.29900 5.78100 34.55500
H  35.03700 1.45600 34.87300
H  33.42000 1.95900 34.54700
H  34.31600 1.35900 36.87200
H  32.99700 2.38500 36.68600
H  41.30600 1.78200 31.26600
H  40.55800 3.28600 32.06000
H  41.58300 3.32000 30.58100
H  42.41400 3.27600 28.59400
H  42.89700 1.97400 27.41400
H  42.41000 1.42600 28.92200
H  35.78300 1.27100 25.39600
H  34.00900 3.51800 25.01300
H  35.81000 3.40000 23.49600
H  37.19800 2.38600 23.71200
H  37.11100 3.94400 24.50100
H  33.55600 1.51200 23.84900
H  32.33400 1.93500 24.91200
H  33.71400 -0.53600 24.67600
H  32.31900 -0.36400 25.74600
H  33.95800 -0.01500 26.34300
H  29.88700 4.29900 27.78800
H  29.14200 4.49000 29.38200
H  29.22600 2.90000 28.69300
H  31.63200 3.09700 33.67500
H  30.68200 6.41000 36.22700
H  32.35700 6.67700 35.98700
H  31.82500 5.45500 37.25500

