158

Mg 1.61300 -1.44700 43.68500
C  4.86600 -0.82100 43.21700
C  0.72600 1.22300 41.49700
C  -1.67700 -2.35200 43.77400
C  2.51200 -4.71100 44.86100
N  2.63800 -0.01000 42.40400
C  4.06200 0.12300 42.49200
C  4.50200 1.39000 41.76000
C  3.17200 2.07800 41.29200
C  2.08600 1.06300 41.80600
C  2.94900 3.51500 41.82300
C  5.30200 1.00800 40.47400
C  6.35000 2.03200 40.01400
H  6.22400 2.61800 38.61500
N  -0.18800 -0.57000 42.92800
C  -0.31100 0.43700 42.05800
C  -1.76800 0.57500 41.69600
C  -2.45300 -0.26900 42.58200
C  -1.39600 -1.13200 43.18100
C  -2.26600 1.48300 40.66500
C  -3.98200 -0.42700 42.75500
O  -4.75700 0.12900 42.02300
C  -4.60800 -0.99500 43.98200
N  0.55700 -3.40100 44.05200
C  -0.77600 -3.33700 44.25900
C  -1.19300 -4.57900 44.92100
C  0.03200 -5.53000 44.97800
C  1.13500 -4.47900 44.69100
C  -1.79400 -4.24700 46.28200
C  0.00000 -6.69300 43.90500
C  -0.05500 -8.17900 44.34100
N  3.36400 -2.53900 44.10400
C  3.60700 -3.75200 44.56000
C  5.01300 -3.90600 44.80600
C  5.56800 -2.74600 44.34400
C  4.49700 -1.98700 43.84000
C  5.58700 -5.08300 45.47300
C  6.74600 -2.02500 44.19900
O  7.87200 -2.34800 44.42600
C  6.36200 -0.76900 43.44800
C  6.78700 0.32300 44.33000
O  6.35400 0.61500 45.42700
O  7.72000 1.11800 43.68900
C  8.10900 2.25800 44.51600
H  0.40600 1.98200 40.78000
H  -2.74900 -2.54100 43.86900
H  2.85200 -5.64100 45.32100
H  5.09800 2.04500 42.39600
H  3.21400 2.11900 40.20400
H  2.30800 3.45700 42.70300
H  2.56600 4.14300 41.01900
H  3.91200 3.95500 42.07800
H  4.62700 0.78500 39.64800
H  5.80700 0.04200 40.48400
H  7.33600 1.57500 40.10400
H  6.37000 2.88800 40.68800
H  -2.97300 1.04900 39.95800
H  -1.49900 1.86700 39.99200
H  -2.64400 2.36500 41.18100
H  -5.02100 -1.99100 43.82400
H  -5.43400 -0.32300 44.21600
H  -3.82000 -0.93900 44.73300
H  -1.96300 -4.96300 44.25200
H  0.26800 -5.88200 45.98200
H  -2.67200 -3.63800 46.06600
H  -1.20800 -3.63500 46.96800
H  -2.22800 -5.19200 46.60900
H  0.90700 -6.58000 43.31200
H  -0.79800 -6.58500 43.17100
H  -0.56100 -8.20300 45.30700
H  0.93800 -8.58700 44.53000
H  -0.64200 -8.78500 43.65100
H  5.04600 -5.91500 45.02100
H  5.45800 -4.98500 46.55100
H  6.61200 -5.24700 45.14100
H  6.94000 -0.74100 42.52400
H  9.02000 2.71500 44.12800
H  8.35800 2.04200 45.55500
H  7.30400 2.98700 44.61200
Mg 45.54500 4.54100 47.90600
C  43.82000 7.39200 46.95900
C  43.06200 2.58400 47.43100
C  47.83700 1.85800 48.07800
C  48.50800 6.64700 47.74000
N  43.73800 4.87400 47.03500
C  43.13100 6.11700 46.90000
C  41.65100 5.87500 46.41400
C  41.30300 4.38300 46.68900
C  42.74700 3.89900 47.03800
C  40.19200 4.03400 47.68900
C  41.36100 6.27400 44.92900
C  40.09500 7.10800 44.75400
H  39.13300 6.80200 43.62200
N  45.48800 2.53700 47.73800
C  44.30800 1.87900 47.63500
C  44.56400 0.43900 47.68200
C  45.87300 0.25300 48.02900
C  46.47300 1.59100 47.92800
C  43.47100 -0.54000 47.49200
C  46.53400 -1.11600 48.43500
O  45.86400 -2.18900 48.36600
C  47.96400 -1.15200 48.83900
N  47.76800 4.29800 47.97500
C  48.42300 3.10200 47.93300
C  49.91500 3.21200 47.94900
C  50.10400 4.71300 47.83000
C  48.69500 5.30100 47.77200
C  50.67300 2.54500 49.12700
C  51.01000 5.10900 46.62000
C  52.43700 5.65600 46.84200
N  46.09300 6.62400 47.70300
C  47.29300 7.35700 47.70700
C  47.01600 8.77000 47.51400
C  45.61000 8.83100 47.32500
C  45.15700 7.54900 47.34600
C  47.86500 9.94300 47.26500
C  44.50600 9.72900 46.89900
O  44.45500 10.89200 46.54400
C  43.26200 8.79300 46.73400
C  42.24500 9.05300 47.82200
O  42.40100 8.81600 49.01200
O  41.11200 9.48300 47.25100
C  39.93600 9.69900 48.12100
H  42.26500 1.84400 47.53000
H  48.57700 1.05600 48.03600
H  49.44900 7.18500 47.87200
H  41.13100 6.56800 47.07600
H  41.08800 3.85400 45.76000
H  39.77900 3.03800 47.53000
H  39.34000 4.70200 47.57300
H  40.54100 4.16400 48.71300
H  41.30100 5.37500 44.31500
H  42.12900 6.97100 44.59400
H  40.24400 8.18500 44.67600
H  39.50800 6.93000 45.65500
H  43.68300 -1.54900 47.84600
H  43.32300 -0.62300 46.41500
H  42.53800 -0.27300 47.98900
H  48.05500 -1.98900 49.53100
H  48.33200 -0.38000 49.51500
H  48.61100 -1.30800 47.97500
H  50.26900 2.65000 47.08400
H  50.59900 4.98900 48.76100
H  49.98100 2.39200 49.95500
H  51.56200 3.09700 49.43500
H  51.03000 1.52700 48.97600
H  50.47200 5.86000 46.04200
H  51.13000 4.32900 45.86800
H  53.13200 5.06400 46.24600
H  52.67800 5.72100 47.90300
H  52.45700 6.61500 46.32500
H  48.93300 9.74800 47.16900
H  47.75400 10.71200 48.02900
H  47.46400 10.36000 46.34100
H  42.79100 8.86200 45.75400
H  39.36200 8.78600 48.27800
H  39.17800 10.43900 47.86500
H  40.27400 9.92600 49.13200

