158

Mg 35.84400 1.65900 29.13700
C  33.72500 2.79400 31.78700
C  38.37300 1.64400 31.34300
C  37.75200 0.92500 26.51300
C  33.11500 2.26000 26.92800
N  35.95600 1.98400 31.32900
C  34.97700 2.48000 32.18400
C  35.50500 2.56900 33.61700
C  37.04800 2.23400 33.43500
C  37.14300 1.86400 31.97800
C  37.92400 3.53000 33.71600
C  34.75500 1.49300 34.51500
C  34.42800 1.97200 35.93500
H  35.26900 3.01600 36.66800
N  37.82400 1.28800 28.93800
C  38.67300 1.31300 29.99800
C  39.94500 0.87200 29.52700
C  39.89600 0.82600 28.11200
C  38.46100 1.02500 27.73700
C  41.08300 0.68000 30.48100
C  40.96100 0.63100 27.16800
O  40.72400 0.55900 25.98600
C  42.37800 0.50100 27.55000
N  35.42200 1.56700 26.94500
C  36.39500 1.11200 26.07600
C  35.86200 1.27200 24.60900
C  34.34600 1.54400 24.81900
C  34.25400 1.79100 26.35100
C  36.61200 2.30500 23.82700
C  33.38400 0.50000 24.19300
C  32.97400 -0.78200 24.92200
N  33.90500 2.39100 29.29500
C  32.91200 2.56000 28.33200
C  31.68400 2.96500 28.92600
C  31.93900 3.11600 30.32000
C  33.26100 2.73000 30.44400
C  30.33800 3.15300 28.22100
C  31.37900 3.53800 31.63000
O  30.28400 4.04000 31.88600
C  32.55400 3.26100 32.62600
C  32.59400 4.52600 33.46800
O  33.15000 5.59000 33.18400
O  31.80200 4.41600 34.57900
C  31.55100 5.64200 35.33600
H  39.25000 1.73500 31.98700
H  38.31200 0.66400 25.61200
H  32.23300 2.43100 26.30800
H  35.26600 3.57900 33.94900
H  37.49100 1.49500 34.10300
H  38.46900 3.89200 32.84400
H  38.69800 3.20800 34.41300
H  37.44000 4.37600 34.20400
H  35.29000 0.54800 34.61400
H  33.81200 1.26900 34.01600
H  34.39600 1.15300 36.65400
H  33.45300 2.45900 35.92300
H  41.66600 -0.20700 30.23000
H  40.99700 0.70800 31.56700
H  41.68500 1.58600 30.42100
H  43.05500 0.29500 26.72100
H  42.42800 -0.32900 28.25500
H  42.66500 1.41800 28.06400
H  36.01500 0.30900 24.12200
H  34.09200 2.48000 24.32200
H  36.04400 3.20200 23.57600
H  36.97300 1.81500 22.92300
H  37.53800 2.59200 24.32400
H  33.70800 0.21900 23.19000
H  32.43900 1.00300 23.98900
H  33.58400 -0.99800 25.79900
H  33.21000 -1.65500 24.31300
H  31.97500 -0.72700 25.35200
H  30.10100 2.20700 27.73500
H  30.49300 3.81200 27.36600
H  29.62000 3.52400 28.95300
H  32.11300 2.50800 33.27800
H  30.47900 5.73000 35.51000
H  31.87500 6.58000 34.88400
H  32.01400 5.49600 36.31200
Mg 16.76900 52.79300 26.66200
C  18.53800 51.41700 29.27800
C  14.31300 53.67000 28.81100
C  15.00700 53.92500 24.02300
C  19.11600 51.40100 24.42800
N  16.36800 52.36900 28.77900
C  17.29900 51.96600 29.71600
C  16.85200 52.26000 31.15600
C  15.29600 52.47900 30.94500
C  15.30400 52.81200 29.42300
C  14.37800 51.24200 31.28200
C  17.65500 53.47200 31.76700
C  17.66400 53.44300 33.27100
H  16.65000 52.52300 34.05100
N  14.93500 53.76200 26.44000
C  14.08300 54.08700 27.50800
C  12.97200 54.85300 26.95600
C  13.02100 54.74400 25.53600
C  14.34000 54.07000 25.26300
C  11.90300 55.33400 27.87100
C  11.99200 55.21600 24.58400
O  12.12600 54.97600 23.35300
C  10.77400 55.77400 25.13500
N  17.04300 52.67100 24.55000
C  16.23200 53.32200 23.68100
C  16.72500 53.06600 22.22400
C  18.15000 52.55000 22.39500
C  18.10700 52.13900 23.81800
C  15.70200 52.26700 21.38000
C  19.38200 53.50700 22.05900
C  20.48100 52.83000 21.18200
N  18.46500 51.63900 26.77900
C  19.32500 51.10900 25.80600
C  20.39000 50.47700 26.42200
C  20.16200 50.60900 27.78800
C  18.95600 51.25900 27.98200
C  21.53300 49.83600 25.70400
C  20.68600 50.23200 29.08100
O  21.73500 49.70400 29.43600
C  19.63300 50.78800 30.11900
C  19.17700 49.70200 31.07200
O  18.74700 48.59300 30.78400
O  19.38800 50.08600 32.39800
C  19.20700 49.00700 33.33800
H  13.41400 53.97900 29.34800
H  14.36800 54.36100 23.25200
H  19.95000 51.03500 23.82500
H  16.89500 51.34500 31.74600
H  15.06500 53.33100 31.58400
H  13.92500 50.99800 30.32100
H  13.68800 51.44100 32.10100
H  14.92900 50.32600 31.49400
H  17.24100 54.38600 31.34100
H  18.71100 53.46800 31.49600
H  17.43500 54.43600 33.65700
H  18.61400 53.21000 33.75300
H  12.41400 55.66500 28.77400
H  11.21800 54.55000 28.19400
H  11.30800 56.15400 27.46800
H  10.08300 55.90500 24.30300
H  10.97300 56.75400 25.56900
H  10.27900 55.15100 25.87900
H  16.80200 54.04400 21.74900
H  18.23900 51.68600 21.73600
H  16.20400 51.31900 21.18900
H  15.47400 52.77000 20.44000
H  14.78200 52.17700 21.95900
H  19.85300 53.92300 22.94900
H  19.01100 54.28800 21.39300
H  20.72300 53.42400 20.30100
H  20.15800 51.84600 20.84200
H  21.32900 52.76200 21.86400
H  21.07700 49.14800 24.99200
H  22.05500 49.26500 26.47200
H  22.05400 50.63100 25.17100
H  20.12900 51.53100 30.74300
H  18.22200 48.56300 33.19000
H  19.17200 49.35400 34.37100
H  20.04100 48.31000 33.26200

