158

Mg 17.12000 -2.15900 27.30600
C  15.77100 -0.14900 29.84900
C  19.41900 -3.44600 29.41800
C  18.89400 -3.37100 24.61900
C  15.11400 -0.37700 24.99400
N  17.57000 -1.74300 29.36900
C  16.82100 -0.99400 30.28700
C  17.28400 -1.24000 31.71000
C  18.46600 -2.15700 31.56700
C  18.49400 -2.53200 30.05500
C  19.81800 -1.55000 32.05900
C  16.12500 -1.95400 32.45700
C  15.89300 -1.38300 33.95300
H  17.07000 -0.69300 34.71000
N  18.67800 -3.54200 27.14700
C  19.51000 -3.94100 28.12800
C  20.51100 -4.81900 27.54700
C  20.40800 -4.79500 26.16700
C  19.32200 -3.87400 25.90700
C  21.50400 -5.53700 28.44300
C  21.16700 -5.45300 25.14600
O  20.89600 -5.33400 23.93200
C  22.30100 -6.29000 25.33500
N  16.96100 -1.97200 25.19000
C  17.85600 -2.47500 24.27300
C  17.53300 -1.99000 22.88900
C  16.19500 -1.26000 23.00700
C  16.01700 -1.24500 24.49100
C  18.64300 -1.12900 22.24100
C  14.99500 -1.82300 22.19300
C  13.92500 -2.61800 22.96900
N  15.74000 -0.48600 27.34700
C  14.97000 0.04700 26.32200
C  14.10800 1.07900 26.93100
C  14.35600 0.98400 28.30300
C  15.37900 0.04300 28.47400
C  13.25500 2.02600 26.15900
C  14.02700 1.54800 29.64500
O  13.11900 2.31500 29.99000
C  14.89300 0.74600 30.70400
C  15.66400 1.70500 31.49800
O  16.83700 1.97800 31.19800
O  14.88500 2.34200 32.46600
C  15.69100 3.45000 33.07100
H  20.03200 -3.85300 30.22500
H  19.55100 -3.55200 23.76600
H  14.49200 0.13700 24.25900
H  17.53600 -0.24200 32.06900
H  18.36000 -3.13800 32.03100
H  20.34500 -2.33900 32.59500
H  19.69200 -0.67700 32.70000
H  20.38200 -1.21500 31.18900
H  16.25500 -3.02300 32.62200
H  15.24200 -1.92000 31.81900
H  15.43800 -2.23400 34.46000
H  15.06600 -0.67300 33.93100
H  21.78100 -6.52700 28.08000
H  21.17400 -5.66900 29.47300
H  22.48300 -5.07600 28.58000
H  22.71500 -6.58600 24.37100
H  22.05800 -7.15400 25.95400
H  22.99900 -5.63400 25.85500
H  17.32900 -2.79700 22.18500
H  16.25400 -0.20200 22.75000
H  18.15700 -0.33500 21.67400
H  19.15500 -1.62000 21.41300
H  19.39500 -0.69600 22.90100
H  15.38900 -2.56100 21.49400
H  14.54600 -0.98200 21.66500
H  13.08000 -1.97800 23.22200
H  14.30700 -3.18000 23.82200
H  13.54100 -3.35200 22.26100
H  12.65200 1.56600 25.37700
H  13.85200 2.77800 25.64300
H  12.66700 2.60900 26.86900
H  14.21900 0.15800 31.32700
H  16.38600 3.85500 32.33500
H  16.08500 2.99900 33.98200
H  15.22800 4.39300 33.36000
Mg 42.99300 42.11800 25.76600
C  42.55600 44.11000 28.69700
C  44.50600 39.81800 27.95200
C  43.93200 40.33300 23.15300
C  41.94300 44.77100 23.83100
N  43.39300 41.99800 28.09800
C  43.11100 42.85300 29.04700
C  43.56900 42.46100 30.48100
C  44.43800 41.24900 30.13200
C  44.13400 40.96800 28.66600
C  45.93800 41.42100 30.45100
C  42.34700 42.14300 31.38300
C  42.24000 42.96100 32.70400
H  40.83100 43.43200 33.14400
N  43.88800 40.16400 25.57600
C  44.33900 39.40700 26.61500
C  44.85200 38.15200 26.12600
C  44.71600 38.20800 24.65600
C  44.22400 39.59300 24.35400
C  45.22000 36.95500 27.00200
C  44.88200 37.17100 23.63000
O  44.60800 37.40300 22.45400
C  45.40900 35.72900 23.92400
N  42.95200 42.50200 23.88700
C  43.40400 41.61100 22.93800
C  43.19700 42.01100 21.46800
C  42.30800 43.21400 21.68300
C  42.39200 43.56700 23.25100
C  44.44700 42.21000 20.62700
C  40.85400 43.04000 21.18600
C  39.92200 42.08900 21.97600
N  42.27800 44.03400 26.15900
C  41.93700 45.02900 25.18900
C  41.46400 46.22900 25.94700
C  41.78300 45.92200 27.31500
C  42.22800 44.53800 27.35500
C  41.22800 47.58000 25.43600
C  41.58600 46.39900 28.65800
O  41.12900 47.44900 29.09200
C  42.05200 45.29700 29.60200
C  43.10900 45.76400 30.47500
O  44.28700 45.63700 30.24600
O  42.64200 46.22400 31.67000
C  43.65500 46.67500 32.63400
H  44.98700 39.11400 28.63400
H  44.20800 39.80700 22.23700
H  41.62300 45.53700 23.12300
H  44.08300 43.27100 31.00100
H  44.14400 40.43800 30.79800
H  46.39500 40.45100 30.64200
H  46.05200 42.01500 31.35800
H  46.49900 41.84400 29.61700
H  42.34000 41.10900 31.72700
H  41.37900 42.22300 30.88800
H  42.97700 43.76400 32.69200
H  42.53600 42.33700 33.54800
H  46.30600 36.86500 27.00700
H  44.64800 36.09900 26.64300
H  44.96900 37.01000 28.06200
H  45.63100 35.11400 23.05200
H  44.53500 35.25800 24.37500
H  46.27400 35.77500 24.58600
H  42.59900 41.27700 20.92800
H  42.74300 44.11900 21.25900
H  45.28600 41.85300 21.22400
H  44.78000 43.22300 20.40200
H  44.35800 41.66600 19.68700
H  40.92700 42.67900 20.16000
H  40.42900 44.04400 21.15600
H  39.15400 41.65000 21.33900
H  39.53900 42.66900 22.81500
H  40.52000 41.31300 22.45500
H  40.97000 47.52600 24.37900
H  42.05300 48.27500 25.59400
H  40.30400 47.90900 25.91200
H  41.26800 44.88200 30.23500
H  44.00300 45.84100 33.24300
H  43.07700 47.34700 33.27000
H  44.39100 47.40100 32.28800

