158

Mg 46.13700 35.49900 28.07300
C  44.73700 33.23600 30.47500
C  46.67200 37.72100 30.51400
C  47.61600 37.31700 25.76300
C  45.45100 32.98000 25.67000
N  45.66900 35.46100 30.30100
C  45.25600 34.42400 31.07000
C  45.43600 34.79500 32.53800
C  45.55900 36.36500 32.46700
C  45.99400 36.60700 30.98200
C  44.22300 37.15800 32.66800
C  46.73600 34.17900 33.11100
C  46.91200 34.02000 34.62600
H  46.08500 34.79500 35.60200
N  46.88300 37.43700 28.11700
C  47.18200 38.14200 29.23600
C  48.05300 39.25700 28.88700
C  48.27600 39.12800 27.49200
C  47.56700 37.93600 27.03300
C  48.67700 40.13200 29.98300
C  49.10500 40.05400 26.56600
O  49.32000 39.91700 25.34100
C  49.76600 41.29000 27.24400
N  46.29700 35.23000 25.99200
C  47.03500 36.18400 25.28700
C  47.28500 35.66700 23.79200
C  46.27000 34.44800 23.72600
C  46.04300 34.15600 25.20100
C  47.00700 36.75900 22.67000
C  46.78000 33.24700 22.92700
C  45.76200 32.59000 22.00400
N  45.31200 33.52000 28.08700
C  45.14800 32.66000 27.01200
C  44.53100 31.41700 27.52000
C  44.23200 31.73100 28.86900
C  44.76700 32.95000 29.10400
C  44.25000 30.22000 26.80500
C  43.52100 31.23500 30.01700
O  42.84500 30.25900 30.08800
C  43.75600 32.23400 31.20700
C  44.23400 31.55700 32.40600
O  45.11000 30.72200 32.39900
O  43.63200 32.08000 33.54600
C  43.89300 31.39000 34.76100
H  46.75200 38.46300 31.31200
H  48.32900 37.80000 25.09200
H  45.14000 32.18200 24.99300
H  44.57900 34.66000 33.19700
H  46.30900 36.59000 33.22500
H  44.18500 37.65800 33.63600
H  43.34400 36.51900 32.58300
H  44.10900 37.91500 31.89200
H  47.54800 34.75800 32.67000
H  46.81200 33.17400 32.69700
H  47.98800 34.19400 34.65100
H  46.64500 32.98800 34.85200
H  48.44900 39.98700 31.03900
H  48.22100 41.07300 29.67400
H  49.75600 40.18400 29.83500
H  49.02900 41.81300 27.85300
H  50.13100 41.95500 26.46200
H  50.56800 40.89200 27.86600
H  48.30300 35.28800 23.70200
H  45.33900 34.82300 23.30100
H  46.08300 36.58500 22.11700
H  47.82200 36.64600 21.95400
H  46.84100 37.78400 23.00100
H  47.33400 32.54300 23.54700
H  47.46200 33.56800 22.13900
H  45.74800 33.12200 21.05300
H  44.76400 32.84200 22.36300
H  45.97700 31.52300 21.93700
H  44.38500 29.50100 27.61300
H  45.06500 30.16800 26.08400
H  43.23200 30.20800 26.41600
H  42.81600 32.73000 31.44700
H  44.53000 30.50800 34.69100
H  42.98600 31.06100 35.26700
H  44.28400 32.12100 35.46900
Mg -9.46400 18.75600 42.50800
C  -6.10500 17.71600 42.49100
C  -8.41300 21.96300 41.72400
C  -12.62800 19.46500 41.91500
C  -10.29900 15.35500 43.05000
N  -7.40700 19.69700 41.76800
C  -6.21200 19.07800 42.11900
C  -5.07100 20.07300 42.13500
C  -5.83200 21.45900 42.20000
C  -7.30700 21.07300 41.91900
C  -5.75100 22.20800 43.57500
C  -3.85000 19.94400 41.18200
C  -4.12300 19.14800 39.84200
H  -3.65200 19.78800 38.54400
N  -10.43300 20.62000 41.97200
C  -9.81000 21.75900 41.70100
C  -10.84600 22.70400 41.45400
C  -12.10000 22.13700 41.68600
C  -11.80200 20.66000 41.87100
C  -10.61800 24.07600 41.00400
C  -13.42500 22.76400 41.59700
O  -13.38000 23.99800 41.48700
C  -14.78000 22.06600 41.84700
N  -11.22400 17.50900 42.45100
C  -12.35500 18.08800 42.14400
C  -13.52300 17.10600 42.29800
C  -12.81800 15.76200 42.61300
C  -11.37500 16.22400 42.70300
C  -14.66100 17.55000 43.25400
C  -12.99700 14.58000 41.57900
C  -14.41800 13.96500 41.33700
N  -8.47700 16.89700 42.73600
C  -8.94600 15.63500 43.03400
C  -7.87100 14.73300 43.27200
C  -6.69300 15.52800 43.10000
C  -7.15900 16.80400 42.72900
C  -7.93000 13.24700 43.58500
C  -5.26100 15.56200 43.22100
O  -4.57400 14.61300 43.49700
C  -4.80900 16.93200 42.82100
C  -3.87500 17.50100 43.87100
O  -2.72000 17.82300 43.58800
O  -4.43800 17.42900 45.11400
C  -3.68500 17.86600 46.26200
H  -8.03100 22.98000 41.61900
H  -13.70000 19.59700 41.75300
H  -10.60100 14.32200 43.23500
H  -4.62700 20.00100 43.12800
H  -5.45000 22.07300 41.38400
H  -4.76600 22.67100 43.62800
H  -5.95200 21.52400 44.40000
H  -6.50700 22.99000 43.64000
H  -3.00600 19.47900 41.69200
H  -3.63900 20.95400 40.83100
H  -5.20500 19.02000 39.87400
H  -3.68200 18.16200 39.99200
H  -11.13800 24.38000 40.09600
H  -9.55600 24.31100 40.94000
H  -11.00700 24.74200 41.77400
H  -14.60100 21.39400 42.68600
H  -14.93200 21.49600 40.93100
H  -15.54700 22.83000 41.97700
H  -13.91100 17.05000 41.28000
H  -13.15200 15.46800 43.60800
H  -14.62000 17.03200 44.21200
H  -15.61500 17.14800 42.91400
H  -14.55600 18.61600 43.45600
H  -12.25800 13.79000 41.70800
H  -12.67700 15.10200 40.67700
H  -15.31900 14.28100 41.86200
H  -14.27400 12.93700 41.66900
H  -14.68500 13.94500 40.28000
H  -6.93600 12.83200 43.75300
H  -8.52400 12.72100 42.83800
H  -8.55500 13.20600 44.47700
H  -4.28900 16.89200 41.86400
H  -4.42800 18.28300 46.94200
H  -2.92000 18.63600 46.16000
H  -3.11800 17.10400 46.79700

