158

Mg 47.98400 15.44700 28.18700
C  45.81000 15.38900 30.87100
C  50.03700 17.50000 29.79700
C  49.86600 15.53900 25.29900
C  45.42900 13.89800 26.16200
N  47.87300 16.36700 30.09100
C  46.96400 16.16700 31.09100
C  47.50400 16.74300 32.42000
C  48.50600 17.79200 31.89500
C  48.84200 17.26500 30.49700
C  47.99300 19.29700 31.88500
C  48.02300 15.73700 33.46400
C  47.81100 15.98000 35.03000
H  49.09800 16.12200 35.80400
N  49.79000 16.27000 27.68800
C  50.49700 17.11600 28.47100
C  51.68800 17.43300 27.80700
C  51.67900 16.82500 26.52600
C  50.44000 16.08600 26.44600
C  52.68600 18.38300 28.40900
C  52.79100 16.82500 25.41700
O  52.63700 16.17600 24.35200
C  54.10400 17.55000 25.65200
N  47.63000 14.98900 25.91400
C  48.66600 14.95100 25.04100
C  48.31100 14.25100 23.70900
C  46.81500 13.85300 24.00100
C  46.59100 14.24300 25.44200
C  48.41200 15.16800 22.46000
C  46.51700 12.33800 23.61500
C  46.92600 11.29700 24.64300
N  46.06800 14.71400 28.33200
C  45.18400 14.08300 27.49200
C  43.94900 13.79800 28.28200
C  44.19000 14.27500 29.57200
C  45.48300 14.85800 29.58800
C  42.72700 13.07900 27.75100
C  43.56600 14.40300 30.87200
O  42.48800 14.09400 31.27800
C  44.65000 15.10200 31.80700
C  44.01000 16.22800 32.50000
O  43.46200 17.15200 31.91200
O  43.85600 15.86700 33.76900
C  42.98100 16.74100 34.60800
H  50.63600 18.12800 30.46000
H  50.52100 15.49900 24.42600
H  44.73300 13.19300 25.70300
H  46.65500 17.27900 32.84400
H  49.40300 17.79700 32.51400
H  48.02300 19.62500 30.84600
H  48.74100 19.90500 32.39500
H  46.96300 19.37100 32.23500
H  49.08700 15.51700 33.37700
H  47.56500 14.77700 33.22400
H  47.17800 15.19500 35.44400
H  47.20900 16.85800 35.26500
H  52.51500 18.36800 29.48500
H  52.67600 19.32300 27.85900
H  53.70500 18.05500 28.20200
H  53.98900 18.59400 25.94300
H  54.57100 17.56200 24.66700
H  54.65800 17.00000 26.41300
H  48.90300 13.37900 23.43100
H  46.09100 14.39300 23.39000
H  48.77000 16.14900 22.77400
H  47.45500 15.22000 21.94100
H  49.15100 14.73200 21.78700
H  46.83200 12.06700 22.60700
H  45.43100 12.27500 23.55400
H  47.67400 11.72600 25.31100
H  47.42000 10.46700 24.13800
H  46.09500 11.03300 25.29600
H  42.59800 13.06100 26.66800
H  41.91900 13.49500 28.35300
H  42.70600 12.02400 28.02600
H  45.04100 14.36500 32.50800
H  42.53500 16.05700 35.33000
H  42.15000 17.20800 34.07900
H  43.46100 17.50000 35.22600
Mg -0.16700 44.52300 24.55300
C  1.96300 43.49600 27.14600
C  -2.88600 43.54300 26.43900
C  -2.11100 44.66000 21.78900
C  2.71600 44.85200 22.50500
N  -0.39500 43.43700 26.42800
C  0.59500 43.43500 27.45700
C  0.01900 43.31100 28.88300
C  -1.46000 42.94100 28.52600
C  -1.63000 43.35900 27.06500
C  -1.82500 41.47700 28.73600
C  0.23800 44.59600 29.77900
C  -0.10700 44.49100 31.29600
H  -0.59300 43.15200 31.75700
N  -2.24000 44.34900 24.20700
C  -3.18200 43.99200 25.12700
C  -4.46500 43.98500 24.50400
C  -4.28400 44.21900 23.08400
C  -2.81400 44.37900 22.96100
C  -5.76700 43.86400 25.24300
C  -5.26800 44.27600 21.90500
O  -4.91200 44.54700 20.75000
C  -6.67900 43.94900 22.17100
N  0.22900 44.97400 22.44800
C  -0.75500 44.96900 21.53100
C  -0.17700 45.49200 20.18100
C  1.30800 45.74400 20.51300
C  1.47400 45.21900 21.92600
C  -0.24000 44.61900 18.90000
C  1.77100 47.21800 20.58100
C  0.85900 48.14200 21.41200
N  1.87400 44.39100 24.72600
C  2.89300 44.48600 23.79300
C  4.17600 44.15100 24.45100
C  3.82000 43.73300 25.76300
C  2.44300 43.92300 25.91000
C  5.56600 44.23600 23.87500
C  4.33600 43.25900 27.04700
O  5.47200 42.91500 27.30200
C  3.16400 43.36500 28.11900
C  3.13200 42.21300 28.97300
O  2.85100 41.06800 28.59800
O  3.41800 42.60300 30.29600
C  3.47800 41.47900 31.25300
H  -3.76000 43.40300 27.07900
H  -2.80800 44.69000 20.94900
H  3.43400 45.15600 21.74000
H  0.51700 42.46800 29.36200
H  -2.07900 43.57700 29.15800
H  -2.22800 41.03100 27.82700
H  -2.64800 41.53100 29.44800
H  -1.04700 40.82500 29.13300
H  -0.38400 45.36200 29.31700
H  1.29600 44.82300 29.64300
H  -0.96000 45.14400 31.48100
H  0.65900 44.87300 31.96900
H  -6.39700 44.73500 25.06200
H  -5.57900 43.57500 26.27700
H  -6.36500 43.07000 24.79700
H  -6.63200 43.04600 22.78100
H  -7.33700 43.86100 21.30600
H  -7.13600 44.71200 22.80100
H  -0.74500 46.37200 19.88000
H  2.07900 45.37400 19.83700
H  -1.08900 44.94100 18.29800
H  -0.60500 43.67000 19.29400
H  0.68900 44.42700 18.36300
H  1.62000 47.55700 19.55600
H  2.83200 47.16700 20.82600
H  0.18500 47.63200 22.10100
H  0.38200 48.87000 20.75600
H  1.45500 48.76600 22.07700
H  5.57400 44.50300 22.81800
H  6.13800 43.32800 24.06800
H  6.05800 44.91900 24.56800
H  3.32200 44.26400 28.71400
H  4.11300 40.70300 30.82700
H  2.50600 41.19900 31.66100
H  4.06900 41.96000 32.03200

