158

Mg -1.68700 17.53600 27.26800
C  -2.38800 15.12200 29.84300
C  -2.66100 19.96700 29.47500
C  -1.55900 19.76500 24.71900
C  -1.47800 14.97900 25.01200
N  -2.52800 17.45800 29.40100
C  -2.66300 16.44600 30.26400
C  -2.95600 17.01900 31.65400
C  -3.47600 18.44100 31.38500
C  -2.86700 18.65600 30.00500
C  -5.02500 18.61500 31.48400
C  -1.70400 16.79300 32.61900
C  -1.46900 17.74600 33.81900
H  -1.01500 17.17400 35.08600
N  -2.03400 19.63600 27.08700
C  -2.21400 20.41900 28.18100
C  -2.19900 21.76800 27.60000
C  -1.74200 21.77200 26.30400
C  -1.74900 20.37400 25.96300
C  -2.51800 22.94200 28.55400
C  -1.45000 22.93400 25.34100
O  -1.02000 22.78100 24.16500
C  -1.39900 24.44400 25.78900
N  -1.83200 17.48700 25.08800
C  -1.69400 18.52300 24.24100
C  -1.59700 17.93700 22.80400
C  -1.41900 16.43700 23.01800
C  -1.56100 16.27200 24.46700
C  -2.67400 18.57700 21.90500
C  -0.06300 15.90700 22.44500
C  -0.18400 14.64500 21.62800
N  -1.76700 15.51700 27.33800
C  -1.71100 14.63000 26.32200
C  -1.76300 13.26100 26.85200
C  -2.01700 13.43000 28.21900
C  -2.03600 14.83700 28.42600
C  -1.65000 12.01000 26.04100
C  -2.25700 12.73900 29.46200
O  -2.15700 11.52500 29.72200
C  -2.34300 13.80800 30.52500
C  -1.12800 13.78500 31.40500
O  -0.01300 14.23500 31.12200
O  -1.53400 13.33900 32.69800
C  -0.45100 13.34100 33.68200
H  -2.99600 20.68800 30.22400
H  -1.36100 20.46900 23.90800
H  -1.32100 14.19300 24.27000
H  -3.63700 16.24400 32.00600
H  -3.00300 19.21800 31.98500
H  -5.50500 18.53500 30.50900
H  -5.12400 19.65600 31.79100
H  -5.51700 17.97200 32.21300
H  -0.80800 16.74200 32.00100
H  -1.77300 15.79700 33.05600
H  -2.44700 18.22300 33.89400
H  -0.67200 18.43800 33.54900
H  -2.77800 22.72200 29.59000
H  -3.40900 23.46200 28.20200
H  -1.69400 23.65600 28.56200
H  -1.46700 24.50500 26.87500
H  -2.29000 24.92100 25.38000
H  -0.42800 24.82300 25.47200
H  -0.66200 18.40500 22.49700
H  -2.29800 15.89700 22.66600
H  -3.67600 18.31000 22.24200
H  -2.51300 18.09900 20.93900
H  -2.53100 19.65700 21.94200
H  0.67700 15.73700 23.22700
H  0.26800 16.68000 21.75100
H  -1.01600 13.97900 21.85800
H  0.64900 13.96900 21.82200
H  -0.11500 14.90900 20.57300
H  -0.76300 12.06000 25.41000
H  -2.50700 11.93100 25.37300
H  -1.55200 11.14100 26.69200
H  -3.27600 13.63300 31.06200
H  -0.10800 12.30600 33.71100
H  -0.86400 13.60900 34.65500
H  0.28300 14.12800 33.51100
Mg 26.43700 49.62200 25.89800
C  24.71000 51.24700 28.47100
C  28.68300 48.58400 28.29500
C  28.51100 48.71800 23.45300
C  24.24500 51.05800 23.60300
N  26.79200 50.11200 28.20000
C  25.86800 50.65800 29.01500
C  26.14400 50.28300 30.45400
C  27.61800 49.68100 30.38800
C  27.73700 49.45000 28.87500
C  28.80200 50.29400 31.10300
C  25.01900 49.37900 31.11500
C  24.50200 49.87900 32.48100
H  24.38100 48.86300 33.63400
N  28.28400 48.62400 25.85700
C  29.03500 48.23200 27.03300
C  30.27000 47.61400 26.64200
C  30.22100 47.68300 25.21600
C  28.99000 48.37100 24.75400
C  31.30700 47.08400 27.60700
C  31.31200 47.14900 24.24200
O  31.16200 47.42400 23.04300
C  32.41600 46.29100 24.70000
N  26.38000 49.84200 23.78800
C  27.35300 49.32500 23.02000
C  26.85200 49.37900 21.53100
C  25.47000 50.02200 21.58700
C  25.36600 50.34600 23.08200
C  27.82900 50.10300 20.52400
C  24.34200 49.17600 20.97900
C  24.02600 47.89300 21.80000
N  24.83100 50.94000 25.90400
C  23.96500 51.31500 24.93800
C  22.86500 52.14400 25.41900
C  23.07000 52.06400 26.83300
C  24.34400 51.42600 27.07600
C  21.85100 52.77900 24.62700
C  22.53300 52.40000 28.12000
O  21.49500 53.11000 28.39800
C  23.51100 51.85900 29.26300
C  23.96400 53.09400 30.03100
O  24.89900 53.80300 29.75800
O  23.21100 53.12700 31.18800
C  23.63800 53.96300 32.35300
H  29.28500 48.04000 29.02500
H  29.02500 48.37400 22.55300
H  23.50900 51.41200 22.87800
H  26.28000 51.15500 31.09500
H  27.56000 48.70600 30.87200
H  28.54000 51.23400 31.58900
H  29.56600 50.54400 30.36700
H  29.23800 49.58500 31.80500
H  25.29500 48.32900 31.21700
H  24.19100 49.26300 30.41600
H  23.51200 50.29700 32.30100
H  25.07600 50.74100 32.82000
H  31.48600 47.42400 28.62700
H  32.26600 47.49400 27.28900
H  31.40300 45.99900 27.57000
H  32.95600 46.03000 23.79000
H  31.95400 45.38200 25.08700
H  33.05300 46.91900 25.32300
H  26.68500 48.34200 21.24100
H  25.45600 50.96100 21.03300
H  28.72200 50.41700 21.06500
H  27.42400 50.98200 20.02400
H  28.04900 49.35300 19.76400
H  24.57100 48.87200 19.95800
H  23.44900 49.78500 21.11700
H  22.99300 47.94700 22.14400
H  24.60400 47.73400 22.71000
H  24.15000 47.06600 21.10100
H  20.86800 52.74800 25.09800
H  21.74900 52.38800 23.61500
H  22.23700 53.79600 24.56700
H  22.97400 51.19200 29.93800
H  24.08400 53.15900 32.93900
H  22.66500 54.29400 32.71300
H  24.39300 54.69900 32.07600

