158

Mg 0.99500 7.75500 25.90100
C  1.83500 9.84300 28.52200
C  1.52400 5.01800 28.12100
C  1.21700 5.61100 23.31700
C  1.16600 10.46300 23.77000
N  1.55200 7.50900 28.06500
C  1.85000 8.54700 28.97600
C  1.89400 7.99000 30.35200
C  2.12400 6.44600 30.11900
C  1.70400 6.30000 28.67900
C  3.60000 6.04400 30.46200
C  0.61900 8.37900 31.08500
C  0.87800 8.81300 32.56600
H  2.09400 8.14600 33.17400
N  1.11400 5.68400 25.75500
C  1.24000 4.72000 26.74400
C  1.26900 3.31500 26.18600
C  1.30600 3.46600 24.71700
C  1.21200 4.93600 24.53400
C  1.40400 2.01700 26.96700
C  1.49600 2.41600 23.67800
O  1.48500 2.63700 22.47600
C  1.46200 0.99800 23.99800
N  1.08400 8.00300 23.89600
C  1.15500 6.97300 23.03900
C  1.09300 7.53000 21.51400
C  0.80200 8.99300 21.76800
C  0.96100 9.22500 23.24300
C  2.46600 7.30600 20.84700
C  -0.66400 9.49300 21.29100
C  -0.62100 10.92900 20.77100
N  1.23200 9.79900 26.08500
C  1.35500 10.75100 25.11500
C  1.53300 12.05600 25.78800
C  1.72700 11.72800 27.16000
C  1.61700 10.35600 27.24800
C  1.69100 13.46300 25.16100
C  2.06200 12.30300 28.44300
O  2.39300 13.44500 28.81800
C  1.92400 11.14100 29.41200
C  3.04300 11.12800 30.38700
O  4.16600 10.65900 30.22700
O  2.66800 11.93100 31.42800
C  3.72700 12.00400 32.49200
H  1.63400 4.15800 28.78600
H  1.26800 5.03200 22.39200
H  1.11600 11.36300 23.15400
H  2.82900 8.39600 30.73800
H  1.51900 5.87000 30.82000
H  4.17400 6.89000 30.83900
H  4.06800 5.73100 29.52800
H  3.52500 5.16300 31.09900
H  -0.08600 7.55600 31.20300
H  0.12600 9.14500 30.48600
H  0.03800 8.59500 33.22700
H  1.15200 9.86300 32.47400
H  0.70700 1.23000 26.68000
H  1.02800 2.27200 27.95800
H  2.47800 1.83800 27.00900
H  2.31600 0.79200 24.64400
H  1.43600 0.32200 23.14300
H  0.50000 0.68200 24.40100
H  0.31900 6.97000 20.98900
H  1.54400 9.61600 21.26800
H  2.51400 6.29700 20.43800
H  3.38900 7.47300 21.40200
H  2.50800 8.00500 20.01100
H  -1.39400 9.44900 22.09900
H  -0.94300 8.73000 20.56600
H  0.38600 11.33400 20.87500
H  -1.28000 11.61300 21.30500
H  -0.89600 10.92600 19.71600
H  1.16400 13.45100 24.20700
H  2.71800 13.82800 25.18600
H  1.12800 14.21300 25.71700
H  1.01900 11.33100 29.99000
H  3.15900 12.38800 33.33900
H  4.57800 12.66900 32.34800
H  4.11200 11.03100 32.79800
Mg -8.87600 18.45000 42.11700
C  -5.36700 17.91400 42.18400
C  -8.34500 21.65000 41.24900
C  -12.11200 18.65800 41.64500
C  -9.25200 14.94200 42.42600
N  -7.03100 19.63400 41.76000
C  -5.75800 19.18200 41.72100
C  -4.85400 20.38700 41.30000
C  -5.74800 21.60400 40.96800
C  -7.12200 20.95600 41.38100
C  -5.44000 22.88700 41.86800
C  -3.79300 19.96700 40.34100
C  -4.32700 19.20400 39.03200
H  -4.12900 19.76000 37.64500
N  -10.09100 20.00500 41.66000
C  -9.71400 21.28000 41.33500
C  -10.84400 22.08900 41.21600
C  -11.98200 21.28000 41.44700
C  -11.46200 19.90900 41.51800
C  -10.86300 23.60200 41.06700
C  -13.49300 21.67900 41.47300
O  -13.84900 22.81300 41.31700
C  -14.59700 20.74500 42.03400
N  -10.44300 17.00600 41.98000
C  -11.67600 17.34100 41.80800
C  -12.58800 16.17300 41.88400
C  -11.69600 14.95100 42.16100
C  -10.31400 15.65000 42.22800
C  -13.65300 16.37300 42.99800
C  -11.78600 13.73700 41.19300
C  -13.16200 13.36400 40.60600
N  -7.58000 16.74300 42.35800
C  -7.92500 15.44100 42.53300
C  -6.70500 14.64700 42.69500
C  -5.66700 15.59500 42.58900
C  -6.24300 16.83000 42.37100
C  -6.50100 13.22300 42.79100
C  -4.23800 15.78800 42.59500
O  -3.35600 14.95000 42.78600
C  -3.93000 17.33000 42.43300
C  -3.40000 17.78100 43.72100
O  -2.25200 18.14200 43.91700
O  -4.38100 17.54700 44.66400
C  -3.81200 17.51900 45.99300
H  -8.05600 22.64500 40.90400
H  -13.16700 18.76900 41.38700
H  -9.40600 13.86200 42.47200
H  -4.29600 20.67500 42.19100
H  -5.60000 21.81900 39.91000
H  -4.49300 22.78400 42.39800
H  -6.22900 23.00000 42.61100
H  -5.42700 23.79400 41.26200
H  -2.88700 19.62900 40.84300
H  -3.46500 20.92900 39.94600
H  -5.39700 19.01400 39.12100
H  -3.82800 18.23600 39.07000
H  -11.66600 23.99000 40.44000
H  -9.90900 23.81400 40.58500
H  -10.90200 24.15000 42.00800
H  -14.25300 20.20700 42.91700
H  -14.99600 20.05200 41.29300
H  -15.45400 21.34800 42.33500
H  -13.06300 16.05700 40.91000
H  -11.81300 14.61100 43.19000
H  -14.59300 16.41100 42.44700
H  -13.47100 17.32000 43.50500
H  -13.75400 15.58300 43.74200
H  -11.61900 12.85600 41.81200
H  -10.99300 13.72300 40.44500
H  -13.16700 13.59500 39.54100
H  -13.89100 13.92600 41.19100
H  -13.36800 12.33900 40.91300
H  -5.62800 13.12800 42.14500
H  -7.35700 12.70800 42.35600
H  -6.37600 12.93200 43.83400
H  -3.24200 17.65000 41.65000
H  -2.93900 16.87600 45.88300
H  -4.53100 17.12900 46.71400
H  -3.44000 18.49000 46.32000

