158

Mg 27.21900 51.02700 26.26000
C  25.23500 52.00600 29.12400
C  29.60800 50.04800 28.50300
C  29.16500 50.17200 23.50100
C  24.96700 52.56600 24.29000
N  27.36600 51.00800 28.49000
C  26.44800 51.33700 29.45600
C  26.88900 51.09700 30.89400
C  28.40700 50.72300 30.65800
C  28.50600 50.67800 29.09500
C  29.43400 51.65000 31.38100
C  26.00900 50.00900 31.60400
C  25.46700 50.36700 32.99600
H  26.45500 50.71600 34.15300
N  29.14800 50.22900 26.04800
C  29.93100 49.82100 27.18900
C  31.09100 49.10300 26.66900
C  31.04600 49.34500 25.23400
C  29.75400 49.99300 24.83300
C  32.04400 48.29200 27.51800
C  32.06900 48.96400 24.12200
O  31.97900 49.32700 22.94400
C  33.22000 48.19900 24.46600
N  27.16300 51.40200 24.11400
C  27.91900 50.84100 23.19500
C  27.34200 50.95000 21.83600
C  25.95500 51.65900 22.09700
C  26.02600 51.96700 23.59600
C  28.24900 51.61900 20.80400
C  24.77600 50.70800 21.72100
C  23.45700 51.39900 21.30800
N  25.48500 52.03100 26.61200
C  24.70000 52.59500 25.64700
C  23.50600 53.18700 26.24000
C  23.73800 52.96600 27.60000
C  24.93900 52.28900 27.77400
C  22.26600 53.86200 25.63200
C  23.14200 53.20800 28.95600
O  22.18100 53.85300 29.27600
C  24.16400 52.61500 29.96600
C  24.70900 53.67000 30.82300
O  25.73500 54.28600 30.66000
O  23.85400 53.81100 31.88800
C  24.23000 54.89700 32.78500
H  30.31300 49.64000 29.23000
H  29.74900 49.66000 22.73300
H  24.13200 52.83100 23.63800
H  26.84800 52.01600 31.47800
H  28.62100 49.73700 31.06900
H  29.05100 52.59600 31.76400
H  29.96100 52.01200 30.49700
H  30.09300 51.11100 32.06100
H  26.63900 49.12600 31.71500
H  25.23200 49.58500 30.96800
H  24.77700 49.55700 33.23700
H  24.76600 51.18600 32.83400
H  31.96800 47.24800 27.21600
H  31.70100 48.30400 28.55200
H  33.09800 48.55600 27.42700
H  32.88500 47.35900 25.07500
H  33.79900 48.88000 25.08900
H  33.69000 47.82800 23.55500
H  27.27800 49.95100 21.40500
H  25.84700 52.63500 21.62400
H  28.59500 50.88200 20.07900
H  28.99400 52.22200 21.32400
H  27.71200 52.27600 20.12000
H  24.56400 49.92000 22.44400
H  25.17000 50.26100 20.80800
H  23.11700 51.13700 20.30600
H  23.55800 52.48400 21.35700
H  22.78300 51.11400 22.11600
H  22.34400 54.94800 25.59400
H  21.48900 53.68000 26.37500
H  22.06200 53.41500 24.65900
H  23.75900 51.83500 30.61000
H  24.98900 54.48700 33.45100
H  23.39800 55.13900 33.44700
H  24.46500 55.81200 32.24200
Mg 6.27300 54.43700 40.21100
C  5.44800 51.00600 39.94200
C  9.42200 53.68300 39.11000
C  7.00400 57.72200 39.75100
C  2.89200 55.14400 40.74800
N  7.32700 52.56200 39.39300
C  6.85600 51.26300 39.45400
C  7.77800 50.28400 38.75200
C  9.11800 51.04600 38.94500
C  8.62100 52.52900 39.12500
C  10.01500 50.70200 40.08900
C  7.30400 50.09500 37.23400
C  7.56200 48.71400 36.57000
H  6.51600 48.10500 35.67000
N  8.05600 55.53800 39.68100
C  9.30500 55.01800 39.40400
C  10.29900 56.10400 39.36800
C  9.58500 57.31800 39.52400
C  8.13800 56.86600 39.61600
C  11.81000 55.90100 39.25100
C  10.20200 58.76200 39.45600
O  11.42900 58.92500 39.28900
C  9.42200 60.00500 39.86300
N  5.07000 56.14100 40.20000
C  5.63900 57.40200 40.05200
C  4.54100 58.48500 40.23900
C  3.24000 57.63700 40.44600
C  3.70400 56.21300 40.50000
C  4.83000 59.60500 41.32300
C  2.10200 57.81500 39.30500
C  0.71600 57.93200 39.89800
N  4.57500 53.38700 40.37800
C  3.28800 53.73100 40.75500
C  2.46200 52.56000 40.99300
C  3.24100 51.45800 40.73000
C  4.51700 52.02800 40.37200
C  1.02900 52.64900 41.32300
C  3.26100 50.06100 40.58300
O  2.32400 49.24700 40.63800
C  4.76800 49.66200 40.14500
C  4.66200 48.70700 39.03600
O  4.16600 48.83100 37.91600
O  5.02400 47.47500 39.57800
C  4.85200 46.24000 38.80900
H  10.46200 53.47800 38.84600
H  7.21700 58.79300 39.77300
H  1.82200 55.28200 40.91700
H  7.84100 49.34100 39.29500
H  9.69200 50.92700 38.02600
H  9.49200 50.25000 40.93200
H  10.48600 51.61000 40.46500
H  10.84800 50.09600 39.73300
H  7.88700 50.69900 36.54000
H  6.31000 50.44900 36.96200
H  7.78000 48.04700 37.40400
H  8.52800 48.90200 36.10200
H  12.01800 54.98900 38.69200
H  12.31500 55.67500 40.19000
H  12.35600 56.73900 38.81900
H  8.63600 60.41900 39.23100
H  10.15700 60.80600 39.93200
H  9.11800 59.86100 40.90000
H  4.52500 59.00600 39.28100
H  2.78900 57.84000 41.41700
H  4.08200 59.63200 42.11500
H  4.86400 60.54800 40.77800
H  5.84000 59.41800 41.68700
H  2.15700 56.96400 38.62700
H  2.30100 58.65500 38.63900
H  0.07800 57.19200 39.41400
H  0.36700 58.96000 39.99300
H  0.81000 57.65300 40.94700
H  0.57500 53.03700 40.41100
H  0.78700 53.20700 42.22800
H  0.58500 51.67000 41.50500
H  5.08600 49.04200 40.98300
H  3.89200 45.74600 38.95800
H  5.65300 45.50800 38.92200
H  4.83300 46.47300 37.74400

