158

Mg 1.90400 7.71800 26.55100
C  2.49100 9.51000 29.45900
C  2.01200 4.85100 28.37700
C  2.07100 6.20800 23.67400
C  2.39400 10.83100 24.71600
N  2.03000 7.25900 28.82000
C  2.35200 8.13700 29.81100
C  2.35200 7.39700 31.18900
C  2.27600 5.91100 30.68500
C  2.08900 5.99700 29.18600
C  3.49800 5.00900 31.02900
C  1.09900 7.88600 32.05900
C  1.39800 7.97900 33.57600
H  2.36000 7.06100 34.09700
N  1.94400 5.77600 26.09200
C  1.89300 4.72200 26.96000
C  1.98800 3.54600 26.15100
C  1.86200 3.90500 24.81600
C  1.98900 5.38400 24.79500
C  2.06400 2.17700 26.77300
C  1.77100 2.99900 23.64400
O  1.71200 3.46600 22.53500
C  1.91800 1.45500 23.78800
N  1.89900 8.42100 24.40400
C  2.00900 7.53100 23.45200
C  2.34700 8.21500 22.08100
C  2.08800 9.69700 22.39900
C  2.10600 9.69500 23.93400
C  3.76300 7.86600 21.60900
C  0.71900 10.36000 21.95300
C  0.93800 11.76200 21.33600
N  2.38200 9.68500 26.89200
C  2.50200 10.86900 26.11000
C  2.80800 11.99800 26.94600
C  2.88500 11.53700 28.22700
C  2.54400 10.14700 28.20000
C  2.83000 13.54400 26.57500
C  3.10000 11.92800 29.59700
O  3.56600 12.98400 30.04800
C  2.68800 10.66100 30.47800
C  3.81100 10.40300 31.37600
O  4.63800 9.55500 31.17700
O  3.79500 11.36800 32.40400
C  4.94500 11.40500 33.36300
H  2.07400 3.88600 28.88400
H  2.27600 5.62000 22.77700
H  2.54200 11.74400 24.13400
H  3.29300 7.61400 31.69400
H  1.47400 5.39000 31.20900
H  4.30500 5.58900 31.47600
H  3.92200 4.37400 30.25100
H  3.18500 4.37100 31.85600
H  0.22400 7.28800 31.80700
H  0.82100 8.89200 31.74500
H  0.48600 7.88400 34.16500
H  1.77500 8.96400 33.85000
H  2.23400 2.23400 27.84800
H  2.80300 1.47300 26.38900
H  1.04700 1.78900 26.71900
H  2.89400 1.12700 24.14500
H  1.71200 1.09200 22.78100
H  1.02500 1.14400 24.33000
H  1.66600 7.96300 21.26800
H  2.87400 10.24100 21.87500
H  3.97600 6.79800 21.57200
H  4.47300 8.32400 22.29800
H  3.84900 8.30900 20.61700
H  0.00800 10.55500 22.75600
H  0.22400 9.79500 21.16300
H  1.12500 11.60500 20.27400
H  1.83700 12.26800 21.68700
H  0.10600 12.45100 21.48000
H  3.01300 13.57600 25.50100
H  3.72700 13.95300 27.04100
H  1.94600 14.13600 26.81100
H  1.73300 10.82200 30.97900
H  4.79900 10.85400 34.29300
H  5.03900 12.45700 33.63400
H  5.83800 11.08000 32.83000
Mg -0.15200 43.43400 25.74500
C  2.09800 42.82800 28.37600
C  -2.75100 42.63100 28.01500
C  -2.25600 43.11400 23.18000
C  2.50300 43.64400 23.54200
N  -0.30600 42.78800 27.99600
C  0.76900 42.67400 28.88200
C  0.29500 42.67800 30.37900
C  -1.22000 42.40700 30.18200
C  -1.50500 42.58800 28.64600
C  -1.78100 41.05700 30.70300
C  0.68500 44.05900 31.01500
C  1.06000 44.06400 32.50400
H  0.75800 42.87800 33.35200
N  -2.14600 43.10800 25.65200
C  -3.01200 42.80300 26.67100
C  -4.38500 42.58400 26.10900
C  -4.26900 42.84500 24.73500
C  -2.84200 43.00400 24.49400
C  -5.62000 42.29200 26.86400
C  -5.36900 42.88800 23.68200
O  -5.09900 43.29500 22.52800
C  -6.83600 42.44500 23.88900
N  0.07700 43.80400 23.56800
C  -0.89000 43.35000 22.72200
C  -0.36000 43.31500 21.23100
C  1.16800 43.65600 21.43000
C  1.24200 43.66600 22.99600
C  -0.50900 41.90000 20.45900
C  1.53400 44.98700 20.72200
C  1.44500 46.28500 21.52100
N  1.92400 43.22400 25.81900
C  2.92500 43.39700 24.87600
C  4.19800 43.23800 25.46900
C  3.92500 43.05300 26.81000
C  2.48100 42.98700 26.97200
C  5.59100 43.28900 24.84100
C  4.56000 42.90400 28.05400
O  5.74800 42.82600 28.35300
C  3.41400 42.74800 29.14600
C  3.65600 41.53800 29.97800
O  3.49400 40.39300 29.65500
O  4.30900 41.94500 31.10400
C  4.81900 40.93300 31.96100
H  -3.55500 42.48000 28.73800
H  -2.94800 42.87700 22.37000
H  3.33600 43.66900 22.83500
H  0.85000 41.89800 30.89900
H  -1.85600 43.16000 30.64700
H  -1.09600 40.24400 30.46200
H  -2.79400 40.81900 30.37800
H  -1.87000 41.17200 31.78400
H  -0.15600 44.72000 30.80500
H  1.55300 44.45400 30.48700
H  0.47400 44.86100 32.96100
H  2.09500 44.38700 32.61200
H  -6.38800 43.06500 26.83500
H  -5.41200 42.19500 27.93000
H  -6.11400 41.40000 26.47900
H  -7.30000 43.28200 24.41000
H  -6.88700 41.47500 24.38300
H  -7.44100 42.33400 22.98900
H  -0.77900 44.09800 20.59900
H  1.86200 42.86800 21.13600
H  -0.86600 41.05300 21.04500
H  0.46500 41.67200 20.02700
H  -1.25500 42.12100 19.69500
H  1.09200 45.16300 19.74100
H  2.60100 44.84500 20.55100
H  0.58900 46.46800 22.17100
H  1.34900 47.02600 20.72700
H  2.37200 46.52500 22.04100
H  5.57400 42.79700 23.86800
H  6.43000 42.86800 25.39600
H  5.95900 44.29500 24.64000
H  3.45900 43.71300 29.65000
H  5.82400 41.29400 32.18000
H  4.79000 39.95700 31.47700
H  4.24700 40.80000 32.88000

