158

Mg 0.23600 7.31100 26.34400
C  1.10100 9.32800 29.03900
C  -0.00200 4.52200 28.49400
C  -0.40100 5.39100 23.69000
C  0.62400 10.10900 24.26000
N  0.54100 7.05500 28.47500
C  0.84100 8.01500 29.43400
C  0.81900 7.40400 30.78800
C  0.73100 5.90200 30.56400
C  0.31700 5.81200 29.06000
C  2.06800 5.12500 30.84800
C  -0.47300 7.93400 31.56400
C  -0.48500 7.82400 33.16700
H  0.72900 7.15900 33.77000
N  -0.06700 5.20000 26.08800
C  -0.15100 4.25800 27.05600
C  -0.41500 2.94900 26.44000
C  -0.45000 3.20300 25.07800
C  -0.27400 4.62600 24.87700
C  -0.58800 1.60400 27.17600
C  -0.64800 2.19500 23.88400
O  -0.55800 2.51900 22.71100
C  -0.92800 0.73600 24.24800
N  0.29500 7.65800 24.30900
C  -0.21000 6.75800 23.46700
C  -0.40100 7.28500 22.02500
C  -0.41000 8.80300 22.31200
C  0.18100 8.89500 23.69100
C  0.87600 6.82800 21.14800
C  -1.85200 9.43800 22.20400
C  -2.00900 10.30800 20.92600
N  0.78000 9.34900 26.52600
C  0.96900 10.33400 25.60700
C  1.33500 11.55000 26.26900
C  1.48400 11.22600 27.60600
C  1.03800 9.83700 27.71200
C  1.57600 12.88400 25.59100
C  1.72900 11.72300 28.93700
O  1.92500 12.88900 29.29300
C  1.47000 10.47000 29.94600
C  2.79900 10.18400 30.60000
O  3.59700 9.35400 30.23800
O  2.78300 10.81500 31.85900
C  3.74500 10.24400 32.85200
H  0.02400 3.66300 29.16800
H  -0.50100 4.79200 22.78200
H  0.69200 10.95200 23.56900
H  1.66100 7.80000 31.35500
H  -0.01700 5.44200 31.20800
H  2.73600 5.77200 31.41600
H  2.59200 4.97000 29.90400
H  1.88900 4.15600 31.31200
H  -1.33500 7.46100 31.09400
H  -0.60800 9.00300 31.39900
H  -1.44100 7.34300 33.37400
H  -0.58300 8.89400 33.34900
H  0.12000 0.83100 26.87700
H  -1.61900 1.26600 27.07000
H  -0.40800 1.69700 28.24700
H  -1.84500 0.69600 24.83700
H  -0.10800 0.17300 24.69300
H  -1.16000 0.20800 23.32300
H  -1.30800 6.93000 21.53600
H  0.23700 9.29300 21.58500
H  1.77700 6.77900 21.75900
H  0.94000 7.49800 20.29100
H  0.69100 5.79800 20.84300
H  -2.01800 10.12700 23.03200
H  -2.66900 8.71700 22.19300
H  -1.16000 10.14900 20.26200
H  -2.01500 11.35500 21.23200
H  -2.93000 10.05600 20.40100
H  0.70400 13.49800 25.81700
H  1.55000 12.76100 24.50900
H  2.35600 13.48200 26.06200
H  0.74200 10.88400 30.64500
H  3.75400 9.15800 32.95100
H  3.56000 10.64700 33.84800
H  4.79600 10.43800 32.63500
Mg 48.61300 36.32800 27.45000
C  46.31600 35.31000 29.95400
C  48.86000 39.28100 29.07100
C  50.41000 37.43100 24.90000
C  47.75700 33.44100 25.66300
N  47.75900 37.13700 29.36700
C  46.85900 36.59000 30.25400
C  46.70700 37.44700 31.55600
C  47.29400 38.78100 31.01900
C  47.93600 38.38700 29.72600
C  46.14200 39.83100 30.85600
C  47.57000 36.85900 32.66200
C  46.88900 36.45000 34.04500
H  46.92500 37.56400 35.07200
N  49.74600 37.98400 27.18700
C  49.73600 39.06600 27.93300
C  50.74000 40.01800 27.44900
C  51.10000 39.56500 26.18500
C  50.40600 38.28000 26.01800
C  51.14100 41.30900 28.11600
C  52.00200 40.12600 25.07200
O  52.09400 39.66200 23.96000
C  52.83000 41.36900 25.30200
N  48.76100 35.59700 25.45200
C  49.70100 36.16400 24.67500
C  49.91300 35.38500 23.34900
C  49.23300 34.06400 23.68500
C  48.56200 34.33700 25.02700
C  49.10100 36.10500 22.29400
C  50.24200 32.83300 23.72700
C  49.82300 31.65900 22.83400
N  47.33500 34.65300 27.71400
C  47.07300 33.57300 26.88700
C  46.15800 32.65400 27.54600
C  45.78100 33.37600 28.71600
C  46.50900 34.50400 28.78300
C  45.70500 31.28800 27.02200
C  44.85100 33.31200 29.87700
O  44.09800 32.43200 30.20000
C  45.25700 34.51600 30.74700
C  45.74600 33.98100 31.99900
O  46.80700 33.41100 32.19100
O  44.70400 34.09000 32.89500
C  44.88100 33.46700 34.21300
H  48.89500 40.24000 29.59100
H  51.03200 37.60200 24.01900
H  47.69500 32.49700 25.11700
H  45.63900 37.52400 31.76100
H  47.95400 39.31400 31.70300
H  45.28300 39.48600 30.28100
H  46.56500 40.66700 30.29900
H  45.82600 40.23700 31.81700
H  48.41500 37.47900 32.96200
H  47.89900 35.86400 32.36100
H  47.27000 35.57600 34.57300
H  45.81500 36.39800 33.86600
H  52.13300 41.56500 27.74200
H  51.23200 41.15500 29.19100
H  50.44000 42.12900 27.96300
H  52.09300 42.15000 25.48900
H  53.34400 41.64000 24.38000
H  53.44200 41.31500 26.20300
H  50.95000 35.28800 23.02700
H  48.41900 33.76800 23.02300
H  48.55500 35.44100 21.62300
H  49.72000 36.83000 21.76500
H  48.39500 36.73700 22.83300
H  50.31300 32.36000 24.70600
H  51.25400 33.14200 23.46400
H  50.45600 31.54000 21.95400
H  48.81500 31.85700 22.47000
H  49.93100 30.71200 23.36100
H  46.25400 31.06200 26.10800
H  44.66400 31.29200 26.70200
H  45.91200 30.54400 27.79200
H  44.37700 35.14900 30.85900
H  45.85900 33.71500 34.62500
H  44.80900 32.39100 34.05200
H  44.07400 33.82200 34.85400

