158

Mg 16.44200 51.51800 25.20300
C  18.02700 50.46300 27.97400
C  13.52800 52.08200 27.18200
C  14.73200 52.52600 22.52100
C  18.80100 50.04000 23.21800
N  15.84700 51.23100 27.30700
C  16.72700 50.94200 28.25900
C  16.31900 51.37900 29.70200
C  14.82300 51.63200 29.37200
C  14.71500 51.71400 27.88200
C  13.85700 50.63300 30.06900
C  17.03500 52.64600 30.24700
C  17.40700 52.70000 31.78700
H  16.55500 51.81200 32.73300
N  14.47100 52.41800 24.94700
C  13.45600 52.58400 25.90700
C  12.38100 53.46300 25.30500
C  12.71300 53.57900 23.90700
C  14.02800 52.87400 23.73600
C  11.23600 54.16500 26.07700
C  11.97600 54.28500 22.74200
O  12.29100 54.20500 21.54900
C  10.78600 55.05200 23.00400
N  16.72200 51.29700 23.14800
C  15.88000 51.80100 22.27600
C  16.37700 51.53600 20.87400
C  17.79700 50.83700 21.07300
C  17.74400 50.73700 22.59200
C  15.43800 50.60800 20.02000
C  18.86200 51.66900 20.40800
C  19.64700 50.94300 19.21600
N  18.10100 50.50000 25.52800
C  19.04200 49.93100 24.61800
C  20.13200 49.34200 25.35700
C  19.75700 49.55400 26.67100
C  18.48200 50.12700 26.69700
C  21.37500 48.70200 24.76700
C  20.23100 49.32200 28.01000
O  21.26600 48.81900 28.42900
C  19.09700 49.91000 28.90900
C  18.54400 48.87300 29.80800
O  17.64900 48.07800 29.63700
O  19.37900 48.83700 30.88700
C  19.01900 47.97200 32.03900
H  12.67800 52.34100 27.81700
H  14.12600 52.87200 21.68100
H  19.49100 49.46800 22.59500
H  16.50000 50.53200 30.36400
H  14.40700 52.55900 29.76700
H  14.38600 50.12100 30.87300
H  13.39100 49.90100 29.40900
H  13.07300 51.17500 30.59800
H  16.27100 53.42300 30.21500
H  17.93700 52.90600 29.69300
H  17.36000 53.71900 32.17000
H  18.37800 52.22100 31.91300
H  10.25300 53.88400 25.70000
H  11.34300 55.22600 25.85000
H  11.29400 53.91900 27.13800
H  11.01900 55.82100 23.74000
H  10.08600 54.41000 23.53800
H  10.30500 55.36700 22.07700
H  16.47600 52.58700 20.60500
H  17.87000 49.81000 20.71600
H  14.66700 50.15400 20.64200
H  15.93100 49.73600 19.58900
H  15.00800 51.14400 19.17400
H  19.58800 52.06700 21.11700
H  18.36200 52.52600 19.95600
H  20.69300 51.23700 19.30000
H  19.09600 51.12000 18.29200
H  19.63800 49.86800 19.39600
H  22.27200 49.02600 25.29600
H  21.52100 49.18400 23.80000
H  21.28200 47.61900 24.68500
H  19.53200 50.62400 29.60900
H  17.97500 47.69900 31.88700
H  19.00700 48.40100 33.04100
H  19.70500 47.12700 31.97400
Mg -9.52000 18.41900 42.39600
C  -6.06400 18.17600 42.65600
C  -9.20200 21.81000 41.77300
C  -12.80700 18.61400 41.75100
C  -9.68700 14.95400 42.77400
N  -7.87000 19.72400 42.08700
C  -6.50400 19.45000 42.25500
C  -5.67800 20.68900 41.96700
C  -6.68400 21.90500 41.98900
C  -8.00500 21.12400 42.01800
C  -6.47800 22.89600 43.22400
C  -4.85500 20.54500 40.64300
C  -5.57900 19.82700 39.46800
H  -5.34300 20.30800 38.00900
N  -10.82500 20.03100 41.83500
C  -10.54100 21.34500 41.67600
C  -11.76700 22.14000 41.40800
C  -12.82400 21.17700 41.46800
C  -12.17500 19.84700 41.70900
C  -11.84000 23.54800 41.04800
C  -14.27700 21.42800 41.44600
O  -14.62600 22.60200 41.23900
C  -15.36200 20.47600 41.63000
N  -10.97900 17.06500 42.07400
C  -12.25500 17.38500 41.98900
C  -13.16500 16.24600 42.31700
C  -12.20600 14.98100 42.30100
C  -10.83600 15.67400 42.41200
C  -14.03200 16.33700 43.59600
C  -12.26500 14.04300 41.02000
C  -13.17600 12.79400 41.05100
N  -8.16000 16.83600 42.73500
C  -8.38400 15.47400 42.96700
C  -7.13800 14.84300 43.34700
C  -6.16700 15.89000 43.20300
C  -6.88200 17.07300 42.88300
C  -6.99000 13.40300 43.66700
C  -4.74400 16.16600 43.26800
O  -3.73300 15.48100 43.49600
C  -4.62200 17.65300 42.94400
C  -3.92000 18.33300 44.05100
O  -2.94500 19.06600 43.89300
O  -4.38300 17.98400 45.26600
C  -3.45800 18.22000 46.39400
H  -9.10800 22.89400 41.67800
H  -13.89900 18.60100 41.76000
H  -9.95000 13.90100 42.89400
H  -4.93800 20.73500 42.76600
H  -6.70400 22.54700 41.10900
H  -7.21800 22.66000 43.98900
H  -6.60700 23.95700 43.00900
H  -5.50600 22.90200 43.71800
H  -3.93200 20.02100 40.89200
H  -4.57300 21.51900 40.24400
H  -6.65900 19.75600 39.59600
H  -5.11600 18.84100 39.43000
H  -10.87900 24.04700 41.18000
H  -12.43900 24.13300 41.74600
H  -12.13200 23.85900 40.04500
H  -15.27800 19.85600 42.52300
H  -15.38600 19.93400 40.68500
H  -16.31800 20.97700 41.78000
H  -13.86300 16.02800 41.50900
H  -12.39100 14.34700 43.16800
H  -14.92300 16.87000 43.26400
H  -13.55900 17.00500 44.31500
H  -14.40000 15.37700 43.96100
H  -11.27400 13.66900 40.76200
H  -12.52100 14.62800 40.13600
H  -13.44100 12.54000 42.07800
H  -12.52200 11.96500 40.77800
H  -14.06600 12.91600 40.43500
H  -6.00700 13.14300 43.27400
H  -7.72700 12.78100 43.15900
H  -7.01500 13.14600 44.72600
H  -4.01700 17.70000 42.03900
H  -3.35500 17.18300 46.71600
H  -3.92200 18.82800 47.17100
H  -2.47900 18.62700 46.14200

