158

Mg 27.66800 58.65100 42.21700
C  25.74500 56.15900 40.54200
C  30.42200 57.42300 40.65000
C  29.23900 61.17200 43.55000
C  24.48400 60.07200 43.22600
N  27.97100 57.05500 40.64200
C  27.10400 56.09500 40.18300
C  27.87300 54.94000 39.45000
C  29.33600 55.28400 39.76300
C  29.24900 56.70000 40.44800
C  30.21500 54.17100 40.43900
C  27.54300 54.85200 37.90800
C  27.14600 53.55800 37.17400
H  26.82600 53.55800 35.65100
N  29.63600 59.26900 42.12000
C  30.62900 58.63700 41.41000
C  31.83700 59.31600 41.64200
C  31.60900 60.41000 42.57600
C  30.15700 60.39800 42.80100
C  33.21100 58.89300 41.04500
C  32.60600 61.35400 43.15200
O  33.81900 61.18300 43.05600
C  32.14800 62.61400 43.86800
N  26.94100 60.33600 43.29500
C  27.87300 61.27000 43.58900
C  27.09800 62.50300 44.24700
C  25.58200 62.15900 44.19600
C  25.64700 60.77200 43.50200
C  27.49900 62.90600 45.70300
C  24.63000 63.18500 43.54500
C  23.96100 64.12100 44.51600
N  25.51000 58.21700 42.03600
C  24.38200 58.84900 42.53500
C  23.18700 58.11600 42.15800
C  23.69500 57.11700 41.34800
C  25.09500 57.21900 41.31600
C  21.80300 58.24200 42.66900
C  23.30400 55.90500 40.66000
O  22.17000 55.41300 40.48200
C  24.60200 55.20200 40.17700
C  24.75700 53.87800 40.86900
O  24.98900 53.66300 42.04300
O  24.54800 52.76200 40.00300
C  24.35700 51.43900 40.49400
H  31.37200 57.00600 40.31000
H  29.75500 61.96700 44.09100
H  23.49700 60.49100 43.43100
H  27.54700 54.08600 40.04400
H  29.82400 55.47400 38.80700
H  31.26800 54.30900 40.19400
H  29.89500 53.16300 40.17300
H  30.14900 54.18600 41.52700
H  28.32700 55.34400 37.33200
H  26.62100 55.41500 37.76300
H  26.33300 53.09600 37.73400
H  27.85300 52.73000 37.22600
H  33.78100 58.15400 41.60700
H  33.86000 59.75300 40.88200
H  32.91200 58.49600 40.07500
H  31.49500 63.16500 43.19100
H  32.89200 63.35700 44.15400
H  31.60700 62.35400 44.77800
H  27.35600 63.34200 43.60100
H  25.24900 62.01600 45.22400
H  28.06400 63.83700 45.74500
H  28.06700 62.16000 46.25900
H  26.66100 63.02500 46.38900
H  23.92700 62.67200 42.88900
H  25.13600 63.81500 42.81300
H  24.05500 65.14600 44.16000
H  24.50100 64.03100 45.45900
H  22.97000 63.70100 44.69100
H  21.13300 58.75500 41.97900
H  21.71100 58.79600 43.60300
H  21.37500 57.25100 42.82600
H  24.66700 55.00800 39.10700
H  24.13200 50.73800 39.69000
H  23.49600 51.35700 41.15700
H  25.23100 50.96800 40.94400
Mg 36.02100 49.22200 24.71800
C  35.99400 47.41800 27.75200
C  33.88900 51.55400 26.14500
C  35.43900 50.58000 21.65800
C  37.68200 46.69500 23.28000
N  34.95400 49.40600 26.70900
C  35.28000 48.63200 27.79700
C  34.84400 49.39000 29.09500
C  33.86600 50.41600 28.53900
C  34.28100 50.50100 27.00800
C  32.37400 50.09900 28.72400
C  36.01400 49.92700 29.89700
C  35.97100 49.91300 31.48400
H  34.71100 49.53200 32.29800
N  34.84600 50.88700 24.00500
C  34.18700 51.84200 24.83100
C  33.85800 53.01600 24.05200
C  34.36500 52.76600 22.74500
C  34.93500 51.37600 22.71800
C  33.34000 54.30600 24.65900
C  34.41000 53.71100 21.50700
O  35.00400 53.46700 20.47900
C  33.72200 55.17500 21.56200
N  36.27700 48.60200 22.71800
C  35.96100 49.28300 21.63300
C  36.60700 48.65700 20.28900
C  37.43000 47.48600 20.91100
C  37.10900 47.55000 22.36200
C  35.50500 48.26200 19.23800
C  38.97700 47.58200 20.54900
C  39.83000 48.60400 21.25000
N  36.79100 47.47600 25.30800
C  37.55100 46.60000 24.66100
C  38.02300 45.57400 25.53700
C  37.44800 45.90200 26.83000
C  36.66000 46.98300 26.60000
C  38.84300 44.40200 25.03700
C  37.37200 45.55300 28.15500
O  38.01600 44.69700 28.78500
C  36.40200 46.44800 28.76600
C  35.25000 45.64500 29.39800
O  34.44400 45.00900 28.74200
O  35.11000 45.86700 30.77700
C  34.07400 45.10500 31.51500
H  33.32200 52.41500 26.50600
H  35.43000 51.01300 20.65600
H  38.46000 46.03100 22.89500
H  34.26600 48.69500 29.70500
H  34.01500 51.41400 28.95200
H  32.04900 49.13200 29.10600
H  31.91200 50.16700 27.73900
H  32.05300 50.88900 29.40300
H  36.03400 51.00200 29.71300
H  36.92400 49.45900 29.52200
H  36.31900 50.78500 32.03700
H  36.72500 49.16400 31.72700
H  32.59700 54.86900 24.09300
H  34.18100 54.99000 24.77700
H  32.96000 54.28500 25.68000
H  32.64500 55.21200 21.72800
H  33.84600 55.76900 20.65700
H  34.26300 55.66800 22.36900
H  37.19100 49.47100 19.85900
H  37.05300 46.52900 20.55100
H  35.66100 48.60700 18.21600
H  34.47500 48.51800 19.49000
H  35.54300 47.17300 19.20100
H  39.06500 47.83500 19.49200
H  39.40100 46.58500 20.66700
H  39.76400 49.58400 20.77800
H  40.86700 48.26800 21.22400
H  39.43300 48.86800 22.23000
H  39.73100 44.58000 24.43100
H  38.22800 43.73400 24.43500
H  39.33000 43.94100 25.89700
H  36.91700 46.97700 29.56800
H  33.10400 45.60200 31.50900
H  34.26900 45.07200 32.58700
H  34.02400 44.04300 31.27600

