158

Mg 44.49600 5.08500 46.85500
C  42.49700 7.89500 46.29800
C  41.76300 3.09500 46.46700
C  46.61700 2.51500 46.60500
C  47.36300 7.31100 46.77000
N  42.32500 5.49600 46.50600
C  41.75000 6.68100 46.33000
C  40.21100 6.49300 46.17000
C  39.99400 4.92700 46.46700
C  41.45800 4.45000 46.63700
C  39.02000 4.68100 47.72800
C  39.69300 6.93900 44.68500
C  38.56600 7.96400 44.50800
H  38.81400 8.93100 43.35100
N  44.25800 3.08400 46.65000
C  43.02200 2.48000 46.39200
C  43.28200 1.09900 46.29800
C  44.65800 0.84200 46.49300
C  45.27500 2.17500 46.60100
C  42.22600 0.10700 45.97100
C  45.33200 -0.50300 46.54500
O  44.70100 -1.46600 46.29300
C  46.77100 -0.63600 46.82400
N  46.68700 4.92900 46.37500
C  47.31600 3.77200 46.57400
C  48.80200 3.84900 46.77000
C  49.03200 5.36900 46.85500
C  47.61300 5.94000 46.61900
C  49.32900 3.14000 48.01000
C  50.12200 5.92500 45.90500
C  51.30100 6.62800 46.57000
N  44.91200 7.10900 46.58200
C  46.06800 7.87100 46.61500
C  45.69700 9.23600 46.45200
C  44.30700 9.27100 46.39700
C  43.89300 7.98200 46.43200
C  46.53700 10.50100 46.37900
C  43.22600 10.12800 46.33100
O  43.20400 11.35900 46.37700
C  41.93100 9.30100 46.24900
C  41.17100 9.60800 47.45800
O  41.28800 9.02500 48.53000
O  40.27000 10.62200 47.25000
C  39.23500 10.65700 48.29100
H  40.89500 2.43300 46.48900
H  47.31800 1.68000 46.64700
H  48.29500 7.87400 46.85700
H  39.75900 7.07100 46.97600
H  39.43600 4.43500 45.67000
H  38.66600 5.57800 48.23700
H  39.63700 4.34700 48.56200
H  38.13500 4.07200 47.54000
H  39.27400 6.10700 44.11800
H  40.51800 7.40300 44.14600
H  38.41800 8.50600 45.44200
H  37.65000 7.39800 44.33900
H  41.22600 0.48000 45.75000
H  42.08100 -0.74900 46.63000
H  42.51100 -0.27700 44.99100
H  47.08800 -0.00500 47.65500
H  47.33500 -0.51200 45.89900
H  46.93400 -1.65200 47.18300
H  49.38800 3.41000 45.96300
H  49.20800 5.73100 47.86800
H  49.21200 2.05900 47.94100
H  48.71000 3.50900 48.82800
H  50.38700 3.40500 48.00100
H  49.59600 6.57800 45.20800
H  50.57600 5.23300 45.19700
H  51.68200 7.38000 45.88000
H  52.06500 5.89900 46.84000
H  50.98900 7.20100 47.44300
H  45.84500 11.33900 46.45800
H  46.98700 10.46400 45.38700
H  47.24300 10.61100 47.20100
H  41.53800 9.65600 45.29600
H  39.53000 10.48600 49.32600
H  38.62900 9.79200 48.02000
H  38.78600 11.64600 48.38500
Mg 17.45700 52.34300 26.29600
C  19.67800 51.13100 28.80600
C  15.06500 52.81400 28.68200
C  15.35900 53.43900 23.83300
C  19.75900 51.16600 23.84900
N  17.37900 51.89300 28.44700
C  18.41700 51.52100 29.31200
C  17.95400 51.60000 30.77700
C  16.43600 51.92600 30.63000
C  16.27100 52.25400 29.15200
C  15.49100 50.73800 31.11000
C  18.73800 52.64100 31.51300
C  18.86100 52.43100 33.02100
H  17.97000 51.39500 33.72300
N  15.53100 53.10600 26.24800
C  14.67400 53.16200 27.38000
C  13.40100 53.63500 27.01700
C  13.46700 53.84700 25.59500
C  14.82000 53.49300 25.12600
C  12.11400 53.79900 27.92500
C  12.40200 54.37000 24.65800
O  12.52800 54.42300 23.45500
C  11.16000 54.92600 25.22200
N  17.57700 52.31000 24.19900
C  16.58400 52.95400 23.38400
C  16.99500 52.79800 21.92300
C  18.31500 51.93000 21.94100
C  18.53800 51.77100 23.44900
C  15.94700 52.04400 20.97900
C  19.45100 52.64200 21.11200
C  20.23200 53.80600 21.80000
N  19.38600 51.40200 26.26000
C  20.20300 51.04000 25.18400
C  21.42300 50.47900 25.72400
C  21.21700 50.52800 27.12800
C  20.02100 51.01300 27.38300
C  22.65000 49.86600 24.96700
C  21.88200 50.14800 28.39100
O  23.02800 49.69300 28.62900
C  20.93500 50.59900 29.53500
C  20.61300 49.39600 30.35800
O  19.71900 48.62700 30.07400
O  21.37200 49.38000 31.48500
C  20.76300 48.44200 32.46000
H  14.30200 52.87700 29.46100
H  14.68200 53.69500 23.01600
H  20.48900 50.74300 23.15600
H  18.06100 50.65400 31.30700
H  16.20900 52.77900 31.26900
H  14.80900 51.09900 31.87900
H  16.05400 49.87900 31.47500
H  14.97400 50.26200 30.27600
H  18.20500 53.59100 31.46500
H  19.71800 52.86500 31.09300
H  18.74100 53.32200 33.63600
H  19.85300 52.04300 33.25300
H  11.72100 54.79700 28.12000
H  12.27000 53.36100 28.91100
H  11.36300 53.05500 27.66000
H  11.27300 55.59000 26.07900
H  10.58600 54.11100 25.66400
H  10.63500 55.47900 24.44300
H  17.13100 53.80500 21.53000
H  18.16000 50.92900 21.53800
H  14.98900 51.99600 21.49600
H  16.33100 51.06800 20.68000
H  15.84300 52.61100 20.05400
H  18.98100 53.08800 20.23500
H  20.09100 51.88200 20.66300
H  19.60300 54.26800 22.56200
H  20.50700 54.57500 21.07900
H  21.13200 53.40000 22.26100
H  23.52200 50.45400 25.25500
H  22.38600 49.89500 23.91000
H  22.73000 48.86400 25.38800
H  21.45700 51.21700 30.26500
H  21.16300 48.75900 33.42300
H  21.03000 47.40200 32.27100
H  19.67400 48.47600 32.50800

