158

Mg 42.67700 41.59200 25.84000
C  41.82800 43.96700 28.33200
C  43.69100 39.45600 28.19700
C  43.88500 39.51400 23.39600
C  42.22800 44.04100 23.43500
N  42.38700 41.57300 28.04400
C  42.13900 42.67700 28.89000
C  42.30600 42.38400 30.33700
C  43.25600 41.15200 30.15900
C  43.10900 40.64100 28.66600
C  44.72600 41.21200 30.70100
C  40.96800 42.08400 31.08400
C  40.81600 42.59200 32.50400
H  41.92200 42.48500 33.55300
N  43.49400 39.64100 25.81900
C  43.77700 38.91100 26.89900
C  44.37300 37.71200 26.53700
C  44.35700 37.61900 25.08100
C  43.87900 38.94900 24.66200
C  44.79800 36.78600 27.61000
C  44.68200 36.41700 24.16000
O  44.41900 36.45100 23.00700
C  45.23000 35.07400 24.67300
N  42.90500 41.70400 23.76000
C  43.54600 40.80300 22.98000
C  43.56900 41.10000 21.52300
C  42.90300 42.47700 21.50500
C  42.65300 42.80500 22.93100
C  44.97200 40.96500 20.79500
C  41.54300 42.51000 20.68600
C  40.36500 41.87500 21.45100
N  42.20000 43.60400 25.84000
C  42.02100 44.52900 24.80200
C  41.65500 45.82900 25.31300
C  41.61600 45.63800 26.71100
C  41.91100 44.28100 26.94300
C  41.28600 47.05000 24.50800
C  41.36800 46.30400 27.95900
O  40.97500 47.44100 28.15600
C  41.53600 45.25000 29.00800
C  42.59200 45.75800 29.94900
O  43.75600 45.48800 29.76300
O  42.16300 46.57200 31.02300
C  43.16300 46.87800 31.97200
H  44.09200 38.85600 29.01600
H  44.25100 38.76000 22.69500
H  42.27400 44.76000 22.61500
H  42.81800 43.16700 30.89500
H  42.83300 40.38600 30.80900
H  44.64000 40.67700 31.64700
H  45.02500 42.25500 30.80000
H  45.38200 40.61600 30.06700
H  40.70400 41.02900 31.01000
H  40.16300 42.62000 30.58000
H  39.94500 42.08200 32.91500
H  40.53000 43.64100 32.58200
H  44.39800 35.78300 27.46300
H  44.30700 36.95600 28.56800
H  45.87500 36.76500 27.77400
H  44.48700 34.52900 25.25400
H  46.01400 35.39500 25.35900
H  45.61200 34.48300 23.84100
H  42.91900 40.36800 21.04400
H  43.49000 43.26300 21.03000
H  45.16700 41.82100 20.15000
H  45.13600 40.05600 20.21600
H  45.81000 41.01500 21.49100
H  41.71800 41.91800 19.78700
H  41.22900 43.54000 20.52000
H  40.25500 40.84900 21.09900
H  39.46900 42.49000 21.36800
H  40.47200 41.76800 22.53000
H  40.21900 47.27300 24.49600
H  41.44700 46.86600 23.44500
H  41.91200 47.84100 24.92000
H  40.61800 45.22000 29.59500
H  43.38600 45.99700 32.57500
H  42.74600 47.69500 32.56000
H  44.02500 47.39600 31.55400
Mg -11.74300 38.25600 42.33500
C  -9.53000 35.61900 41.78700
C  -9.23100 40.34600 41.41100
C  -14.02300 40.66700 42.21500
C  -14.25700 35.89100 42.86300
N  -9.61600 37.99200 41.71000
C  -8.91100 36.82200 41.50600
C  -7.48900 37.08800 40.94400
C  -7.28900 38.56900 41.19400
C  -8.78500 39.06000 41.50400
C  -6.27200 39.17200 42.24600
C  -7.27800 36.55900 39.42200
C  -6.32700 35.30400 39.24900
H  -6.54500 34.35600 38.09800
N  -11.67200 40.25800 41.82900
C  -10.53400 40.95600 41.62600
C  -10.89200 42.37900 41.53200
C  -12.29300 42.51500 41.64900
C  -12.73000 41.12800 41.84800
C  -9.87900 43.48600 41.23200
C  -13.11200 43.85700 41.54500
O  -12.55500 44.97200 41.34100
C  -14.55800 43.79600 41.59500
N  -13.80600 38.30600 42.48800
C  -14.47400 39.42400 42.48800
C  -16.06000 39.17700 42.60700
C  -16.00700 37.64700 42.98700
C  -14.63300 37.27500 42.74000
C  -16.61300 40.07600 43.77700
C  -17.14900 36.85800 42.32300
C  -16.81900 36.23700 40.92100
N  -11.94500 36.14500 42.42400
C  -13.02000 35.31200 42.53300
C  -12.61900 33.92200 42.57300
C  -11.22400 33.98300 42.27800
C  -10.89500 35.37200 42.17800
C  -13.57800 32.80700 42.75500
C  -9.98500 33.26200 41.93900
O  -9.89600 32.02500 41.75300
C  -8.86000 34.24200 41.73900
C  -7.71200 34.13800 42.71200
O  -7.70600 34.75000 43.79700
O  -6.72000 33.39000 42.19600
C  -5.46200 33.22300 42.92100
H  -8.40100 41.05300 41.35400
H  -14.80800 41.42300 42.27100
H  -14.97500 35.16300 43.24600
H  -6.82600 36.59700 41.65500
H  -6.94400 38.95900 40.23700
H  -5.74800 38.43600 42.85500
H  -6.80000 39.85500 42.91300
H  -5.51200 39.74300 41.71200
H  -6.81200 37.31100 38.78600
H  -8.21100 36.28500 38.93000
H  -6.15300 34.78400 40.19100
H  -5.35700 35.78000 39.11100
H  -9.98900 43.66800 40.16300
H  -8.92600 43.07100 41.56000
H  -10.04900 44.35900 41.86200
H  -15.02000 43.04500 40.95500
H  -14.92300 44.78300 41.31200
H  -14.88200 43.70800 42.63200
H  -16.49600 39.36200 41.62600
H  -16.10100 37.56800 44.07000
H  -15.81500 40.64400 44.25500
H  -17.12100 39.59100 44.61200
H  -17.39400 40.74800 43.42100
H  -18.03500 37.49200 42.30000
H  -17.28300 36.01700 43.00300
H  -17.65900 36.36900 40.23900
H  -16.68700 35.16200 41.04500
H  -16.01500 36.72100 40.36700
H  -13.92600 32.70900 43.78300
H  -13.05300 31.90000 42.45700
H  -14.39700 32.94400 42.04800
H  -8.51600 34.01000 40.73000
H  -4.70400 32.95700 42.18400
H  -5.41900 32.55200 43.77800
H  -5.13400 34.19400 43.29300

