158

Mg 49.18200 46.57000 43.21900
C  46.00300 47.35000 42.19600
C  48.91900 43.58800 41.53400
C  52.49800 46.24700 43.54200
C  49.57500 49.97000 44.21900
N  47.57600 45.58900 42.07700
C  46.34700 46.09100 41.73700
C  45.51200 45.04700 40.97200
C  46.53400 43.88100 40.85200
C  47.73500 44.40600 41.49900
C  45.90800 42.46900 41.36600
C  45.01600 45.54300 39.58900
C  43.93400 44.69300 38.96100
H  44.32100 43.78400 37.75000
N  50.50400 44.95800 42.76400
C  50.17500 43.81000 42.17700
C  51.35500 42.97700 42.04500
C  52.42200 43.69700 42.70600
C  51.91600 45.05900 42.96900
C  51.29900 41.59100 41.50900
C  53.89800 43.18100 42.97600
O  54.20600 42.05200 42.56700
C  54.96200 43.94500 43.61200
N  50.87800 47.96300 43.64100
C  52.10300 47.51600 43.89800
C  53.02300 48.70900 44.39100
C  52.11600 49.91100 44.23400
C  50.73600 49.26900 43.99300
C  53.46300 48.38400 45.78600
C  52.61700 50.95800 43.19200
C  52.30700 52.41900 43.57800
N  48.04700 48.29800 43.37400
C  48.31500 49.60000 43.82700
C  47.07500 50.35500 43.80800
C  46.16000 49.46900 43.23000
C  46.79500 48.29300 42.89900
C  46.91600 51.76600 44.30000
C  44.78700 49.40900 42.79600
O  43.81900 50.16000 42.92600
C  44.66300 48.02700 42.06900
C  43.70900 47.09000 42.70100
O  43.73900 46.84400 43.91400
O  42.80800 46.60500 41.71700
C  41.78600 45.71800 42.25500
H  48.86800 42.63100 41.01100
H  53.58400 46.13900 43.57500
H  49.67000 50.96300 44.66300
H  44.66500 44.69200 41.55900
H  46.87000 43.78700 39.82000
H  44.88600 42.43400 40.99000
H  45.87100 42.38800 42.45200
H  46.25300 41.53600 40.92000
H  45.91000 45.66900 38.97700
H  44.54400 46.51500 39.73100
H  43.12400 45.38200 38.72200
H  43.49900 44.09200 39.75900
H  50.78000 40.86800 42.13900
H  52.26900 41.15000 41.28200
H  50.72700 41.74100 40.59400
H  54.55900 44.39200 44.52100
H  55.35800 44.67700 42.90900
H  55.76400 43.27500 43.92000
H  53.83300 48.71700 43.66100
H  52.19800 50.33300 45.23600
H  53.71100 47.32300 45.77900
H  52.67600 48.49400 46.53200
H  54.42300 48.85500 46.00200
H  52.09500 50.80900 42.24700
H  53.69500 51.04600 43.05800
H  51.33900 52.52100 43.08800
H  53.11400 53.03200 43.17500
H  52.34300 52.67100 44.63800
H  45.83200 51.87200 44.28300
H  47.47200 52.41300 43.62100
H  47.27500 51.99100 45.30500
H  44.45800 48.25500 41.02300
H  41.28300 46.19800 43.09400
H  42.35000 44.85000 42.59600
H  41.08900 45.48000 41.45200
Mg 16.51300 53.27200 26.50300
C  18.65500 51.81900 28.87700
C  14.27100 53.94600 29.09400
C  14.63800 54.90600 24.28800
C  18.87300 52.44300 24.03800
N  16.49500 52.98200 28.71600
C  17.52800 52.38400 29.51100
C  17.27400 52.40200 31.02700
C  15.77100 52.80900 30.96400
C  15.50600 53.32900 29.50600
C  14.74700 51.80300 31.41500
C  18.13800 53.43000 31.79300
C  18.37400 53.13700 33.31600
H  17.33400 52.36600 34.08200
N  14.71400 54.21200 26.63300
C  13.90100 54.29200 27.76200
C  12.70900 54.97800 27.45300
C  12.88300 55.46800 26.13000
C  14.10200 54.87600 25.61100
C  11.73000 55.36600 28.48600
C  12.03800 56.48100 25.35400
O  12.21300 56.68200 24.19600
C  10.75700 56.93700 25.93800
N  16.70100 53.59700 24.52100
C  15.77100 54.30300 23.77000
C  16.08700 54.23600 22.24600
C  17.49800 53.64700 22.21100
C  17.72300 53.17600 23.68200
C  15.15200 53.24500 21.52700
C  18.72100 54.56300 21.66900
C  19.63700 55.26100 22.78000
N  18.37700 52.30600 26.38200
C  19.22100 52.04200 25.30800
C  20.45700 51.45000 25.84700
C  20.22200 51.29800 27.19500
C  18.98600 51.88900 27.51400
C  21.64400 50.90900 25.16700
C  20.82800 50.78700 28.41300
O  21.92400 50.29800 28.63000
C  19.84100 51.19700 29.56500
C  19.48300 50.09600 30.49000
O  18.63500 49.21900 30.32900
O  20.32700 50.10400 31.63800
C  19.97700 49.08100 32.61800
H  13.62500 54.21200 29.93400
H  14.12300 55.54400 23.56600
H  19.66400 52.29700 23.29900
H  17.38400 51.43500 31.51800
H  15.60200 53.65900 31.62500
H  13.79200 52.21400 31.74300
H  15.10800 51.28600 32.30400
H  14.57200 51.07500 30.62300
H  17.59300 54.37400 31.79300
H  19.11100 53.54400 31.31600
H  18.50700 54.06700 33.86800
H  19.26000 52.50500 33.38000
H  10.71800 55.17400 28.12900
H  11.85700 56.42000 28.73300
H  11.71500 54.81900 29.42800
H  10.26700 57.61100 25.23500
H  10.77000 57.61800 26.78900
H  10.12200 56.06600 26.10100
H  16.09600 55.24100 21.82500
H  17.58800 52.84300 21.48100
H  14.77100 53.71700 20.62100
H  14.36800 52.79900 22.13900
H  15.65400 52.36400 21.12700
H  18.25300 55.38900 21.13300
H  19.29300 54.09500 20.86800
H  20.61200 54.77800 22.72600
H  19.24400 55.11700 23.78700
H  19.59500 56.33200 22.58300
H  21.49500 50.10600 24.44400
H  22.43700 50.58300 25.84000
H  22.18500 51.65500 24.58500
H  20.44200 51.90900 30.13100
H  20.26100 48.05000 32.40800
H  18.90200 49.09500 32.79700
H  20.48900 49.40600 33.52400

