158

Mg 43.09000 42.67000 26.57800
C  41.97000 44.92000 29.08500
C  44.06600 40.54000 28.85700
C  44.61600 41.00300 24.06500
C  42.13600 45.05900 24.10900
N  42.88600 42.77400 28.81400
C  42.50000 43.72000 29.61000
C  42.45600 43.24800 31.04300
C  43.16100 41.96600 30.91600
C  43.33900 41.65800 29.42800
C  44.48300 41.99600 31.75500
C  41.02800 43.12300 31.74000
C  40.72100 44.04700 32.93500
H  40.19800 43.45800 34.26200
N  44.16000 40.95100 26.46700
C  44.46000 40.15400 27.56300
C  45.26400 39.03200 27.09600
C  45.49300 39.20000 25.70900
C  44.76600 40.45100 25.29300
C  45.85600 38.00300 28.08700
C  46.37400 38.36700 24.84900
O  46.51800 38.61900 23.63600
C  47.29000 37.22000 25.45900
N  43.39800 43.02300 24.44500
C  44.01700 42.11900 23.62300
C  43.86800 42.49100 22.13700
C  42.93700 43.69200 22.14500
C  42.85700 43.99000 23.63100
C  45.27000 42.73100 21.49700
C  41.53400 43.44700 21.53600
C  40.54100 42.60700 22.35500
N  42.34900 44.64300 26.56100
C  42.05100 45.53500 25.44600
C  41.31700 46.67400 25.96200
C  41.22800 46.52700 27.36700
C  41.89700 45.26400 27.70900
C  40.80400 47.77100 25.15300
C  40.78700 47.09800 28.63800
O  40.18800 48.14100 28.87200
C  41.27600 46.02500 29.76900
C  42.21400 46.81200 30.69100
O  43.36200 47.16400 30.40600
O  41.56200 47.13300 31.87800
C  42.35200 47.58500 32.96200
H  44.48500 39.92800 29.65800
H  44.89300 40.31100 23.26600
H  41.68800 45.72300 23.36700
H  43.01900 44.05800 31.50700
H  42.55000 41.15400 31.30800
H  44.48200 42.74300 32.55000
H  45.25400 42.26200 31.03200
H  44.68800 41.04300 32.24100
H  40.74900 42.10200 31.99600
H  40.34100 43.35000 30.92500
H  39.94600 44.64500 32.45500
H  41.48700 44.82000 32.99500
H  45.34700 37.88500 29.04300
H  46.89400 38.22500 28.33200
H  45.92000 37.00100 27.66300
H  48.04400 36.82900 24.77500
H  46.83700 36.29800 25.82400
H  47.79400 37.74600 26.26900
H  43.49300 41.56300 21.70500
H  43.35300 44.57200 21.65500
H  45.29900 41.93800 20.75000
H  46.04200 42.66100 22.26300
H  45.25400 43.75500 21.12400
H  41.79700 42.87000 20.64900
H  41.09500 44.40000 21.23900
H  40.91700 42.56000 23.37700
H  40.54700 41.58200 21.98500
H  39.50400 42.93200 22.26900
H  39.92700 47.51100 24.56000
H  41.66800 47.99600 24.52800
H  40.51300 48.59200 25.80700
H  40.41900 45.71900 30.37000
H  42.58900 46.69400 33.54400
H  41.78900 48.27600 33.58900
H  43.24600 48.10700 32.62100
Mg 29.97100 57.81300 39.66700
C  27.53800 55.75600 38.17800
C  32.23000 55.28400 38.90300
C  32.59000 60.04500 40.06000
C  27.80900 60.37600 39.91300
N  29.87900 55.76800 38.52500
C  28.74700 55.13800 38.13100
C  28.99400 53.64200 37.81500
C  30.54600 53.54300 38.00300
C  30.90500 54.92000 38.60000
C  31.08300 52.36700 38.88200
C  28.78700 53.26100 36.33600
C  29.19300 54.40100 35.27200
H  28.08300 54.94900 34.38400
N  32.15400 57.62600 39.61100
C  32.81300 56.51800 39.33400
C  34.24500 56.84300 39.27800
C  34.41200 58.17200 39.69300
C  33.03600 58.70400 39.88400
C  35.39100 55.88600 39.05500
C  35.74900 58.92200 39.77800
O  36.77300 58.35800 39.60100
C  35.82600 60.35600 40.06700
N  30.20600 59.88400 39.93300
C  31.35600 60.60400 40.12500
C  31.14000 62.07400 40.45700
C  29.58400 62.11000 40.58400
C  29.12700 60.74300 40.08200
C  31.93200 62.60700 41.68300
C  28.95700 63.35800 39.93400
C  28.10300 64.26100 40.85300
N  28.01200 58.05800 39.36600
C  27.21900 59.10900 39.66400
C  25.86800 58.73900 39.42300
C  25.95900 57.43200 38.92200
C  27.28400 57.03700 38.82800
C  24.69800 59.61100 39.48400
C  25.15200 56.40400 38.24600
O  23.94400 56.28300 38.10800
C  26.15400 55.26400 37.80500
C  25.70400 54.09300 38.65700
O  25.84800 53.96200 39.83900
O  25.04300 53.21000 37.85200
C  24.25400 52.11100 38.49200
H  33.02200 54.56000 38.69700
H  33.37200 60.80100 40.15200
H  27.04400 61.12000 40.14600
H  28.37700 52.98300 38.42600
H  31.09500 53.49500 37.06300
H  32.06700 52.58100 39.29800
H  31.09700 51.48400 38.24300
H  30.33100 52.33300 39.67100
H  27.72100 53.04000 36.28800
H  29.31200 52.42200 35.88100
H  29.99400 54.09400 34.59900
H  29.48600 55.29000 35.82900
H  35.99300 56.22500 38.21200
H  34.99400 54.88500 38.88700
H  36.04400 55.83300 39.92600
H  35.33200 60.77600 39.19100
H  36.87100 60.66600 40.03900
H  35.52900 60.66800 41.06900
H  31.40400 62.63400 39.56100
H  29.33400 62.14300 41.64500
H  31.16300 62.99200 42.35200
H  32.63500 63.39000 41.39600
H  32.48400 61.80000 42.16500
H  28.28000 62.98800 39.16500
H  29.61700 64.13000 39.53900
H  28.22900 65.29000 40.51400
H  28.44000 64.12700 41.88100
H  27.05100 63.98800 40.77300
H  24.65700 60.40600 38.74000
H  24.65200 60.00900 40.49800
H  23.87100 58.93900 39.25500
H  25.92100 55.14100 36.74800
H  24.55700 51.84400 39.50400
H  24.29600 51.18800 37.91300
H  23.19700 52.37600 38.50500

