158

Mg 5.11100 53.93300 41.02500
C  4.98600 50.37000 40.90500
C  8.42500 53.72700 39.71900
C  4.88100 57.19100 40.25200
C  1.79500 53.85700 42.04700
N  6.42900 52.21200 40.15700
C  6.24900 50.87600 40.39900
C  7.50600 50.01700 40.10900
C  8.53000 51.11200 39.87400
C  7.76200 52.47600 39.92900
C  9.72200 51.10600 40.92300
C  7.54200 49.01400 38.87800
C  6.80400 49.42100 37.65000
H  7.42100 50.23100 36.48000
N  6.54500 55.22900 40.21900
C  7.82000 55.01700 39.74900
C  8.39600 56.21600 39.27400
C  7.39300 57.26800 39.34200
C  6.16800 56.58300 39.99600
C  9.79300 56.34200 38.86100
C  7.61400 58.65900 38.84700
O  8.55500 58.99000 38.15400
C  6.69200 59.83400 39.20600
N  3.43500 55.36000 41.03700
C  3.64600 56.70100 40.82500
C  2.39800 57.56500 41.03100
C  1.36300 56.46600 41.52100
C  2.26000 55.11500 41.56600
C  2.48900 58.87000 41.98800
C  0.03000 56.35300 40.80100
C  -1.19000 56.70900 41.50800
N  3.62500 52.39800 41.44500
C  2.36400 52.56000 41.95200
C  1.79700 51.25000 42.36000
C  2.86400 50.35600 41.98600
C  3.87800 51.10000 41.37400
C  0.37800 50.94400 42.83200
C  3.29300 48.95600 42.04300
O  2.81600 47.97400 42.56700
C  4.67900 48.92900 41.25700
C  4.36200 48.13300 40.10700
O  3.91900 48.58100 39.02100
O  4.65700 46.81400 40.44900
C  4.35400 45.78400 39.53400
H  9.44600 53.67900 39.33400
H  4.75500 58.24700 40.00500
H  0.76100 53.82900 42.39600
H  7.76900 49.46000 41.00800
H  9.07600 51.10600 38.93000
H  10.05400 52.07600 41.29400
H  10.56800 50.50100 40.59700
H  9.33000 50.66700 41.84000
H  7.20700 48.03500 39.22300
H  8.56900 48.98600 38.51600
H  5.92800 49.97500 37.98700
H  6.34400 48.53800 37.20600
H  10.19000 57.33800 38.66900
H  9.87500 55.60300 38.06400
H  10.35700 55.75300 39.58400
H  5.97000 59.92200 38.39400
H  7.42400 60.64200 39.21400
H  6.21900 59.73500 40.18300
H  2.00800 58.03800 40.12900
H  1.17200 56.78000 42.54700
H  2.05300 58.55400 42.93500
H  1.87800 59.67300 41.57600
H  3.49100 59.28800 42.09000
H  -0.18200 55.38200 40.35400
H  0.22700 56.99300 39.94100
H  -1.88300 55.87200 41.42100
H  -1.69800 57.56200 41.05800
H  -1.04700 56.84300 42.58000
H  -0.09200 50.23800 42.14800
H  -0.15600 51.89100 42.76200
H  0.47200 50.59800 43.86200
H  5.45900 48.44300 41.84500
H  4.99200 44.92600 39.74800
H  4.33400 46.15700 38.51000
H  3.32500 45.47000 39.70900
Mg -1.61500 34.99400 26.17600
C  -3.48000 33.38500 28.76600
C  -0.55900 37.15400 28.59600
C  -0.00100 36.68500 23.82500
C  -3.39200 33.14100 23.97200
N  -1.93600 35.13300 28.46800
C  -2.77900 34.44200 29.30000
C  -2.77600 34.91800 30.71700
C  -2.01700 36.29700 30.57200
C  -1.43300 36.19900 29.13400
C  -2.90300 37.53200 30.82100
C  -2.14900 33.95400 31.77800
C  -2.96300 33.85600 33.13500
H  -2.30500 33.12600 34.33200
N  -0.38700 36.59700 26.20800
C  -0.06400 37.35200 27.29700
C  0.85500 38.39200 26.87700
C  1.13200 38.20300 25.55500
C  0.26600 37.08300 25.13100
C  1.32200 39.44400 27.86900
C  1.90400 39.03800 24.56900
O  2.30100 38.55600 23.49300
C  2.38700 40.40700 24.97500
N  -1.81500 35.07200 24.12900
C  -0.95900 35.75500 23.32800
C  -1.14800 35.43600 21.86700
C  -2.15800 34.24300 21.95800
C  -2.52100 34.14100 23.43800
C  -1.61300 36.70300 21.02500
C  -1.65300 32.90000 21.31400
C  -0.46400 32.20200 22.01800
N  -3.01400 33.40700 26.22800
C  -3.66500 32.74000 25.24000
C  -4.52500 31.69600 25.77100
C  -4.49700 31.96300 27.17600
C  -3.55500 32.92400 27.40900
C  -5.36500 30.72000 25.08400
C  -5.05800 31.50600 28.39600
O  -5.81000 30.61000 28.70000
C  -4.30700 32.36600 29.51500
C  -5.38300 32.99400 30.24600
O  -5.97200 34.07200 30.01900
O  -5.75000 32.16000 31.30200
C  -6.73700 32.63800 32.25900
H  -0.27700 37.83400 29.40200
H  0.54400 37.04900 22.95100
H  -3.86600 32.46400 23.25700
H  -3.82100 35.10200 30.96500
H  -1.14100 36.41200 31.20900
H  -2.92200 38.16400 29.93300
H  -2.44400 38.20200 31.54800
H  -3.94100 37.33500 31.08900
H  -1.17000 34.31500 32.09600
H  -2.05300 32.97900 31.30100
H  -3.94000 33.43100 32.90200
H  -3.06000 34.88300 33.48600
H  1.27200 39.08600 28.89800
H  0.65400 40.30500 27.85900
H  2.38500 39.68200 27.89100
H  1.61600 40.93600 25.53500
H  2.66100 40.92200 24.05500
H  3.27100 40.14600 25.55800
H  -0.21800 35.02200 21.47900
H  -3.08700 34.58300 21.50000
H  -2.69900 36.76100 21.10900
H  -1.33600 36.61700 19.97500
H  -1.18800 37.61700 21.44000
H  -1.46900 33.17700 20.27600
H  -2.43600 32.14300 21.27200
H  -0.86700 31.30800 22.49400
H  0.04400 32.73700 22.82100
H  0.30200 31.85500 21.32500
H  -5.21500 29.70200 25.44400
H  -5.20500 30.91100 24.02300
H  -6.41100 30.91100 25.32300
H  -3.71600 31.62600 30.05500
H  -6.42700 33.26700 33.09400
H  -7.27800 31.79500 32.69000
H  -7.44300 33.36100 31.85000

