158

Mg 44.03500 42.81700 26.20600
C  42.63800 44.84100 28.66100
C  45.42100 40.82200 28.53000
C  45.71800 41.19400 23.80000
C  43.50600 45.51200 23.88300
N  44.09500 42.91000 28.31700
C  43.37300 43.74500 29.15900
C  43.53500 43.48100 30.65100
C  44.67100 42.39100 30.59300
C  44.87100 42.06700 29.05800
C  46.00600 42.77100 31.26500
C  42.22600 43.19000 31.50000
C  42.16400 42.44600 32.81200
H  41.44500 43.04000 34.01600
N  45.16200 41.08900 26.17300
C  45.59000 40.35700 27.25800
C  46.33100 39.23700 26.79900
C  46.47400 39.37200 25.36600
C  45.76700 40.64800 25.05300
C  46.76100 38.19100 27.78500
C  47.17300 38.45300 24.45200
O  47.24700 38.66300 23.22300
C  47.95900 37.29400 24.98800
N  44.33300 43.24200 24.11000
C  45.09100 42.39600 23.37800
C  45.15000 42.87000 21.88700
C  44.45100 44.21100 21.97000
C  44.09200 44.39100 23.39200
C  46.53800 42.86100 21.23500
C  43.15600 44.27900 21.02700
C  41.82300 43.74700 21.42200
N  43.24100 44.76200 26.20300
C  43.08800 45.71400 25.19900
C  42.24300 46.74000 25.74200
C  41.97400 46.42300 27.06300
C  42.64100 45.21500 27.32200
C  41.64200 47.95600 25.06800
C  41.36900 46.87000 28.25700
O  40.67300 47.86800 28.44700
C  41.81600 45.83000 29.34400
C  42.60700 46.59700 30.31600
O  43.61300 47.29500 30.15600
O  41.81700 46.72800 31.51900
C  42.56100 47.54100 32.60000
H  45.77400 40.07900 29.24900
H  46.19300 40.54400 23.06200
H  43.32400 46.34200 23.19800
H  44.08800 44.37700 30.93200
H  44.21100 41.47000 30.95200
H  45.91300 43.61700 31.94600
H  46.78800 42.97300 30.53200
H  46.34700 41.94800 31.89300
H  41.70300 42.65300 30.70900
H  41.64300 44.10000 31.63700
H  43.15000 42.08800 33.10700
H  41.69600 41.49700 32.55000
H  47.06600 37.23500 27.36000
H  45.96100 37.93300 28.48000
H  47.59500 38.63200 28.33200
H  48.69600 37.78700 25.62200
H  48.52600 37.06000 24.08800
H  47.31500 36.49400 25.35600
H  44.51000 42.25900 21.25000
H  45.17200 44.99800 21.74800
H  46.54300 41.94400 20.64700
H  47.41000 42.60900 21.84000
H  46.71800 43.68100 20.54000
H  43.40400 43.92200 20.02800
H  42.95600 45.34100 20.88400
H  41.90000 43.14200 22.32500
H  41.45100 43.06200 20.66000
H  41.06700 44.53300 21.44700
H  41.43300 47.78800 24.01100
H  42.47900 48.65500 25.08500
H  40.69700 48.19200 25.55800
H  40.93500 45.35500 29.77600
H  42.53500 46.88000 33.46600
H  42.04600 48.47900 32.80500
H  43.62200 47.75300 32.46800
Mg 6.08900 53.35300 41.67200
C  5.54500 49.91100 41.38200
C  9.29800 52.78000 40.49800
C  6.54000 56.61500 41.88100
C  2.72100 53.74900 42.60300
N  7.25800 51.51300 40.75100
C  6.81900 50.20800 40.90400
C  7.87100 49.27000 40.21900
C  9.20000 50.16800 40.52700
C  8.60800 51.61300 40.63200
C  10.11200 49.83200 41.67300
C  7.64900 48.80200 38.77900
C  6.72100 49.66200 37.92400
H  7.39600 50.37600 36.76800
N  7.76000 54.57300 41.25700
C  8.98600 54.14400 40.83900
C  9.80700 55.39300 40.72200
C  9.10400 56.43900 41.31500
C  7.72900 55.87500 41.55800
C  11.22800 55.23000 40.19200
C  9.66600 57.85600 41.43900
O  10.83100 58.03000 41.07100
C  8.78200 59.06600 41.83900
N  4.76900 54.94600 42.11700
C  5.19400 56.19900 42.07200
C  4.08600 57.25800 42.36900
C  2.81600 56.33800 42.54300
C  3.40300 54.90200 42.43100
C  4.42500 58.31900 43.47400
C  1.60400 56.53200 41.57300
C  0.27100 56.87400 42.22900
N  4.44000 52.11300 41.97400
C  3.16100 52.41500 42.43100
C  2.42800 51.14600 42.75100
C  3.33700 50.15900 42.28300
C  4.48700 50.78600 41.77700
C  1.11100 50.98300 43.38000
C  3.50400 48.74000 42.10000
O  2.72900 47.81500 42.33400
C  4.89100 48.54600 41.51100
C  4.71800 47.68600 40.20800
O  4.06900 48.20700 39.26400
O  5.28800 46.44900 40.37600
C  5.01400 45.60000 39.14300
H  10.32400 52.55700 40.19800
H  6.69800 57.68300 42.04400
H  1.67200 53.98400 42.79200
H  7.95300 48.40700 40.88000
H  9.76900 49.92000 39.63100
H  10.11200 50.60400 42.44300
H  11.16000 49.83400 41.37200
H  9.87800 48.85300 42.09200
H  7.21000 47.80500 38.83200
H  8.64300 48.73300 38.33700
H  6.15100 50.34200 38.55800
H  6.04500 48.99000 37.39500
H  11.95900 55.39300 40.98400
H  11.39500 55.93300 39.37600
H  11.50200 54.22200 39.88200
H  9.37200 59.97900 41.74900
H  8.58500 58.90900 42.89900
H  7.88600 58.98600 41.22400
H  4.05700 57.71700 41.38100
H  2.56700 56.55000 43.58300
H  4.40300 59.28000 42.96000
H  5.36700 58.15200 43.99800
H  3.72700 58.27900 44.31000
H  1.51500 55.55300 41.10300
H  1.75800 57.22200 40.74300
H  -0.54600 56.31800 41.77100
H  0.00800 57.93100 42.19100
H  0.31400 56.68200 43.30100
H  0.48900 50.22500 42.90500
H  0.55800 51.92200 43.39800
H  1.18900 50.78600 44.45000
H  5.41500 47.89000 42.20500
H  3.94700 45.61900 38.91800
H  5.36900 44.61000 39.43000
H  5.57200 45.94400 38.27300

