158

Mg 0.10600 6.39300 25.76200
C  0.83100 8.47900 28.64500
C  0.12600 3.69200 28.03100
C  -0.41100 4.49400 23.09700
C  0.50600 9.20300 23.79700
N  0.23300 6.19200 28.13100
C  0.58600 7.16700 29.02000
C  0.83600 6.59500 30.43300
C  0.84000 5.09200 30.13500
C  0.33900 4.93200 28.70300
C  2.18100 4.30900 30.38000
C  -0.30100 7.15400 31.36200
C  0.22200 7.64400 32.75300
H  1.30600 6.92400 33.58500
N  -0.22300 4.36600 25.55700
C  -0.20600 3.42100 26.57400
C  -0.60700 2.15800 25.95100
C  -0.68500 2.35000 24.55400
C  -0.41500 3.82000 24.34300
C  -0.76200 0.84700 26.66100
C  -1.15900 1.41700 23.45600
O  -1.13800 1.77600 22.29300
C  -1.46800 -0.02400 23.73900
N  0.18000 6.81500 23.70200
C  -0.22900 5.83500 22.86400
C  -0.43800 6.51100 21.46900
C  -0.50000 8.05600 21.75800
C  0.10300 8.07000 23.18900
C  0.63900 6.05900 20.46200
C  -1.90200 8.78500 21.57100
C  -2.65200 8.35800 20.39200
N  0.69300 8.45300 26.08800
C  0.83400 9.44100 25.15900
C  1.29000 10.60500 25.84800
C  1.28400 10.26200 27.20300
C  0.92100 8.99400 27.33800
C  1.56200 11.92200 25.11900
C  1.44300 10.88000 28.48600
O  1.73700 12.04900 28.81200
C  1.22300 9.71000 29.50900
C  2.53200 9.56200 30.20700
O  3.47300 8.90700 29.74800
O  2.55200 10.11200 31.48600
C  3.88700 10.14200 32.13000
H  0.41000 2.85800 28.67600
H  -0.57800 3.96200 22.15800
H  0.64500 10.05900 23.13400
H  1.78500 6.94500 30.84000
H  0.06200 4.57000 30.69200
H  2.64000 4.14200 29.40600
H  1.98200 3.37800 30.91000
H  2.90700 4.81200 31.02000
H  -1.03800 6.36000 31.48200
H  -0.71400 8.04600 30.89000
H  -0.58400 7.76300 33.47700
H  0.58600 8.63900 32.49600
H  -0.06600 0.16800 26.16800
H  -1.78900 0.50600 26.52500
H  -0.46100 0.93900 27.70400
H  -2.28900 -0.20400 24.43300
H  -0.57100 -0.50200 24.13200
H  -1.79200 -0.55800 22.84600
H  -1.38300 6.10500 21.10900
H  0.28400 8.52300 21.16100
H  1.13900 6.96300 20.11400
H  0.09100 5.52700 19.68400
H  1.43900 5.43100 20.85300
H  -1.81800 9.87200 21.56000
H  -2.57500 8.57600 22.40300
H  -3.55200 7.79800 20.65000
H  -2.21300 7.55500 19.79900
H  -2.74400 9.17400 19.67500
H  0.93300 11.98500 24.23200
H  2.60000 12.06000 24.81400
H  1.33400 12.80100 25.72200
H  0.46500 9.81200 30.28600
H  3.94500 10.87000 32.94000
H  4.73600 10.39700 31.49600
H  3.96300 9.26300 32.76900
Mg 43.41800 3.58500 47.54500
C  41.24700 6.35300 47.20500
C  40.81600 1.47900 47.22400
C  45.73200 1.09600 47.43400
C  46.07900 5.94400 47.21000
N  41.36600 3.89400 47.14800
C  40.68100 5.09100 47.06200
C  39.18000 4.84300 46.76000
C  39.10600 3.31300 46.94900
C  40.50300 2.83600 47.16700
C  38.09400 2.75900 48.01300
C  38.75100 5.42300 45.40200
C  37.69100 6.45300 45.38500
H  37.92300 7.59700 44.35100
N  43.28800 1.56400 47.42200
C  42.08900 0.85300 47.34700
C  42.42700 -0.55500 47.18700
C  43.84200 -0.67400 47.29700
C  44.37200 0.73400 47.42200
C  41.39500 -1.59900 46.89600
C  44.67300 -1.94900 47.12400
O  44.07000 -3.01300 46.93100
C  46.18500 -2.13600 47.22100
N  45.52700 3.54100 47.28600
C  46.31000 2.40300 47.29800
C  47.75700 2.67800 47.43300
C  47.86200 4.19800 47.06500
C  46.41700 4.59000 47.22700
C  48.32900 2.23500 48.83500
C  48.48600 4.39200 45.67600
C  49.35900 5.59200 45.67400
N  43.63700 5.70200 47.19300
C  44.77500 6.47800 47.21300
C  44.40600 7.81400 47.28600
C  43.02100 7.83900 47.27600
C  42.61800 6.52200 47.20700
C  45.30000 9.01100 47.31100
C  41.83300 8.71300 47.41600
O  41.71700 9.89500 47.60400
C  40.60700 7.72100 47.21800
C  39.63900 7.91800 48.28300
O  39.67500 7.31900 49.36600
O  38.82500 9.02300 47.95600
C  37.76100 9.36700 48.93200
H  39.95100 0.87400 46.94400
H  46.51900 0.34300 47.52000
H  46.81100 6.73000 47.01400
H  38.56800 5.12200 47.61700
H  38.71500 2.91300 46.01400
H  37.65200 3.57500 48.58600
H  38.61300 2.07100 48.67900
H  37.25400 2.20800 47.59000
H  38.41500 4.62300 44.74200
H  39.63800 5.71400 44.83800
H  37.61100 6.94900 46.35300
H  36.77900 5.88800 45.19400
H  41.70200 -2.55100 47.33100
H  41.19400 -1.82000 45.84800
H  40.47700 -1.20400 47.33100
H  46.78500 -1.48300 46.58700
H  46.20900 -3.13800 46.79200
H  46.37400 -1.98500 48.28400
H  48.26900 2.02400 46.72700
H  48.42500 4.72700 47.83400
H  47.69300 1.58200 49.43300
H  48.51700 3.09600 49.47600
H  49.23600 1.65900 48.65300
H  47.64400 4.39400 44.98400
H  49.15800 3.53600 45.61100
H  50.39300 5.27500 45.54200
H  49.18500 6.37400 46.41400
H  49.12700 6.22300 44.81700
H  45.09700 9.56300 48.22800
H  45.17100 9.69700 46.47400
H  46.37000 8.80900 47.36600
H  40.16600 7.75200 46.22100
H  38.13700 9.28200 49.95200
H  36.82100 8.82900 48.81100
H  37.52800 10.42000 48.77400

