158

Mg 54.59200 25.01200 44.84600
C  51.93900 27.18900 43.83500
C  52.60400 22.43700 43.67300
C  57.27300 23.10400 44.71200
C  56.32000 27.72400 45.92000
N  52.56800 24.86800 43.61500
C  51.67500 25.87400 43.49700
C  50.27700 25.29500 42.95000
C  50.42600 23.88600 43.45900
C  51.93100 23.71400 43.51300
C  49.77200 23.52900 44.80500
C  50.12400 25.44200 41.46200
C  48.69500 25.27900 40.85100
H  48.56800 24.30300 39.64400
N  54.92800 23.00100 44.28700
C  53.98100 22.12500 43.85400
C  54.54600 20.85300 43.66900
C  55.98500 21.05900 43.73200
C  56.14600 22.45600 44.21100
C  53.71700 19.63500 43.28200
C  57.06400 20.03200 43.40300
O  56.78800 18.84800 43.31400
C  58.52800 20.45700 43.16000
N  56.48600 25.30900 45.38700
C  57.44800 24.35400 45.26800
C  58.81100 24.94700 45.67900
C  58.50700 26.37800 46.17000
C  57.03700 26.51400 45.83400
C  59.59500 24.03800 46.71000
C  59.25400 27.55900 45.37100
C  59.91700 28.61700 46.29900
N  54.22100 27.03900 44.99600
C  55.02600 27.97600 45.58900
C  54.30300 29.26500 45.53500
C  53.03500 28.96100 44.91400
C  53.08300 27.62100 44.57500
C  54.72200 30.71400 46.04200
C  51.87800 29.52800 44.44700
O  51.53300 30.70000 44.45800
C  51.05200 28.34100 43.76100
C  50.53100 28.65100 42.39600
O  51.19600 29.07900 41.49200
O  49.19000 28.41900 42.26800
C  48.62000 28.96100 40.99400
H  51.97700 21.54300 43.64600
H  58.19700 22.53200 44.60300
H  56.89800 28.62500 46.13600
H  49.42300 25.74700 43.45500
H  49.86400 23.28700 42.74300
H  50.48100 23.56600 45.63200
H  49.18400 22.61100 44.83300
H  49.14800 24.34500 45.16800
H  50.75100 24.61100 41.14000
H  50.70200 26.30100 41.11900
H  48.33200 26.27300 40.58800
H  48.04700 24.80000 41.58500
H  53.91100 19.59900 42.21000
H  52.66500 19.61900 43.56800
H  54.23800 18.75300 43.65400
H  58.78100 21.36900 42.61900
H  58.96000 19.55200 42.73100
H  58.94500 20.68400 44.14100
H  59.39600 24.96800 44.76000
H  58.67400 26.57700 47.22800
H  58.96400 23.19900 47.00300
H  59.68400 24.61800 47.62800
H  60.58500 23.74200 46.36100
H  58.56400 28.08500 44.71200
H  60.01000 27.01300 44.80600
H  60.99700 28.47100 46.26500
H  59.55000 28.44700 47.31100
H  59.71000 29.66700 46.09100
H  53.92000 31.40700 45.78700
H  55.58700 31.08300 45.49000
H  54.71700 30.79500 47.12900
H  50.11100 28.20900 44.29700
H  48.78800 30.02900 41.13000
H  47.54500 28.80700 41.08600
H  49.06500 28.45900 40.13500
Mg 42.84600 41.37800 25.68700
C  42.22400 43.42200 28.51400
C  44.42300 39.15300 27.91300
C  43.74600 39.61300 23.05600
C  41.64900 43.90700 23.63700
N  43.46800 41.37700 27.89300
C  42.91700 42.24000 28.80100
C  43.25500 41.69700 30.21100
C  44.34400 40.60800 29.97300
C  44.00100 40.30300 28.52300
C  45.76800 41.17200 30.10300
C  41.98100 41.35300 31.05300
C  42.16000 41.52000 32.53300
H  41.17700 42.42000 33.28300
N  43.91000 39.56900 25.46800
C  44.41700 38.79800 26.53100
C  44.96600 37.57300 25.95400
C  44.77600 37.66900 24.50100
C  44.10300 38.93100 24.26300
C  45.52200 36.43800 26.82700
C  45.14800 36.65600 23.42100
O  44.88900 36.77700 22.21600
C  45.90800 35.38500 23.76800
N  42.82100 41.77200 23.59400
C  43.16100 40.83600 22.75600
C  43.04100 41.37200 21.29900
C  42.15900 42.61600 21.43800
C  42.18300 42.79900 22.94900
C  44.46900 41.63800 20.64600
C  40.69800 42.44500 20.93300
C  39.88400 41.37000 21.67100
N  42.03400 43.27200 25.94700
C  41.69700 44.23000 25.01400
C  41.29500 45.39000 25.73100
C  41.39200 45.09300 27.09500
C  41.89600 43.79100 27.17000
C  40.85800 46.68400 25.11800
C  41.30500 45.61200 28.46000
O  40.92100 46.71800 28.84400
C  41.74600 44.52800 29.51900
C  42.85000 45.12000 30.30000
O  43.98700 45.22800 29.88700
O  42.31200 45.67900 31.43200
C  43.34900 46.22300 32.35900
H  44.93800 38.44500 28.56500
H  43.88800 39.01200 22.15600
H  41.24500 44.58600 22.88300
H  43.63400 42.60900 30.67200
H  44.29700 39.73800 30.62900
H  46.17900 41.31300 29.10400
H  46.37200 40.57800 30.78900
H  45.73900 42.14600 30.59000
H  41.65500 40.32500 30.89600
H  41.15700 41.99800 30.74800
H  43.14600 41.97500 32.62800
H  42.33100 40.61000 33.10900
H  45.17500 35.45800 26.50000
H  45.44900 36.52500 27.91100
H  46.57400 36.25400 26.60600
H  46.49000 35.00900 22.92700
H  45.15200 34.64000 24.01400
H  46.57800 35.52500 24.61600
H  42.47500 40.61100 20.76100
H  42.66700 43.41000 20.89200
H  44.81700 42.65100 20.44800
H  44.51000 41.13800 19.67800
H  45.11300 41.09200 21.33500
H  40.76900 42.10900 19.89900
H  40.28200 43.45000 21.01200
H  40.34900 40.94100 22.55800
H  39.48800 40.59100 21.02100
H  39.14000 42.02000 22.13100
H  40.74700 46.57200 24.04000
H  41.60400 47.43900 25.36900
H  39.91900 47.02800 25.55100
H  40.91400 44.11100 30.08800
H  43.65500 47.22400 32.05800
H  44.23700 45.60500 32.22900
H  42.97800 46.24700 33.38400

