158

Mg -12.15300 39.06700 41.45100
C  -10.17400 36.27600 40.54100
C  -9.68400 41.10000 40.01300
C  -14.34000 41.49000 41.49800
C  -14.78400 36.74400 42.16200
N  -10.21100 38.64200 40.27600
C  -9.58800 37.46300 40.10100
C  -8.14300 37.66100 39.53600
C  -7.94900 39.19000 39.71100
C  -9.36400 39.69900 39.99000
C  -6.89600 39.74500 40.76400
C  -8.01300 37.03800 38.11300
C  -7.26500 35.72300 37.92000
H  -6.08600 35.77900 36.91500
N  -12.01100 41.07200 40.95000
C  -10.95100 41.72600 40.38000
C  -11.30000 43.17900 40.27800
C  -12.66000 43.23900 40.81900
C  -13.08000 41.88800 41.01900
C  -10.42800 44.25400 39.81800
C  -13.39400 44.57000 41.00100
O  -12.87600 45.59600 40.49000
C  -14.81900 44.65800 41.56800
N  -14.26000 39.07700 41.66600
C  -14.90700 40.27400 41.77700
C  -16.42000 40.01900 41.90100
C  -16.57000 38.51200 42.05600
C  -15.10600 38.06000 42.00400
C  -17.07100 40.93800 42.98100
C  -17.39900 37.69300 41.01000
C  -18.49200 36.82600 41.73600
N  -12.42200 37.01000 41.58300
C  -13.53100 36.17800 41.95300
C  -13.14300 34.80500 41.92400
C  -11.82900 34.84000 41.44200
C  -11.44300 36.14100 41.16800
C  -14.00700 33.62100 42.31500
C  -10.77400 33.99500 41.09000
O  -10.60300 32.77900 41.31500
C  -9.70600 34.91900 40.43700
C  -8.38200 34.69500 41.09900
O  -7.50500 33.90400 40.75900
O  -8.18300 35.52100 42.17000
C  -6.98900 35.31900 43.10000
H  -8.84300 41.75100 39.76300
H  -15.17600 42.18200 41.37600
H  -15.56800 36.00600 42.34500
H  -7.45100 37.19700 40.24000
H  -7.53100 39.48100 38.74700
H  -7.25100 40.71800 41.10300
H  -5.91900 39.75400 40.27900
H  -6.90800 38.98800 41.54800
H  -7.60100 37.75300 37.40100
H  -9.05800 36.93900 37.82200
H  -8.00200 34.96800 37.64700
H  -6.78300 35.36900 38.83200
H  -10.46300 45.11000 40.49100
H  -10.66900 44.29500 38.75600
H  -9.39700 43.90800 39.74200
H  -15.61900 44.37500 40.88500
H  -15.04400 45.64400 41.97400
H  -14.84600 44.02400 42.45400
H  -16.72600 40.23800 40.87800
H  -16.93600 38.24700 43.04800
H  -17.71400 41.59700 42.39700
H  -16.29700 41.50800 43.49500
H  -17.58700 40.41400 43.78500
H  -16.85200 36.97500 40.39900
H  -17.98800 38.33600 40.35600
H  -19.43100 37.33900 41.52700
H  -18.40300 36.74500 42.82000
H  -18.53400 35.86500 41.22400
H  -14.87800 33.88900 42.91300
H  -13.45700 32.78700 42.75100
H  -14.43800 33.25400 41.38300
H  -9.47400 34.73600 39.38800
H  -7.31600 35.67900 44.07500
H  -6.07300 35.82700 42.79800
H  -6.76500 34.25200 43.10400
Mg -12.06600 16.77100 41.47100
C  -8.89700 15.27400 41.19800
C  -10.82000 19.51300 40.17900
C  -15.30100 17.90400 40.96500
C  -13.42900 13.57900 42.37800
N  -10.09400 17.27500 40.71100
C  -8.93600 16.56500 40.72300
C  -7.68700 17.31700 40.14800
C  -8.35700 18.73300 39.89600
C  -9.87800 18.50200 40.28100
C  -7.66200 19.96200 40.61600
C  -7.12100 16.62400 38.88700
C  -5.65200 16.34800 38.89900
H  -5.01700 16.51700 37.49700
N  -12.92800 18.54900 40.72300
C  -12.23600 19.58200 40.28500
C  -13.12900 20.65300 39.90300
C  -14.45200 20.22600 40.09100
C  -14.29600 18.82000 40.58000
C  -12.63700 21.97000 39.41100
C  -15.75500 20.95500 39.62900
O  -15.67300 22.11900 39.15300
C  -17.15900 20.31100 39.55300
N  -14.03600 16.01900 41.80500
C  -15.19300 16.65100 41.48500
C  -16.51500 15.88800 41.87000
C  -15.85900 14.49000 42.39100
C  -14.35500 14.68000 42.18300
C  -17.55300 16.65400 42.80600
C  -16.47600 13.17000 41.60700
C  -16.74300 12.00200 42.54000
N  -11.37900 14.89300 41.88800
C  -11.99300 13.66200 42.27800
C  -10.93100 12.65500 42.46400
C  -9.79300 13.26000 42.01700
C  -10.08800 14.61800 41.63700
C  -11.21800 11.27400 42.98000
C  -8.44200 12.91000 41.73800
O  -7.81800 11.78400 41.80200
C  -7.74300 14.33100 41.35300
C  -6.95700 14.84700 42.55800
O  -7.14300 14.49700 43.75400
O  -5.93600 15.63400 42.13600
C  -4.91400 15.88600 43.14600
H  -10.41200 20.48400 39.89000
H  -16.33500 18.13800 40.70300
H  -13.79500 12.56800 42.56600
H  -6.97800 17.47300 40.96100
H  -8.29200 19.07900 38.86500
H  -8.35400 20.29000 41.39200
H  -7.59900 20.85000 39.98600
H  -6.77300 19.67000 41.17400
H  -7.51200 17.14300 38.01200
H  -7.62100 15.65900 38.80000
H  -5.44200 15.29600 39.09600
H  -5.14100 17.01200 39.59500
H  -13.19800 22.11200 38.48700
H  -11.57200 21.98700 39.18000
H  -12.92300 22.75600 40.11100
H  -17.03200 19.53600 38.79700
H  -17.94700 20.97300 39.19400
H  -17.46400 19.88800 40.51100
H  -17.00900 15.66100 40.92500
H  -15.88100 14.41500 43.47800
H  -17.26000 17.70200 42.86700
H  -17.57500 16.27100 43.82600
H  -18.53000 16.54400 42.33500
H  -15.63400 12.88500 40.97600
H  -17.30400 13.36900 40.92600
H  -17.00500 12.47100 43.48800
H  -15.90800 11.31900 42.69700
H  -17.61100 11.49000 42.12200
H  -11.72900 10.71200 42.19800
H  -11.87400 11.41300 43.83900
H  -10.29100 10.76700 43.24800
H  -7.09600 14.20400 40.48500
H  -4.63000 16.93300 43.03100
H  -3.98700 15.34800 42.94800
H  -5.18400 15.78700 44.19700

