158

Mg 27.05100 50.61200 25.94100
C  25.54200 51.91900 28.85100
C  29.73300 49.82300 28.10000
C  28.51500 49.14800 23.38400
C  24.70200 52.09400 23.96500
N  27.46600 50.68200 28.26500
C  26.64100 51.18700 29.24600
C  27.13100 50.93000 30.66900
C  28.58600 50.53800 30.34100
C  28.61200 50.30500 28.82600
C  29.58800 51.49400 30.95400
C  26.30900 49.80100 31.48700
C  25.60700 50.13600 32.84300
H  26.43200 50.89700 33.96700
N  28.83800 49.65300 25.72000
C  29.81500 49.50900 26.72200
C  30.93000 48.83500 26.10800
C  30.58600 48.36200 24.81400
C  29.25500 49.03800 24.58000
C  32.25500 48.52700 26.95200
C  31.28900 47.42400 23.86900
O  30.80300 47.03100 22.78700
C  32.66400 46.93900 24.24100
N  26.80700 50.80800 23.87000
C  27.40600 49.91200 23.06200
C  26.70900 49.98500 21.64000
C  25.41900 50.80300 21.96500
C  25.68000 51.27300 23.34200
C  27.61900 50.76900 20.72200
C  24.17200 49.91000 21.96300
C  22.87700 50.58600 21.41000
N  25.54200 51.81700 26.21700
C  24.55000 52.24800 25.35100
C  23.47200 52.93600 26.06900
C  23.81700 52.83700 27.38200
C  25.06900 52.10200 27.48600
C  22.28900 53.53900 25.52600
C  23.41500 53.15100 28.72300
O  22.40700 53.72700 29.12900
C  24.53100 52.59500 29.72000
C  25.15800 53.66400 30.53500
O  26.14700 54.31000 30.23700
O  24.40000 53.79100 31.69800
C  24.82700 54.84400 32.67300
H  30.52700 49.67900 28.83600
H  28.82200 48.44000 22.61100
H  23.80900 52.31600 23.37800
H  27.05300 51.82700 31.28400
H  28.84400 49.53900 30.69100
H  30.33600 50.98300 31.56000
H  29.05900 52.23300 31.55500
H  29.88200 51.90700 29.98900
H  26.96300 48.95300 31.69000
H  25.52000 49.42500 30.83500
H  25.24600 49.15000 33.13600
H  24.79300 50.80500 32.56200
H  32.26000 49.22600 27.78800
H  33.11900 48.76600 26.33300
H  32.22500 47.50000 27.31600
H  32.69700 46.35000 25.15800
H  33.36500 47.75300 24.42900
H  32.95400 46.25900 23.44000
H  26.50600 48.99000 21.24400
H  25.35000 51.66800 21.30500
H  27.67700 50.38200 19.70500
H  28.65000 50.54100 20.99500
H  27.64100 51.85900 20.74900
H  24.08700 49.49100 22.96600
H  24.41300 48.99400 21.42300
H  22.65800 49.97000 20.53700
H  23.01900 51.62600 21.11600
H  22.00900 50.49700 22.06200
H  21.43600 52.86100 25.55000
H  22.32100 53.68800 24.44600
H  22.00900 54.41900 26.10400
H  24.03500 51.96100 30.45500
H  25.03100 55.72700 32.06800
H  25.78600 54.58400 33.12100
H  23.94600 55.04700 33.28300
Mg -9.92800 39.35500 41.75300
C  -8.33400 36.47900 40.43100
C  -7.80400 41.21200 39.83700
C  -12.06200 41.88400 41.93300
C  -12.43200 37.20600 42.99800
N  -8.34100 38.90500 40.23800
C  -7.74900 37.67800 39.96700
C  -6.60500 37.79700 38.96600
C  -6.36000 39.31100 38.95700
C  -7.55100 39.88400 39.76200
C  -5.02000 39.72100 39.66700
C  -7.00600 37.19000 37.62600
C  -6.13000 36.14300 36.95400
H  -5.57800 36.45700 35.51700
N  -9.74200 41.33800 41.34000
C  -8.78400 41.95800 40.55000
C  -9.03200 43.39000 40.56500
C  -10.26300 43.60700 41.11400
C  -10.72500 42.21600 41.51200
C  -7.96500 44.36700 40.08400
C  -11.01400 44.99300 41.30300
O  -10.44900 46.10300 41.14300
C  -12.47600 45.01100 41.66700
N  -11.97900 39.48900 42.24700
C  -12.61900 40.70900 42.36200
C  -14.05900 40.66200 42.75000
C  -14.21500 39.07200 43.06100
C  -12.82700 38.56200 42.81400
C  -14.33300 41.52000 43.97300
C  -15.20500 38.42100 42.04000
C  -16.05300 37.27200 42.60900
N  -10.30600 37.24800 41.85700
C  -11.25100 36.55000 42.51300
C  -10.90200 35.15500 42.48500
C  -9.76000 35.10500 41.72200
C  -9.42100 36.42100 41.29100
C  -11.74100 33.99200 43.13300
C  -8.78400 34.21400 41.21400
O  -8.78100 33.02300 41.40400
C  -7.87500 34.99600 40.28100
C  -6.54700 34.64400 40.58300
O  -5.77300 34.01600 39.85000
O  -6.05400 35.15800 41.79800
C  -4.68400 34.73000 42.20900
H  -7.08700 41.80800 39.26800
H  -12.85300 42.63600 41.89100
H  -13.22000 36.53100 43.33900
H  -5.82900 37.16200 39.39300
H  -6.31200 39.72800 37.95100
H  -4.26100 39.91900 38.91000
H  -4.71800 39.01200 40.43800
H  -5.04000 40.67600 40.19100
H  -7.09400 37.99000 36.89200
H  -8.01200 36.77200 37.64700
H  -6.66200 35.19300 36.91900
H  -5.24700 35.97500 37.57000
H  -8.43100 45.01500 39.34100
H  -7.11000 43.75300 39.80200
H  -7.53500 44.92300 40.91700
H  -12.88700 46.01800 41.59800
H  -12.53500 44.61500 42.68000
H  -12.86700 44.37000 40.87600
H  -14.65700 41.01500 41.90900
H  -14.51900 38.88400 44.09100
H  -15.09600 42.25700 43.72300
H  -13.44300 42.00500 44.37400
H  -14.94700 41.01200 44.71600
H  -14.63700 38.09100 41.17000
H  -15.88700 39.16400 41.62700
H  -17.11500 37.51700 42.57000
H  -15.79600 37.12900 43.65900
H  -15.97900 36.38400 41.98200
H  -11.07300 33.19700 43.46500
H  -12.41500 33.58200 42.38000
H  -12.37400 34.33200 43.95300
H  -8.12700 34.67800 39.26900
H  -4.02200 34.64300 41.34800
H  -4.65200 33.93500 42.95500
H  -4.18200 35.53400 42.74700

