158

Mg 28.24300 56.46900 40.40200
C  25.85900 53.85900 39.53200
C  30.79400 54.38000 39.32300
C  30.28900 59.03500 40.41800
C  25.54300 58.73000 40.41800
N  28.27300 54.42500 39.25600
C  27.22300 53.52100 39.17600
C  27.67600 52.17600 38.59800
C  29.24600 52.28900 38.91400
C  29.50400 53.79400 39.18400
C  29.73800 51.39700 40.18600
C  27.32100 52.01100 37.15000
C  26.72400 53.20500 36.35500
H  26.93100 53.19900 34.87800
N  30.29300 56.61600 40.19100
C  31.12300 55.67100 39.70100
C  32.47900 56.16600 39.77300
C  32.37200 57.48900 40.24100
C  30.96300 57.76900 40.36800
C  33.66600 55.38500 39.38900
C  33.45200 58.50900 40.53600
O  34.59200 58.17200 40.26700
C  33.34300 59.80600 41.18000
N  27.95200 58.60900 40.42800
C  28.94200 59.47300 40.42300
C  28.49400 60.91100 40.61300
C  26.95600 60.81300 40.54100
C  26.78000 59.31000 40.47700
C  29.14400 61.66600 41.92400
C  26.42500 61.55000 39.22300
C  26.28800 63.04300 39.29600
N  26.25200 56.30200 40.27400
C  25.25600 57.32300 40.32000
C  23.93500 56.71300 40.27300
C  24.17100 55.35800 40.08800
C  25.56100 55.14500 40.04600
C  22.65500 57.45500 40.46200
C  23.48700 54.07100 40.09100
O  22.36700 53.72300 40.36200
C  24.58300 53.07400 39.61900
C  24.67300 52.01400 40.67000
O  24.02700 50.95500 40.67400
O  25.37100 52.49700 41.82200
C  25.63400 51.44700 42.85600
H  31.65300 53.70700 39.28400
H  30.88400 59.94200 40.28800
H  24.70400 59.42900 40.42300
H  27.21400 51.34100 39.12400
H  29.81600 52.01700 38.02600
H  30.04000 51.99000 41.05000
H  30.64600 50.84800 39.93500
H  28.97700 50.74500 40.61300
H  26.59900 51.19700 37.08100
H  28.21900 51.73200 36.59800
H  26.88600 54.17100 36.83300
H  25.64800 53.13900 36.51400
H  33.49500 54.66900 38.58600
H  34.02700 54.75400 40.20100
H  34.43500 56.10000 39.09800
H  32.42800 59.76800 41.77300
H  33.18100 60.53200 40.38300
H  34.23200 60.09500 41.74000
H  28.94600 61.47200 39.79500
H  26.44500 61.27200 41.38700
H  29.87600 62.43300 41.67000
H  29.69600 60.95300 42.53600
H  28.45500 62.05000 42.67700
H  25.47100 61.11000 38.93100
H  27.14500 61.34300 38.43200
H  26.86800 63.40200 40.14600
H  25.23500 63.31000 39.38200
H  26.77800 63.39400 38.38800
H  22.51700 57.73800 39.41800
H  22.58800 58.32800 41.11100
H  21.84800 56.78400 40.75700
H  24.18600 52.58400 38.73000
H  24.80800 50.73800 42.90600
H  25.65800 51.97600 43.80900
H  26.62000 50.99100 42.76900
Mg -2.65100 34.84800 26.95500
C  -4.37200 33.56900 29.80500
C  -1.37300 37.26900 29.05000
C  -1.47900 36.21900 24.28500
C  -4.40700 32.59700 25.06100
N  -2.81700 35.33900 29.23800
C  -3.60300 34.72400 30.16300
C  -3.41100 35.22700 31.64400
C  -2.50100 36.47200 31.28800
C  -2.15700 36.36200 29.79900
C  -3.14700 37.90400 31.65100
C  -2.78900 34.19500 32.66200
C  -2.77900 34.61200 34.19300
H  -3.37800 33.64000 35.25600
N  -1.54300 36.48900 26.69200
C  -1.03500 37.37800 27.69400
C  -0.11100 38.32300 27.06000
C  -0.20800 38.00800 25.61300
C  -1.11700 36.87500 25.42500
C  0.64800 39.40300 27.81700
C  0.69300 38.61200 24.49800
O  0.72200 38.29700 23.32500
C  1.65300 39.61700 24.89100
N  -2.94900 34.43100 24.87000
C  -2.34600 35.15700 23.96500
C  -2.42200 34.49000 22.56700
C  -3.27700 33.25800 22.89100
C  -3.62400 33.42400 24.38900
C  -2.94900 35.37800 21.41200
C  -2.54400 31.83800 22.68200
C  -3.28300 30.75200 21.96800
N  -4.15900 33.42400 27.27800
C  -4.67600 32.55500 26.42700
C  -5.60400 31.67300 27.10500
C  -5.52600 32.03800 28.41700
C  -4.61400 33.09700 28.50100
C  -6.43200 30.59600 26.49300
C  -6.02300 31.77600 29.72000
O  -6.84200 30.91500 30.01500
C  -5.30700 32.78000 30.71900
C  -6.33200 33.54400 31.45500
O  -6.91000 34.55300 31.09600
O  -6.55600 32.93100 32.68000
C  -7.60600 33.51500 33.49000
H  -0.86300 38.03400 29.63900
H  -1.05700 36.64500 23.37300
H  -4.92600 31.86000 24.44400
H  -4.39900 35.53600 31.98700
H  -1.59300 36.48500 31.89100
H  -3.07800 38.61300 30.82600
H  -2.60200 38.13200 32.56800
H  -4.23400 37.86000 31.72200
H  -1.76600 34.03400 32.32200
H  -3.42000 33.30600 32.65900
H  -3.10900 35.64600 34.29600
H  -1.72600 34.65300 34.47000
H  1.70500 39.21200 28.00100
H  0.34100 39.69600 28.82100
H  0.50600 40.27100 27.17200
H  1.14900 40.49800 25.29000
H  2.42400 39.83900 24.15400
H  2.25300 39.16400 25.68000
H  -1.40200 34.19500 22.32000
H  -4.19800 33.39800 22.32500
H  -2.93100 36.41000 21.76300
H  -3.97100 35.05800 21.21100
H  -2.43500 35.23300 20.46200
H  -2.36700 31.37800 23.65400
H  -1.52300 31.90900 22.30700
H  -4.26500 31.16500 21.73900
H  -3.51200 29.89300 22.59900
H  -2.79800 30.47000 21.03400
H  -6.93700 30.06100 27.29800
H  -5.89200 29.88600 25.86600
H  -7.14000 31.14000 25.86900
H  -4.64200 32.20400 31.36200
H  -7.51500 34.58500 33.68000
H  -7.63100 32.98300 34.44100
H  -8.59800 33.38600 33.05900

