158

Mg 2.55700 -1.31400 44.24300
C  6.05200 -1.22500 43.81400
C  2.23200 1.37300 42.21600
C  -0.74200 -1.95500 44.25000
C  3.12000 -4.20300 46.24300
N  4.01600 -0.21900 43.03200
C  5.39800 -0.24900 43.04100
C  5.98200 0.85300 42.25800
C  4.69000 1.92700 42.16500
C  3.53500 1.00900 42.53200
C  4.78900 3.09100 43.18700
C  6.54900 0.54500 40.84200
C  7.68600 1.37000 40.26200
H  7.41700 2.43300 39.18600
N  0.93700 -0.42600 43.33700
C  1.04800 0.67300 42.51900
C  -0.32500 1.03900 42.20700
C  -1.16600 0.11600 42.72400
C  -0.37400 -0.84500 43.47400
C  -0.53700 2.42100 41.50000
C  -2.75200 0.16300 42.62000
O  -3.29600 1.14300 42.05800
C  -3.61300 -0.77800 43.27600
N  1.35500 -2.97200 44.89300
C  -0.01100 -2.81400 44.96400
C  -0.69400 -3.92000 45.75300
C  0.56700 -4.69600 46.35300
C  1.82600 -3.92800 45.81300
C  -1.69900 -3.50100 46.80900
C  0.57200 -6.24300 46.16400
C  1.11000 -7.01600 47.38600
N  4.22000 -2.42000 44.92400
C  4.27300 -3.53200 45.75500
C  5.65000 -3.91900 46.05700
C  6.41400 -2.92500 45.37600
C  5.49800 -2.12900 44.63800
C  6.26900 -5.09400 46.94400
C  7.76700 -2.51400 45.10700
O  8.79900 -2.89700 45.67800
C  7.53300 -1.41500 43.99400
C  8.16900 -0.20300 44.69400
O  8.14200 0.02800 45.88500
O  8.89700 0.60600 43.81600
C  9.36200 1.95300 44.36600
H  2.21200 2.25200 41.56900
H  -1.80700 -1.98400 44.48900
H  3.32900 -5.09500 46.83700
H  6.63200 1.35800 42.97200
H  4.56700 2.31500 41.15400
H  5.28200 3.87900 42.61800
H  5.25200 2.64200 44.06600
H  3.82200 3.46300 43.52600
H  5.73000 0.60000 40.12600
H  6.88100 -0.49300 40.81200
H  8.52200 0.72700 39.98700
H  8.00100 1.87600 41.17400
H  -1.53600 2.79600 41.27500
H  -0.14900 2.33700 40.48500
H  0.00900 3.21500 42.01000
H  -4.58000 -0.65900 42.78700
H  -3.60200 -0.44800 44.31500
H  -3.34500 -1.82300 43.12500
H  -1.27300 -4.50700 45.04000
H  0.46100 -4.35300 47.38300
H  -1.83300 -2.42100 46.75000
H  -1.41400 -3.83200 47.80700
H  -2.66600 -3.97500 46.64000
H  1.24200 -6.50800 45.34600
H  -0.42500 -6.58900 45.89000
H  0.50100 -7.90800 47.53500
H  1.16000 -6.35200 48.24900
H  2.11700 -7.31400 47.09200
H  6.72100 -5.80400 46.25100
H  5.43700 -5.59900 47.43500
H  6.98300 -4.67500 47.65300
H  8.17700 -1.57000 43.12800
H  10.19900 1.75400 45.03500
H  8.58200 2.46700 44.92900
H  9.72700 2.61600 43.58100
Mg 43.79400 4.15000 48.47100
C  41.48600 6.79400 47.85200
C  41.02700 1.86900 48.11900
C  45.95600 1.59000 48.35800
C  46.33700 6.47800 48.06100
N  41.62300 4.30300 48.08500
C  40.93500 5.51500 47.81700
C  39.56200 5.27500 47.35900
C  39.28900 3.72900 47.66000
C  40.70300 3.24900 48.03200
C  38.14500 3.43900 48.77000
C  39.35800 5.52100 45.85200
C  38.08700 6.30600 45.40100
H  37.80500 6.57600 43.80700
N  43.48500 1.93000 48.37100
C  42.33100 1.24500 48.25700
C  42.62000 -0.18500 48.23100
C  44.02800 -0.28200 48.25800
C  44.58900 1.06000 48.35800
C  41.60600 -1.26100 48.12200
C  44.71000 -1.63500 48.20800
O  44.11400 -2.68800 47.98700
C  46.21800 -1.70700 48.51700
N  45.87300 3.97300 48.12500
C  46.52200 2.84500 48.23100
C  48.07500 3.09900 48.06900
C  48.14200 4.65000 47.83600
C  46.67700 5.12100 48.11000
C  48.94900 2.54500 49.22200
C  48.71800 4.98300 46.46500
C  50.29600 5.08000 46.46800
N  43.99200 6.23600 48.21700
C  45.07800 7.03900 48.19100
C  44.67200 8.45400 48.11400
C  43.25100 8.37800 47.97500
C  42.89300 7.04600 48.00100
C  45.64500 9.58100 47.97800
C  42.03300 9.15700 47.78600
O  41.88800 10.38100 47.80200
C  40.81300 8.14900 47.75000
C  39.81200 8.44400 48.77400
O  39.67800 7.83000 49.83600
O  39.05000 9.46800 48.32700
C  37.83500 9.89300 48.97400
H  40.16100 1.21700 47.99300
H  46.67100 0.76400 48.37300
H  47.19900 7.13300 47.92000
H  38.76800 5.88400 47.79200
H  39.05300 3.11700 46.78900
H  37.46100 4.27600 48.91300
H  38.60700 3.25400 49.74000
H  37.60700 2.55200 48.43600
H  39.44700 4.63100 45.22900
H  40.18700 6.15200 45.53400
H  38.03900 7.23000 45.97600
H  37.19600 5.75700 45.70600
H  41.81000 -1.82300 47.21000
H  40.61300 -0.81500 48.07800
H  41.56900 -1.92900 48.98200
H  46.77900 -1.24500 47.70500
H  46.49400 -2.76000 48.56900
H  46.34000 -1.23500 49.49200
H  48.22300 2.52700 47.15200
H  48.74400 4.92600 48.70200
H  49.65500 3.26900 49.62800
H  49.47600 1.67900 48.82100
H  48.25900 2.11300 49.94600
H  48.31000 5.95700 46.19300
H  48.26600 4.30400 45.74300
H  50.75600 4.61800 47.34200
H  50.75900 6.06400 46.39900
H  50.74800 4.55400 45.62700
H  45.12300 10.53700 47.99900
H  46.14000 9.63600 47.00800
H  46.41900 9.63900 48.74300
H  40.36700 8.34300 46.77400
H  37.91200 9.94400 50.06100
H  36.92600 9.36000 48.69800
H  37.67600 10.92400 48.65800

