158

Mg -1.63600 17.13700 25.80800
C  -1.97900 14.81600 28.49100
C  -2.26900 19.60600 28.06500
C  -1.66100 19.48900 23.31200
C  -1.43200 14.67000 23.56200
N  -2.29200 17.15400 28.07100
C  -2.24500 16.11500 28.91300
C  -2.72500 16.53800 30.33300
C  -2.84700 18.13000 30.23300
C  -2.45400 18.36600 28.71600
C  -4.16500 18.72500 30.71700
C  -2.02800 15.97500 31.57500
C  -2.12600 16.70500 32.90000
H  -2.03200 15.99900 34.24100
N  -1.78000 19.18300 25.71800
C  -1.93000 20.02800 26.80900
C  -1.86700 21.41600 26.44400
C  -1.66500 21.38600 25.02100
C  -1.74300 19.94600 24.62500
C  -2.14200 22.60100 27.35200
C  -1.61800 22.59700 24.04100
O  -1.56600 22.61300 22.83700
C  -1.59000 23.94500 24.68700
N  -1.62800 17.03700 23.71300
C  -1.52100 18.13400 22.90600
C  -1.42800 17.68700 21.48100
C  -1.02600 16.12800 21.64400
C  -1.34700 15.95900 23.05000
C  -2.75300 17.96800 20.75500
C  0.44200 15.73300 21.21200
C  1.63200 16.36000 22.01000
N  -1.64200 15.19400 25.95500
C  -1.52700 14.21400 24.90400
C  -1.65800 12.89500 25.57400
C  -1.76200 13.09100 26.93500
C  -1.77000 14.49400 27.14200
C  -1.80800 11.59900 24.82900
C  -1.82600 12.38700 28.15600
O  -1.74100 11.19800 28.41900
C  -1.92100 13.50300 29.27500
C  -0.92000 13.39100 30.37700
O  0.25700 13.71000 30.36100
O  -1.54200 12.76100 31.44100
C  -0.75700 12.28400 32.52900
H  -2.22400 20.34400 28.86900
H  -1.50700 20.22600 22.52200
H  -1.35100 13.87000 22.82300
H  -3.75200 16.17500 30.35900
H  -2.06800 18.60100 30.83300
H  -4.65300 19.17100 29.85000
H  -3.92000 19.47200 31.47200
H  -4.75800 17.94600 31.19500
H  -0.98800 15.77900 31.31300
H  -2.55200 15.03500 31.74900
H  -2.91900 17.44800 32.98300
H  -1.24200 17.34100 32.85700
H  -2.98200 23.15400 26.93100
H  -1.23700 23.20500 27.41900
H  -2.49300 22.36300 28.35600
H  -2.54100 24.29800 25.08700
H  -1.37400 24.61700 23.85600
H  -0.89900 24.01500 25.52700
H  -0.55300 18.21300 21.09800
H  -1.69700 15.46900 21.09400
H  -3.30400 17.03300 20.64900
H  -2.57700 18.48800 19.81300
H  -3.36900 18.62600 21.36700
H  0.60000 15.96300 20.15800
H  0.62800 14.66300 21.29900
H  2.37900 15.65300 22.37000
H  1.21300 16.85800 22.88500
H  2.19000 17.09300 21.42700
H  -1.93400 11.92300 23.79600
H  -2.65400 11.02200 25.20200
H  -0.83200 11.12500 24.93100
H  -2.86900 13.53000 29.81100
H  -0.55800 13.14800 33.16200
H  0.16800 11.85600 32.14200
H  -1.28500 11.52100 33.10100
Mg 6.84700 55.10300 42.08700
C  6.08400 51.64600 41.49200
C  10.07900 54.33800 41.01200
C  7.45200 58.43200 41.97900
C  3.62200 55.57800 42.72300
N  7.96800 53.23300 41.34400
C  7.51900 51.92100 41.29600
C  8.60600 50.94300 40.97700
C  9.90300 51.73800 41.21500
C  9.31200 53.19600 41.20300
C  10.61900 51.40700 42.59200
C  8.56000 50.29200 39.50500
C  8.71100 51.29900 38.29100
H  8.00100 51.14700 36.96700
N  8.57100 56.26700 41.57700
C  9.73800 55.73900 41.08100
C  10.64500 56.89900 40.68700
C  9.91800 58.14200 41.08500
C  8.56900 57.64400 41.61900
C  11.93300 56.68800 39.92500
C  10.39600 59.58300 40.85800
O  11.52100 59.73100 40.42400
C  9.60100 60.77600 41.08000
N  5.79200 56.67800 42.42900
C  6.14000 58.02100 42.40500
C  5.03700 59.02700 42.74700
C  3.85400 58.02100 43.00200
C  4.45200 56.66000 42.62600
C  5.52500 59.95800 43.91700
C  2.53000 58.52200 42.26200
C  1.41400 59.04400 43.12300
N  5.13200 53.88800 42.17200
C  3.89600 54.25000 42.53300
C  3.08500 53.00700 42.68300
C  3.96900 51.94600 42.37500
C  5.14600 52.54600 42.00100
C  1.57700 52.94900 43.05800
C  4.04200 50.50200 42.28100
O  3.26800 49.58300 42.60500
C  5.43200 50.29000 41.62000
C  5.26100 49.60300 40.34100
O  4.60100 49.94900 39.34700
O  6.10800 48.54000 40.28200
C  5.97000 47.65800 39.09900
H  11.04000 54.07200 40.56500
H  7.55900 59.51700 41.90300
H  2.55800 55.75400 42.89200
H  8.41800 50.17400 41.72600
H  10.56000 51.53200 40.37000
H  10.16700 50.55300 43.09700
H  10.44000 52.23300 43.28000
H  11.68700 51.29400 42.40100
H  7.62900 49.75500 39.32200
H  9.35000 49.55000 39.39400
H  9.74500 51.15400 37.97900
H  8.74100 52.36500 38.51900
H  11.88300 55.90600 39.16800
H  12.70400 56.45100 40.65800
H  12.11100 57.62000 39.38800
H  8.81200 60.85600 40.33200
H  10.10400 61.72500 40.89500
H  9.21500 60.85200 42.09600
H  4.84100 59.62800 41.86000
H  3.82300 58.07200 44.09000
H  6.43600 59.81900 44.49900
H  4.58800 60.04300 44.46600
H  5.54800 60.97100 43.51300
H  2.21700 57.66300 41.66800
H  2.80900 59.35300 41.61500
H  1.47500 60.13200 43.11300
H  1.51200 58.66400 44.14000
H  0.38600 58.80000 42.85800
H  1.15700 53.85700 43.48900
H  1.34900 52.11900 43.72700
H  1.08300 52.66100 42.13000
H  6.01500 49.66200 42.29400
H  5.99500 48.19500 38.15100
H  5.08200 47.08100 39.35400
H  6.77100 46.91800 39.12100

