158

Mg 16.29800 -1.70700 27.74300
C  15.46500 0.48700 30.40300
C  18.26200 -3.44600 29.97000
C  17.66200 -3.37500 25.15000
C  14.36400 0.40200 25.59600
N  16.83400 -1.44500 29.96100
C  16.30600 -0.52700 30.84400
C  16.69100 -0.89700 32.34300
C  17.82500 -2.06700 32.14900
C  17.62500 -2.38400 30.59000
C  19.30200 -1.67600 32.42300
C  15.40000 -1.32200 33.19100
C  15.25600 -0.77500 34.58900
H  16.45700 -0.31600 35.42300
N  17.63300 -3.31200 27.62500
C  18.29300 -3.89200 28.66500
C  19.06500 -4.96100 28.16300
C  18.87800 -4.97600 26.67300
C  18.05100 -3.83100 26.43600
C  20.04600 -5.60900 28.94400
C  19.51400 -5.93800 25.65200
O  19.23100 -5.83700 24.46500
C  20.38900 -7.06900 26.15800
N  16.26900 -1.37000 25.68800
C  16.79100 -2.33300 24.85000
C  16.46400 -1.99100 23.39800
C  15.39200 -0.87400 23.56700
C  15.25800 -0.58000 25.05400
C  17.77500 -1.54200 22.61600
C  14.05300 -1.13500 22.79100
C  14.06500 -0.43300 21.43300
N  15.09900 -0.05200 27.89100
C  14.35300 0.71100 26.96000
C  13.57400 1.70400 27.59900
C  14.02900 1.66600 28.91700
C  14.94100 0.60900 29.04500
C  12.67700 2.64700 26.84000
C  13.85500 2.36100 30.18300
O  13.17300 3.32000 30.50300
C  14.64100 1.51500 31.28100
C  15.51500 2.46500 32.18800
O  16.67600 2.76800 31.99300
O  14.81100 2.94700 33.17300
C  15.45300 3.97500 34.01500
H  18.78400 -4.01000 30.74600
H  18.17700 -3.70200 24.24400
H  13.84400 1.07000 24.90500
H  17.06300 -0.07900 32.96100
H  17.58400 -2.98700 32.68100
H  19.68800 -2.32400 33.21000
H  19.16000 -0.66300 32.79700
H  19.92800 -1.68300 31.53000
H  15.24400 -2.39800 33.26800
H  14.59900 -0.82000 32.64800
H  14.75600 -1.47200 35.26200
H  14.52600 0.02500 34.46200
H  20.00300 -5.41700 30.01700
H  21.01700 -5.33700 28.53000
H  19.82500 -6.67200 28.85700
H  20.60800 -7.65500 25.26600
H  19.72500 -7.66900 26.77900
H  21.29900 -6.78300 26.68500
H  16.16600 -2.94500 22.96500
H  15.97300 -0.00600 23.25400
H  18.69400 -1.77600 23.15300
H  17.81800 -0.50100 22.29400
H  17.86300 -2.11700 21.69400
H  13.25400 -0.74900 23.42400
H  14.04700 -2.20200 22.56900
H  13.09400 0.04700 21.30300
H  14.06300 -1.19100 20.65000
H  14.86200 0.30700 21.36100
H  12.41800 3.51400 27.44700
H  11.86500 2.14600 26.31300
H  13.15600 3.06700 25.95600
H  13.95100 0.91700 31.87600
H  15.61000 4.88100 33.42900
H  16.36500 3.57400 34.45700
H  14.83400 4.19400 34.88500
Mg 48.80900 35.46900 27.57900
C  46.57500 33.79400 29.69100
C  49.13600 37.91900 29.88900
C  50.74500 37.09300 25.36300
C  47.89600 33.09200 24.97600
N  47.92500 35.77700 29.57900
C  47.09700 34.93400 30.26900
C  47.25500 35.24700 31.72100
C  47.61500 36.80700 31.61900
C  48.29500 36.89400 30.27700
C  46.41700 37.86100 31.72900
C  48.32300 34.37500 32.49800
C  48.24200 34.24600 33.99800
H  47.20700 35.08100 34.72400
N  49.92600 37.20700 27.65200
C  49.89200 38.12200 28.67500
C  50.77500 39.25400 28.26800
C  51.28800 38.98700 27.01100
C  50.59100 37.74800 26.56300
C  51.04100 40.34800 29.20200
C  52.20000 39.77900 26.08500
O  52.37600 39.61300 24.91300
C  52.96700 40.93400 26.70600
N  49.13900 35.18500 25.40900
C  50.17100 35.92000 24.79500
C  50.68000 35.21300 23.55800
C  49.66400 34.03500 23.29600
C  48.83600 34.07200 24.59200
C  50.69300 36.06900 22.25400
C  50.22900 32.65300 23.04300
C  49.67300 31.68200 21.91200
N  47.49600 33.80700 27.31700
C  47.27500 32.90200 26.23500
C  46.40600 31.81500 26.65800
C  46.11800 32.18300 28.03800
C  46.80800 33.36400 28.36800
C  45.96200 30.65200 25.81600
C  45.28200 31.73200 29.09500
O  44.54400 30.75600 29.18700
C  45.50900 32.79300 30.27600
C  45.89200 32.05100 31.57500
O  46.74600 31.16700 31.57400
O  45.08700 32.33200 32.62900
C  45.25600 31.40500 33.75000
H  49.33600 38.70300 30.62300
H  51.65200 37.39800 24.83500
H  47.63700 32.40700 24.16600
H  46.29000 35.29500 32.22500
H  48.41400 36.93600 32.35000
H  46.72400 38.62000 32.44900
H  45.46100 37.42000 32.01300
H  46.39300 38.34700 30.75400
H  49.28000 34.73800 32.12300
H  48.18200 33.36600 32.10900
H  49.28700 34.32500 34.29800
H  47.88000 33.22400 34.10900
H  51.91500 40.17300 29.82900
H  50.10900 40.46800 29.75400
H  51.18700 41.30600 28.70400
H  53.31000 40.54500 27.66500
H  52.24600 41.74400 26.80900
H  53.80700 41.22400 26.07500
H  51.60800 34.68500 23.77700
H  48.96700 34.15200 22.46700
H  50.20600 36.99200 22.57200
H  50.20100 35.62800 21.38700
H  51.74200 36.19200 21.98700
H  50.07800 32.11100 23.97600
H  51.31700 32.67500 22.97700
H  50.34100 31.63500 21.05300
H  48.63600 31.78400 21.59100
H  49.68200 30.65800 22.28400
H  46.81500 29.98100 25.71400
H  45.80800 31.05200 24.81400
H  45.06000 30.12400 26.12300
H  44.60200 33.38400 30.40000
H  45.70000 30.42900 33.55700
H  44.30700 31.24200 34.26000
H  45.92000 31.95100 34.42100

