158

Mg 25.70000 51.46400 25.83200
C  23.29100 52.10200 28.25400
C  27.96200 50.57600 28.17600
C  27.80900 51.02400 23.36800
C  23.38100 52.90900 23.46400
N  25.70800 51.43300 28.02900
C  24.60000 51.52000 28.75700
C  24.92200 51.13200 30.18800
C  26.41800 50.81900 30.27100
C  26.76500 50.99400 28.77800
C  27.22500 51.68800 31.24600
C  23.89900 50.02300 30.76800
C  22.96200 50.46000 31.90400
H  23.30800 49.91800 33.32500
N  27.65100 50.87300 25.74700
C  28.42500 50.57900 26.81700
C  29.72600 50.15400 26.41800
C  29.77100 50.28600 24.98600
C  28.37200 50.69600 24.62600
C  30.83100 49.69400 27.37200
C  30.89900 49.99700 23.97900
O  30.74200 50.18500 22.79900
C  32.18500 49.43600 24.49800
N  25.61800 52.13100 23.71300
C  26.65100 51.76200 22.96700
C  26.39300 52.17200 21.44000
C  24.86000 52.61700 21.49800
C  24.61600 52.61700 22.98600
C  27.33700 53.28400 21.02000
C  23.86400 51.68600 20.66200
C  23.15400 52.36800 19.44600
N  23.74400 52.27600 25.80900
C  22.96500 52.79200 24.77000
C  21.68900 53.26100 25.27400
C  21.76200 53.03000 26.64000
C  23.05500 52.45100 26.92600
C  20.59900 53.93600 24.48200
C  21.08600 53.15500 27.92300
O  19.99700 53.63200 28.16800
C  22.05400 52.48400 28.99700
C  22.26300 53.52600 30.04500
O  23.15900 54.37700 29.95600
O  21.42700 53.36300 31.11400
C  21.62100 54.33300 32.22300
H  28.60100 50.15300 28.95400
H  28.45000 50.82100 22.50800
H  22.60900 53.34400 22.82600
H  24.72300 52.06000 30.72400
H  26.65400 49.78000 30.50000
H  26.65800 52.31500 31.93400
H  27.94100 52.18700 30.59200
H  27.66500 50.91000 31.87000
H  24.45600 49.12600 31.03800
H  23.25900 49.71100 29.94300
H  21.91500 50.22600 31.71700
H  23.14500 51.53400 31.95400
H  31.02700 48.62600 27.28000
H  30.57400 49.98100 28.39200
H  31.74000 50.22700 27.09300
H  31.99500 48.52200 25.06100
H  32.66400 50.15600 25.16100
H  32.84000 49.16600 23.66900
H  26.59300 51.26300 20.87400
H  24.88200 53.64000 21.12400
H  28.05900 53.57300 21.78400
H  26.76200 54.11200 20.60600
H  28.04800 52.84200 20.32300
H  23.08600 51.31200 21.32800
H  24.28100 50.73300 20.33500
H  23.42100 51.86800 18.51500
H  23.49500 53.39400 19.30800
H  22.06500 52.32200 19.48100
H  20.87300 54.23800 23.47200
H  20.32400 54.90100 24.90900
H  19.69200 53.33200 24.49700
H  21.70800 51.53000 29.39500
H  20.93900 53.95100 32.98300
H  21.40900 55.28500 31.73700
H  22.69300 54.29700 32.41800
Mg -2.18200 34.86700 26.86800
C  -3.82800 33.12100 29.49600
C  -0.95700 36.98800 29.33100
C  -0.89500 36.70000 24.42500
C  -3.79700 32.87900 24.61900
N  -2.29300 34.95900 29.14900
C  -2.89100 34.07500 29.93800
C  -2.74900 34.37100 31.46600
C  -1.98900 35.72700 31.41100
C  -1.80600 35.98200 29.83800
C  -2.66300 36.98100 32.14800
C  -2.01200 33.17300 32.23500
C  -2.66200 32.56700 33.45600
H  -1.79200 32.41000 34.74900
N  -0.94200 36.52100 26.83800
C  -0.57100 37.27200 27.94000
C  0.38300 38.30600 27.46000
C  0.18700 38.33900 26.04300
C  -0.51300 37.14500 25.73500
C  1.26000 39.18200 28.32200
C  0.65500 39.42100 25.07000
O  0.51200 39.41900 23.85300
C  1.36900 40.57000 25.53900
N  -2.34200 34.77800 24.90100
C  -1.62400 35.57400 24.05200
C  -1.72200 35.22400 22.63700
C  -2.44800 33.88300 22.75700
C  -2.88000 33.77500 24.14800
C  -2.44100 36.21500 21.75300
C  -1.55100 32.60200 22.45400
C  -0.26400 32.26200 23.26700
N  -3.66000 33.34500 26.97100
C  -4.20200 32.60700 25.97000
C  -5.20700 31.80400 26.51300
C  -5.07100 31.89400 27.87300
C  -4.03000 32.79200 28.10400
C  -6.27100 31.09300 25.63400
C  -5.46000 31.33400 29.10100
O  -6.21700 30.41700 29.40800
C  -4.70900 32.11600 30.23900
C  -5.74700 32.71700 31.18900
O  -6.67600 33.41800 30.81100
O  -5.61700 32.18900 32.44000
C  -6.61000 32.42300 33.46000
H  -0.75200 37.66700 30.16100
H  -0.34400 37.18700 23.61800
H  -4.12600 32.11700 23.90900
H  -3.72800 34.50400 31.92500
H  -0.99700 35.64900 31.85700
H  -1.80100 37.51900 32.54400
H  -3.25200 36.74500 33.03400
H  -3.28300 37.65000 31.55200
H  -0.97200 33.45000 32.40800
H  -1.97200 32.31400 31.56500
H  -3.12100 31.62000 33.17000
H  -3.41500 33.28900 33.77200
H  0.96700 40.22600 28.20600
H  2.19500 38.84800 27.87200
H  1.22400 38.96400 29.38900
H  0.78700 41.00700 26.34900
H  1.37400 41.26900 24.70200
H  2.35900 40.33200 25.93000
H  -0.76700 35.09900 22.12800
H  -3.34700 33.93200 22.14200
H  -2.08200 37.21400 22.00100
H  -3.52500 36.15000 21.85100
H  -2.22500 35.96700 20.71400
H  -1.26000 32.72600 21.41200
H  -2.24800 31.76600 22.51200
H  -0.51400 31.86000 24.24900
H  0.27100 33.20500 23.38300
H  0.30400 31.48100 22.76200
H  -6.20300 31.26500 24.56000
H  -7.26900 31.10400 26.07200
H  -5.96500 30.05300 25.74000
H  -4.00600 31.53700 30.83800
H  -7.62100 32.51900 33.06300
H  -6.47500 33.32300 34.06100
H  -6.60800 31.53900 34.09700

