158

Mg 53.34600 23.68500 44.63600
C  50.67700 25.91700 43.80700
C  51.62000 21.21700 42.99100
C  56.05500 21.89400 44.83300
C  54.90900 26.36100 46.20000
N  51.51500 23.68100 43.44200
C  50.60500 24.66900 43.26300
C  49.63500 24.25900 42.18400
C  49.61100 22.66000 42.41400
C  51.03200 22.47100 42.97000
C  48.56900 22.09700 43.34400
C  50.17000 24.67500 40.73300
C  49.11900 25.30600 39.84900
H  49.54900 26.17300 38.65500
N  53.76500 21.77100 44.00500
C  52.90600 20.85400 43.45700
C  53.51800 19.55800 43.49000
C  54.83300 19.79700 43.94000
C  54.91100 21.18000 44.35000
C  52.72800 18.29600 43.04700
C  55.91700 18.74700 44.10700
O  55.77100 17.56200 43.69100
C  57.23900 19.00100 44.74100
N  55.35600 24.16700 45.20900
C  56.26800 23.21200 45.24900
C  57.55500 23.74200 45.85600
C  57.19800 25.17300 46.26300
C  55.70600 25.30900 45.84700
C  58.03600 22.92200 47.03300
C  58.15900 26.23000 45.55100
C  57.90800 26.59500 44.10100
N  52.97100 25.71700 44.92300
C  53.62600 26.57800 45.76100
C  52.87200 27.73900 46.00000
C  51.70000 27.55700 45.28400
C  51.79600 26.31500 44.59600
C  53.23500 28.99100 46.83500
C  50.57900 28.21600 44.84700
O  50.21300 29.36500 45.13700
C  49.81300 27.21400 43.81400
C  49.50800 27.85200 42.51100
O  50.24300 27.83000 41.52300
O  48.21300 28.38000 42.53300
C  47.63700 29.12400 41.40400
H  50.92600 20.43700 42.67200
H  56.92300 21.24500 44.96900
H  55.29100 27.19900 46.78800
H  48.59200 24.54000 42.33200
H  49.43300 22.13900 41.47300
H  49.03200 22.12800 44.33000
H  48.43800 21.04300 43.09800
H  47.58000 22.55500 43.32000
H  50.41600 23.72000 40.27000
H  51.05800 25.30500 40.78000
H  48.54700 26.02500 40.43400
H  48.33500 24.59400 39.59300
H  52.71300 18.19800 41.96200
H  51.72200 18.40000 43.45500
H  53.32600 17.49300 43.47800
H  57.90900 18.14700 44.64700
H  57.15900 19.34300 45.77300
H  57.83900 19.73200 44.19700
H  58.25700 23.64100 45.02800
H  57.27300 25.28600 47.34500
H  59.09800 22.71100 46.90400
H  57.39300 22.04400 47.08600
H  57.85900 23.42000 47.98600
H  59.18400 25.89500 45.71300
H  58.17900 27.16400 46.11200
H  57.79800 27.67900 44.10000
H  57.03100 26.13300 43.64800
H  58.69700 26.29400 43.41200
H  52.34300 29.39600 47.31200
H  53.55500 29.80000 46.17800
H  53.95900 28.76400 47.61700
H  48.93000 26.97900 44.40900
H  46.57000 29.22300 41.60500
H  47.81600 28.56500 40.48500
H  48.08900 30.11500 41.45000
Mg 1.80800 41.43800 26.80200
C  3.36600 42.25200 29.92200
C  -0.79000 40.14800 28.54900
C  0.48400 40.62300 23.87100
C  4.83700 42.22400 25.28500
N  1.34700 41.25400 29.03300
C  2.07300 41.71700 30.10300
C  1.21400 41.71300 31.37200
C  -0.07600 40.84200 30.91300
C  0.14500 40.77300 29.41100
C  -0.14500 39.44400 31.63600
C  0.95600 43.15600 31.93700
C  1.31700 43.41400 33.38100
H  1.18800 42.35300 34.45200
N  0.05800 40.57300 26.21700
C  -0.85300 40.05800 27.08900
C  -1.98300 39.52500 26.22600
C  -1.53500 39.54500 24.88800
C  -0.27500 40.28500 24.97300
C  -3.18600 38.76200 26.81900
C  -2.20600 38.95100 23.64500
O  -1.63300 39.05200 22.57800
C  -3.56100 38.15200 23.76200
N  2.63000 41.32800 24.96100
C  1.84700 40.99200 23.88100
C  2.60800 41.24500 22.51100
C  3.99000 41.74800 22.95100
C  3.85900 41.68600 24.50200
C  2.63100 39.99700 21.61800
C  4.36700 43.19600 22.34900
C  3.75300 44.35200 23.05000
N  3.71000 42.12200 27.41000
C  4.81100 42.46800 26.66400
C  5.91300 42.85700 27.56300
C  5.30500 42.76800 28.82600
C  4.02000 42.35900 28.73100
C  7.33000 43.18200 27.32500
C  5.65400 42.80000 30.20500
O  6.73600 42.99500 30.66700
C  4.37600 42.57300 31.02600
C  4.75100 41.39400 31.82100
O  4.89100 40.25900 31.37200
O  4.71400 41.75800 33.11600
C  4.86700 40.69500 34.10300
H  -1.68500 39.79700 29.06800
H  0.04300 40.54200 22.87600
H  5.78200 42.53400 24.83300
H  1.69800 41.19200 32.19900
H  -1.03400 41.29200 31.17200
H  0.56100 39.35300 32.46200
H  -0.18000 38.62600 30.91700
H  -1.13400 39.19000 32.01500
H  -0.12600 43.28900 31.94500
H  1.39100 43.89500 31.26500
H  0.66200 44.24600 33.63900
H  2.37100 43.67900 33.46800
H  -3.34400 38.86300 27.89300
H  -3.13000 37.67400 26.83000
H  -4.15600 39.16500 26.52700
H  -3.57100 37.36100 24.51200
H  -3.70700 37.77600 22.74900
H  -4.43500 38.78600 23.90900
H  2.12100 42.04700 21.95600
H  4.82900 41.12500 22.64100
H  2.24100 39.17900 22.22300
H  3.67300 39.80900 21.35700
H  2.09400 40.17600 20.68600
H  3.84100 43.31700 21.40200
H  5.41300 43.36700 22.09500
H  3.05100 43.89400 23.74600
H  3.19400 45.10100 22.49000
H  4.57400 44.88200 23.53200
H  7.63600 42.84900 26.33300
H  7.82700 42.56800 28.07600
H  7.45000 44.24900 27.50800
H  4.11400 43.51900 31.50100
H  4.53000 39.76800 33.63900
H  4.40800 40.93800 35.06200
H  5.89400 40.66800 34.46700

