158

Mg 15.82900 51.06300 25.74300
C  17.80100 50.03600 28.41900
C  13.36900 51.80800 28.00600
C  13.78900 51.84600 23.16400
C  18.21100 49.85900 23.55700
N  15.54800 50.82400 28.00500
C  16.55300 50.54400 28.89800
C  16.18300 50.82000 30.35500
C  14.58000 51.06400 30.18800
C  14.46300 51.21200 28.63400
C  13.66700 49.90200 30.80400
C  16.94100 52.08300 30.94300
C  16.85500 52.39400 32.42500
H  16.07300 51.39200 33.26400
N  13.81800 51.73100 25.61900
C  13.02400 52.03400 26.66000
C  11.83600 52.62800 26.19300
C  11.95700 52.72500 24.75000
C  13.19300 52.07400 24.41100
C  10.77000 53.15300 27.16500
C  11.07900 53.39100 23.78600
O  11.31900 53.44300 22.56500
C  9.85000 54.08100 24.21400
N  15.93100 50.67100 23.68500
C  14.96700 51.19900 22.82700
C  15.48400 50.93200 21.30700
C  16.90300 50.37900 21.41000
C  17.03400 50.31100 22.97700
C  14.47300 50.08800 20.53400
C  17.99100 51.25600 20.81900
C  18.97600 50.48900 19.95900
N  17.67700 50.17200 25.89600
C  18.47800 49.70300 24.91400
C  19.64000 49.16400 25.58200
C  19.47400 49.30500 26.94900
C  18.19100 49.82400 27.09600
C  20.85400 48.49600 24.84700
C  20.06800 48.96300 28.21900
O  21.09900 48.46300 28.49100
C  19.02000 49.59000 29.23800
C  18.62600 48.51100 30.12400
O  17.84100 47.59500 29.92400
O  19.35100 48.65200 31.33800
C  18.98900 47.61800 32.37400
H  12.72600 52.18900 28.80200
H  13.23400 52.13600 22.26900
H  18.98800 49.50200 22.87800
H  16.35700 49.88600 30.88900
H  14.37400 52.02300 30.66300
H  13.07300 50.52800 31.47000
H  14.30800 49.28700 31.43500
H  13.09300 49.26400 30.13200
H  16.69400 52.94300 30.32000
H  17.96800 51.83200 30.67700
H  16.44600 53.39100 32.58800
H  17.87400 52.33400 32.80800
H  10.25500 52.27800 27.56200
H  10.05900 53.87400 26.76200
H  11.24800 53.59200 28.04100
H  9.40200 54.67600 23.41900
H  10.05600 54.79900 25.00800
H  9.12100 53.30700 24.45600
H  15.42100 51.96000 20.95000
H  16.97800 49.34600 21.07000
H  15.07100 49.35600 19.99100
H  13.98600 50.81900 19.88800
H  13.79500 49.53500 21.18400
H  18.55800 51.71100 21.63100
H  17.46600 52.09600 20.36500
H  19.35400 51.19500 19.22000
H  18.70500 49.46800 19.68900
H  19.83900 50.38000 20.61600
H  21.72600 48.76900 25.44100
H  20.91600 48.86600 23.82400
H  20.57100 47.44400 24.83100
H  19.54100 50.35100 29.82100
H  19.35300 47.83400 33.37800
H  19.30900 46.64800 31.99300
H  17.90200 47.69500 32.40400
Mg -10.64700 17.75300 43.42400
C  -7.14300 17.20000 43.26000
C  -9.92400 21.07900 42.47500
C  -13.86200 18.31500 43.05800
C  -11.13800 14.37600 43.77200
N  -8.71900 18.97500 42.91900
C  -7.42100 18.53900 43.03000
C  -6.40500 19.63400 42.64800
C  -7.37000 20.93900 42.62400
C  -8.79700 20.29600 42.65500
C  -7.12000 22.00500 43.79400
C  -5.41700 19.34200 41.42900
C  -5.78300 18.29600 40.37600
H  -5.65100 18.71700 38.88300
N  -11.77000 19.51000 42.72500
C  -11.31200 20.77200 42.45400
C  -12.41700 21.58200 42.14900
C  -13.56200 20.81600 42.37800
C  -13.07300 19.47700 42.70400
C  -12.23400 23.06400 41.75500
C  -15.03200 21.28100 42.27200
O  -15.33400 22.47300 42.03800
C  -16.18600 20.44400 42.60200
N  -12.33800 16.50300 43.28700
C  -13.57800 17.00600 43.37200
C  -14.58400 15.97300 43.85100
C  -13.71600 14.67400 43.72200
C  -12.30000 15.16000 43.47900
C  -15.22400 16.26600 45.20500
C  -14.11300 13.69000 42.54900
C  -15.22900 12.69300 42.75500
N  -9.51500 16.09600 43.53300
C  -9.80900 14.80100 43.68200
C  -8.61300 13.98200 43.72500
C  -7.58300 14.90300 43.58100
C  -8.16100 16.17300 43.42200
C  -8.56900 12.41600 43.83800
C  -6.13400 15.02500 43.58600
O  -5.28100 14.15600 43.67700
C  -5.82700 16.52300 43.42700
C  -4.91600 17.00400 44.55700
O  -3.90200 17.70300 44.44100
O  -5.35900 16.48500 45.77600
C  -4.71400 16.99900 46.96400
H  -9.72700 22.12800 42.24400
H  -14.94900 18.36600 42.96500
H  -11.41100 13.33600 43.96200
H  -5.68800 19.69700 43.46600
H  -7.28100 21.38600 41.63400
H  -6.96000 22.96900 43.31000
H  -6.27300 21.79700 44.44900
H  -8.03100 21.97900 44.39100
H  -4.46300 19.10200 41.89800
H  -5.28600 20.27900 40.88700
H  -6.82600 18.07300 40.60200
H  -5.19200 17.38300 40.46000
H  -13.06500 23.46000 41.17300
H  -11.39700 23.11400 41.05800
H  -12.03800 23.70600 42.61400
H  -16.20100 20.29400 43.68200
H  -16.22900 19.55600 41.97200
H  -17.05800 20.99600 42.25200
H  -15.41300 15.93100 43.14400
H  -13.72400 14.15700 44.68200
H  -14.51800 16.65600 45.93900
H  -15.73900 15.40600 45.63300
H  -15.94300 17.07200 45.05900
H  -13.24300 13.09800 42.26300
H  -14.42400 14.25700 41.67100
H  -16.17000 12.98600 42.28800
H  -15.27700 12.78700 43.84000
H  -14.82300 11.72800 42.45300
H  -9.17100 12.05000 43.00600
H  -9.02300 12.02300 44.74700
H  -7.53800 12.07700 43.73300
H  -5.26800 16.61800 42.49600
H  -4.35000 18.01300 46.80200
H  -3.89800 16.37800 47.33400
H  -5.46600 17.12000 47.74400

