158

Mg 36.10100 2.79500 30.22200
C  33.65500 3.89400 32.45300
C  38.44900 3.16300 32.86800
C  38.52600 2.02800 28.06800
C  33.78300 2.99600 27.63100
N  36.06200 3.47700 32.40100
C  34.92200 3.75100 33.06800
C  35.15100 3.62200 34.59700
C  36.68000 3.87000 34.66100
C  37.13000 3.47800 33.23500
C  37.12800 5.36300 35.00800
C  34.59600 2.32900 35.24100
C  33.97000 2.41200 36.60600
H  34.62500 3.37200 37.60400
N  38.15600 2.57600 30.42300
C  38.91900 2.76700 31.58900
C  40.31900 2.37200 31.29000
C  40.33100 1.91300 29.91100
C  38.98100 2.19100 29.38400
C  41.43900 2.35100 32.28100
C  41.45400 1.33200 29.09800
O  41.40600 1.15800 27.85500
C  42.78000 1.12500 29.73400
N  36.25900 2.91200 28.14000
C  37.33100 2.37200 27.47700
C  37.07400 2.12200 25.95200
C  35.51300 2.43400 25.85800
C  35.16900 2.84100 27.28100
C  37.91700 3.02200 24.98400
C  34.65000 1.24700 25.39100
C  33.85100 1.37000 24.01000
N  34.17200 3.26000 30.00700
C  33.33700 3.32500 28.89500
C  32.04400 3.70300 29.28300
C  32.10200 3.90600 30.64900
C  33.41600 3.60500 31.03900
C  30.80900 3.85900 28.46600
C  31.28200 4.38300 31.76700
O  30.15000 4.88500 31.82300
C  32.26500 4.13500 33.05700
C  32.20900 5.35400 34.01000
O  32.54400 6.48900 33.74900
O  31.72800 4.93800 35.22500
C  31.47800 5.94900 36.21900
H  39.06900 2.91900 33.73300
H  39.36700 1.62600 27.49800
H  32.99900 3.06200 26.87500
H  34.58000 4.46900 34.97600
H  37.09300 3.18400 35.40000
H  37.85800 5.77400 34.31000
H  37.69100 5.36000 35.94100
H  36.22100 5.96000 34.91500
H  35.42300 1.62800 35.36000
H  33.87300 2.00100 34.49400
H  34.02000 1.43600 37.08800
H  32.91200 2.67400 36.56100
H  42.41700 2.59900 31.86800
H  41.47100 1.39700 32.80600
H  41.21700 3.20100 32.92700
H  43.26100 2.07600 29.96300
H  43.38900 0.58800 29.00700
H  42.63100 0.58100 30.66600
H  37.33600 1.07400 25.81200
H  35.32800 3.27600 25.19200
H  38.12900 3.92100 25.56300
H  37.22100 3.22400 24.17000
H  38.76900 2.43700 24.64000
H  33.93500 0.94700 26.15600
H  35.33000 0.41200 25.22100
H  32.83700 1.70800 24.22400
H  33.91600 0.45300 23.42500
H  34.31100 2.13300 23.38200
H  29.95800 3.76600 29.14000
H  30.70900 3.11700 27.67400
H  30.73800 4.81600 27.94800
H  31.99200 3.20000 33.54500
H  32.26900 5.91000 36.96800
H  30.52500 5.75300 36.71100
H  31.44000 6.95800 35.80900
Mg 30.01100 57.57900 40.98000
C  27.29300 55.70900 39.78400
C  32.11500 55.44500 39.51100
C  32.40900 59.76000 41.67900
C  27.64200 59.97000 42.21200
N  29.73500 55.91700 39.67000
C  28.52400 55.18100 39.43100
C  28.87000 54.04200 38.54100
C  30.32200 53.72000 39.03100
C  30.74100 55.10600 39.45500
C  30.53100 52.65300 40.14700
C  28.62500 54.11200 36.96000
C  27.24900 53.59100 36.48000
H  26.31600 54.63100 35.80500
N  32.01300 57.62500 40.60500
C  32.69900 56.63600 39.93700
C  34.10100 56.92500 39.99600
C  34.26000 58.17900 40.67200
C  32.85800 58.54500 41.03400
C  35.14300 55.99500 39.28800
C  35.52400 58.89400 40.90700
O  36.52900 58.31900 40.54200
C  35.65600 60.07900 41.64100
N  29.97100 59.70800 41.67200
C  31.19700 60.29400 41.88800
C  30.96400 61.76000 42.43200
C  29.45900 61.72600 42.74200
C  28.96100 60.46500 42.18800
C  31.91400 62.03800 43.58300
C  28.67900 63.10100 42.40800
C  27.75600 63.64200 43.42800
N  27.90800 57.91600 41.02800
C  27.09900 58.88000 41.60400
C  25.72400 58.49800 41.32800
C  25.76700 57.25800 40.65700
C  27.12200 56.97300 40.44200
C  24.54800 59.24800 41.90800
C  24.93200 56.19500 40.06400
O  23.72000 56.11500 40.02500
C  25.92300 55.16000 39.44000
C  25.64600 53.88000 40.18900
O  26.19900 53.53000 41.21800
O  24.73800 53.13900 39.41500
C  24.24600 51.98300 40.07300
H  32.76800 54.57200 39.45200
H  33.17900 60.44500 42.04000
H  26.98900 60.70400 42.68900
H  28.18300 53.24200 38.81800
H  30.88100 53.48600 38.12500
H  29.62000 52.06700 40.26800
H  30.70500 53.29400 41.01100
H  31.40200 52.08400 39.82200
H  29.36500 53.55400 36.38800
H  28.76700 55.15200 36.66600
H  26.65300 53.33600 37.35600
H  27.39500 52.69100 35.88200
H  34.77700 55.04700 38.89300
H  36.01300 55.77900 39.90700
H  35.43200 56.50600 38.37000
H  35.06200 60.77700 41.05000
H  36.72300 60.29900 41.61800
H  35.27900 59.96800 42.65800
H  31.20100 62.41300 41.59200
H  29.40200 61.58700 43.82200
H  32.66100 62.72700 43.18700
H  32.48000 61.18400 43.95400
H  31.42800 62.53700 44.42100
H  28.04400 62.87700 41.55100
H  29.39400 63.84100 42.04900
H  28.27200 64.45100 43.94600
H  27.58400 62.95000 44.25200
H  26.85600 63.88500 42.86300
H  24.89900 60.02300 42.58800
H  23.79000 58.54600 42.25700
H  24.06400 59.69600 41.04000
H  25.68300 54.99700 38.39000
H  23.95700 52.26000 41.08600
H  25.01900 51.22300 40.18500
H  23.33700 51.70000 39.54300

