158

Mg -1.37200 17.67400 27.23700
C  -2.00100 15.31100 29.79700
C  -1.31000 20.13800 29.57800
C  -1.16700 19.73300 24.72900
C  -2.35300 15.10100 25.06200
N  -1.61600 17.71600 29.43800
C  -1.86900 16.64700 30.27000
C  -1.89200 17.10500 31.75200
C  -1.95800 18.66200 31.58500
C  -1.55200 18.90000 30.10500
C  -3.32800 19.42100 31.79600
C  -0.69200 16.53600 32.53700
C  -0.20000 17.24400 33.81800
H  -0.09200 16.42700 35.12900
N  -1.18900 19.70700 27.11400
C  -1.14800 20.52400 28.18600
C  -0.94000 21.90800 27.68900
C  -0.86800 21.89600 26.28700
C  -1.16200 20.40600 25.94800
C  -0.85600 23.05900 28.71300
C  -0.85800 22.97200 25.31700
O  -0.87300 22.79200 24.10400
C  -0.81800 24.44100 25.77400
N  -1.64400 17.46600 25.22200
C  -1.47700 18.42800 24.34700
C  -1.68100 18.01600 22.87000
C  -1.84400 16.45500 22.97600
C  -1.97200 16.32200 24.49600
C  -2.81100 18.68400 22.10600
C  -0.63300 15.64400 22.45600
C  0.86000 15.91400 22.88200
N  -1.91600 15.62400 27.31400
C  -2.25000 14.72700 26.33200
C  -2.37600 13.39400 26.83100
C  -2.28400 13.59600 28.21100
C  -2.05000 14.94100 28.47600
C  -2.79300 12.25900 25.96100
C  -2.33500 12.90400 29.43700
O  -2.33200 11.69000 29.65300
C  -2.25300 13.98400 30.55600
C  -1.15400 13.51300 31.38100
O  0.04600 13.72300 31.22900
O  -1.68100 12.89200 32.44600
C  -0.67000 12.28300 33.38100
H  -1.21500 20.96400 30.28500
H  -1.03600 20.28400 23.79500
H  -2.48500 14.39300 24.24200
H  -2.87500 16.84800 32.14500
H  -1.14700 19.19600 32.08100
H  -3.99200 19.29700 30.94000
H  -3.08200 20.43700 32.10400
H  -3.86500 18.86700 32.56700
H  0.19000 16.28700 31.94500
H  -1.23500 15.65800 32.88600
H  -0.98000 17.97900 34.01400
H  0.64100 17.93000 33.72400
H  -1.33300 23.90500 28.21900
H  0.15300 23.33500 29.02000
H  -1.36100 22.85000 29.65600
H  -1.73500 24.78700 26.25000
H  -0.69200 25.25100 25.05500
H  0.07100 24.33700 26.39600
H  -0.78000 18.20900 22.28700
H  -2.77700 16.15100 22.50200
H  -2.37400 19.28700 21.31100
H  -3.40300 19.25500 22.82100
H  -3.50000 17.95600 21.67600
H  -0.69100 15.62800 21.36700
H  -0.74400 14.63900 22.86300
H  1.38500 15.00300 23.17000
H  0.96500 16.74000 23.58600
H  1.33000 16.18000 21.93500
H  -2.07500 12.27300 25.14100
H  -3.78600 12.27500 25.51100
H  -2.66500 11.30300 26.46900
H  -3.22600 13.83500 31.02300
H  0.28900 12.06200 32.91300
H  -1.00700 11.30900 33.73600
H  -0.60100 12.85700 34.30500
Mg 44.33200 4.93900 47.45300
C  42.30300 7.65300 46.50400
C  41.74300 2.84100 46.50400
C  46.57600 2.48400 47.32200
C  47.03200 7.25400 47.14900
N  42.19300 5.26900 46.80000
C  41.63500 6.43100 46.42400
C  40.30700 6.26200 45.75400
C  39.98400 4.73500 46.12100
C  41.39500 4.18800 46.52400
C  38.95800 4.60700 47.31200
C  40.31000 6.52700 44.23700
C  39.47000 7.71000 43.71600
H  40.11900 8.55900 42.60600
N  44.08300 2.86400 47.22800
C  43.01000 2.27100 46.73900
C  43.35900 0.84800 46.51600
C  44.70000 0.68500 46.93500
C  45.23900 2.01500 47.22500
C  42.42200 -0.18800 46.07300
C  45.42600 -0.65700 47.01600
O  44.92700 -1.70900 46.63500
C  46.74800 -0.79400 47.57800
N  46.53000 4.86600 47.16100
C  47.19100 3.73800 47.25300
C  48.66800 3.88100 47.16200
C  48.87500 5.44200 47.18300
C  47.42100 5.92200 47.16300
C  49.48700 3.13900 48.18500
C  49.59000 6.10400 45.92400
C  50.71500 5.31900 45.19300
N  44.60700 7.06800 47.07800
C  45.77700 7.80200 47.11500
C  45.41500 9.17500 47.08300
C  44.03900 9.20800 46.81000
C  43.61000 7.88800 46.83800
C  46.28300 10.40900 47.13700
C  42.91200 9.97900 46.50100
O  42.86200 11.15400 46.13500
C  41.69600 9.00200 46.36700
C  40.82600 9.13500 47.54400
O  40.93900 8.68800 48.67900
O  39.73800 9.89800 47.28200
C  38.71000 10.28100 48.34000
H  40.98100 2.20700 46.04400
H  47.39400 1.80300 47.07600
H  47.86900 7.95300 47.09200
H  39.55000 6.91000 46.19600
H  39.52200 4.08200 45.38000
H  39.36200 4.33700 48.28700
H  38.23700 3.81700 47.10300
H  38.39200 5.53900 47.30200
H  39.98000 5.62700 43.71900
H  41.29900 6.74600 43.83300
H  39.23100 8.36600 44.55200
H  38.53600 7.31000 43.32100
H  41.59000 0.27200 45.54100
H  42.02100 -0.73200 46.92800
H  42.96800 -0.83800 45.38900
H  47.44600 -0.45400 46.81200
H  46.84800 -1.84300 47.85900
H  46.81000 -0.21900 48.50200
H  49.00000 3.48700 46.20200
H  49.43300 5.89300 48.00400
H  50.17700 3.83400 48.66300
H  50.11000 2.35500 47.75400
H  48.87600 2.85100 49.04200
H  50.17000 6.95900 46.27200
H  48.81700 6.46300 45.24400
H  51.60300 5.92000 45.00100
H  50.17900 4.90100 44.34100
H  50.92000 4.51500 45.90000
H  46.29300 10.79900 48.15500
H  45.89600 11.24700 46.55900
H  47.25200 9.99700 46.85500
H  41.13500 9.25600 45.46800
H  37.75900 10.41800 47.82600
H  38.89800 11.23100 48.84000
H  38.65600 9.52700 49.12500

