158

Mg 45.13100 3.70800 47.27800
C  43.15000 6.79500 46.89900
C  42.22100 2.06000 46.92400
C  47.02700 1.04900 47.10900
C  48.01300 5.86700 47.07800
N  42.92600 4.34700 46.69600
C  42.38200 5.61100 46.85500
C  40.82600 5.51100 46.92000
C  40.55900 3.97700 47.02300
C  42.00700 3.40100 46.86100
C  39.87400 3.46100 48.37500
C  40.06800 6.30000 45.80600
C  40.81900 6.57600 44.42800
H  40.07000 6.05400 43.16900
N  44.69400 1.77700 47.08100
C  43.44900 1.23700 46.96300
C  43.57000 -0.15500 46.78700
C  44.93000 -0.49000 46.92500
C  45.62200 0.75700 47.07200
C  42.40200 -1.03600 46.46700
C  45.48700 -1.93900 46.87000
O  44.68600 -2.89100 46.72400
C  46.90000 -2.27200 46.86600
N  47.16500 3.54800 46.94300
C  47.67900 2.31000 47.07900
C  49.22900 2.38900 47.11100
C  49.60700 3.90300 47.09100
C  48.16800 4.53300 46.90700
C  49.94700 1.58800 48.18200
C  50.45800 4.38400 45.89200
C  51.81800 5.12200 46.37600
N  45.53900 5.84900 47.08400
C  46.77100 6.54200 47.00500
C  46.51700 8.04600 47.05200
C  45.12900 8.07700 47.15400
C  44.54500 6.79500 47.02900
C  47.57800 9.04000 46.81700
C  43.95600 8.98000 47.25600
O  44.00800 10.24600 47.41700
C  42.63600 8.24900 47.05000
C  41.76400 8.47500 48.24200
O  41.78600 7.75000 49.26000
O  40.90100 9.48300 47.95100
C  40.03600 9.96500 49.01300
H  41.32000 1.44600 46.86100
H  47.72200 0.24400 47.35700
H  48.93800 6.42200 47.24500
H  40.57600 6.00600 47.85900
H  39.93500 3.61100 46.20800
H  39.01700 2.83600 48.12600
H  39.57800 4.33900 48.94900
H  40.59100 2.82700 48.89700
H  39.85800 7.22900 46.33600
H  39.14000 5.76700 45.59900
H  41.76000 6.02700 44.47300
H  40.91700 7.66100 44.41200
H  41.61900 -0.43000 46.01200
H  41.98600 -1.52100 47.35000
H  42.62200 -1.87000 45.80000
H  46.91300 -3.35400 46.73400
H  47.48600 -1.89200 47.70200
H  47.39100 -1.79800 46.01600
H  49.56700 1.95600 46.16900
H  49.95000 4.25100 48.06600
H  50.47800 0.73200 47.76600
H  49.14200 1.20700 48.81100
H  50.69100 2.09300 48.79700
H  49.93800 5.12700 45.28700
H  50.77400 3.57000 45.23900
H  52.72000 4.56100 46.13000
H  51.69700 5.46000 47.40500
H  51.92200 6.05700 45.82600
H  48.34200 9.01200 47.59400
H  47.18800 10.05700 46.78300
H  48.04000 8.81200 45.85600
H  42.19500 8.65900 46.14200
H  40.40700 9.57100 49.95900
H  38.99600 9.69600 48.82800
H  40.09200 11.05100 49.09400
Mg 26.70700 49.96300 25.73800
C  24.86100 51.58800 28.40000
C  29.03600 49.26600 28.17100
C  28.71000 49.01300 23.31000
C  24.72000 51.79500 23.52800
N  26.70400 50.17800 28.09100
C  25.90400 50.87100 28.93300
C  26.35100 50.71700 30.39600
C  27.79300 50.13200 30.24100
C  27.84700 49.83800 28.73200
C  28.90500 51.09300 30.68000
C  25.36200 49.86500 31.23600
C  24.96200 50.42000 32.60900
H  25.92500 50.49100 33.84300
N  28.49100 49.10800 25.69900
C  29.31700 48.88700 26.84500
C  30.45500 48.07000 26.42200
C  30.27600 47.90000 24.98200
C  29.16100 48.70600 24.58200
C  31.59200 47.56100 27.23800
C  30.86900 46.79300 24.02400
O  30.56100 46.66700 22.83400
C  31.80000 45.75800 24.52900
N  26.57100 50.11100 23.74000
C  27.53300 49.70700 22.92400
C  27.32200 50.01400 21.48200
C  25.89400 50.74600 21.45800
C  25.71600 50.94400 23.00900
C  28.37900 50.93800 20.79400
C  24.76900 49.92100 20.87400
C  24.70500 48.49300 21.41000
N  25.05300 51.33300 25.86800
C  24.37900 51.97500 24.90000
C  23.42100 52.89400 25.39300
C  23.49400 52.75000 26.77500
C  24.56700 51.79500 27.05200
C  22.61400 53.89700 24.65100
C  22.97100 53.10700 28.10200
O  22.03800 53.79400 28.40200
C  23.90700 52.45700 29.19500
C  24.28100 53.55300 30.09500
O  25.22500 54.37300 29.91000
O  23.30500 53.58600 31.11200
C  23.58300 54.70500 32.02300
H  29.72500 49.04300 28.98900
H  29.43100 48.72500 22.54300
H  24.09600 52.35100 22.82400
H  26.44400 51.69300 30.87300
H  27.95900 49.21500 30.80600
H  29.03600 51.75600 29.82400
H  29.80700 50.53000 30.91900
H  28.61200 51.67700 31.55200
H  25.79600 48.87000 31.32800
H  24.47300 49.62700 30.65200
H  24.06900 49.87000 32.90600
H  24.55000 51.41600 32.44400
H  31.46200 47.99000 28.23200
H  32.57100 47.83300 26.84400
H  31.66000 46.47400 27.28700
H  31.21000 45.31600 25.33200
H  32.76200 46.14800 24.86300
H  32.03400 45.15600 23.65100
H  27.34400 49.07900 20.92200
H  25.91100 51.65100 20.85000
H  29.40300 50.96900 21.16800
H  28.13600 52.00000 20.76400
H  28.46600 50.52500 19.78900
H  24.93700 49.88000 19.79700
H  23.83400 50.43800 21.09100
H  25.01900 48.63100 22.44400
H  25.29700 47.81600 20.79500
H  23.66000 48.21000 21.28400
H  23.26200 54.44200 23.96500
H  22.13900 54.68900 25.22900
H  21.87000 53.36000 24.06300
H  23.32700 51.77000 29.81100
H  22.78500 54.79400 32.75900
H  23.68400 55.66500 31.51600
H  24.47900 54.48900 32.60600

