158

Mg 1.98200 -2.13900 45.10400
C  5.41500 -1.58900 44.56100
C  1.31200 0.57000 43.10100
C  -1.27600 -3.02000 45.08100
C  2.78400 -4.94100 46.93700
N  3.23700 -0.87300 43.79500
C  4.65200 -0.72900 43.78500
C  5.13000 0.56300 43.05300
C  3.74600 1.23600 42.75600
C  2.62200 0.27700 43.26600
C  3.46300 2.65100 43.35400
C  5.92400 0.19500 41.73900
C  6.41200 1.37200 40.91500
H  6.26400 1.32800 39.46500
N  0.21500 -1.35200 44.21000
C  0.18900 -0.24000 43.43300
C  -1.17700 -0.00100 42.96900
C  -1.96700 -1.03900 43.53900
C  -1.02300 -1.87200 44.30500
C  -1.58900 1.13400 42.14000
C  -3.47500 -1.22000 43.25600
O  -4.16400 -0.37500 42.66600
C  -4.29000 -2.42400 43.81400
N  0.89500 -3.92500 45.68700
C  -0.46100 -3.97900 45.79300
C  -0.91700 -5.26400 46.46100
C  0.39600 -5.74600 47.12500
C  1.45500 -4.78500 46.58700
C  -2.21000 -5.20400 47.37300
C  0.73900 -7.23500 46.81600
C  0.52700 -8.29900 47.93100
N  3.77000 -3.09400 45.75000
C  3.91300 -4.21600 46.49600
C  5.32200 -4.45400 46.74900
C  5.94800 -3.38400 46.04000
C  4.96200 -2.62200 45.41600
C  6.01800 -5.52700 47.52800
C  7.26500 -2.69600 45.73700
O  8.39700 -2.89800 46.22900
C  6.88100 -1.52600 44.69100
C  7.35400 -0.21600 45.19400
O  7.03300 0.26300 46.29000
O  8.20300 0.39200 44.28000
C  8.41000 1.88700 44.35100
H  1.07000 1.51400 42.60900
H  -2.32800 -3.31400 45.07500
H  3.16400 -5.83000 47.44400
H  5.64600 1.27700 43.69600
H  3.63600 1.29300 41.67300
H  2.83400 3.25300 42.69800
H  4.37800 3.21200 43.54700
H  2.95900 2.42000 44.29200
H  5.14500 -0.32100 41.17800
H  6.74200 -0.42000 42.11300
H  7.48000 1.49300 41.09800
H  6.04000 2.31700 41.31200
H  -2.14000 0.79000 41.26400
H  -0.76200 1.73700 41.76600
H  -2.22600 1.77800 42.74600
H  -5.29500 -2.47400 43.39700
H  -4.40400 -2.32900 44.89400
H  -3.76600 -3.33200 43.51400
H  -1.17700 -5.88200 45.60200
H  0.28400 -5.57800 48.19600
H  -1.88100 -5.56300 48.34800
H  -2.91000 -5.91100 46.93000
H  -2.61800 -4.19900 47.49000
H  1.79100 -7.47100 46.65800
H  0.44900 -7.65500 45.85300
H  -0.38000 -8.76300 47.54500
H  0.58400 -7.78700 48.89100
H  1.33800 -9.02400 47.86000
H  6.85900 -5.93700 46.96900
H  5.40500 -6.42100 47.63800
H  6.36200 -5.09700 48.46900
H  7.35300 -1.73900 43.73200
H  9.03100 2.19300 45.19300
H  7.46100 2.38800 44.54100
H  8.98600 2.17400 43.47100
Mg 45.64800 5.48100 47.31400
C  43.54600 8.27000 46.71400
C  42.87900 3.45700 46.84900
C  47.72900 2.94100 47.14300
C  48.49400 7.80400 47.25100
N  43.53400 5.86300 46.69300
C  42.85700 7.05200 46.64300
C  41.27700 6.91700 46.57100
C  41.19200 5.44400 46.60800
C  42.66500 4.89200 46.83200
C  40.27000 4.86900 47.72100
C  40.62800 7.65700 45.36000
C  39.29000 7.20500 44.90700
H  39.14600 6.51400 43.48800
N  45.39400 3.39500 47.08700
C  44.15000 2.80200 46.95400
C  44.40500 1.32400 46.90100
C  45.83100 1.14100 46.88700
C  46.38200 2.49700 47.01900
C  43.34500 0.28300 46.73100
C  46.50100 -0.27000 46.80800
O  45.79200 -1.24700 46.87900
C  47.96400 -0.33900 46.55500
N  47.79300 5.41200 47.27300
C  48.37200 4.18900 47.20600
C  49.92800 4.28000 47.17400
C  50.12500 5.79800 47.17900
C  48.70700 6.46100 47.17400
C  50.68200 3.62300 48.28900
C  51.19900 6.56200 46.27200
C  52.55700 6.86700 46.89400
N  46.00000 7.51500 47.12000
C  47.19500 8.27700 47.13300
C  46.80200 9.65400 47.02500
C  45.43400 9.67700 46.96600
C  44.99400 8.39200 46.81900
C  47.81800 10.82600 47.09900
C  44.31600 10.55800 46.86200
O  44.28400 11.79400 46.68200
C  43.01200 9.67700 46.70900
C  41.99600 9.93600 47.82600
O  41.96100 9.33300 48.94200
O  41.03100 10.81100 47.40300
C  39.79300 11.05200 48.19700
H  42.05900 2.73900 46.78800
H  48.30000 2.02200 47.28500
H  49.36300 8.46500 47.24200
H  40.90900 7.37600 47.48900
H  40.89700 4.94900 45.68300
H  40.81200 4.28000 48.46100
H  39.45800 4.26400 47.31900
H  39.77500 5.65100 48.29700
H  41.32600 7.51200 44.53600
H  40.50600 8.73500 45.46500
H  38.58000 8.01000 45.09700
H  38.93100 6.52100 45.67600
H  43.50400 -0.38400 45.88400
H  42.38500 0.79000 46.63600
H  43.34200 -0.44000 47.54700
H  48.47600 -0.20000 47.50800
H  48.11900 0.38500 45.75500
H  48.28500 -1.34000 46.27000
H  50.42200 3.90300 46.27800
H  50.45600 6.01900 48.19300
H  50.85800 2.58700 47.99800
H  50.13900 3.64200 49.23400
H  51.62800 4.10300 48.53900
H  50.87300 7.55100 45.95000
H  51.37100 5.94100 45.39300
H  53.29000 6.23700 46.39100
H  52.66800 6.68800 47.96300
H  52.79900 7.92600 46.79800
H  47.25800 11.75000 47.24000
H  48.47700 10.89700 46.23400
H  48.52800 10.73900 47.92200
H  42.46500 9.78000 45.77200
H  38.94400 11.16300 47.52100
H  39.96300 11.91200 48.84400
H  39.59600 10.20200 48.85000

