158

Mg 45.02100 3.82100 47.89200
C  42.63800 6.50000 47.20600
C  42.34900 1.69600 47.80200
C  47.22100 1.39500 48.14300
C  47.49700 6.17100 47.50400
N  42.78200 4.01000 47.26100
C  42.04400 5.20800 47.15700
C  40.56400 4.94800 47.00700
C  40.42000 3.45500 47.42700
C  41.93200 3.04000 47.53300
C  39.53800 3.15700 48.73000
C  39.96700 5.29900 45.64200
C  38.59700 6.01800 45.55200
H  37.92200 6.05200 44.13300
N  44.81800 1.79700 47.80700
C  43.60600 1.08200 47.82200
C  43.93200 -0.34500 47.93700
C  45.31600 -0.44300 48.10500
C  45.85400 0.94600 48.03100
C  42.89700 -1.45000 48.10500
C  45.97200 -1.70400 48.26200
O  45.32200 -2.75500 48.14800
C  47.50300 -1.85900 48.58600
N  47.08200 3.74600 47.70300
C  47.82700 2.62500 47.97900
C  49.32600 2.89600 48.15700
C  49.34200 4.46300 47.80100
C  47.90800 4.85800 47.61600
C  49.92000 2.46000 49.56900
C  50.08500 4.80900 46.59600
C  51.21200 5.88200 46.84900
N  45.09300 5.90100 47.48700
C  46.17000 6.70500 47.41800
C  45.77400 8.07000 47.24600
C  44.42200 8.06300 47.13000
C  44.02200 6.67900 47.26600
C  46.74900 9.21000 47.16200
C  43.24000 8.89400 46.97700
O  43.13300 10.13900 46.83900
C  42.01300 7.86700 47.07000
C  41.19000 8.31700 48.26500
O  41.35200 7.95100 49.38800
O  40.19900 9.14000 47.77300
C  39.27400 9.77100 48.79000
H  41.53100 1.01700 48.05400
H  47.94900 0.59300 48.27700
H  48.32300 6.88600 47.49300
H  40.00900 5.53400 47.73900
H  39.90500 2.93100 46.62100
H  39.03200 4.09100 48.97600
H  40.08100 2.83000 49.61700
H  38.89500 2.34600 48.38600
H  39.86900 4.44100 44.97800
H  40.58100 5.99300 45.06800
H  38.50400 7.00000 46.01500
H  37.92100 5.44300 46.18600
H  42.90300 -2.17100 47.28800
H  41.92400 -0.98000 48.24800
H  43.00700 -1.99100 49.04500
H  48.00000 -1.47500 47.69500
H  47.79200 -2.90900 48.62800
H  47.79800 -1.31100 49.48100
H  49.95400 2.28000 47.51300
H  49.75700 5.04200 48.62600
H  49.05700 2.41400 50.23300
H  50.55300 3.25400 49.96600
H  50.43000 1.50700 49.42600
H  49.50800 5.27500 45.79700
H  50.61500 3.93300 46.22300
H  52.20600 5.53500 46.56700
H  51.28600 6.22400 47.88100
H  50.86600 6.70700 46.22500
H  46.86300 9.40000 46.09500
H  47.68500 8.86700 47.60300
H  46.45800 10.14600 47.63800
H  41.42200 7.98200 46.16100
H  39.43400 9.48200 49.82900
H  38.28100 9.54600 48.40200
H  39.51700 10.83300 48.83500
Mg 26.93100 50.80600 26.58500
C  25.04500 51.92600 29.25500
C  29.44700 50.16600 28.79100
C  28.96800 50.23600 23.94100
C  24.36200 51.51800 24.39900
N  27.24300 51.05400 28.70400
C  26.27800 51.41800 29.68700
C  26.74700 51.12500 31.17400
C  28.28700 50.92900 30.94300
C  28.33000 50.72400 29.37800
C  29.19600 52.05300 31.43200
C  26.02900 49.87800 31.81600
C  25.34600 50.11700 33.23200
H  26.17500 50.67100 34.38500
N  28.93400 50.10000 26.34900
C  29.85900 49.84200 27.42100
C  31.08300 49.36900 26.86400
C  30.94000 49.33100 25.44800
C  29.56200 49.90700 25.20400
C  32.40500 49.14800 27.64900
C  31.88500 48.87000 24.36600
O  31.55000 48.80600 23.19300
C  33.25400 48.35000 24.72900
N  26.73600 50.99000 24.50900
C  27.64800 50.61500 23.61100
C  27.21400 50.78500 22.16100
C  25.66600 50.94500 22.34400
C  25.55700 51.23900 23.82300
C  28.00800 51.91100 21.37300
C  24.85600 49.62900 21.89400
C  25.22700 48.37600 22.68600
N  25.16400 51.68800 26.69200
C  24.18900 51.86300 25.73300
C  23.02500 52.42200 26.35500
C  23.26100 52.43500 27.71800
C  24.55200 51.97900 27.93700
C  21.77000 52.76700 25.74100
C  22.68700 52.58200 29.01300
O  21.58000 52.91600 29.37300
C  23.80200 52.21700 30.07300
C  24.05200 53.29000 31.00600
O  24.74400 54.28400 30.78500
O  23.45800 53.08400 32.25100
C  23.95000 53.98300 33.31800
H  30.28500 49.93500 29.45100
H  29.56000 50.17900 23.02500
H  23.53100 51.53200 23.69000
H  26.47800 51.93300 31.85500
H  28.61000 50.04100 31.48600
H  28.73100 52.86500 31.99000
H  29.50200 52.53000 30.50000
H  29.95600 51.53200 32.01500
H  26.82500 49.14600 31.68500
H  25.18300 49.69100 31.15500
H  24.83300 49.19200 33.49700
H  24.46600 50.75800 33.19100
H  33.22500 49.66600 27.15300
H  32.56500 48.07000 27.63200
H  32.21700 49.58000 28.63200
H  33.79000 47.83200 23.93300
H  33.10400 47.61900 25.52400
H  33.86400 49.15400 25.14000
H  27.43100 49.84700 21.65100
H  25.31700 51.80000 21.76400
H  28.44600 51.45000 20.48800
H  28.68600 52.47200 22.01600
H  27.30900 52.66700 21.01400
H  25.09600 49.44400 20.84700
H  23.79800 49.87300 21.98700
H  25.74500 48.75000 23.56800
H  25.90200 47.79300 22.06000
H  24.38000 47.81400 23.08000
H  20.90300 52.45500 26.32200
H  21.72700 52.36400 24.72900
H  21.71600 53.84100 25.56200
H  23.36000 51.28700 30.43100
H  24.89900 53.51100 33.57300
H  23.32100 54.04200 34.20700
H  24.08700 54.99500 32.93700

