158

Mg 48.11400 44.62500 43.63300
C  44.66400 44.06100 43.21200
C  48.62700 41.39000 42.54700
C  51.42100 45.27800 43.62400
C  47.36700 48.06000 43.39700
N  46.74800 43.02400 42.92200
C  45.38800 42.93200 42.91000
C  44.84600 41.57000 42.66300
C  46.17600 40.66700 42.65900
C  47.31400 41.74000 42.71600
C  46.29400 39.63500 43.81300
C  44.06200 41.34700 41.35300
C  44.47200 42.19900 40.21800
H  44.15700 41.50400 38.90300
N  49.80000 43.41000 43.31600
C  49.79900 42.10100 42.84600
C  51.16900 41.73300 42.72700
C  52.02600 42.77300 43.11300
C  51.09400 43.88900 43.43700
C  51.50200 40.34200 42.33800
C  53.53500 42.74600 43.18800
O  54.15100 41.77500 42.79300
C  54.36300 43.92400 43.73600
N  49.24400 46.44300 43.43200
C  50.55700 46.41700 43.66400
C  51.12200 47.79400 43.70800
C  49.89400 48.71600 43.33300
C  48.76700 47.69100 43.40000
C  51.85200 48.08700 45.09600
C  50.01300 49.44400 41.95800
C  50.31400 50.92200 41.99900
N  46.35500 45.86900 43.62100
C  46.23500 47.23300 43.57400
C  44.75500 47.54300 43.53900
C  44.14100 46.29000 43.36600
C  45.17300 45.33500 43.44000
C  44.00200 48.92600 43.45700
C  42.81800 45.61000 43.16000
O  41.70900 46.16300 43.14200
C  43.13100 44.13300 43.13600
C  42.33900 43.43300 44.27700
O  41.38900 42.66100 44.10600
O  42.68500 43.73200 45.60500
C  41.90000 43.26700 46.75800
H  48.71600 40.36200 42.19000
H  52.49700 45.39600 43.47800
H  47.05100 49.09900 43.50800
H  44.15600 41.18500 43.41400
H  46.36800 40.22600 41.68100
H  45.34800 39.49400 44.33500
H  46.99300 39.94600 44.58900
H  46.50400 38.70500 43.28500
H  43.04400 41.61000 41.64000
H  44.00500 40.26300 41.25800
H  45.55700 42.27900 40.28900
H  44.06800 43.20500 40.33500
H  52.04800 40.21700 41.40300
H  50.66500 39.65800 42.19700
H  52.17600 39.92700 43.08600
H  54.46300 44.67300 42.95100
H  55.36200 43.57300 43.99400
H  53.96300 44.49000 44.57800
H  51.86900 47.87400 42.91900
H  49.74200 49.51800 44.05500
H  51.57700 47.36400 45.86500
H  51.57500 49.09000 45.42300
H  52.93900 48.06400 45.02100
H  49.05400 49.36600 41.44500
H  50.79500 48.97000 41.36400
H  51.16300 51.16200 41.35900
H  50.49500 51.16100 43.04700
H  49.39500 51.49900 41.89800
H  43.89300 49.37900 42.47200
H  44.65900 49.60500 44.00100
H  43.05000 48.91200 43.98800
H  42.78500 43.69200 42.20100
H  41.92000 42.18800 46.91100
H  40.86500 43.60700 46.72200
H  42.44100 43.66500 47.61600
Mg 36.00200 49.89300 25.84600
C  36.46200 48.05500 28.80800
C  35.11200 52.50400 27.64500
C  35.24000 51.22800 22.86700
C  37.15400 46.89800 24.03600
N  35.66700 50.09500 27.96500
C  35.92200 49.33000 29.02800
C  35.58300 49.93000 30.40100
C  35.03400 51.33700 29.90400
C  35.28000 51.32200 28.40200
C  33.60600 51.68800 30.33000
C  36.80400 50.03700 31.36500
C  36.65800 49.73100 32.86900
H  35.31600 49.50900 33.54100
N  35.32600 51.62600 25.34400
C  35.09800 52.67300 26.22200
C  34.80100 53.81500 25.44400
C  34.74200 53.45800 24.07700
C  35.04500 52.01500 24.06500
C  34.67300 55.14900 26.12900
C  34.51400 54.31500 22.85900
O  34.47000 53.84900 21.71500
C  34.32700 55.77900 22.86200
N  36.08800 49.12600 23.73400
C  35.78000 49.97300 22.74100
C  36.11500 49.33300 21.38600
C  37.08500 48.15700 21.76900
C  36.71900 47.97800 23.25300
C  34.81700 48.90400 20.64300
C  38.63500 48.54200 21.63900
C  39.63600 47.34700 21.76500
N  36.73500 47.90600 26.24500
C  37.14600 46.82500 25.44500
C  37.60000 45.76100 26.29000
C  37.30900 46.21200 27.59500
C  36.80700 47.50300 27.52000
C  38.30300 44.48400 25.88400
C  37.34900 45.77200 29.00600
O  37.60100 44.67100 29.54500
C  36.82000 47.00200 29.85700
C  35.70600 46.57500 30.69400
O  34.57600 46.33200 30.32100
O  36.15600 46.18600 31.95900
C  35.15300 45.52900 32.84700
H  34.92900 53.37600 28.27500
H  35.11000 51.71700 21.89900
H  37.61700 46.10000 23.45100
H  34.81400 49.29700 30.84400
H  35.67600 52.13700 30.27300
H  33.16800 50.84300 30.86100
H  32.99600 51.65900 29.42800
H  33.55300 52.67500 30.79100
H  37.27100 51.01300 31.23900
H  37.57300 49.36800 30.97800
H  37.14100 50.53800 33.42000
H  37.27500 48.87100 33.12900
H  35.53400 55.78800 25.93000
H  34.53300 55.14200 27.21000
H  33.73800 55.62800 25.84000
H  34.83600 56.22500 23.71700
H  33.26500 55.96200 23.02300
H  34.74100 56.18100 21.93700
H  36.52600 50.13800 20.77600
H  36.82900 47.21100 21.29300
H  34.78100 49.51300 19.74000
H  33.92800 49.31100 21.12500
H  34.71700 47.88400 20.27300
H  38.80800 49.25200 22.44800
H  38.81400 49.06900 20.70100
H  39.03000 46.47100 21.53300
H  40.20300 47.43300 22.69200
H  40.26600 47.60900 20.91500
H  38.99600 44.66100 25.06100
H  37.58500 43.73400 25.55200
H  38.88800 44.09700 26.71900
H  37.53100 47.38400 30.58900
H  34.82300 44.56500 32.46100
H  34.23400 46.07600 33.05700
H  35.51100 45.37100 33.86400

