158

Mg 16.41600 -1.77200 27.86900
C  15.56100 0.37900 30.40100
C  18.55500 -3.37900 30.25500
C  17.80900 -3.68400 25.34600
C  14.84200 0.20600 25.64600
N  17.00700 -1.51200 30.14400
C  16.35700 -0.67100 30.89800
C  16.79400 -0.77400 32.34000
C  17.89200 -1.87700 32.16100
C  17.83600 -2.30300 30.73500
C  19.37500 -1.58200 32.61200
C  15.45200 -1.12800 33.20100
C  15.57000 -1.06800 34.66200
H  16.82000 -0.36600 35.30000
N  17.87900 -3.41700 27.82900
C  18.58200 -3.91900 28.90600
C  19.29100 -5.11600 28.42900
C  19.04600 -5.29800 27.04600
C  18.19400 -4.12600 26.63800
C  19.93700 -6.09300 29.39400
C  19.43900 -6.28600 26.06100
O  18.92900 -6.28100 24.93300
C  20.34600 -7.46900 26.46300
N  16.54400 -1.63100 25.73700
C  17.00300 -2.66600 24.90600
C  16.86700 -2.17100 23.43200
C  15.78200 -1.01400 23.55900
C  15.69000 -0.77200 25.09600
C  18.19800 -1.78600 22.87100
C  14.42200 -1.38300 22.95500
C  13.97100 -0.50800 21.86800
N  15.36700 -0.03700 27.89800
C  14.75500 0.67900 26.94100
C  13.96000 1.70500 27.47400
C  14.25800 1.68700 28.86500
C  15.10400 0.52500 29.06500
C  13.14000 2.70500 26.72700
C  14.05400 2.36100 30.05900
O  13.47700 3.40300 30.26600
C  14.87400 1.61100 31.17300
C  15.92100 2.52800 31.75400
O  16.88200 3.00800 31.19200
O  15.48300 2.83300 32.98200
C  16.27000 3.58200 33.88600
H  19.23100 -3.83900 30.97800
H  18.21800 -4.24400 24.50200
H  14.27800 0.73200 24.87200
H  17.27700 0.11600 32.74400
H  17.64500 -2.69000 32.84400
H  19.41000 -0.82200 33.39200
H  19.82800 -1.12700 31.73100
H  19.89900 -2.48000 32.93900
H  15.35700 -2.18400 32.94800
H  14.56000 -0.60100 32.86400
H  15.46500 -2.08800 35.03100
H  14.80700 -0.42100 35.09400
H  19.79100 -7.11500 29.04500
H  19.46100 -5.97700 30.36800
H  20.98900 -5.86200 29.56100
H  20.94200 -7.68900 25.57700
H  19.77100 -8.35900 26.72100
H  21.06300 -7.15900 27.22300
H  16.52000 -3.06000 22.90400
H  16.13100 -0.14100 23.00700
H  18.34300 -0.71700 22.71500
H  18.31200 -2.18900 21.86500
H  19.05100 -2.12800 23.45700
H  13.61300 -1.50200 23.67500
H  14.62000 -2.29700 22.39600
H  14.42800 -0.87200 20.94800
H  14.25400 0.52500 22.07300
H  12.88600 -0.54400 21.76400
H  13.00600 2.38200 25.69400
H  13.73000 3.61900 26.78800
H  12.14400 2.77800 27.16400
H  14.13800 1.34300 31.93200
H  17.29200 3.57200 33.50500
H  16.16800 3.19200 34.89900
H  15.89900 4.60600 33.88800
Mg 0.10400 42.77300 26.53800
C  2.56800 42.41500 28.90200
C  -2.16800 41.36500 28.59100
C  -2.23800 42.93600 23.98200
C  2.55300 43.69600 24.13500
N  0.17900 42.01000 28.45500
C  1.23400 42.09900 29.34700
C  0.84800 41.71800 30.79000
C  -0.58600 41.07800 30.51200
C  -0.88700 41.47300 29.07200
C  -0.62800 39.49700 30.72700
C  0.70000 42.98800 31.68500
C  1.26100 42.88800 33.08000
H  0.69400 41.55100 33.78800
N  -1.92000 42.37800 26.35900
C  -2.69100 41.81600 27.35200
C  -4.06200 41.64400 26.85000
C  -4.17500 42.23400 25.56900
C  -2.71200 42.55700 25.21200
C  -4.99200 40.90400 27.73100
C  -5.44100 42.41600 24.65600
O  -5.39100 42.85000 23.50300
C  -6.77900 42.19800 25.22900
N  0.18100 43.29900 24.39300
C  -0.97000 43.37700 23.61900
C  -0.80400 43.98000 22.25000
C  0.81500 44.18000 22.30200
C  1.25800 43.69100 23.64000
C  -1.32600 43.19900 21.03100
C  1.40000 45.63500 22.06100
C  0.75100 46.80300 22.77100
N  2.13400 42.99100 26.43500
C  3.02000 43.26100 25.45800
C  4.41300 43.18400 25.89400
C  4.26700 42.97900 27.33800
C  2.90600 42.80100 27.56900
C  5.70200 43.43600 25.12300
C  4.96000 42.76900 28.56900
O  6.16200 42.80500 28.83500
C  3.87200 42.53400 29.65100
C  4.23200 41.31100 30.34800
O  4.02100 40.18400 29.94100
O  4.68900 41.59400 31.63500
C  4.78800 40.45900 32.52400
H  -2.89100 41.19900 29.39300
H  -2.98000 42.96700 23.18100
H  3.32700 44.19400 23.54500
H  1.45900 40.95600 31.27300
H  -1.33700 41.50600 31.17700
H  0.39200 39.14000 30.86600
H  -1.09200 38.99500 29.87800
H  -1.30000 39.25700 31.55100
H  -0.37400 43.15300 31.77300
H  1.12100 43.86100 31.18500
H  1.07800 43.85400 33.55000
H  2.34200 42.95000 32.95700
H  -4.51500 40.17500 28.38600
H  -5.59400 40.33400 27.02300
H  -5.62900 41.62300 28.24700
H  -6.89300 41.11600 25.16300
H  -7.46300 42.76500 24.59900
H  -6.69900 42.58500 26.24500
H  -1.38600 44.88400 22.42900
H  1.35700 43.57600 21.57400
H  -0.95000 42.17600 21.01300
H  -1.00300 43.72500 20.13300
H  -2.39100 43.02300 20.87600
H  1.34000 45.67400 20.97400
H  2.47900 45.61900 22.21900
H  0.37800 47.53700 22.05700
H  1.50200 47.27600 23.40500
H  -0.08000 46.43000 23.36900
H  6.29200 42.52700 25.00600
H  6.27200 44.21200 25.63400
H  5.57100 43.78600 24.09900
H  3.78800 43.28900 30.43200
H  3.97000 40.56400 33.23700
H  5.74100 40.49100 33.05100
H  4.73000 39.47900 32.05100

