158

Mg 46.38700 44.79900 43.80600
C  43.09100 43.69400 43.38600
C  47.51400 41.50300 43.27800
C  49.66200 45.85100 43.72400
C  45.26800 48.01900 43.93900
N  45.43000 42.81400 43.23100
C  44.10200 42.61400 43.19700
C  43.73000 41.08900 42.96400
C  45.12000 40.41000 43.23700
C  46.09200 41.64400 43.13200
C  45.16600 39.80900 44.61700
C  43.08800 40.77300 41.56400
C  43.64100 41.52500 40.34200
H  43.25400 40.97900 38.94100
N  48.37200 43.81600 43.53000
C  48.57800 42.42300 43.44000
C  49.98400 42.16600 43.48300
C  50.65700 43.43400 43.63900
C  49.53100 44.43700 43.66500
C  50.61200 40.82200 43.30800
C  52.16500 43.53800 43.78600
O  52.88100 42.57100 43.76600
C  52.84900 44.88300 43.84200
N  47.35600 46.74700 43.58500
C  48.64500 46.86100 43.89800
C  49.01100 48.31000 44.23800
C  47.58300 49.04000 44.03000
C  46.63900 47.86300 43.80800
C  49.63600 48.37500 45.73500
C  47.48500 50.13100 42.85400
C  47.58400 51.57000 43.28300
N  44.63800 45.70700 43.65900
C  44.28700 47.02300 43.75100
C  42.81300 47.18900 43.67200
C  42.32400 45.88800 43.52600
C  43.47600 45.02700 43.53600
C  42.02600 48.42600 43.67200
C  41.14900 45.05800 43.43200
O  39.98200 45.40000 43.42900
C  41.58400 43.59200 43.33300
C  40.98600 42.87800 44.50100
O  40.08700 42.02900 44.42100
O  41.54400 43.40300 45.67700
C  40.83900 42.86100 46.89900
H  47.74800 40.45200 43.45500
H  50.67800 46.24600 43.80000
H  44.90500 49.00300 44.24400
H  42.98700 40.68200 43.65100
H  45.41500 39.62100 42.54500
H  44.25900 39.24300 44.82500
H  45.44200 40.52700 45.39000
H  45.97500 39.07800 44.59700
H  42.05100 41.00700 41.80300
H  43.23400 39.72400 41.30600
H  44.72800 41.55500 40.41800
H  43.18700 42.50600 40.48100
H  51.16700 40.74200 42.37300
H  49.90500 39.99400 43.36300
H  51.11700 40.65900 44.26000
H  52.32900 45.26600 44.72000
H  52.82300 45.47100 42.92500
H  53.91600 44.78500 44.04600
H  49.66800 48.64900 43.43700
H  47.23000 49.48500 44.96100
H  49.14300 49.20500 46.24000
H  50.68900 48.65400 45.69800
H  49.47900 47.42700 46.25000
H  46.49000 50.12100 42.40900
H  48.18900 50.00300 42.03200
H  47.55600 51.70400 44.36400
H  46.70900 52.13100 42.95500
H  48.46600 52.13800 42.98900
H  41.49200 48.58100 44.61000
H  41.26100 48.27300 42.91000
H  42.48700 49.40100 43.51400
H  41.27800 43.13800 42.39100
H  40.90400 41.77300 46.90100
H  39.78000 43.11500 46.84000
H  41.26200 43.25000 47.82600
Mg -9.14400 18.72700 43.00900
C  -5.58300 18.04400 43.22000
C  -8.35600 21.85400 42.10700
C  -12.39100 19.11000 42.15900
C  -9.69800 15.22400 43.29100
N  -7.16400 19.77500 42.89100
C  -5.83200 19.39500 42.96500
C  -4.79900 20.45000 42.60300
C  -5.72000 21.71100 42.44000
C  -7.20500 21.09500 42.57700
C  -5.55900 22.89200 43.49500
C  -3.85100 20.07800 41.36900
C  -4.47700 19.35700 40.10900
H  -3.96700 19.89800 38.70500
N  -10.28400 20.36600 42.28600
C  -9.74500 21.57500 41.95100
C  -10.85300 22.43300 41.45200
C  -12.06700 21.72900 41.68200
C  -11.64100 20.31900 42.04100
C  -10.63700 23.81500 40.97500
C  -13.42700 22.25200 41.39000
O  -13.56700 23.41100 41.07800
C  -14.60400 21.39500 41.46500
N  -10.78200 17.34100 42.79300
C  -12.04800 17.78300 42.39700
C  -13.06500 16.64600 42.39800
C  -12.17100 15.41500 42.74000
C  -10.84400 16.03700 43.05800
C  -14.35900 16.86800 43.16100
C  -11.97800 14.42300 41.53400
C  -12.60700 13.05200 41.77200
N  -7.92200 16.92400 43.10000
C  -8.31600 15.63800 43.23600
C  -7.15400 14.80100 43.39400
C  -6.09800 15.69800 43.42000
C  -6.58200 16.98700 43.25300
C  -7.16700 13.26200 43.53000
C  -4.73200 15.74300 43.64600
O  -3.89000 14.85600 43.96400
C  -4.19100 17.23800 43.49400
C  -3.35500 17.75100 44.63700
O  -2.15300 17.84400 44.52100
O  -4.07200 17.90400 45.78900
C  -3.29100 18.30300 46.83100
H  -8.13400 22.90900 41.93600
H  -13.46100 19.17700 41.95400
H  -9.85800 14.14400 43.25600
H  -4.07500 20.53800 43.41300
H  -5.53400 22.20600 41.48700
H  -6.44400 22.91600 44.12900
H  -5.52000 23.83400 42.94900
H  -4.60100 22.87700 44.01600
H  -2.97000 19.50400 41.65600
H  -3.55700 21.07300 41.03700
H  -5.56300 19.27100 40.09000
H  -4.24000 18.29700 40.02100
H  -11.00500 24.05300 39.97700
H  -9.57100 23.99100 41.11800
H  -11.12700 24.57400 41.58500
H  -14.54800 20.75800 42.34800
H  -14.65300 20.66600 40.65600
H  -15.57700 21.88500 41.48800
H  -13.44100 16.60400 41.37500
H  -12.40300 14.82300 43.62500
H  -14.49700 15.99600 43.80000
H  -15.16100 16.92500 42.42500
H  -14.57500 17.77900 43.71900
H  -10.92100 14.26400 41.32100
H  -12.39500 14.83400 40.61500
H  -13.50300 12.90100 41.17000
H  -12.93800 13.02200 42.81000
H  -11.98300 12.17500 41.59900
H  -6.42600 13.07800 44.30800
H  -6.87000 12.70800 42.64000
H  -8.15000 12.86900 43.79000
H  -3.43000 17.29100 42.71600
H  -2.46800 18.96800 46.56900
H  -2.80600 17.44200 47.29300
H  -3.78500 18.67100 47.73000

