158

Mg 45.85900 17.21000 27.98900
C  44.22200 16.97900 31.05800
C  48.18700 19.14500 29.54200
C  47.26600 17.50100 25.13600
C  43.21900 15.25500 26.62500
N  46.09300 18.04800 30.08100
C  45.35700 17.73900 31.12500
C  46.06000 18.18300 32.46800
C  47.20000 19.11000 31.94100
C  47.19200 18.73600 30.44600
C  47.01200 20.65600 32.26600
C  46.63100 16.99300 33.33900
C  46.94400 17.33300 34.88100
H  46.52100 18.67400 35.49400
N  47.51800 18.20800 27.40700
C  48.29900 18.99200 28.20900
C  49.31800 19.63500 27.35700
C  49.07500 19.14700 26.06000
C  47.96500 18.22400 26.15900
C  50.34900 20.52800 27.93100
C  49.75400 19.46400 24.72100
O  49.51900 18.99700 23.66900
C  50.85500 20.51700 24.74500
N  45.36100 16.30200 26.19800
C  46.15400 16.64400 25.10000
C  45.54800 16.16100 23.80200
C  44.44900 15.10100 24.27500
C  44.35000 15.50700 25.79700
C  44.83200 17.22800 22.93200
C  44.84200 13.57100 24.13500
C  44.35200 12.89600 22.83000
N  44.01200 16.35000 28.62300
C  43.05500 15.60600 27.95100
C  41.97000 15.14900 28.78000
C  42.37100 15.65900 30.08000
C  43.62400 16.32600 29.89100
C  40.80200 14.33000 28.43700
C  42.02500 15.83600 31.49600
O  41.01000 15.50400 32.15000
C  43.23500 16.63900 32.16500
C  42.79700 17.79600 33.01000
O  42.26200 18.83700 32.63400
O  42.98400 17.48300 34.34300
C  42.26000 18.33400 35.34400
H  48.94100 19.70600 30.09800
H  47.59300 17.75600 24.12600
H  42.43800 14.58900 26.25000
H  45.30600 18.74100 33.02300
H  48.10200 18.76000 32.44300
H  46.74100 21.21100 31.36800
H  47.93800 21.09700 32.63400
H  46.18800 20.70000 32.97800
H  47.52800 16.61700 32.84700
H  45.89300 16.20800 33.18000
H  48.01800 17.18500 35.00000
H  46.43800 16.65600 35.56900
H  51.18500 20.81200 27.29100
H  50.86000 20.22000 28.84300
H  49.91500 21.50600 28.13900
H  50.43300 21.32200 25.34600
H  51.08700 21.05000 23.82400
H  51.83100 20.23900 25.14300
H  46.30900 15.72700 23.15300
H  43.46000 15.25400 23.84400
H  45.13800 18.25000 23.15800
H  43.75000 17.10100 22.98400
H  45.14200 17.01100 21.91000
H  44.30300 13.03400 24.91600
H  45.91600 13.49800 24.30300
H  43.55300 13.52000 22.43000
H  43.92200 11.91600 23.03700
H  45.09800 12.88300 22.03500
H  40.47900 14.63100 27.44100
H  39.94800 14.40100 29.11000
H  41.13400 13.30200 28.29500
H  43.64500 15.81800 32.75300
H  41.20900 18.49800 35.10600
H  42.74700 19.30900 35.32100
H  42.33100 18.02300 36.38600
Mg 36.22400 49.91500 24.61100
C  36.70700 48.32500 27.86000
C  34.81200 52.57700 26.38500
C  35.69100 51.16800 21.69900
C  37.74800 47.10400 23.18300
N  35.97700 50.42600 26.91400
C  36.20000 49.64100 28.00900
C  35.80700 50.34000 29.33000
C  35.14900 51.74300 28.77500
C  35.30000 51.62700 27.27300
C  33.73200 51.99500 29.26900
C  37.08500 50.53800 30.29400
C  36.79800 50.60600 31.79600
H  35.38000 50.35500 32.38900
N  35.46100 51.61600 24.08200
C  34.93300 52.61900 24.88500
C  34.32000 53.62700 24.05900
C  34.61200 53.23900 22.73100
C  35.29900 51.96800 22.77500
C  33.54900 54.80300 24.65400
C  34.41700 54.03300 21.43300
O  34.96200 53.77600 20.32800
C  33.55100 55.29400 21.40000
N  36.79300 49.22400 22.78000
C  36.40000 49.92600 21.73000
C  36.77900 49.23900 20.36400
C  37.70600 48.03200 20.86700
C  37.42300 48.09900 22.36500
C  35.56100 48.89000 19.49000
C  39.25200 48.23000 20.60100
C  40.08300 49.15800 21.48700
N  37.02000 48.12100 25.33300
C  37.52600 47.00100 24.59800
C  37.85500 45.98900 25.49200
C  37.55600 46.46100 26.71700
C  37.01400 47.75900 26.62700
C  38.54900 44.77300 25.13900
C  37.61800 46.03300 28.10100
O  37.98000 44.97000 28.62300
C  36.98600 47.17400 28.89100
C  35.84300 46.74000 29.68100
O  34.63800 47.04200 29.51100
O  36.28200 45.81500 30.59000
C  35.20300 45.42000 31.47400
H  34.34800 53.46800 26.81400
H  35.38600 51.46800 20.69500
H  38.11000 46.18100 22.72500
H  35.07900 49.68500 29.80800
H  35.69000 52.62200 29.12600
H  33.38000 51.20700 29.93600
H  32.99800 52.10200 28.47100
H  33.82800 52.89800 29.87100
H  37.62300 51.47600 30.15900
H  37.78400 49.71100 30.17600
H  37.21700 51.56300 32.11000
H  37.51700 49.88000 32.17500
H  32.63400 54.93500 24.07700
H  34.18400 55.68500 24.57100
H  33.29000 54.60300 25.69300
H  34.06300 55.92700 22.12500
H  32.60600 54.85800 21.72300
H  33.46000 55.71700 20.39900
H  37.35300 50.01100 19.85200
H  37.38400 47.07200 20.46600
H  34.71400 48.75200 20.16100
H  35.65500 47.97800 18.90000
H  35.41000 49.64900 18.72200
H  39.31700 48.57800 19.57000
H  39.65300 47.21600 20.61000
H  39.48500 49.80500 22.12800
H  40.78000 49.73000 20.87300
H  40.69000 48.54200 22.15100
H  39.47700 44.96000 24.59900
H  37.96100 44.27000 24.37100
H  38.75000 44.24700 26.07200
H  37.76500 47.51600 29.57100
H  34.48300 44.79000 30.95200
H  34.51800 46.18400 31.83900
H  35.61000 44.78100 32.25800

