158

Mg 35.29100 3.47800 29.61400
C  32.76500 4.02600 32.15200
C  37.63300 3.63400 31.96500
C  37.48100 2.40400 27.26800
C  32.86900 3.80900 27.11900
N  35.17700 4.04700 31.75700
C  34.12500 4.05000 32.61900
C  34.58100 3.99700 34.06700
C  36.14000 4.26700 33.92800
C  36.32800 3.91400 32.46800
C  36.61900 5.67900 34.33200
C  34.35800 2.56600 34.68300
C  34.33000 2.50900 36.17700
H  35.15100 3.56400 36.85900
N  37.30300 3.08000 29.59600
C  38.06400 3.17100 30.70100
C  39.42600 2.86200 30.32700
C  39.47100 2.40600 28.94000
C  38.05300 2.53400 28.54400
C  40.41400 2.75400 31.48300
C  40.59300 1.67800 28.11400
O  40.44800 1.12400 26.98700
C  42.04000 1.61200 28.70400
N  35.18300 3.30000 27.52100
C  36.20200 2.79500 26.76200
C  35.81400 2.58100 25.28500
C  34.27500 3.06200 25.23300
C  34.10600 3.38800 26.65900
C  36.72700 3.42700 24.29800
C  33.36400 1.91600 24.68700
C  32.35700 2.45800 23.66100
N  33.16300 3.88600 29.55700
C  32.33300 3.92500 28.51900
C  30.99100 4.18400 28.90700
C  31.10600 4.23900 30.36000
C  32.45100 4.03300 30.73900
C  29.75600 4.28500 28.04400
C  30.34500 4.22900 31.58500
O  29.12600 4.17100 31.68900
C  31.40100 4.16800 32.80200
C  31.42000 5.47800 33.62300
O  31.72300 6.58000 33.22300
O  31.02000 5.18500 34.91100
C  31.20600 6.15600 36.03000
H  38.33700 3.86100 32.76700
H  38.18300 2.05900 26.50600
H  32.17200 3.72900 26.28200
H  33.97100 4.66500 34.67500
H  36.67400 3.51000 34.50300
H  36.60700 5.73900 35.42000
H  35.84000 6.32400 33.92600
H  37.57600 5.87100 33.84600
H  35.18200 1.93900 34.34000
H  33.40200 2.25100 34.26400
H  34.74300 1.54400 36.47200
H  33.30000 2.56000 36.52900
H  40.35500 3.56200 32.21300
H  41.46600 2.79900 31.20200
H  40.10900 1.81900 31.95200
H  42.38100 2.63500 28.86500
H  42.67300 1.10500 27.97600
H  42.06900 1.15000 29.69100
H  35.82900 1.51200 25.07300
H  34.17900 4.05100 24.78400
H  37.48700 2.84700 23.77400
H  37.32200 4.16900 24.83200
H  36.24100 4.06400 23.55900
H  32.79300 1.54300 25.53800
H  33.89800 1.10000 24.20100
H  32.55600 3.46200 23.28800
H  31.33300 2.41000 24.03400
H  32.34600 1.73900 22.84200
H  28.89200 4.02600 28.65600
H  29.75400 3.38600 27.42800
H  29.64700 5.15900 27.40200
H  31.26000 3.30000 33.44700
H  30.25300 6.62900 36.26600
H  31.88500 7.00300 35.93000
H  31.55800 5.64000 36.92300
Mg 17.35900 51.94300 26.35200
C  19.44700 50.73000 28.81100
C  15.08300 52.85800 28.74700
C  15.39100 53.17600 23.83600
C  19.69000 50.91000 23.90300
N  17.28400 51.74800 28.51700
C  18.28300 51.32500 29.30500
C  17.98900 51.49700 30.79400
C  16.46600 51.83600 30.75200
C  16.23300 52.21000 29.28600
C  15.56700 50.60700 31.11900
C  18.91700 52.55600 31.42500
C  18.86500 52.71700 32.95200
H  17.82700 51.92700 33.74900
N  15.47500 52.90900 26.30100
C  14.71500 53.21500 27.39200
C  13.62400 53.96000 26.89700
C  13.63400 54.01200 25.49500
C  14.82000 53.31900 25.15000
C  12.67300 54.57100 27.95800
C  12.69900 54.77600 24.51100
O  13.00300 54.79100 23.38200
C  11.44100 55.54300 25.05300
N  17.47900 51.87900 24.15000
C  16.56000 52.55100 23.38100
C  16.84100 52.32600 21.87600
C  18.32200 51.71800 21.94700
C  18.53400 51.56600 23.46900
C  15.83700 51.34600 21.17600
C  19.34500 52.58500 21.23300
C  19.51200 54.02900 21.87200
N  19.13300 50.89700 26.28400
C  19.96900 50.58000 25.26100
C  21.16500 49.89500 25.80000
C  20.97400 49.92000 27.20500
C  19.74600 50.54800 27.41400
C  22.31600 49.25800 25.03300
C  21.56100 49.57800 28.48300
O  22.62100 48.99800 28.76900
C  20.64300 50.13800 29.55100
C  20.25600 48.96400 30.37400
O  19.71900 47.99100 29.85600
O  20.50900 49.17900 31.68400
C  20.03300 48.09900 32.59000
H  14.34500 53.20500 29.47400
H  14.77600 53.49500 22.99200
H  20.38600 50.51900 23.15800
H  18.26200 50.67000 31.45000
H  16.25300 52.72300 31.34900
H  15.08900 50.83400 32.07200
H  16.23800 49.75500 31.22800
H  14.77200 50.55200 30.37500
H  18.65300 53.56100 31.09800
H  19.92100 52.36800 31.04400
H  18.74400 53.77800 33.17400
H  19.86500 52.36400 33.20400
H  12.61000 54.03500 28.90500
H  11.63700 54.64600 27.63000
H  13.13300 55.52900 28.20000
H  11.84300 56.21200 25.81300
H  10.84700 54.74000 25.49000
H  11.00000 56.11000 24.23300
H  16.85900 53.29600 21.37900
H  18.28500 50.74800 21.45000
H  15.26800 50.81700 21.94000
H  16.38000 50.76200 20.43200
H  15.17800 51.87800 20.49100
H  19.00300 52.65600 20.20100
H  20.33400 52.12600 21.21600
H  18.96300 54.70400 21.21600
H  20.56200 54.31200 21.78700
H  19.18300 54.01700 22.91100
H  22.14200 48.19000 24.90200
H  23.27400 49.50800 25.48800
H  22.47700 49.74000 24.06900
H  21.21300 50.75300 30.24700
H  19.09200 47.64300 32.28400
H  20.07500 48.60900 33.55300
H  20.73000 47.26100 32.57400

