158

Mg 41.01900 7.80200 29.33700
C  42.79600 9.22600 31.94200
C  38.76400 6.48600 31.73000
C  39.58300 5.96000 26.86800
C  43.69700 8.53900 27.16900
N  40.81900 7.79400 31.57100
C  41.60600 8.61600 32.39100
C  41.09400 8.56400 33.92100
C  39.82000 7.61500 33.81900
C  39.77900 7.25500 32.26200
C  40.01000 6.36400 34.72600
C  40.80300 10.02000 34.47100
C  40.10600 10.05600 35.86500
H  40.42900 11.24300 36.80400
N  39.34000 6.54600 29.27300
C  38.52500 6.14800 30.36900
C  37.38900 5.42000 29.83000
C  37.62200 5.24200 28.40700
C  38.89300 5.93200 28.10300
C  36.17000 5.09800 30.63800
C  36.63700 4.64400 27.38200
O  36.78000 4.56500 26.16300
C  35.31500 4.12700 27.86700
N  41.63200 7.21200 27.24500
C  40.73900 6.59200 26.44100
C  41.28500 6.43400 25.04900
C  42.61600 7.28200 25.07100
C  42.68100 7.73500 26.52300
C  41.34600 5.02900 24.51800
C  42.61200 8.42600 24.05600
C  41.59200 9.59700 24.28500
N  42.89700 8.58300 29.48600
C  43.80100 8.92000 28.51000
C  44.89300 9.65200 29.14700
C  44.56200 9.78900 30.44900
C  43.31600 9.13800 30.60800
C  46.19100 10.29300 28.40900
C  44.91700 10.36100 31.69000
O  45.90300 11.10100 31.90300
C  43.85300 9.95400 32.76700
C  44.34800 9.10300 33.81400
O  44.59700 7.93400 33.76600
O  44.34600 9.79100 35.03100
C  44.91400 9.05300 36.20700
H  38.10600 6.05000 32.48400
H  39.13700 5.39300 26.04800
H  44.52500 8.82800 26.51800
H  41.86400 8.23700 34.62000
H  38.93900 8.11400 34.22200
H  40.99100 6.39500 35.20000
H  39.92700 5.40400 34.21700
H  39.19400 6.30400 35.44700
H  40.16800 10.49200 33.72200
H  41.68700 10.65100 34.56500
H  40.27000 9.13400 36.42300
H  39.03700 10.08600 35.65100
H  36.11300 4.05100 30.93700
H  35.18900 5.28500 30.20100
H  36.19400 5.61100 31.59900
H  35.36400 3.36500 28.64500
H  34.83400 3.57200 27.06200
H  34.66700 4.99300 28.00400
H  40.50100 6.91800 24.46700
H  43.47700 6.65200 24.84700
H  41.80900 5.13800 23.53800
H  40.38800 4.58600 24.24700
H  41.94500 4.24400 24.98000
H  42.40600 7.93600 23.10400
H  43.61500 8.76500 23.79500
H  41.29800 9.71800 25.32800
H  40.73600 9.54100 23.61200
H  42.01600 10.58000 24.08400
H  46.88100 9.46300 28.25300
H  46.58500 11.08500 29.04500
H  45.84400 10.72500 27.47000
H  43.54800 10.92700 33.15100
H  44.47200 8.06400 36.32200
H  44.60500 9.47800 37.16200
H  46.00300 8.99900 36.23000
Mg -10.30600 39.39200 41.76400
C  -8.86500 36.32700 41.06600
C  -7.43200 40.92400 40.48200
C  -11.88900 42.41800 42.01600
C  -13.27100 37.83900 42.47800
N  -8.29500 38.68900 40.91700
C  -7.96600 37.39700 40.72800
C  -6.50300 37.25600 40.19800
C  -6.05100 38.72100 40.19300
C  -7.33100 39.57600 40.59500
C  -4.61500 38.89700 40.86200
C  -6.50100 36.54100 38.75800
C  -5.13100 35.83000 38.45900
H  -4.31900 36.18800 37.23100
N  -9.74600 41.38600 41.35900
C  -8.55500 41.77800 40.79200
C  -8.54400 43.22000 40.62200
C  -9.82200 43.68000 41.10100
C  -10.54000 42.50900 41.59600
C  -7.35400 43.95900 39.93700
C  -10.42100 45.08600 41.01400
O  -9.73000 46.01000 40.64500
C  -11.82600 45.50700 41.45100
N  -12.33100 40.01600 42.18800
C  -12.67100 41.28400 42.31600
C  -14.12600 41.45700 42.86700
C  -14.56300 39.95700 42.92200
C  -13.32800 39.20900 42.41800
C  -14.06100 42.24300 44.23800
C  -15.81500 39.61800 42.09000
C  -17.22900 39.46000 42.80400
N  -11.01900 37.52100 41.69700
C  -12.22000 36.99700 42.05200
C  -12.36000 35.56800 41.92700
C  -11.03500 35.20800 41.62200
C  -10.26200 36.42500 41.46000
C  -13.50000 34.71600 42.42500
C  -10.07500 34.09800 41.42200
O  -10.17900 32.87900 41.59800
C  -8.72800 34.82300 41.04100
C  -7.71200 34.31400 41.98600
O  -7.62300 34.61000 43.17200
O  -6.80500 33.60400 41.27100
C  -5.60100 33.18500 42.00000
H  -6.50000 41.37200 40.13200
H  -12.39800 43.33800 42.31100
H  -14.23200 37.37200 42.70100
H  -5.91100 36.62600 40.86200
H  -5.95000 38.96500 39.13500
H  -4.79800 39.70900 41.56600
H  -3.87200 39.00800 40.07200
H  -4.30300 38.01200 41.41700
H  -6.80600 37.19600 37.94200
H  -7.27000 35.77100 38.82400
H  -5.19700 34.74200 38.46000
H  -4.48700 36.15300 39.27700
H  -6.88100 43.29400 39.21500
H  -6.68300 44.39500 40.67700
H  -7.74500 44.83100 39.41300
H  -11.87700 45.41500 42.53600
H  -12.58600 44.90600 40.95200
H  -12.17300 46.48300 41.11100
H  -14.71000 42.06300 42.17400
H  -14.73800 39.70000 43.96700
H  -13.01300 42.50000 44.39200
H  -14.35400 41.54300 45.02000
H  -14.70000 43.12200 44.32600
H  -15.62200 38.61900 41.70000
H  -15.82100 40.37700 41.30700
H  -17.88700 40.27600 42.50500
H  -17.19600 39.36200 43.88900
H  -17.71200 38.59700 42.34400
H  -14.18700 34.42800 41.62900
H  -14.14400 35.14000 43.19600
H  -13.02700 33.80700 42.79700
H  -8.50800 34.42500 40.05100
H  -5.81500 33.10100 43.06600
H  -4.76700 33.85000 41.77600
H  -5.26800 32.21200 41.64000

