158

Mg 39.62700 10.38400 29.16700
C  41.65200 11.86400 31.65700
C  37.68200 9.09000 31.75600
C  38.06900 8.67500 26.83700
C  42.20000 11.03400 26.90200
N  39.58400 10.62800 31.43800
C  40.49200 11.36800 32.21000
C  40.13000 11.32300 33.69500
C  38.98200 10.19900 33.69000
C  38.76800 9.86000 32.22400
C  39.16600 8.91200 34.57900
C  39.61300 12.62200 34.35000
C  39.11800 12.48100 35.80300
H  39.90300 13.26500 36.80200
N  37.98000 9.21400 29.24900
C  37.33600 8.68000 30.35800
C  36.23500 7.87200 29.89500
C  36.28400 7.89000 28.46000
C  37.50900 8.57000 28.10900
C  35.25500 7.16000 30.80000
C  35.23700 7.34000 27.47700
O  35.29200 7.55500 26.28500
C  34.03800 6.65200 28.01900
N  40.15400 9.83400 27.10800
C  39.26800 9.18300 26.35000
C  39.73900 9.26100 24.85300
C  40.99300 10.24700 24.93600
C  41.12800 10.36900 26.39300
C  40.14100 7.85500 24.20600
C  40.81900 11.53200 24.16700
C  40.08100 12.79000 24.96500
N  41.50900 11.20400 29.23200
C  42.41500 11.41900 28.18900
C  43.59000 12.15600 28.69700
C  43.34500 12.35000 30.06200
C  42.11600 11.77100 30.33500
C  44.82000 12.64200 27.92300
C  43.85800 12.90900 31.25200
O  44.88700 13.60400 31.40400
C  42.75600 12.73000 32.28100
C  43.32200 12.17800 33.61000
O  43.72500 11.05300 33.78900
O  43.19900 13.08900 34.60400
C  43.56600 12.70600 35.91800
H  37.00200 8.77000 32.54900
H  37.53700 8.08900 26.08400
H  42.96100 11.35500 26.18800
H  40.95500 10.87100 34.24500
H  38.04600 10.60800 34.06900
H  38.28400 8.67500 35.17400
H  39.96700 9.11600 35.29000
H  39.37800 8.02900 33.97700
H  38.86200 13.09800 33.71900
H  40.50900 13.24100 34.41100
H  39.08900 11.50200 36.28100
H  38.09800 12.84300 35.66900
H  34.35500 7.77500 30.82400
H  35.71100 7.17900 31.79000
H  34.94400 6.14700 30.54700
H  33.47000 6.32000 27.15000
H  33.47400 7.24000 28.74300
H  34.41400 5.72000 28.44200
H  38.90500 9.67300 24.28600
H  41.80000 9.74800 24.39900
H  41.22800 7.78000 24.17600
H  39.74200 7.75900 23.19700
H  39.52800 7.21400 24.84000
H  40.12800 11.42500 23.33000
H  41.75600 11.82800 23.69500
H  40.11000 12.51700 26.02000
H  39.12800 13.12300 24.55300
H  40.69700 13.68400 24.87200
H  44.65800 13.52400 27.30400
H  45.28000 11.84300 27.34000
H  45.56400 12.82200 28.69900
H  42.22800 13.66900 32.44700
H  44.64900 12.66000 36.03100
H  43.11700 11.76600 36.23700
H  43.24500 13.45000 36.64700
Mg 6.81500 54.55500 40.87500
C  6.03300 51.18700 40.28500
C  10.01000 53.99200 40.12800
C  7.32300 57.88800 41.16200
C  3.33900 55.22100 41.28000
N  7.90400 52.78500 40.27000
C  7.39800 51.48300 40.02000
C  8.52200 50.56200 39.54200
C  9.77900 51.42300 39.98200
C  9.20400 52.84600 40.16100
C  10.61000 50.84700 41.22200
C  8.47500 50.44100 37.93500
C  8.74600 49.06700 37.23600
H  7.71800 48.47800 36.26600
N  8.39700 55.79700 40.61900
C  9.68500 55.34000 40.25800
C  10.54800 56.41600 40.07100
C  9.87300 57.56300 40.55800
C  8.47100 57.15500 40.83300
C  11.94100 56.37800 39.53300
C  10.50700 58.96400 40.63800
O  11.68800 59.09900 40.21600
C  9.75700 60.19100 41.09500
N  5.56700 56.26800 41.05300
C  6.02400 57.48700 41.37100
C  4.89600 58.48800 41.68600
C  3.63000 57.64000 41.52900
C  4.22300 56.25600 41.32500
C  5.08600 58.98900 43.13100
C  2.72100 58.08800 40.29400
C  1.56700 59.06200 40.60600
N  5.02600 53.42900 40.83200
C  3.70700 53.85600 41.07800
C  2.86200 52.59900 41.06200
C  3.78000 51.55400 40.93700
C  5.02500 52.14100 40.70500
C  1.33300 52.53900 41.27000
C  3.93200 50.08100 40.83800
O  3.04600 49.22800 40.96600
C  5.44000 49.76400 40.54300
C  5.51700 48.81300 39.35500
O  5.26400 49.13900 38.18900
O  5.97900 47.60800 39.75000
C  6.30700 46.55500 38.79200
H  11.07800 53.82900 39.96900
H  7.46600 58.97100 41.17700
H  2.27500 55.31100 41.50800
H  8.65700 49.65100 40.12600
H  10.40100 51.39800 39.08700
H  10.92600 51.70100 41.82100
H  11.43300 50.25200 40.82700
H  9.90400 50.30700 41.85200
H  9.25800 51.13800 37.63500
H  7.47300 50.76300 37.65300
H  8.90300 48.26100 37.95300
H  9.68100 49.18700 36.68900
H  11.98900 57.14800 38.76300
H  12.15600 55.40400 39.09300
H  12.63600 56.54700 40.35500
H  9.00900 60.35400 40.31900
H  10.57400 60.90900 41.02400
H  9.34500 59.92300 42.06800
H  4.92400 59.29400 40.95300
H  3.08000 57.61900 42.47000
H  5.29500 60.05500 43.21600
H  5.89800 58.44100 43.60900
H  4.25300 58.84300 43.81900
H  2.20000 57.22100 39.88700
H  3.39600 58.42800 39.50900
H  0.55700 58.71300 40.39300
H  1.69000 59.96700 40.01000
H  1.61700 59.42100 41.63400
H  0.89900 51.67800 40.76300
H  0.99600 53.39900 40.69200
H  1.01500 52.61400 42.31000
H  5.83500 49.19400 41.38400
H  5.94900 45.58400 39.13500
H  7.37900 46.42300 38.64700
H  5.79200 46.66400 37.83700

