158

Mg 7.53600 3.07400 27.95700
C  8.93000 1.83600 30.82300
C  5.92700 5.38000 29.76900
C  5.87500 4.04500 25.03500
C  9.30800 0.71100 26.08300
N  7.36000 3.52000 30.02700
C  8.03400 2.86900 31.07400
C  7.73400 3.56200 32.38300
C  6.75200 4.70900 32.00600
C  6.65200 4.50800 30.54400
C  5.32400 4.69400 32.70900
C  9.00100 4.06700 33.16800
C  9.17600 3.71900 34.75300
H  9.56200 4.80100 35.73900
N  6.06900 4.44700 27.50700
C  5.64200 5.39600 28.39300
C  4.74000 6.30000 27.68000
C  4.61500 5.93700 26.36500
C  5.53100 4.77900 26.24300
C  4.04100 7.36400 28.43000
C  3.81500 6.56600 25.22500
O  3.66800 6.04700 24.16000
C  3.05700 7.74300 25.53700
N  7.49600 2.32100 25.86400
C  6.73500 2.94800 24.87700
C  6.96100 2.21500 23.54600
C  8.26500 1.43700 23.85400
C  8.32600 1.42500 25.38700
C  5.83400 1.21500 23.14200
C  9.54900 2.05300 23.23400
C  10.30300 1.08000 22.33900
N  8.89700 1.54700 28.31200
C  9.57400 0.71700 27.50200
C  10.49200 -0.13600 28.25900
C  10.31700 0.38400 29.59500
C  9.32100 1.35300 29.54700
C  11.46400 -1.21400 27.80700
C  10.70000 0.15100 30.99500
O  11.43800 -0.60400 31.56800
C  9.80900 1.16200 31.83600
C  9.04200 0.33100 32.76000
O  8.11500 -0.34300 32.45300
O  9.69900 0.21100 33.98700
C  9.07000 -0.54900 35.03100
H  5.64100 6.15000 30.49000
H  5.57600 4.36100 24.03400
H  10.06900 0.22000 25.47200
H  7.09900 2.87800 32.94600
H  7.21200 5.69700 32.00100
H  4.71900 4.00600 32.11900
H  4.93000 5.70900 32.66300
H  5.27700 4.35600 33.74500
H  8.85200 5.14400 33.24200
H  9.98000 4.04800 32.68900
H  10.03300 3.04700 34.81000
H  8.37200 3.08700 35.12900
H  4.51900 8.32400 28.23700
H  4.04200 7.01700 29.46300
H  2.99300 7.45300 28.14300
H  2.35900 7.45100 26.32100
H  2.47500 8.01300 24.65600
H  3.73100 8.54900 25.82700
H  6.99400 2.94000 22.73300
H  8.16700 0.42700 23.45900
H  5.00000 1.23200 23.84400
H  6.11300 0.16100 23.14000
H  5.30700 1.43900 22.21400
H  10.24000 2.37400 24.01500
H  9.25200 2.94800 22.68800
H  10.74900 1.52300 21.44900
H  9.61000 0.30000 22.02500
H  11.18700 0.66300 22.82300
H  11.58200 -1.15900 26.72400
H  11.06700 -2.19000 28.08400
H  12.38400 -1.00700 28.35300
H  10.45300 1.83500 32.40300
H  9.95100 -1.01400 35.47400
H  8.32800 -1.30600 34.77500
H  8.58100 0.06800 35.78400
Mg 24.91300 1.46700 29.62300
C  27.22500 1.09500 32.29100
C  22.49800 2.00500 32.01300
C  22.80200 1.72600 27.08700
C  27.47900 0.45600 27.41500
N  24.83100 1.57800 31.85600
C  25.91400 1.46800 32.72600
C  25.50000 1.66300 34.25500
C  23.96800 1.73200 34.10300
C  23.69700 1.73900 32.62600
C  23.13200 0.63400 34.88000
C  26.17700 2.94700 34.82100
C  26.86300 2.82000 36.19000
H  26.60400 3.89600 37.29700
N  22.91300 1.80400 29.55700
C  22.03900 1.93100 30.67100
C  20.71800 2.04500 30.08200
C  20.81700 1.93200 28.62800
C  22.23500 1.79900 28.38300
C  19.48800 2.34800 30.95500
C  19.68300 2.08900 27.54800
O  19.86300 1.88500 26.35900
C  18.33500 2.31800 28.09300
N  25.03000 1.01300 27.53300
C  24.06000 1.30600 26.68300
C  24.58200 1.24800 25.18600
C  26.12100 0.97600 25.31600
C  26.22800 0.79100 26.84500
C  23.75700 0.13200 24.38000
C  26.91900 2.19000 24.91900
C  28.38900 1.98300 24.65000
N  26.87500 0.88700 29.72400
C  27.75500 0.47300 28.77900
C  29.04900 0.22300 29.37600
C  28.85800 0.42200 30.77000
C  27.53100 0.84300 30.94600
C  30.30600 -0.21700 28.60000
C  29.57300 0.47000 32.07400
O  30.73400 0.27600 32.36800
C  28.52000 1.00000 33.12700
C  28.52400 0.31300 34.39500
O  27.87400 -0.73100 34.61600
O  29.29100 0.88500 35.31100
C  29.25200 0.19400 36.66600
H  21.63700 2.11600 32.67600
H  22.14000 1.78000 26.22000
H  28.34800 0.16100 26.82400
H  25.81900 0.78400 34.81400
H  23.51200 2.67700 34.39700
H  22.34000 0.19200 34.27600
H  22.60800 1.04900 35.74100
H  23.84800 -0.15800 35.09600
H  25.57500 3.85200 34.89900
H  26.98100 3.09300 34.10000
H  27.94800 2.81100 36.08700
H  26.58700 1.83100 36.55400
H  19.90100 2.54200 31.94500
H  18.87400 1.45200 30.86600
H  18.99300 3.27200 30.65700
H  18.40600 3.27000 28.61800
H  18.16900 1.44400 28.72300
H  17.59200 2.34000 27.29500
H  24.39700 2.23100 24.75400
H  26.52700 0.05200 24.90600
H  23.41200 0.52800 23.42500
H  22.82900 -0.19700 24.84600
H  24.35400 -0.75100 24.15400
H  26.95700 2.99800 25.65000
H  26.44100 2.51800 23.99600
H  28.90900 2.48100 25.46900
H  28.73900 2.48000 23.74500
H  28.53500 0.90800 24.55000
H  31.17600 -0.41700 29.22600
H  30.53500 0.43300 27.75600
H  30.09100 -1.19200 28.16200
H  28.88400 2.00000 33.36500
H  30.20300 -0.26700 36.93400
H  28.48500 -0.54500 36.89900
H  29.00400 0.83800 37.51000

