158

Mg 47.68700 16.67600 27.53500
C  45.73900 16.69800 30.40500
C  49.99300 18.71500 28.95800
C  49.16100 17.00100 24.49400
C  44.90200 15.28400 25.85600
N  47.83200 17.57100 29.44800
C  47.01400 17.29800 30.49700
C  47.72600 17.74000 31.75900
C  48.97900 18.52300 31.25700
C  48.96500 18.26100 29.80800
C  49.03100 20.05200 31.48400
C  48.05700 16.63500 32.78000
C  48.35300 17.00600 34.23700
H  47.92000 18.35100 34.71800
N  49.38400 17.69600 26.86700
C  50.26600 18.41600 27.59900
C  51.36800 18.85300 26.81100
C  50.98900 18.50300 25.47000
C  49.81200 17.67000 25.56300
C  52.50200 19.67200 27.34800
C  51.62100 19.08700 24.12000
O  51.13000 18.92300 23.02700
C  52.85300 19.97800 24.06400
N  47.04500 16.32300 25.41100
C  47.95800 16.47100 24.42200
C  47.34900 15.96400 23.08400
C  45.95200 15.38400 23.51300
C  45.90000 15.68300 25.03200
C  47.18500 17.17200 22.11600
C  45.59200 13.95300 23.09600
C  44.33600 13.81900 22.25500
N  45.79000 16.07600 28.01900
C  44.71900 15.54600 27.24500
C  43.58800 15.16200 28.11900
C  43.98500 15.60600 29.37800
C  45.23500 16.21400 29.24100
C  42.35700 14.49500 27.70400
C  43.54900 15.63600 30.75600
O  42.60300 15.10400 31.26600
C  44.72900 16.44000 31.53900
C  44.13300 17.59400 32.21400
O  43.85800 18.68600 31.73800
O  43.96000 17.31500 33.57900
C  43.34500 18.35000 34.36800
H  50.62600 19.43800 29.47700
H  49.62400 16.99100 23.50400
H  44.04900 14.76400 25.41500
H  46.96500 18.44300 32.09800
H  49.87900 18.12800 31.72900
H  48.30000 20.39700 32.21600
H  48.84500 20.75000 30.66800
H  50.06700 20.32700 31.68600
H  48.89600 16.07600 32.36500
H  47.21700 15.94800 32.88200
H  49.39700 16.71600 34.35600
H  47.97200 16.23000 34.90100
H  52.19300 20.71300 27.44300
H  53.38300 19.68300 26.70600
H  52.70900 19.24700 28.33100
H  53.67400 19.46400 24.56300
H  52.61900 20.84700 24.67900
H  53.06300 20.22200 23.02200
H  48.01900 15.16400 22.77000
H  45.24900 16.07700 23.05100
H  47.28500 18.11700 22.65000
H  46.25000 17.16400 21.55600
H  47.94600 17.04000 21.34600
H  45.68500 13.35800 24.00400
H  46.30300 13.59400 22.35100
H  44.59200 13.32700 21.31700
H  43.78600 14.73100 22.02300
H  43.59200 13.15000 22.68800
H  42.52900 13.69000 26.99000
H  41.74300 15.21400 27.16100
H  41.80800 13.98000 28.49300
H  45.14200 15.71600 32.24100
H  42.27900 18.19400 34.53400
H  43.63800 19.33900 34.01500
H  43.82700 18.18800 35.33200
Mg 17.39600 52.67100 26.33100
C  19.40400 50.98000 28.59200
C  15.10300 53.19900 29.05300
C  15.03000 54.10300 24.26600
C  19.25900 51.43100 23.66500
N  17.36100 52.18000 28.55000
C  18.42400 51.63100 29.23700
C  18.14400 51.58600 30.76600
C  16.54800 51.86900 30.79600
C  16.31400 52.56800 29.40400
C  15.62000 50.69200 31.03500
C  18.96400 52.66700 31.54000
C  19.13600 52.41500 33.02100
H  17.99500 51.69400 33.66500
N  15.32200 53.58300 26.55800
C  14.67500 53.75800 27.73800
C  13.33100 54.24500 27.39500
C  13.32400 54.66300 26.07800
C  14.57500 54.08800 25.56300
C  12.26400 54.24500 28.41000
C  12.23400 55.36900 25.23400
O  12.30100 55.63200 24.06400
C  10.97100 55.73300 25.99400
N  17.16100 52.81600 24.29400
C  16.21800 53.55300 23.65800
C  16.37500 53.40300 22.10000
C  17.73700 52.72300 21.98100
C  18.04200 52.19100 23.41500
C  15.21800 52.66800 21.34100
C  18.85400 53.67600 21.24600
C  19.27900 54.85100 22.09200
N  19.09400 51.58400 26.11000
C  19.76900 51.13000 24.95200
C  20.96000 50.38600 25.38400
C  20.86700 50.34900 26.80600
C  19.67800 50.97700 27.20000
C  22.04400 49.85800 24.47300
C  21.53900 49.93500 28.03200
O  22.57100 49.29000 28.04400
C  20.69300 50.35700 29.22100
C  20.35400 49.29600 30.15500
O  19.72300 48.27100 29.91200
O  20.94000 49.56900 31.37200
C  20.66100 48.54000 32.41500
H  14.47400 53.46000 29.90700
H  14.35200 54.63200 23.59400
H  19.74600 50.94800 22.81500
H  18.21700 50.55900 31.12500
H  16.30500 52.62800 31.53900
H  14.88500 50.61300 30.23400
H  15.02700 50.76000 31.94800
H  16.12700 49.74100 30.87700
H  18.56700 53.67400 31.41100
H  19.95100 52.64600 31.07900
H  19.25800 53.35800 33.55400
H  20.01400 51.77400 33.10100
H  11.96100 55.21100 28.81200
H  12.47200 53.64500 29.29600
H  11.42300 53.71200 27.96500
H  11.19900 56.37600 26.84400
H  10.43400 54.81800 26.24600
H  10.40300 56.26800 25.23400
H  16.41900 54.43000 21.73600
H  17.73100 51.83000 21.35500
H  15.52000 51.88100 20.65000
H  14.47200 53.27500 20.82900
H  14.64400 52.22500 22.15500
H  18.50700 53.91600 20.24100
H  19.65900 52.95500 21.09900
H  18.93400 55.71500 21.52300
H  20.35500 54.77400 22.24700
H  18.72300 54.80600 23.02800
H  22.03900 48.79800 24.72500
H  22.98300 50.38300 24.64700
H  21.67700 49.88200 23.44700
H  21.22700 51.11600 29.79300
H  20.85000 47.51500 32.09900
H  19.57800 48.62900 32.50400
H  21.09800 48.65700 33.40700

