158

Mg 0.71300 43.18100 26.29500
C  2.98100 43.75700 28.75400
C  -1.65700 42.66500 28.53100
C  -1.21200 42.32600 23.72000
C  3.49000 43.37700 23.93900
N  0.72000 42.91500 28.43100
C  1.76400 43.38400 29.27000
C  1.26500 43.36000 30.75100
C  -0.14700 42.74100 30.55500
C  -0.42700 42.82400 29.06800
C  -0.58200 41.38900 31.16200
C  1.22900 44.79600 31.39800
C  1.24200 44.80200 32.93200
H  0.98700 43.46400 33.65900
N  -1.23900 42.71400 26.17100
C  -2.06800 42.50800 27.20600
C  -3.41200 42.30700 26.62100
C  -3.28700 42.28600 25.18200
C  -1.89600 42.45200 24.93800
C  -4.65100 42.23800 27.43200
C  -4.41100 41.99700 24.08300
O  -4.17000 42.11300 22.90500
C  -5.90200 41.75400 24.35500
N  1.15800 42.84600 24.17600
C  0.14500 42.48600 23.37200
C  0.64300 42.26600 21.87700
C  2.03400 43.05700 21.93200
C  2.25800 43.10000 23.46500
C  0.78000 40.73400 21.43800
C  1.90300 44.48200 21.28300
C  2.91700 44.93600 20.21200
N  2.76000 43.54200 26.30100
C  3.79500 43.67200 25.31400
C  5.03000 44.08200 25.97400
C  4.76200 44.09000 27.35300
C  3.39800 43.74800 27.47400
C  6.27500 44.36600 25.32000
C  5.36900 44.30900 28.58100
O  6.57300 44.49900 28.89300
C  4.14300 44.14100 29.57000
C  4.64800 43.13600 30.57900
O  4.49700 41.96200 30.65400
O  4.97700 43.92500 31.71400
C  5.13000 43.28200 32.98200
H  -2.47400 42.57600 29.25000
H  -1.85800 42.12900 22.86200
H  4.34600 43.49300 23.27000
H  1.91100 42.75000 31.38200
H  -0.87700 43.40600 31.01800
H  0.21900 40.78900 31.59500
H  -1.08200 40.76400 30.42200
H  -1.31400 41.54400 31.95600
H  0.26000 45.23000 31.15200
H  2.00800 45.50000 31.10200
H  0.50700 45.53100 33.27200
H  2.18000 45.23400 33.28000
H  -5.07100 43.24400 27.42300
H  -4.41800 41.99300 28.46800
H  -5.34700 41.51700 27.00400
H  -6.44000 41.70500 23.40900
H  -6.33600 42.52100 24.99800
H  -5.84700 40.82900 24.92900
H  -0.07300 42.72400 21.19600
H  2.66200 42.41900 21.31200
H  0.39900 40.10500 22.24300
H  1.84100 40.48800 21.40200
H  0.17700 40.43000 20.58300
H  1.94300 45.19300 22.10800
H  0.91700 44.67600 20.86000
H  3.60000 44.15800 19.87200
H  3.61100 45.70900 20.54200
H  2.35900 45.29700 19.34800
H  6.79300 43.45800 25.01000
H  7.00000 44.88000 25.95100
H  6.08400 45.03700 24.48300
H  3.91600 45.15100 29.90900
H  6.02000 42.65500 32.93700
H  4.35700 42.58100 33.29900
H  5.32700 44.02000 33.76100
Mg -1.25900 35.35700 26.85800
C  -3.26000 33.53800 29.00700
C  -0.08000 37.19600 29.58400
C  0.51700 37.20400 24.73300
C  -2.59600 33.44900 24.19800
N  -1.70000 35.39900 29.01600
C  -2.49600 34.51000 29.67200
C  -2.24100 34.54300 31.21600
C  -1.51800 35.89800 31.37500
C  -1.05100 36.17900 29.87800
C  -2.37300 37.00800 32.01000
C  -1.60100 33.24900 31.74500
C  -2.32400 32.37000 32.81000
H  -1.65300 32.05800 34.15400
N  0.00300 37.03000 27.12800
C  0.41300 37.64100 28.32800
C  1.41100 38.63000 27.96600
C  1.70200 38.57400 26.57700
C  0.71000 37.57900 26.11100
C  2.02900 39.45200 29.09400
C  2.70800 39.32300 25.77400
O  2.80300 39.24200 24.56600
C  3.66100 40.20400 26.48400
N  -1.23600 35.53800 24.76600
C  -0.30300 36.27100 24.10000
C  -0.14700 35.83400 22.63900
C  -1.05800 34.56300 22.49100
C  -1.73200 34.49600 23.88400
C  -0.55400 36.98200 21.72000
C  -0.36700 33.21700 22.00400
C  0.65300 32.61100 23.00900
N  -2.73900 33.92700 26.59000
C  -3.23900 33.24400 25.43400
C  -4.09600 32.13500 25.83200
C  -4.11500 32.24400 27.21900
C  -3.29200 33.28300 27.63700
C  -4.48200 31.11100 24.86200
C  -4.62000 31.63000 28.41300
O  -5.37200 30.69600 28.57600
C  -4.12000 32.49500 29.60100
C  -5.32300 33.10300 30.26600
O  -6.11100 33.90500 29.75600
O  -5.45300 32.51600 31.55100
C  -6.61200 33.03600 32.34200
H  0.36000 37.67800 30.45900
H  1.12300 37.68000 23.96000
H  -2.88300 32.86600 23.32000
H  -3.19000 34.61600 31.74700
H  -0.63400 35.79000 32.00400
H  -2.01100 37.07100 33.03600
H  -3.42700 36.73200 32.03400
H  -2.47000 37.83800 31.31100
H  -0.62000 33.54500 32.11600
H  -1.47600 32.58000 30.89300
H  -2.53200 31.35400 32.47500
H  -3.30900 32.80300 32.98400
H  1.54200 39.39700 30.06800
H  1.82400 40.50100 28.87900
H  3.10200 39.26800 29.04000
H  3.18900 40.97200 27.09700
H  4.08000 40.89600 25.75200
H  4.39200 39.71000 27.12300
H  0.88700 35.56900 22.42000
H  -1.77400 34.70600 21.68200
H  -0.74200 37.96700 22.14500
H  -1.50400 36.75200 21.23700
H  0.21700 37.13000 20.96400
H  0.25000 33.39000 21.12300
H  -1.06700 32.43200 21.71900
H  0.35900 31.67500 23.48300
H  0.63900 33.32000 23.83700
H  1.58600 32.57200 22.44700
H  -5.04900 31.57900 24.05700
H  -5.24300 30.46200 25.29500
H  -3.62200 30.63200 24.39500
H  -3.54000 31.82500 30.23600
H  -6.24900 33.76300 33.06800
H  -7.17100 32.19000 32.74100
H  -7.31600 33.67100 31.80300

