158

Mg -1.92600 17.37900 25.96100
C  -2.58300 14.96800 28.57000
C  -2.30000 19.82100 28.30000
C  -2.11600 19.37900 23.38900
C  -1.83400 14.65500 23.70800
N  -2.38400 17.35000 28.17200
C  -2.37300 16.24200 29.03600
C  -2.50300 16.67500 30.49500
C  -2.59000 18.22200 30.39100
C  -2.45200 18.50800 28.87000
C  -3.83600 19.01400 31.08400
C  -1.23900 16.19900 31.24800
C  -0.88400 16.81100 32.57700
H  -0.51400 15.98800 33.77800
N  -2.12800 19.36700 25.85300
C  -2.26500 20.16100 26.92000
C  -2.25600 21.47900 26.39700
C  -2.39400 21.37500 25.01500
C  -2.22500 20.03800 24.65800
C  -2.23200 22.74200 27.38100
C  -2.63800 22.54000 23.94400
O  -2.83900 22.37700 22.69700
C  -2.57900 23.89800 24.42100
N  -1.85700 17.01600 23.92300
C  -1.91700 18.06900 23.05700
C  -1.88100 17.58300 21.59100
C  -1.52600 16.11800 21.66800
C  -1.62300 15.92100 23.23100
C  -3.10200 17.85700 20.72700
C  -0.13400 15.69900 21.14600
C  -0.13100 14.67000 20.04000
N  -2.12500 15.21700 26.10200
C  -2.11900 14.24300 25.06200
C  -2.48300 12.94300 25.57800
C  -2.66900 13.17000 26.98600
C  -2.48000 14.55000 27.17400
C  -2.70500 11.65600 24.93000
C  -2.93700 12.52500 28.21900
O  -3.18700 11.37200 28.48700
C  -2.98700 13.63900 29.26400
C  -2.07100 13.20600 30.38000
O  -0.88500 13.36000 30.39000
O  -2.66700 12.44400 31.31600
C  -1.79300 11.77200 32.31500
H  -2.32600 20.53900 29.12300
H  -2.19800 20.00600 22.49900
H  -1.74400 13.75100 23.10300
H  -3.42500 16.23300 30.87300
H  -1.71700 18.72100 30.81100
H  -3.58700 19.71400 31.88200
H  -4.45800 18.22600 31.50800
H  -4.59900 19.42000 30.42000
H  -0.39600 15.97200 30.59500
H  -1.53900 15.23300 31.65600
H  -1.53400 17.66300 32.77600
H  0.07900 17.23400 32.29100
H  -2.04700 22.44000 28.41200
H  -3.16700 23.28800 27.25900
H  -1.51900 23.50600 27.06900
H  -3.38900 24.12500 25.11500
H  -2.98200 24.53800 23.63600
H  -1.62700 24.31300 24.75000
H  -1.00800 18.14400 21.25900
H  -2.26000 15.44300 21.22900
H  -2.81300 18.64300 20.02900
H  -3.92100 18.19300 21.36300
H  -3.46000 16.94100 20.25700
H  0.49000 15.23900 21.91200
H  0.41700 16.61000 20.91300
H  0.73900 14.85200 19.40900
H  -1.00400 14.63200 19.38800
H  -0.11300 13.64400 20.40800
H  -3.78600 11.55800 24.82900
H  -2.29100 10.88200 25.57600
H  -2.27900 11.70000 23.92700
H  -3.93500 13.73100 29.79300
H  -1.32400 10.95500 31.76900
H  -2.41500 11.43200 33.14300
H  -1.01100 12.41400 32.72200
Mg 42.75600 41.82600 26.12100
C  42.13900 44.11000 28.73600
C  44.28000 39.80100 28.44600
C  43.79300 39.97000 23.56600
C  41.70300 44.38500 23.88400
N  43.18200 42.03300 28.29800
C  42.78200 42.98600 29.16400
C  42.96900 42.52000 30.61200
C  43.88300 41.24500 30.52500
C  43.84000 41.00900 28.97000
C  45.39900 41.45700 31.04300
C  41.63300 42.35400 31.43000
C  41.50200 43.26300 32.71200
H  42.41000 42.77400 33.83200
N  43.77900 40.11800 26.00400
C  44.31000 39.40500 27.05900
C  44.95400 38.22100 26.55100
C  44.89600 38.30500 25.13000
C  44.07000 39.46500 24.81500
C  45.64500 37.19300 27.32600
C  45.51500 37.38100 24.15900
O  45.29200 37.43500 22.97000
C  46.49100 36.26400 24.51400
N  42.80100 42.18900 24.08200
C  43.08000 41.17200 23.24700
C  42.93800 41.59600 21.72900
C  42.23100 42.99100 21.91000
C  42.31500 43.24500 23.36400
C  44.26800 41.72900 20.93700
C  40.83000 43.04400 21.38500
C  39.81800 41.92900 21.87300
N  41.98800 43.86400 26.19800
C  41.52000 44.66600 25.22400
C  40.88100 45.89000 25.82700
C  41.15500 45.68400 27.22800
C  41.81300 44.44100 27.37400
C  40.54900 47.19300 25.20400
C  41.06800 46.27200 28.49600
O  40.63900 47.42600 28.82800
C  41.65300 45.31100 29.57100
C  42.81700 45.99500 30.15000
O  43.91300 46.18600 29.68000
O  42.46300 46.33100 31.40800
C  43.57300 46.74400 32.29400
H  44.72800 39.13300 29.18500
H  43.98100 39.28700 22.73500
H  41.42800 45.19200 23.20200
H  43.44500 43.38800 31.06900
H  43.48900 40.43500 31.13900
H  45.58600 42.47100 31.39700
H  46.14100 41.29600 30.26100
H  45.55700 40.87000 31.94700
H  41.68700 41.28200 31.62200
H  40.78600 42.66100 30.81700
H  40.48000 43.15700 33.07700
H  41.76100 44.30600 32.53100
H  46.71400 37.39600 27.26500
H  45.27200 36.21500 27.02100
H  45.30600 37.24400 28.36000
H  45.86900 35.44200 24.86900
H  47.20800 36.61200 25.25700
H  47.00600 36.01500 23.58500
H  42.24500 40.87300 21.29900
H  42.77300 43.73100 21.32200
H  45.09500 41.46900 21.59800
H  44.33100 42.67100 20.39200
H  44.31600 40.89600 20.23700
H  41.04100 42.96300 20.31900
H  40.39200 44.03500 21.49800
H  40.34200 41.45800 22.70500
H  39.48400 41.30000 21.04800
H  38.90700 42.34500 22.30400
H  40.39000 47.09100 24.13100
H  41.29600 47.95400 25.43300
H  39.63200 47.55000 25.67200
H  40.88900 45.05200 30.30300
H  43.95700 47.63600 31.79900
H  44.32100 45.95200 32.33900
H  43.07700 46.90300 33.25100

