158

Mg 6.78500 54.20500 41.25400
C  6.37100 50.85200 40.86700
C  10.05600 53.84800 40.29900
C  6.95000 57.59100 40.98700
C  3.23800 54.53100 42.03400
N  7.98400 52.57400 40.35100
C  7.57300 51.24100 40.33700
C  8.65300 50.32600 39.80200
C  9.95900 51.21800 40.00400
C  9.35500 52.66200 40.26000
C  11.03200 50.78500 41.02200
C  8.36500 49.97900 38.30100
C  7.70800 51.07400 37.42300
H  7.24000 50.74200 35.95900
N  8.22900 55.52500 40.79600
C  9.54400 55.20000 40.37900
C  10.30300 56.43300 40.18100
C  9.44300 57.47700 40.32900
C  8.09600 56.85000 40.74200
C  11.81300 56.37600 39.80400
C  9.85600 58.94300 40.21200
O  10.93900 59.29400 39.71700
C  8.94300 59.98800 40.72400
N  5.24100 55.81600 41.51700
C  5.66600 57.14000 41.39500
C  4.49900 58.05400 41.61400
C  3.28800 57.14100 41.90400
C  3.93700 55.74700 41.85600
C  4.95800 59.04100 42.76300
C  2.03600 57.39600 40.94400
C  0.87500 58.29100 41.43400
N  5.15500 52.98700 41.47700
C  3.80500 53.24000 41.82100
C  3.18100 51.99500 42.08700
C  4.12800 51.07000 41.75100
C  5.28100 51.69100 41.36000
C  1.76200 51.75600 42.45900
C  4.31800 49.64400 41.52100
O  3.56600 48.66200 41.70600
C  5.82400 49.51900 41.05800
C  5.62400 48.74200 39.87200
O  5.07100 49.11500 38.82000
O  6.19800 47.54900 39.97300
C  5.87400 46.53100 38.93400
H  11.08500 53.71200 39.95900
H  6.99500 58.67000 40.82500
H  2.20400 54.58000 42.38200
H  8.57200 49.40800 40.38500
H  10.41000 51.40900 39.03100
H  11.43900 51.66000 41.52900
H  11.82900 50.35500 40.41500
H  10.62200 50.05000 41.71500
H  7.77400 49.06300 38.31500
H  9.30300 49.70500 37.81900
H  8.41900 51.90000 37.39200
H  6.82600 51.37900 37.98600
H  12.45500 55.57400 40.16800
H  12.26400 57.35200 39.98000
H  11.81700 56.13600 38.74100
H  8.16000 60.27400 40.02100
H  9.40100 60.96800 40.59200
H  8.70600 59.84500 41.77800
H  4.28700 58.55200 40.66700
H  3.04100 57.30600 42.95300
H  4.92200 60.04200 42.33400
H  5.98700 58.83000 43.05500
H  4.32000 58.87200 43.63100
H  1.50400 56.47000 40.72500
H  2.28400 57.78400 39.95600
H  0.06100 57.61700 41.70200
H  0.63300 59.00000 40.64200
H  1.18800 58.79300 42.34900
H  1.42800 50.89900 41.87500
H  1.10900 52.62700 42.39400
H  1.84300 51.39000 43.48200
H  6.35700 48.87900 41.76100
H  5.82500 45.59400 39.48900
H  6.68900 46.60600 38.21500
H  4.99800 46.71700 38.31200
Mg -10.86500 16.05200 42.49100
C  -7.43300 15.73500 42.06000
C  -10.59000 19.45100 41.49000
C  -14.15500 16.22700 42.13500
C  -11.05000 12.62500 43.25600
N  -9.26000 17.36500 41.69500
C  -7.91400 17.02400 41.70600
C  -7.02500 18.20300 41.26700
C  -8.04900 19.38900 41.45400
C  -9.39800 18.74600 41.54500
C  -7.64500 20.27800 42.75100
C  -6.55200 17.94600 39.79000
C  -5.19900 18.51100 39.29700
H  -4.89100 18.79100 37.86700
N  -12.19700 17.62700 41.90600
C  -11.88900 18.91600 41.55700
C  -13.08000 19.61800 41.25800
C  -14.16300 18.70200 41.41800
C  -13.54200 17.41600 41.79100
C  -13.11600 21.04700 40.76400
C  -15.66800 19.04900 41.23600
O  -16.04100 20.20400 41.02000
C  -16.81700 18.06800 41.22800
N  -12.36100 14.62800 42.57300
C  -13.61000 14.96600 42.56200
C  -14.56800 13.76500 42.72300
C  -13.66300 12.81000 43.48500
C  -12.26300 13.38600 43.17800
C  -15.98300 13.98700 43.52600
C  -13.83400 11.30100 43.44100
C  -14.21900 10.61800 44.88700
N  -9.56700 14.37800 42.54500
C  -9.71600 13.04600 42.94300
C  -8.35700 12.33700 42.92200
C  -7.46000 13.41800 42.59800
C  -8.20000 14.58500 42.36800
C  -8.04000 11.01000 43.54700
C  -6.10500 13.76700 42.61100
O  -5.09000 13.16000 42.92700
C  -6.06000 15.29200 42.17000
C  -5.40300 16.18300 43.15600
O  -5.85100 16.47100 44.23600
O  -4.19100 16.53200 42.73800
C  -3.32500 17.13100 43.73200
H  -10.61200 20.53700 41.37500
H  -15.24300 16.28900 42.06300
H  -11.10600 11.64700 43.73700
H  -6.15200 18.29100 41.91300
H  -7.95000 20.11800 40.65000
H  -7.45700 21.27500 42.35400
H  -6.74400 19.88600 43.22300
H  -8.46700 20.20500 43.46300
H  -7.24500 18.46100 39.12500
H  -6.73900 16.89500 39.57000
H  -4.39100 17.87800 39.66400
H  -5.16800 19.48800 39.77900
H  -13.93900 21.03900 40.04900
H  -12.17700 21.18800 40.23000
H  -13.22200 21.71200 41.62200
H  -17.74600 18.51800 40.87700
H  -16.96600 17.58600 42.19400
H  -16.64400 17.29800 40.47600
H  -14.71500 13.30300 41.74700
H  -13.68700 13.12500 44.52800
H  -15.91900 14.94000 44.05200
H  -16.24100 13.25500 44.29100
H  -16.87900 14.14600 42.92600
H  -12.92600 10.77200 43.15300
H  -14.66300 11.06300 42.77500
H  -13.31900 10.50800 45.49200
H  -14.76500 9.68900 44.72100
H  -14.91600 11.31900 45.34600
H  -7.66500 11.21500 44.55000
H  -7.45300 10.44400 42.82400
H  -8.92600 10.39400 43.70200
H  -5.63900 15.55300 41.19900
H  -3.69700 18.14300 43.89000
H  -2.36600 17.16600 43.21500
H  -3.35500 16.55800 44.65800

