158

Mg 48.10600 17.13800 29.45300
C  45.80700 17.06100 32.01800
C  50.21700 19.11300 31.23900
C  50.04800 17.46900 26.72900
C  45.42900 15.84800 27.32000
N  48.10800 17.76200 31.48000
C  47.03500 17.69100 32.33600
C  47.49100 18.16500 33.79400
C  48.92600 18.80200 33.50700
C  49.16700 18.55800 31.96200
C  49.12700 20.22700 33.96200
C  47.43200 16.94500 34.80100
C  47.36300 17.21800 36.34200
H  47.44100 18.61600 37.02100
N  49.90800 18.21100 29.02100
C  50.58900 18.93100 29.93600
C  51.87700 19.30500 29.35700
C  51.87700 18.84000 28.01500
C  50.58900 18.13600 27.82500
C  52.91700 20.07500 30.03000
C  52.85600 19.06000 26.91900
O  52.74400 18.74500 25.73700
C  54.20100 19.64100 27.31300
N  47.77900 16.65200 27.38600
C  48.80800 16.89800 26.46000
C  48.41000 16.39700 25.07500
C  47.02100 15.66300 25.27700
C  46.71900 16.02700 26.74000
C  48.23300 17.44500 23.92800
C  47.16400 14.17300 25.06000
C  45.86000 13.38500 25.06400
N  46.08300 16.40200 29.61900
C  45.12000 16.07400 28.68600
C  43.86900 15.74800 29.28500
C  44.08100 16.17800 30.63000
C  45.46900 16.60500 30.76900
C  42.60300 15.29700 28.67400
C  43.46700 16.40900 31.82000
O  42.32300 16.13600 32.15000
C  44.50900 16.80800 32.82200
C  43.91500 17.92200 33.65200
O  43.89800 19.12000 33.38400
O  43.51000 17.36600 34.82800
C  42.86100 18.24200 35.77000
H  50.86100 19.71100 31.88700
H  50.67500 17.61000 25.84600
H  44.65100 15.32100 26.76300
H  46.91400 18.99100 34.21100
H  49.76700 18.34700 34.03100
H  49.20900 20.84800 33.07000
H  49.99200 20.41000 34.59800
H  48.25300 20.55700 34.52400
H  48.29600 16.31000 34.60100
H  46.66700 16.22400 34.51300
H  48.12700 16.55000 36.73800
H  46.41800 16.80000 36.68900
H  53.29600 20.99500 29.58500
H  53.72900 19.41100 30.32600
H  52.60700 20.40700 31.02000
H  54.33500 20.63500 27.74000
H  54.76500 19.63900 26.38000
H  54.76900 18.98500 27.97200
H  49.14700 15.72300 24.63900
H  46.24800 16.04600 24.61100
H  49.16100 17.40100 23.35800
H  48.19500 18.45000 24.34800
H  47.38900 17.28200 23.25800
H  47.66800 13.77300 25.94000
H  47.69200 13.90600 24.14400
H  44.95200 13.96500 24.90000
H  45.75500 12.92600 26.04700
H  45.91600 12.63900 24.27100
H  42.90000 14.50500 27.98700
H  42.15900 16.15400 28.16800
H  41.83200 14.81200 29.27200
H  44.71400 16.02300 33.55100
H  41.79500 18.22200 35.54200
H  43.07700 19.31000 35.79300
H  42.93700 17.87500 36.79400
Mg 43.00400 41.74400 26.09100
C  41.66200 43.97700 28.48500
C  44.35000 39.77300 28.64200
C  44.41000 39.77100 23.75000
C  42.01100 43.95300 23.54500
N  42.88000 41.93000 28.28800
C  42.20400 42.79900 29.09400
C  42.36500 42.49300 30.58800
C  43.53900 41.43600 30.51200
C  43.63800 40.98500 29.06000
C  44.89800 41.85300 31.04100
C  41.03200 42.07000 31.27100
C  41.13800 41.61000 32.76900
H  40.62600 42.59800 33.83700
N  44.22000 39.98700 26.18100
C  44.55300 39.29300 27.29300
C  45.30300 38.13400 26.91200
C  45.32900 38.06300 25.47500
C  44.58500 39.27100 25.07400
C  46.04900 37.24900 27.89800
C  45.87600 37.04900 24.60100
O  45.75900 37.10500 23.35000
C  46.29000 35.75600 25.20300
N  43.25100 41.93800 24.00400
C  43.80900 40.99600 23.27400
C  43.79500 41.32000 21.72200
C  43.01100 42.61900 21.67100
C  42.74100 42.88000 23.12400
C  45.22200 41.48100 21.30100
C  41.76000 42.52900 20.79100
C  40.37500 42.31000 21.41300
N  42.10000 43.58800 25.97500
C  41.68800 44.30000 24.89900
C  41.08700 45.54900 25.36400
C  41.01200 45.46000 26.71700
C  41.58400 44.21600 27.05600
C  40.70400 46.69600 24.52100
C  40.55100 46.07700 27.94300
O  40.00200 47.11800 28.15400
C  40.91300 45.13600 29.08900
C  41.69200 45.88200 30.08500
O  42.75000 46.43800 29.91700
O  41.01400 45.87900 31.24600
C  41.76400 46.35500 32.42000
H  44.63600 39.17200 29.50800
H  44.80400 39.09100 22.99300
H  41.56300 44.55700 22.75300
H  42.66200 43.38500 31.14000
H  43.33000 40.49600 31.02300
H  45.60400 41.79800 30.21300
H  45.16000 41.12200 31.80600
H  44.89900 42.88400 31.39600
H  40.62800 41.23500 30.69900
H  40.43000 42.95900 31.08500
H  42.09700 41.19100 33.07300
H  40.46300 40.75800 32.85200
H  46.96300 36.94800 27.38700
H  45.42600 36.41800 28.23000
H  46.29600 37.80700 28.80100
H  45.48600 35.28000 25.76200
H  47.22400 35.93200 25.73700
H  46.72000 35.15000 24.40600
H  43.38600 40.44000 21.22800
H  43.51400 43.53200 21.35100
H  45.81100 41.88600 22.12400
H  45.25200 42.26000 20.53800
H  45.68000 40.58300 20.88700
H  41.82600 41.61900 20.19400
H  41.68400 43.33700 20.06300
H  39.67800 43.11100 21.16600
H  40.29800 42.08500 22.47700
H  39.92400 41.44100 20.93500
H  41.33600 47.54500 24.78000
H  39.64900 46.94000 24.64200
H  40.95800 46.51900 23.47600
H  39.99400 44.76400 29.54100
H  42.74500 45.88200 32.39100
H  41.22400 46.11700 33.33600
H  41.80400 47.43600 32.55200

