158

Mg 24.29600 -5.27400 46.24900
C  26.53000 -2.88000 44.77100
C  21.83100 -4.14000 43.99300
C  22.62500 -7.93400 46.91300
C  26.87200 -6.24900 48.24600
N  24.25400 -3.79300 44.56900
C  25.22100 -2.87200 44.24200
C  24.78000 -2.04200 43.05300
C  23.18400 -2.14200 43.17200
C  23.13000 -3.48600 43.98300
C  22.45100 -0.92500 43.88800
C  25.36500 -2.69500 41.77000
C  26.32800 -1.83200 40.90400
H  26.14300 -1.81700 39.40000
N  22.39100 -5.88700 45.57200
C  21.55400 -5.32600 44.67400
C  20.37200 -6.19200 44.49100
C  20.55000 -7.25600 45.45500
C  21.85900 -7.04500 46.06900
C  19.32900 -5.91200 43.42700
C  19.56400 -8.36700 45.66500
O  18.51700 -8.27600 45.01900
C  19.83000 -9.56300 46.61800
N  24.70700 -6.91400 47.39000
C  23.85500 -7.94800 47.56200
C  24.42800 -8.91300 48.62800
C  25.76300 -8.30400 49.13400
C  25.80800 -7.06900 48.19000
C  23.45800 -9.24400 49.77100
C  27.02900 -9.30300 48.97400
C  27.11300 -10.36000 50.06500
N  26.33400 -4.75400 46.48300
C  27.22500 -5.18500 47.40900
C  28.48900 -4.48900 47.23800
C  28.30300 -3.57500 46.18900
C  26.95200 -3.78600 45.76300
C  29.75600 -4.67100 48.05900
C  28.95400 -2.58000 45.36000
O  30.07100 -2.08900 45.33400
C  27.75300 -2.06400 44.32800
C  27.57700 -0.60200 44.37900
O  27.15100 0.00400 45.38700
O  28.06700 -0.12900 43.18800
C  28.27600 1.30900 43.18100
H  21.10100 -3.75700 43.27700
H  22.05000 -8.85300 47.04700
H  27.75000 -6.46500 48.85800
H  25.09700 -1.00000 43.09500
H  22.82100 -2.27400 42.15200
H  23.13800 -0.41700 44.56400
H  21.66500 -1.36700 44.50100
H  22.00700 -0.26200 43.14400
H  24.65900 -3.21100 41.11900
H  26.01900 -3.53300 42.01000
H  27.31400 -2.25900 41.08500
H  26.39200 -0.81600 41.29400
H  19.78600 -5.29500 42.65300
H  18.45800 -5.42700 43.86900
H  18.93700 -6.87100 43.08800
H  19.83400 -9.18700 47.64100
H  20.49200 -10.37400 46.31700
H  18.89000 -10.10400 46.51300
H  24.63600 -9.86600 48.14100
H  25.64500 -7.85600 50.12000
H  23.07400 -10.25600 49.64000
H  22.62300 -8.54300 49.77200
H  23.93100 -9.20900 50.75200
H  27.97200 -8.79600 49.17700
H  27.07800 -9.82900 48.02100
H  27.23300 -11.32400 49.57100
H  26.13600 -10.39900 50.54800
H  27.87100 -10.10200 50.80400
H  29.84800 -3.98100 48.89800
H  30.67700 -4.47600 47.51000
H  29.72800 -5.71900 48.35800
H  28.04600 -2.38900 43.33000
H  27.66300 1.94700 43.81800
H  27.94100 1.70100 42.22000
H  29.31300 1.60500 43.33900
Mg -5.52200 25.58200 26.29100
C  -4.53300 27.42900 29.32300
C  -7.35700 23.59500 28.54500
C  -6.31700 23.72400 23.80100
C  -3.30000 27.53000 24.60300
N  -5.94700 25.59600 28.71600
C  -5.34900 26.36600 29.70600
C  -5.80600 25.85000 31.11900
C  -6.68100 24.57000 30.83700
C  -6.71700 24.59600 29.30300
C  -6.04100 23.21500 31.48000
C  -6.60400 26.89700 31.88800
C  -6.42000 27.01900 33.41800
H  -5.84400 25.93500 34.23800
N  -6.72000 23.98000 26.16900
C  -7.35000 23.27900 27.17500
C  -8.21600 22.22900 26.55400
C  -7.90400 22.26900 25.15900
C  -6.96900 23.34500 25.02700
C  -9.15700 21.36600 27.36900
C  -8.42400 21.39100 24.06100
O  -7.98800 21.38000 22.92300
C  -9.54400 20.37900 24.34600
N  -4.93800 25.66400 24.49000
C  -5.39200 24.71000 23.56800
C  -4.72300 24.88700 22.14700
C  -3.86900 26.26000 22.38000
C  -4.03100 26.45200 23.91200
C  -3.90200 23.60200 21.68600
C  -4.38300 27.65100 21.74100
C  -4.10700 27.82200 20.28900
N  -4.25100 27.18300 26.72700
C  -3.38600 27.83800 25.93100
C  -2.72600 28.87100 26.64800
C  -3.15600 28.78300 27.94200
C  -4.12900 27.75800 27.98000
C  -1.84100 29.85800 25.98000
C  -3.04000 29.32700 29.26300
O  -2.25900 30.20000 29.64900
C  -3.83200 28.47800 30.19400
C  -2.83600 27.79100 31.05300
O  -2.19400 26.80900 30.66300
O  -2.69300 28.35000 32.27500
C  -1.97300 27.50700 33.27700
H  -7.78500 22.84200 29.21000
H  -6.50200 23.14800 22.89200
H  -2.66700 28.24000 24.06700
H  -4.91500 25.59200 31.69100
H  -7.73000 24.70100 31.10300
H  -6.78900 22.65100 32.03600
H  -5.24800 23.54000 32.15300
H  -5.64400 22.56300 30.70100
H  -7.61000 26.93900 31.47000
H  -6.18400 27.77300 31.39400
H  -7.44300 27.03400 33.79200
H  -5.84400 27.94000 33.50900
H  -10.10600 21.11900 26.89400
H  -9.34100 21.74900 28.37300
H  -8.63000 20.42700 27.53800
H  -9.38100 19.67400 25.16100
H  -9.63700 19.76100 23.45200
H  -10.48600 20.91500 24.46100
H  -5.34000 24.99800 21.25600
H  -2.82100 26.11800 22.11600
H  -2.86400 23.77100 21.39900
H  -4.27300 23.23600 20.72900
H  -4.02200 22.71400 22.30700
H  -4.11100 28.51400 22.34800
H  -5.46700 27.54900 21.77900
H  -3.91100 26.82800 19.88700
H  -3.17600 28.38900 20.30000
H  -4.86000 28.40100 19.75500
H  -2.35900 30.34500 25.15400
H  -1.05600 29.34400 25.42600
H  -1.34800 30.56400 26.64900
H  -4.54900 29.04300 30.78900
H  -2.06200 26.42900 33.14000
H  -2.32700 27.82100 34.25800
H  -0.89900 27.69000 33.24200

