158

Mg 1.79900 -1.25100 44.53000
C  4.95500 -0.04000 43.52800
C  0.42400 1.49300 42.95500
C  -1.29600 -2.68400 44.70900
C  3.20900 -4.12900 45.69600
N  2.63500 0.41100 43.33500
C  3.94300 0.71900 43.08800
C  4.06500 2.07000 42.43800
C  2.67700 2.70500 42.73600
C  1.83000 1.48700 43.01700
C  2.72100 3.77600 43.87100
C  4.48600 2.02900 41.00700
C  5.93800 2.50700 40.72100
H  6.86200 1.75900 39.77100
N  -0.20000 -0.64900 43.82400
C  -0.54300 0.50500 43.26500
C  -1.99300 0.54000 42.99700
C  -2.46200 -0.63100 43.66100
C  -1.32200 -1.38000 44.13200
C  -2.68900 1.70000 42.28900
C  -3.99800 -0.89200 43.77900
O  -4.82100 -0.04400 43.44100
C  -4.50800 -2.03100 44.48700
N  1.06100 -3.23000 44.98600
C  -0.28800 -3.57700 45.12800
C  -0.46200 -5.02800 45.70200
C  0.99100 -5.32100 46.11000
C  1.82900 -4.20700 45.53400
C  -1.53700 -5.19400 46.74900
C  1.51900 -6.72800 45.70900
C  1.58600 -7.77300 46.83300
N  3.73400 -1.95200 44.63700
C  4.12400 -3.09400 45.25400
C  5.63100 -3.08300 45.35400
C  6.02900 -1.84200 44.70400
C  4.81900 -1.28800 44.25300
C  6.51600 -4.24800 45.88100
C  7.11700 -1.02700 44.27700
O  8.33100 -1.16100 44.51100
C  6.46800 0.16700 43.46600
C  6.86800 1.41400 44.23600
O  6.44000 1.74800 45.31000
O  7.81300 2.08300 43.59000
C  8.21200 3.40200 44.25000
H  0.08000 2.44800 42.55300
H  -2.25100 -3.20700 44.80000
H  3.60600 -5.03500 46.15800
H  4.81000 2.67100 42.96000
H  2.22000 3.16400 41.86000
H  3.68000 3.65000 44.37500
H  1.94500 3.55200 44.60400
H  2.73600 4.67400 43.25300
H  3.85700 2.65600 40.37500
H  4.28900 0.99100 40.73600
H  6.56400 2.62700 41.60600
H  5.92100 3.46800 40.20800
H  -3.34800 1.34100 41.49800
H  -2.03600 2.43900 41.82400
H  -3.32300 2.23100 42.99900
H  -5.59500 -1.96500 44.53600
H  -4.21600 -2.01800 45.53700
H  -4.27700 -2.93800 43.93000
H  -0.83200 -5.57400 44.83400
H  1.05900 -5.26200 47.19600
H  -2.12800 -6.04700 46.41400
H  -2.19200 -4.32500 46.80800
H  -1.05200 -5.35300 47.71200
H  2.51800 -6.64900 45.28100
H  0.80800 -7.07500 44.95900
H  2.65000 -7.90500 47.03200
H  1.12200 -8.70800 46.52100
H  1.07300 -7.35600 47.70000
H  7.12100 -4.67000 45.07800
H  5.84700 -5.04900 46.19600
H  7.11500 -3.77000 46.65600
H  6.85100 0.21600 42.44600
H  9.10700 3.90100 43.87700
H  8.35600 3.28000 45.32300
H  7.39000 4.11400 44.18600
Mg 16.68700 52.45400 26.39700
C  18.41300 50.90200 29.12400
C  14.11700 53.19400 28.63300
C  14.84600 53.52600 23.75900
C  18.79200 50.69000 24.17300
N  16.28700 51.95700 28.60500
C  17.19100 51.49900 29.53500
C  16.75900 51.74800 30.92800
C  15.23700 52.13800 30.71600
C  15.18900 52.51200 29.19300
C  14.17700 51.10500 31.29000
C  17.65700 52.83300 31.58300
C  18.01300 52.59400 33.10900
H  17.05500 51.68600 33.91000
N  14.77000 53.47600 26.27700
C  13.91800 53.61900 27.27300
C  12.74700 54.41200 26.75200
C  12.96700 54.57400 25.31100
C  14.19300 53.81100 25.07200
C  11.65300 54.87800 27.62100
C  12.09400 55.25000 24.25600
O  12.52000 55.31800 23.08700
C  10.84400 55.91900 24.69600
N  16.81200 52.17700 24.29600
C  16.04100 52.86000 23.40300
C  16.51800 52.63600 21.93700
C  17.91800 52.03200 22.15200
C  17.78000 51.45100 23.61100
C  15.60200 51.76300 21.11300
C  19.15900 52.95600 21.93400
C  20.15900 52.55600 20.80600
N  18.34500 51.13300 26.54000
C  19.10000 50.54100 25.54600
C  20.19300 49.79000 26.20000
C  19.96900 49.89400 27.54800
C  18.80100 50.68400 27.71800
C  21.31600 49.02500 25.53500
C  20.46400 49.58100 28.83400
O  21.41400 48.96000 29.25200
C  19.48900 50.21600 29.91700
C  18.92300 49.03500 30.66700
O  18.26700 48.18500 30.10000
O  19.10500 49.17400 31.99100
C  18.80000 48.04900 32.89400
H  13.33100 53.36000 29.37200
H  14.41900 54.00100 22.87300
H  19.48800 50.29300 23.43100
H  16.81200 50.76300 31.39100
H  15.05200 53.09800 31.19800
H  14.58000 50.18100 31.70400
H  13.56100 50.81100 30.43900
H  13.74600 51.64300 32.13400
H  17.12700 53.78000 31.48700
H  18.60100 52.85900 31.03900
H  17.94000 53.63400 33.42600
H  19.02900 52.22500 33.24400
H  10.65400 54.58200 27.30100
H  11.73200 55.96400 27.67700
H  11.69300 54.52000 28.65000
H  11.04700 56.62700 25.49900
H  10.09400 55.18400 24.98900
H  10.38600 56.43900 23.85400
H  16.59600 53.66900 21.59800
H  18.00500 51.15500 21.51100
H  16.16000 51.26000 20.32300
H  14.83600 52.39100 20.65700
H  14.97000 51.02200 21.60100
H  19.85000 52.80600 22.76300
H  18.97600 54.02700 21.85600
H  20.16700 53.38000 20.09200
H  19.74200 51.67700 20.31500
H  21.15700 52.46900 21.23500
H  21.89100 48.38100 26.20000
H  22.03800 49.75500 25.16800
H  20.95500 48.29300 24.81400
H  20.08400 50.86700 30.55800
H  19.60000 47.95500 33.63000
H  18.89800 47.06900 32.42700
H  17.80700 48.08600 33.34300

