158

Mg 30.36300 57.80300 39.98900
C  27.55200 56.04600 38.98600
C  32.39200 55.36600 38.70800
C  32.90500 59.99300 40.04600
C  28.18700 60.55100 40.58500
N  30.01900 55.90400 39.01300
C  28.75500 55.37800 38.76700
C  28.89400 54.11700 37.88000
C  30.42300 53.72500 38.05700
C  31.01900 55.09800 38.61800
C  30.60400 52.61400 39.04600
C  28.54000 54.45400 36.34400
C  27.37000 53.78800 35.65900
H  26.66700 54.71100 34.62200
N  32.40300 57.67500 39.56800
C  33.06500 56.59000 39.03600
C  34.47600 56.90500 39.12400
C  34.64800 58.20600 39.63800
C  33.27100 58.66400 39.81000
C  35.43500 55.89500 38.66600
C  36.00400 58.86000 39.80200
O  37.05000 58.25300 39.60300
C  36.10800 60.31200 40.36100
N  30.48600 60.03600 40.17600
C  31.71900 60.67300 40.16900
C  31.52200 62.12700 40.61000
C  29.93300 62.28200 40.83300
C  29.52600 60.90400 40.53200
C  32.26300 62.70200 41.87400
C  29.22000 63.44200 40.01800
C  28.27100 64.39000 40.76300
N  28.20800 58.21300 40.01900
C  27.49500 59.28300 40.29900
C  26.08300 58.98200 40.26300
C  26.05300 57.66100 39.76100
C  27.44500 57.31300 39.52000
C  24.96300 59.85000 40.58100
C  25.19000 56.55000 39.22400
O  23.97500 56.56500 39.01000
C  26.15100 55.41600 38.72800
C  25.96100 54.22200 39.57900
O  26.54800 54.04000 40.65400
O  25.23900 53.27900 38.84100
C  24.51400 52.33600 39.65100
H  33.00800 54.49000 38.49800
H  33.69600 60.74500 40.08600
H  27.51000 61.39200 40.74600
H  28.17000 53.35400 38.16600
H  30.91700 53.51900 37.10700
H  29.72400 52.40700 39.65500
H  31.44200 52.89100 39.68600
H  30.98100 51.73100 38.53100
H  29.48600 54.41200 35.80300
H  28.28600 55.51300 36.33300
H  26.63800 53.42700 36.38200
H  27.71100 52.93500 35.07300
H  35.91500 56.10500 37.71000
H  35.00500 54.91000 38.48400
H  36.19700 55.91700 39.44500
H  35.62500 60.95800 39.62800
H  37.17700 60.47900 40.49600
H  35.65900 60.40900 41.34900
H  31.75100 62.70100 39.71200
H  29.75700 62.31500 41.90800
H  33.04100 62.06000 42.28900
H  31.60400 63.06600 42.66200
H  32.86700 63.54800 41.54700
H  28.70300 63.20100 39.09000
H  30.05200 64.09000 39.74300
H  27.34200 64.22800 40.21700
H  28.43800 65.46600 40.71200
H  28.13300 64.15500 41.81800
H  24.06200 59.24900 40.70300
H  24.76100 60.52100 39.74600
H  25.09200 60.44800 41.48300
H  26.09800 55.08400 37.69100
H  24.46100 52.69800 40.67800
H  25.00000 51.36000 39.66700
H  23.48300 52.14800 39.34900
Mg 16.53500 51.52300 25.36500
C  18.20400 50.38900 28.20700
C  13.81500 52.47600 27.33000
C  15.06100 52.70100 22.66500
C  19.18500 50.26100 23.50000
N  16.08900 51.37100 27.50500
C  16.92600 50.92500 28.51500
C  16.33700 51.24600 29.92300
C  14.87400 51.70000 29.60700
C  14.93100 51.86900 28.02400
C  13.89700 50.65500 30.10300
C  17.22300 52.25300 30.69900
C  17.61300 51.87600 32.13200
H  17.17300 52.98400 33.16600
N  14.64100 52.42500 25.02000
C  13.70000 52.77300 25.94400
C  12.59100 53.43600 25.26400
C  12.90700 53.50600 23.94800
C  14.28300 52.89000 23.81600
C  11.33600 54.04200 25.98000
C  12.02800 54.01400 22.75200
O  12.31700 53.84200 21.62900
C  10.86200 54.85100 23.08000
N  16.99400 51.36200 23.30900
C  16.26200 52.04900 22.39700
C  17.06300 52.25400 21.09100
C  18.41800 51.48500 21.41000
C  18.18600 50.98100 22.85300
C  16.29600 51.80200 19.85500
C  19.67900 52.35300 21.36400
C  20.93200 51.54800 21.08100
N  18.21600 50.49900 25.76000
C  19.25200 50.03700 24.92700
C  20.26700 49.39600 25.64900
C  19.91500 49.54900 26.94100
C  18.67400 50.18800 26.96000
C  21.54200 48.75800 25.17500
C  20.35000 49.30100 28.24900
O  21.33600 48.71600 28.71300
C  19.21100 49.92000 29.23900
C  18.69300 48.87200 30.21500
O  17.85500 48.02000 29.96200
O  19.44700 48.98000 31.40400
C  19.25800 48.06200 32.48000
H  12.96800 52.83700 27.91800
H  14.59500 53.16700 21.79500
H  19.99700 49.90400 22.86300
H  16.37400 50.27200 30.41100
H  14.78200 52.64600 30.14100
H  12.98900 51.12900 30.47500
H  14.29000 50.04600 30.91700
H  13.66800 50.08700 29.20100
H  16.75300 53.23000 30.80600
H  18.19000 52.40800 30.22000
H  18.70000 51.81100 32.10100
H  17.18600 50.92700 32.45900
H  11.31000 55.11300 25.78100
H  11.42200 53.76800 27.03100
H  10.41700 53.52500 25.70400
H  11.03100 55.82900 23.53000
H  10.07200 54.24600 23.52400
H  10.32000 55.08200 22.16300
H  17.30900 53.31300 21.02300
H  18.53800 50.60600 20.77800
H  16.78700 51.14900 19.13400
H  15.89400 52.68700 19.36000
H  15.36800 51.28100 20.09000
H  19.68500 52.83000 22.34400
H  19.54500 53.16400 20.64900
H  20.65300 50.55800 20.72200
H  21.64600 51.48000 21.90200
H  21.47400 52.02500 20.26400
H  21.29000 47.82800 24.66500
H  22.13100 48.46200 26.04300
H  22.18900 49.33700 24.51700
H  19.72100 50.74800 29.73200
H  18.40400 48.25100 33.13200
H  20.14500 47.84000 33.07300
H  19.04000 47.08600 32.04700

