158

Mg -1.75600 17.82300 26.36400
C  -2.16800 15.74800 29.06900
C  -2.63900 20.56100 28.28300
C  -2.00700 19.71900 23.56900
C  -1.59200 14.97600 24.28500
N  -2.19000 18.04300 28.44100
C  -2.36400 17.07700 29.41700
C  -2.82100 17.65800 30.74700
C  -3.18000 19.09900 30.39800
C  -2.63300 19.31000 28.97500
C  -4.72100 19.31500 30.38600
C  -1.75300 17.51900 31.76100
C  -2.13800 16.93200 33.04900
H  -1.07300 16.37900 33.88700
N  -1.96700 19.84900 26.02100
C  -2.25500 20.81900 26.93800
C  -2.00800 22.14000 26.36500
C  -1.84800 21.93400 24.97400
C  -1.92000 20.41200 24.79500
C  -2.20000 23.36700 27.18100
C  -1.61300 22.98900 23.84700
O  -1.52800 22.69900 22.64300
C  -1.28100 24.48900 24.27600
N  -2.00800 17.43500 24.20300
C  -2.13100 18.41100 23.28500
C  -2.09200 17.90100 21.84100
C  -1.68700 16.36400 22.12800
C  -1.72700 16.23500 23.61700
C  -3.40700 17.97600 21.03400
C  -0.32900 15.99200 21.48800
C  0.86400 16.56700 22.15900
N  -1.74800 15.73600 26.59600
C  -1.66600 14.68200 25.62300
C  -1.73300 13.43400 26.34700
C  -1.99200 13.79500 27.68600
C  -1.87800 15.22200 27.79700
C  -1.85700 12.08000 25.68900
C  -2.39700 13.27600 28.95400
O  -2.55600 12.12400 29.33500
C  -2.35900 14.48000 29.98900
C  -1.51700 14.12800 31.14900
O  -0.32300 14.11000 31.06500
O  -2.20200 13.72900 32.29500
C  -1.44700 12.95400 33.28300
H  -3.02900 21.33700 28.94500
H  -2.00200 20.27000 22.62600
H  -1.51800 14.16600 23.55600
H  -3.63000 16.98500 31.03300
H  -2.70600 19.74100 31.14100
H  -5.13100 19.73700 29.46900
H  -4.99400 19.97100 31.21300
H  -5.26900 18.43400 30.72400
H  -1.30700 18.49100 31.97400
H  -0.97700 16.89800 31.31400
H  -2.95500 16.22300 32.91600
H  -2.51200 17.82100 33.55700
H  -2.54300 23.07500 28.17300
H  -3.03700 23.96600 26.82300
H  -1.35400 24.01400 27.41100
H  -2.09800 24.88600 24.87800
H  -1.13000 25.13700 23.41300
H  -0.33900 24.50800 24.82500
H  -1.26800 18.46100 21.39800
H  -2.43900 15.70400 21.69500
H  -4.15500 18.54900 21.58400
H  -3.74600 16.96100 20.82800
H  -3.35000 18.56300 20.11800
H  -0.33900 16.32100 20.44900
H  -0.26500 14.90700 21.57800
H  1.55800 15.90200 22.67200
H  0.49600 17.34000 22.83400
H  1.47400 17.05400 21.39900
H  -1.00000 11.90400 25.03900
H  -2.74600 11.98600 25.06400
H  -1.88100 11.31100 26.46100
H  -3.37100 14.64000 30.36200
H  -1.57200 13.51700 34.20800
H  -0.36200 12.90800 33.19400
H  -1.82300 11.93600 33.38600
Mg 52.64600 24.22700 44.44000
C  49.77900 26.19300 43.90900
C  50.91200 21.46200 43.54800
C  55.47000 22.40400 44.54200
C  54.47200 27.15900 45.04000
N  50.57300 23.89600 43.73300
C  49.55600 24.81300 43.68700
C  48.29900 24.04200 43.46300
C  48.62600 22.55400 43.47700
C  50.14900 22.66400 43.53900
C  48.01500 21.68400 44.70200
C  47.48000 24.40900 42.16400
C  48.25900 24.32700 40.81300
H  47.60000 23.46300 39.70200
N  53.17200 22.19800 43.96500
C  52.29600 21.21200 43.76000
C  52.94300 19.95300 43.68000
C  54.36000 20.18300 43.93200
C  54.41800 21.65100 44.16300
C  52.32000 18.60700 43.36100
C  55.49400 19.16300 44.00700
O  55.20500 17.99000 43.81800
C  56.92800 19.47100 44.50500
N  54.72200 24.76500 44.48800
C  55.63200 23.74900 44.80400
C  56.99700 24.35800 45.12100
C  56.68200 25.93700 45.13200
C  55.17000 25.96700 44.82300
C  57.57900 23.73300 46.48700
C  57.51800 26.81000 44.11700
C  58.69400 27.64700 44.71300
N  52.26600 26.25800 44.56000
C  53.06500 27.33800 44.88700
C  52.24900 28.50800 45.09800
C  50.95100 28.12700 44.64900
C  51.00800 26.75900 44.31500
C  52.69400 29.92100 45.59100
C  49.57000 28.48000 44.51500
O  48.96400 29.55500 44.71800
C  48.77200 27.34800 43.88500
C  48.33000 27.83500 42.60100
O  48.95400 27.63300 41.51800
O  47.15600 28.51200 42.71400
C  46.61100 28.95600 41.43100
H  50.33600 20.57500 43.27800
H  56.35800 21.84600 44.84700
H  55.06700 28.04700 45.26400
H  47.71700 24.19400 44.37200
H  48.19900 22.06100 42.60300
H  47.92800 22.30100 45.59700
H  48.78000 20.92800 44.88100
H  47.07700 21.20100 44.43100
H  47.12100 25.43800 42.16700
H  46.62800 23.73200 42.23100
H  49.26000 23.91600 40.93800
H  48.34500 25.35500 40.46000
H  52.49700 18.24400 42.34800
H  51.24700 18.56200 43.54700
H  52.65600 17.73000 43.91400
H  57.52500 18.56200 44.43900
H  56.88100 19.67100 45.57500
H  57.45000 20.31500 44.05400
H  57.67400 24.09400 44.30800
H  56.87800 26.30800 46.13800
H  58.50100 23.19000 46.27800
H  56.83300 23.09700 46.96300
H  57.79100 24.58600 47.13100
H  56.87700 27.36900 43.43600
H  57.97800 26.03100 43.50800
H  59.59100 27.26200 44.22900
H  58.67900 27.57100 45.80000
H  58.70800 28.72200 44.53300
H  52.26000 30.57800 44.83700
H  53.76500 30.08800 45.47600
H  52.44800 30.07300 46.64200
H  47.96600 27.24100 44.61100
H  46.90100 30.00200 41.33200
H  45.53200 28.93700 41.58600
H  46.71400 28.27500 40.58700

