158

Mg -2.22800 17.41000 26.42900
C  -2.27200 15.12800 29.09600
C  -2.76600 19.93300 28.70600
C  -2.50900 19.64800 23.85400
C  -1.94100 14.89500 24.18800
N  -2.68900 17.59300 28.62300
C  -2.35100 16.51000 29.49300
C  -2.38600 16.94200 30.97800
C  -2.74300 18.46200 30.84600
C  -2.69200 18.75400 29.31900
C  -4.08800 18.84900 31.50800
C  -1.14300 16.56800 31.80300
C  -1.00000 17.28500 33.18100
H  -0.92100 16.37700 34.48300
N  -2.61200 19.44500 26.34100
C  -2.79600 20.35800 27.39700
C  -2.92400 21.68400 26.89500
C  -2.96500 21.63200 25.46200
C  -2.70600 20.16800 25.15800
C  -3.15300 22.87400 27.68400
C  -3.20400 22.66300 24.38800
O  -3.10800 22.44800 23.15100
C  -3.42300 24.11900 24.71300
N  -2.16600 17.34500 24.30900
C  -2.27700 18.31600 23.42300
C  -2.27400 17.90500 21.94400
C  -2.02000 16.43100 22.10000
C  -1.96400 16.21300 23.60000
C  -3.55500 18.25500 21.17000
C  -0.86200 15.77600 21.33300
C  -0.96200 14.38500 20.81400
N  -2.23300 15.39500 26.51100
C  -1.93200 14.48700 25.52400
C  -1.93700 13.13600 26.06400
C  -1.98200 13.39200 27.44800
C  -2.20000 14.75200 27.69100
C  -1.92700 11.88300 25.27500
C  -2.09100 12.71700 28.68000
O  -2.11100 11.48600 28.91900
C  -2.22700 13.78500 29.85000
C  -1.06600 13.49100 30.77700
O  0.11900 13.82300 30.69200
O  -1.62100 12.76600 31.81100
C  -0.75900 12.39900 32.98300
H  -2.57500 20.70200 29.45800
H  -2.70500 20.28300 22.98800
H  -1.73200 14.14500 23.42200
H  -3.22300 16.40800 31.42700
H  -1.93600 18.98500 31.35900
H  -4.06600 18.82400 32.59700
H  -4.99500 18.38700 31.11600
H  -4.29000 19.90200 31.30900
H  -0.25200 16.70700 31.19100
H  -1.14200 15.49500 31.99200
H  -1.82400 17.98800 33.30300
H  -0.08200 17.86800 33.25200
H  -3.10400 22.70000 28.75900
H  -4.12700 23.30400 27.44900
H  -2.35700 23.58300 27.45900
H  -3.81600 24.72100 23.89300
H  -2.49000 24.62700 24.95600
H  -4.04900 24.25700 25.59500
H  -1.39800 18.37000 21.49300
H  -2.93800 15.91900 21.81200
H  -4.14100 17.42300 20.77800
H  -3.25400 18.78000 20.26300
H  -4.20800 18.79300 21.85700
H  0.04500 15.86600 21.93100
H  -0.67900 16.39700 20.45600
H  -0.30100 13.69600 21.33900
H  -0.84900 14.38200 19.72900
H  -1.99900 14.06100 20.90700
H  -1.60100 11.96900 24.23800
H  -2.93600 11.47500 25.22700
H  -1.33000 11.09000 25.72400
H  -3.19100 13.55300 30.30300
H  -0.38300 11.38100 32.87500
H  -1.34900 12.43400 33.89900
H  0.07900 13.06600 33.18100
Mg 35.60000 48.90700 25.14800
C  35.86500 47.15300 28.35200
C  34.31400 51.48300 26.80500
C  34.80500 50.28000 22.15100
C  36.70500 45.95800 23.71200
N  35.06700 49.22200 27.31600
C  35.40500 48.50200 28.48700
C  35.09900 49.22200 29.83300
C  34.48900 50.52800 29.24800
C  34.65500 50.47500 27.68800
C  33.03400 50.98900 29.55600
C  36.33300 49.54600 30.79300
C  36.27600 49.05100 32.33500
H  34.87900 48.89000 32.98800
N  34.88200 50.67400 24.51600
C  34.40500 51.65100 25.40300
C  34.05800 52.86700 24.68700
C  34.04100 52.48800 23.25700
C  34.60200 51.08600 23.23500
C  33.62500 54.16600 25.28300
C  33.57100 53.25700 22.05200
O  33.63100 52.88800 20.86700
C  33.01500 54.69000 22.27800
N  35.67600 48.18400 23.18300
C  35.36500 48.90400 22.08900
C  35.81100 48.16300 20.79800
C  36.71500 47.00200 21.34200
C  36.30800 47.00800 22.83200
C  34.65000 47.70000 19.89700
C  38.21800 47.31300 21.13700
C  39.22400 46.19100 21.57700
N  35.99100 46.90800 25.83400
C  36.37300 45.80000 25.09400
C  36.63300 44.68800 25.99000
C  36.46000 45.17700 27.24700
C  36.03600 46.53500 27.08900
C  37.11100 43.34600 25.58200
C  36.48800 44.80100 28.65600
O  36.82300 43.71800 29.21700
C  36.03300 46.09900 29.37700
C  34.80100 45.76900 30.03800
O  33.74300 46.27800 29.84000
O  35.09200 44.98400 31.13300
C  34.00300 44.72100 32.11000
H  34.08700 52.46900 27.21500
H  34.66400 50.69700 21.15100
H  37.11300 45.13400 23.12300
H  34.27600 48.67800 30.29700
H  35.19000 51.31000 29.54000
H  33.02900 52.00700 29.94600
H  32.73500 50.38300 30.41100
H  32.32900 50.80600 28.74500
H  36.58800 50.59500 30.94300
H  37.27100 49.17600 30.37700
H  37.03100 49.56100 32.93300
H  36.62200 48.01800 32.33200
H  32.58200 54.14500 25.59700
H  33.83800 55.14200 24.84700
H  34.07400 54.28500 26.26900
H  33.65100 55.50400 22.62700
H  32.22300 54.83400 23.01300
H  32.52600 55.06100 21.37700
H  36.32300 48.93800 20.22600
H  36.50800 45.99500 20.98100
H  33.66500 47.75200 20.36000
H  34.83600 46.67200 19.58400
H  34.72700 48.31700 19.00300
H  38.43200 48.29000 21.57000
H  38.33100 47.35600 20.05400
H  39.83100 46.41100 22.45600
H  39.88300 45.91900 20.75200
H  38.71600 45.27200 21.86900
H  36.33400 42.58900 25.68800
H  38.04700 42.99000 26.01100
H  37.19300 43.30600 24.49500
H  36.82500 46.42900 30.04900
H  33.17000 44.41600 31.47700
H  33.83200 45.56000 32.78500
H  34.16000 43.81600 32.69600

