158

Mg 47.34600 34.47400 26.89000
C  45.32400 33.06800 29.42300
C  47.58000 37.22700 28.66800
C  48.97700 35.80100 24.25500
C  46.72900 31.58400 24.92300
N  46.59300 34.99300 28.82000
C  45.85200 34.27300 29.74100
C  46.12700 34.88000 31.16700
C  46.44500 36.43100 30.84400
C  46.86600 36.24700 29.34000
C  45.38000 37.39900 31.19900
C  47.31200 34.20200 31.80500
C  47.67200 34.48100 33.25800
H  46.70100 35.21700 34.21400
N  48.15800 36.23500 26.46900
C  48.16900 37.27900 27.37600
C  48.91000 38.37200 26.83600
C  49.18200 38.00200 25.50800
C  48.75000 36.65500 25.37600
C  49.26500 39.63300 27.57900
C  49.72100 38.83400 24.29600
O  49.73800 38.34000 23.15600
C  50.07100 40.30100 24.39000
N  47.67200 33.83200 24.79000
C  48.37700 34.63700 23.93200
C  48.59900 34.02500 22.58200
C  48.10800 32.52900 22.88500
C  47.47400 32.60700 24.26600
C  47.95300 34.79000 21.41700
C  49.20000 31.44300 22.79800
C  48.82100 30.35200 21.75300
N  46.21800 32.71000 27.05200
C  46.14400 31.56500 26.19700
C  45.42300 30.48800 26.90400
C  44.99800 31.05400 28.09400
C  45.52400 32.42500 28.14500
C  45.15900 29.05000 26.42000
C  44.29700 30.83500 29.32800
O  43.72700 29.80200 29.70000
C  44.30000 32.16800 30.08800
C  44.53900 31.80200 31.53800
O  45.45800 31.12100 31.99500
O  43.59000 32.40600 32.29200
C  43.61800 32.13600 33.68200
H  47.62700 38.16300 29.22800
H  49.67600 36.10000 23.47100
H  46.60700 30.66100 24.35300
H  45.24300 34.75500 31.79200
H  47.28800 36.73700 31.46400
H  45.30500 38.12600 30.39000
H  45.61400 37.79200 32.18800
H  44.41900 36.88600 31.24400
H  48.17000 34.32100 31.14400
H  47.07900 33.13900 31.87300
H  48.46700 35.18600 33.01600
H  48.08600 33.57100 33.69300
H  50.32700 39.87800 27.57900
H  49.03000 39.59700 28.64200
H  48.72000 40.53600 27.30300
H  49.62500 40.75700 25.27400
H  49.43900 40.61600 23.55900
H  51.11800 40.50000 24.16100
H  49.66700 34.02400 22.36100
H  47.33100 32.27800 22.16200
H  48.67200 35.43200 20.90900
H  47.00500 35.31000 21.55700
H  47.82600 34.04100 20.63500
H  49.28200 30.91100 23.74600
H  50.12500 31.89700 22.44200
H  47.86100 30.47900 21.25400
H  48.72100 29.50300 22.42900
H  49.63000 30.12100 21.06000
H  45.82100 28.87100 25.57300
H  44.09400 28.94700 26.20900
H  45.30900 28.47500 27.33300
H  43.27900 32.54700 30.13300
H  42.68900 32.53800 34.08600
H  44.43500 32.70600 34.12500
H  43.81400 31.10100 33.96400
Mg 30.36300 57.80300 39.98900
C  27.55200 56.04600 38.98600
C  32.39200 55.36600 38.70800
C  32.90500 59.99300 40.04600
C  28.18700 60.55100 40.58500
N  30.01900 55.90400 39.01300
C  28.75500 55.37800 38.76700
C  28.89400 54.11700 37.88000
C  30.42300 53.72500 38.05700
C  31.01900 55.09800 38.61800
C  30.60400 52.61400 39.04600
C  28.54000 54.45400 36.34400
C  27.37000 53.78800 35.65900
H  26.66700 54.71100 34.62200
N  32.40300 57.67500 39.56800
C  33.06500 56.59000 39.03600
C  34.47600 56.90500 39.12400
C  34.64800 58.20600 39.63800
C  33.27100 58.66400 39.81000
C  35.43500 55.89500 38.66600
C  36.00400 58.86000 39.80200
O  37.05000 58.25300 39.60300
C  36.10800 60.31200 40.36100
N  30.48600 60.03600 40.17600
C  31.71900 60.67300 40.16900
C  31.52200 62.12700 40.61000
C  29.93300 62.28200 40.83300
C  29.52600 60.90400 40.53200
C  32.26300 62.70200 41.87400
C  29.22000 63.44200 40.01800
C  28.27100 64.39000 40.76300
N  28.20800 58.21300 40.01900
C  27.49500 59.28300 40.29900
C  26.08300 58.98200 40.26300
C  26.05300 57.66100 39.76100
C  27.44500 57.31300 39.52000
C  24.96300 59.85000 40.58100
C  25.19000 56.55000 39.22400
O  23.97500 56.56500 39.01000
C  26.15100 55.41600 38.72800
C  25.96100 54.22200 39.57900
O  26.54800 54.04000 40.65400
O  25.23900 53.27900 38.84100
C  24.51400 52.33600 39.65100
H  33.00800 54.49000 38.49800
H  33.69600 60.74500 40.08600
H  27.51000 61.39200 40.74600
H  28.17000 53.35400 38.16600
H  30.91700 53.51900 37.10700
H  29.72400 52.40700 39.65500
H  31.44200 52.89100 39.68600
H  30.98100 51.73100 38.53100
H  29.48600 54.41200 35.80300
H  28.28600 55.51300 36.33300
H  26.63800 53.42700 36.38200
H  27.71100 52.93500 35.07300
H  35.91500 56.10500 37.71000
H  35.00500 54.91000 38.48400
H  36.19700 55.91700 39.44500
H  35.62500 60.95800 39.62800
H  37.17700 60.47900 40.49600
H  35.65900 60.40900 41.34900
H  31.75100 62.70100 39.71200
H  29.75700 62.31500 41.90800
H  33.04100 62.06000 42.28900
H  31.60400 63.06600 42.66200
H  32.86700 63.54800 41.54700
H  28.70300 63.20100 39.09000
H  30.05200 64.09000 39.74300
H  27.34200 64.22800 40.21700
H  28.43800 65.46600 40.71200
H  28.13300 64.15500 41.81800
H  24.06200 59.24900 40.70300
H  24.76100 60.52100 39.74600
H  25.09200 60.44800 41.48300
H  26.09800 55.08400 37.69100
H  24.46100 52.69800 40.67800
H  25.00000 51.36000 39.66700
H  23.48300 52.14800 39.34900

