158

Mg 29.07700 57.86500 40.54700
C  26.39400 55.98300 39.59500
C  31.16200 55.75800 38.81200
C  31.45500 60.25300 40.60700
C  26.76300 60.33100 41.79700
N  28.75400 56.30900 39.06600
C  27.56700 55.56000 38.97200
C  27.72500 54.48100 37.91000
C  29.26300 54.20700 38.01800
C  29.83600 55.44100 38.71000
C  29.77300 52.88400 38.74600
C  27.14100 54.84300 36.59400
C  27.76800 56.06000 35.87200
H  27.88900 56.00600 34.33900
N  31.04900 57.90400 39.95200
C  31.72700 56.94800 39.31600
C  33.13300 57.18100 39.31600
C  33.25900 58.46600 39.94400
C  31.89200 58.97900 40.17500
C  34.21200 56.25900 38.78100
C  34.53900 59.11500 40.21100
O  35.56500 58.72500 39.78200
C  34.58200 60.24500 41.13900
N  29.08500 60.02000 41.07400
C  30.18200 60.76300 40.95400
C  30.02500 62.15200 41.53800
C  28.55000 62.10500 42.13700
C  28.07900 60.71800 41.68000
C  31.09600 62.53900 42.66200
C  27.67400 63.38900 41.81000
C  26.73200 63.78300 42.92100
N  27.00800 58.04100 40.83200
C  26.20300 59.08700 41.34200
C  24.88400 58.57900 41.39800
C  24.87500 57.41700 40.68100
C  26.19900 57.15100 40.33400
C  23.71900 59.21900 42.13400
C  24.08300 56.23500 40.21900
O  22.90900 55.97000 40.44000
C  25.09100 55.32300 39.34500
C  25.16100 54.00800 39.99700
O  25.45400 53.84600 41.19500
O  24.80800 53.06300 39.11400
C  24.70400 51.66700 39.61200
H  31.78900 54.93900 38.45300
H  32.32000 60.90700 40.73400
H  26.10000 61.13200 42.12900
H  27.19400 53.63400 38.34500
H  29.59300 54.16800 36.97900
H  30.42400 53.10400 39.59200
H  30.28400 52.22900 38.04000
H  28.99300 52.24100 39.15200
H  26.06900 54.99200 36.71600
H  27.28600 53.89500 36.07700
H  28.78700 56.15900 36.24600
H  27.26100 56.93400 36.27900
H  33.90500 55.21400 38.71900
H  35.12700 56.25900 39.37300
H  34.40900 56.63800 37.77800
H  34.48600 61.17100 40.57100
H  35.61600 60.17100 41.47600
H  33.91500 60.14800 41.99500
H  30.09000 62.79500 40.66000
H  28.65400 61.98800 43.21500
H  30.52700 62.63300 43.58700
H  31.63800 63.46200 42.45600
H  31.81000 61.71800 42.73000
H  27.10700 63.10600 40.92300
H  28.39100 64.16200 41.53400
H  26.88000 64.80400 43.27500
H  26.86300 63.19400 43.82900
H  25.68200 63.77500 42.62900
H  23.03400 58.40800 42.38400
H  23.25700 59.88000 41.40200
H  24.17400 59.75600 42.96600
H  24.73100 55.30400 38.31700
H  25.68200 51.26500 39.87300
H  24.32200 50.91900 38.91800
H  24.21500 51.65800 40.58700
Mg -6.40700 24.71200 26.19000
C  -4.85100 25.80000 29.24500
C  -8.50800 22.78500 28.03000
C  -7.45500 23.35500 23.25800
C  -4.16900 26.70700 24.48800
N  -6.74200 24.44100 28.37500
C  -6.00000 24.93700 29.45500
C  -6.66500 24.57900 30.79600
C  -7.74900 23.51200 30.41200
C  -7.76300 23.66700 28.85500
C  -7.48800 22.08600 30.99000
C  -7.06200 25.84300 31.65800
C  -6.53000 26.01300 33.04700
H  -5.87000 24.85500 33.85100
N  -7.82100 23.22600 25.73400
C  -8.58300 22.55700 26.63900
C  -9.44800 21.66100 25.90500
C  -9.18700 21.83900 24.48800
C  -8.09300 22.79500 24.45000
C  -10.45500 20.80000 26.59100
C  -9.94000 21.29000 23.28700
O  -9.51700 21.37600 22.13400
C  -11.13400 20.37500 23.56600
N  -5.82600 24.90400 24.23200
C  -6.38800 24.25300 23.17200
C  -5.78200 24.65800 21.81800
C  -4.71100 25.71700 22.26900
C  -4.86800 25.82300 23.74500
C  -5.17000 23.43400 21.01700
C  -4.81300 27.00200 21.51900
C  -4.11900 27.00900 20.12900
N  -4.86400 25.94400 26.70800
C  -4.06100 26.76000 25.85300
C  -3.10800 27.51600 26.66100
C  -3.42500 27.17000 27.94700
C  -4.45000 26.23700 27.95800
C  -2.06000 28.38700 26.10200
C  -3.02000 27.41700 29.31900
O  -2.15200 28.09200 29.74700
C  -3.92000 26.48800 30.20700
C  -3.06500 25.55900 30.93500
O  -2.67100 24.45000 30.52000
O  -2.65900 26.10500 32.12400
C  -1.58800 25.49100 32.83300
H  -9.04300 22.05900 28.64500
H  -7.88400 22.95900 22.33500
H  -3.40200 27.29800 23.98300
H  -5.93800 24.12400 31.46900
H  -8.75500 23.79400 30.72500
H  -7.31300 21.26900 30.29100
H  -8.30800 21.79400 31.64700
H  -6.58000 22.15300 31.58800
H  -8.15100 25.84700 31.71200
H  -6.76700 26.73000 31.09800
H  -7.32600 26.44200 33.65500
H  -5.73500 26.74400 32.90000
H  -11.44500 21.23900 26.46900
H  -10.30500 20.77400 27.67000
H  -10.49700 19.75900 26.27200
H  -11.45400 19.97100 22.60500
H  -11.92400 21.01500 23.96000
H  -11.01900 19.50300 24.21000
H  -6.60600 25.12600 21.28000
H  -3.69900 25.31300 22.23000
H  -5.19900 22.47600 21.53700
H  -4.09000 23.53300 20.91000
H  -5.58700 23.36000 20.01300
H  -4.51300 27.85100 22.13300
H  -5.88300 27.17300 21.39800
H  -3.54700 27.92900 20.00700
H  -4.89600 26.85400 19.38000
H  -3.45200 26.15700 20.00100
H  -1.57100 29.01300 26.84700
H  -2.35100 29.08000 25.31200
H  -1.24900 27.80100 25.67000
H  -4.44200 27.21100 30.83400
H  -1.33100 24.49500 32.47100
H  -1.95700 25.40200 33.85500
H  -0.59300 25.93500 32.84400

