158

Mg 1.74200 -1.82200 44.28900
C  4.82900 -0.60700 43.48000
C  0.30800 0.67000 42.30500
C  -1.37200 -3.25700 44.55100
C  3.11500 -4.54900 45.82200
N  2.53400 -0.26600 42.81900
C  3.85800 0.10600 42.74900
C  3.97500 1.41800 42.02700
C  2.53000 1.78700 41.68300
C  1.70900 0.62800 42.31900
C  2.13700 3.21900 42.15100
C  4.96600 1.45400 40.82700
C  5.86500 2.72500 40.60600
H  6.39800 3.08700 39.21900
N  -0.24800 -1.36000 43.63900
C  -0.58800 -0.25300 42.87900
C  -2.09700 -0.24400 42.68600
C  -2.56000 -1.39800 43.29900
C  -1.39200 -2.10100 43.79400
C  -2.86400 0.79900 41.80000
C  -4.07500 -1.79200 43.34000
O  -4.92700 -1.01600 42.86800
C  -4.64300 -3.07900 43.98400
N  0.98700 -3.57300 45.00200
C  -0.31800 -3.93400 45.12500
C  -0.58000 -5.10400 46.10500
C  0.85100 -5.54000 46.47300
C  1.67200 -4.56000 45.63200
C  -1.49400 -4.78700 47.29200
C  1.21000 -6.97800 45.98100
C  2.06300 -7.76300 46.93300
N  3.60500 -2.42300 44.72100
C  4.06900 -3.57300 45.38900
C  5.48400 -3.49400 45.56700
C  5.87200 -2.32100 44.87800
C  4.67300 -1.80400 44.31400
C  6.40600 -4.43400 46.26600
C  6.97200 -1.47200 44.59300
O  8.14400 -1.57100 44.92400
C  6.32100 -0.34400 43.66200
C  6.48400 0.94800 44.38200
O  5.72300 1.26900 45.23900
O  7.48800 1.80100 43.82400
C  7.38200 3.15000 44.34600
H  -0.19300 1.42300 41.69300
H  -2.27800 -3.79900 44.82800
H  3.46500 -5.43700 46.35200
H  4.35400 2.16400 42.72600
H  2.45000 1.63000 40.60700
H  2.31300 3.96900 41.38000
H  2.73400 3.52700 43.00900
H  1.10300 3.38700 42.45300
H  4.45500 1.35700 39.87000
H  5.62300 0.59800 40.98100
H  6.71500 2.63600 41.28300
H  5.31200 3.63500 40.83800
H  -3.29900 0.33700 40.91300
H  -2.06800 1.50500 41.56600
H  -3.69000 1.31700 42.28800
H  -4.25900 -3.03900 45.00300
H  -4.33000 -3.96300 43.42900
H  -5.72900 -3.10600 44.08000
H  -1.12200 -5.88900 45.57800
H  1.01700 -5.32500 47.52800
H  -1.77800 -3.75900 47.06500
H  -1.12100 -4.90800 48.30900
H  -2.35800 -5.42400 47.10300
H  1.71600 -7.02800 45.01700
H  0.26700 -7.50500 45.83900
H  1.53000 -8.67600 47.19800
H  2.37800 -7.36000 47.89600
H  2.99300 -7.96200 46.40100
H  5.87900 -4.72400 47.17500
H  7.33700 -4.00600 46.63900
H  6.69200 -5.26400 45.62100
H  6.89800 -0.25600 42.74100
H  8.28000 3.64800 43.98100
H  7.42400 3.18700 45.43500
H  6.45600 3.59900 43.98700
Mg -11.57300 38.69700 42.57300
C  -9.96700 35.79200 41.42000
C  -9.12300 40.51200 40.79700
C  -13.56200 41.38400 42.59600
C  -14.20300 36.67900 43.46900
N  -9.90300 38.18100 41.28300
C  -9.46600 36.95400 40.87800
C  -8.19500 37.02400 40.11600
C  -7.76200 38.51600 40.22200
C  -9.01200 39.16200 40.76400
C  -6.42400 38.75900 41.05400
C  -8.41600 36.54500 38.66900
C  -7.26700 35.45400 38.34500
H  -5.99300 35.95300 37.64500
N  -11.35200 40.65800 41.86200
C  -10.23500 41.21400 41.24300
C  -10.42100 42.67900 41.09300
C  -11.68300 42.99600 41.73800
C  -12.23400 41.68200 42.12800
C  -9.38700 43.47700 40.46700
C  -12.26000 44.45500 41.89400
O  -11.65100 45.38100 41.27600
C  -13.48200 44.80500 42.66300
N  -13.63000 39.03700 42.82000
C  -14.14600 40.25300 43.03200
C  -15.48300 40.18600 43.66500
C  -15.82600 38.71900 43.67900
C  -14.41900 38.08400 43.43600
C  -15.50500 40.80700 45.13600
C  -16.75000 38.29600 42.62200
C  -18.17800 38.23200 43.25000
N  -11.92900 36.67500 42.82800
C  -13.00000 36.01200 43.14000
C  -12.80400 34.57100 43.18600
C  -11.47300 34.42300 42.53600
C  -11.07500 35.71500 42.24600
C  -13.84900 33.61100 43.59700
C  -10.45200 33.50700 42.07500
O  -10.32700 32.28600 42.15000
C  -9.52700 34.30800 41.30400
C  -8.28800 34.21200 42.14900
O  -8.20400 34.63100 43.29900
O  -7.32800 33.51800 41.44200
C  -5.95800 33.45500 41.95200
H  -8.27700 41.04400 40.35600
H  -14.12300 42.31800 42.65900
H  -15.03200 36.03100 43.76200
H  -7.55100 36.38900 40.72400
H  -7.57000 38.92400 39.23000
H  -5.86400 37.82900 41.15700
H  -6.55700 39.23000 42.02700
H  -5.80000 39.37900 40.41000
H  -8.37300 37.42300 38.02400
H  -9.39400 36.07900 38.55200
H  -7.87100 34.92300 37.60900
H  -7.02700 34.69400 39.08800
H  -8.39800 43.12800 40.76300
H  -9.41500 44.48600 40.87800
H  -9.44600 43.54100 39.38000
H  -14.31000 44.36000 42.11200
H  -13.64600 45.88300 42.66200
H  -13.37200 44.39700 43.66800
H  -16.12300 40.71900 42.96100
H  -16.15100 38.33000 44.64400
H  -14.53000 41.04700 45.56100
H  -16.05600 40.16800 45.82700
H  -16.06100 41.74000 45.23200
H  -16.55600 37.40900 42.01900
H  -16.75600 39.13400 41.92500
H  -18.57500 37.23900 43.04100
H  -18.64600 39.06000 42.71700
H  -18.29500 38.50300 44.30000
H  -14.46700 33.95900 44.42500
H  -13.36100 32.70700 43.96200
H  -14.45700 33.42300 42.71300
H  -9.43400 33.99500 40.26400
H  -5.30600 33.07000 41.16700
H  -5.93300 32.71400 42.75000
H  -5.56800 34.41500 42.29200

