158

Mg 40.81200 40.27600 27.69800
C  40.52900 42.99100 29.99200
C  41.80800 38.33700 30.39700
C  41.52300 37.88800 25.54200
C  40.09000 42.51100 25.18400
N  41.21700 40.71400 29.91900
C  40.93200 41.80800 30.63800
C  41.07500 41.61900 32.14000
C  41.66700 40.19400 32.17900
C  41.55600 39.68700 30.77200
C  43.08400 40.08600 32.78200
C  39.65500 41.64700 32.80900
C  39.57600 42.66400 34.04300
H  38.86400 42.20000 35.35100
N  41.50900 38.29300 27.93400
C  41.84200 37.67900 29.11300
C  42.16800 36.32600 28.78400
C  42.29600 36.21800 27.35100
C  41.78500 37.46500 26.85700
C  42.45000 35.28600 29.85100
C  42.73600 35.08200 26.48000
O  42.78200 35.09600 25.25300
C  43.11200 33.78600 27.09800
N  40.93000 40.15500 25.68500
C  41.02000 39.02800 24.99600
C  40.83900 39.27700 23.50400
C  40.22000 40.66500 23.46600
C  40.49000 41.18200 24.86300
C  42.05100 39.11200 22.66900
C  38.71400 40.77800 23.05500
C  37.67600 39.93000 23.79000
N  40.39100 42.37500 27.51500
C  40.05300 43.08800 26.42800
C  39.73100 44.40900 26.85800
C  39.83600 44.48200 28.24900
C  40.29100 43.16900 28.60100
C  39.40100 45.56500 25.93100
C  39.73400 45.31800 29.50600
O  39.50600 46.54500 29.60200
C  40.04400 44.35900 30.68100
C  41.07500 44.89500 31.52900
O  42.24800 44.69700 31.35100
O  40.61600 45.60500 32.52400
C  41.59100 46.09500 33.51000
H  41.93600 37.64200 31.23000
H  41.57200 37.00500 24.90300
H  39.87400 43.18700 24.35400
H  41.75000 42.37900 32.53500
H  41.07600 39.57800 32.85700
H  43.76600 40.88400 32.48600
H  43.49600 39.08500 32.65200
H  42.90800 40.18700 33.85300
H  39.26800 40.68900 33.15700
H  38.96800 42.05500 32.06600
H  39.07600 43.57900 33.72800
H  40.58800 42.86600 34.39600
H  41.86200 35.39600 30.76100
H  43.49600 35.44700 30.11500
H  42.26100 34.24200 29.60000
H  42.28300 33.33700 27.64500
H  43.99700 33.97100 27.70800
H  43.41800 33.13300 26.28100
H  40.16600 38.46300 23.23500
H  40.86900 41.27100 22.83400
H  42.89400 38.74300 23.25200
H  42.35600 40.02400 22.15700
H  41.96500 38.36700 21.87700
H  38.74300 40.30000 22.07600
H  38.55300 41.84500 22.90300
H  36.82500 40.60200 23.89700
H  37.95700 39.83100 24.83900
H  37.36100 39.02500 23.27100
H  39.74700 45.25300 24.94600
H  39.94000 46.47600 26.19200
H  38.34500 45.82300 25.85000
H  39.06600 44.36800 31.16200
H  42.30600 46.83100 33.14200
H  42.07200 45.27500 34.04400
H  41.08600 46.55900 34.35800
Mg -11.15200 38.83200 40.47600
C  -9.59500 35.45000 40.21700
C  -8.33800 40.10900 39.26200
C  -12.91700 41.69000 40.34000
C  -14.09200 37.08900 41.47100
N  -9.26100 37.83200 39.67500
C  -8.81400 36.57200 39.83200
C  -7.36000 36.51700 39.27700
C  -6.87600 38.00800 39.38400
C  -8.26800 38.70400 39.43300
C  -6.01100 38.55100 40.53200
C  -7.34000 36.01700 37.84900
C  -6.05100 35.29400 37.30000
H  -5.36100 36.08200 36.20000
N  -10.68900 40.66200 39.79600
C  -9.42700 41.00500 39.41200
C  -9.38400 42.47700 39.31300
C  -10.65400 42.96400 39.68100
C  -11.55000 41.74300 39.89100
C  -8.19000 43.14400 38.76000
C  -11.02100 44.52500 39.69500
O  -10.14400 45.40500 39.73800
C  -12.47000 44.94400 39.71200
N  -13.31500 39.32700 40.73800
C  -13.77900 40.57100 40.64900
C  -15.30000 40.59200 40.76000
C  -15.53500 39.14900 41.29500
C  -14.29200 38.48500 41.12000
C  -16.13300 41.66200 41.58200
C  -16.75400 38.42400 40.49300
C  -16.43700 37.95600 39.07700
N  -11.77900 36.69200 40.87600
C  -12.96500 36.22300 41.32900
C  -12.82600 34.79700 41.55700
C  -11.53700 34.41200 41.13800
C  -10.96000 35.58600 40.65300
C  -14.01100 33.88400 41.90300
C  -10.58500 33.31300 40.90000
O  -10.61300 32.09000 41.12600
C  -9.35700 33.94700 40.22000
C  -8.02200 33.37700 40.62200
O  -7.13800 33.18700 39.81400
O  -7.91700 33.24400 41.97800
C  -6.63500 32.69900 42.39800
H  -7.48600 40.78300 39.15000
H  -13.40000 42.63700 40.09000
H  -14.88800 36.49400 41.92400
H  -6.76900 35.88400 39.93800
H  -6.39400 38.36400 38.47400
H  -5.57900 37.68400 41.03300
H  -6.58600 39.17000 41.22100
H  -5.30000 39.21500 40.04100
H  -7.54700 36.87200 37.20600
H  -8.14200 35.30600 37.65000
H  -6.28900 34.28300 36.97100
H  -5.29600 35.16000 38.07400
H  -7.84100 42.64300 37.85700
H  -7.45600 43.18500 39.56600
H  -8.43900 44.19300 38.59800
H  -13.10200 44.47100 38.96000
H  -12.41900 46.01400 39.51100
H  -12.83600 44.86800 40.73600
H  -15.68600 40.72600 39.74900
H  -15.68300 39.16600 42.37500
H  -16.87400 42.03300 40.87400
H  -15.53900 42.51800 41.90500
H  -16.84900 41.30700 42.32300
H  -17.62200 39.05500 40.29900
H  -17.13500 37.60700 41.10500
H  -16.29500 36.87600 39.08600
H  -15.52800 38.48900 38.79800
H  -17.13600 38.15500 38.26400
H  -14.27100 33.94800 42.95900
H  -13.80700 32.87600 41.54100
H  -14.79400 34.23300 41.22900
H  -9.41000 33.62200 39.18100
H  -5.82500 33.36600 42.10300
H  -6.41100 31.66300 42.14500
H  -6.74000 32.83700 43.47400

