158

Mg 17.09500 -0.41900 27.76700
C  15.94300 1.61400 30.41600
C  19.10300 -2.02400 29.92600
C  18.72400 -1.75900 25.19200
C  15.28100 1.61700 25.52400
N  17.55300 -0.12500 29.91300
C  16.88400 0.68800 30.87100
C  17.51900 0.49400 32.22900
C  18.74600 -0.48300 31.91700
C  18.42700 -0.93700 30.45600
C  20.19900 0.06100 32.13300
C  16.33600 -0.16900 33.15600
C  16.36500 0.33500 34.63500
H  17.64900 0.91000 35.25600
N  18.58600 -1.87700 27.61100
C  19.19700 -2.45800 28.61100
C  19.98800 -3.50300 28.09500
C  20.01800 -3.33600 26.68900
C  19.09500 -2.29100 26.40600
C  20.83900 -4.38200 28.99800
C  20.78800 -4.13300 25.57300
O  20.45300 -4.00300 24.38300
C  21.76500 -5.18900 25.90600
N  16.95000 -0.15900 25.67600
C  17.84200 -0.71800 24.80800
C  17.68000 -0.30600 23.43300
C  16.43400 0.57500 23.49300
C  16.18800 0.73200 25.00200
C  18.93500 0.32300 22.74900
C  15.24500 -0.15200 22.77100
C  15.11500 0.20500 21.28300
N  15.66800 1.06900 27.91200
C  15.04200 1.80500 26.91900
C  14.24000 2.91800 27.47500
C  14.48000 2.75300 28.84100
C  15.45000 1.76400 29.04900
C  13.27500 3.85400 26.80000
C  14.23900 3.33500 30.18100
O  13.37800 4.18000 30.53500
C  15.14000 2.63200 31.25800
C  15.89700 3.62900 32.06000
O  16.90700 4.29300 31.80300
O  15.19300 3.72800 33.25800
C  15.70600 4.70900 34.17800
H  19.75100 -2.53600 30.63900
H  19.35900 -1.97500 24.33000
H  14.77100 2.31000 24.85200
H  17.83600 1.46700 32.60300
H  18.51800 -1.38800 32.48000
H  20.63700 -0.60700 32.87600
H  20.17400 0.99200 32.70000
H  20.74800 0.27800 31.21700
H  16.59000 -1.22300 33.26900
H  15.34300 0.06800 32.77300
H  16.01100 -0.45800 35.29300
H  15.58800 1.09900 34.63100
H  20.14700 -4.76200 29.74900
H  21.51500 -3.75400 29.57800
H  21.35700 -5.26700 28.62700
H  22.43400 -5.36800 25.06400
H  21.11400 -6.01900 26.18000
H  22.28500 -4.74800 26.75700
H  17.48800 -1.26200 22.94600
H  16.56400 1.60800 23.17000
H  19.73800 0.46800 23.47100
H  18.80500 1.30900 22.30100
H  19.18300 -0.37900 21.95300
H  14.32400 0.21400 23.22600
H  15.22300 -1.21000 23.03000
H  15.98700 0.74300 20.91100
H  14.21900 0.76000 21.00700
H  15.13100 -0.65900 20.61800
H  13.51400 3.88600 25.73700
H  13.36900 4.85600 27.21900
H  12.30400 3.41500 27.03300
H  14.40600 2.14000 31.89600
H  15.20700 5.66700 34.02700
H  16.79200 4.78700 34.21900
H  15.43900 4.40200 35.18900
Mg 26.96500 49.48600 26.39600
C  24.85500 50.45300 28.97700
C  29.19600 48.28000 28.63900
C  28.96000 48.54100 23.86500
C  24.61700 50.79600 24.15200
N  27.00300 49.46200 28.61000
C  26.01600 49.78400 29.48300
C  26.41000 49.49300 30.94400
C  27.94500 49.00600 30.84600
C  28.10400 48.95900 29.24700
C  28.96700 49.94600 31.52300
C  25.42200 48.48000 31.65800
C  24.66100 48.94300 32.92000
H  25.41300 49.57800 34.06700
N  28.74800 48.57500 26.28400
C  29.49600 48.18300 27.30600
C  30.60400 47.43100 26.84500
C  30.69100 47.68100 25.45400
C  29.38500 48.28400 25.14500
C  31.53500 46.66300 27.70900
C  31.81000 47.41600 24.44500
O  31.70600 47.69600 23.22900
C  32.95900 46.68600 24.90100
N  26.81400 49.71400 24.31900
C  27.78700 49.25900 23.48100
C  27.37000 49.49600 22.03700
C  25.95800 50.09900 22.12700
C  25.76800 50.19600 23.62900
C  28.42200 50.34300 21.22800
C  24.80500 49.30000 21.44600
C  24.10400 49.96400 20.24400
N  25.23500 50.49700 26.46000
C  24.41600 51.03400 25.46600
C  23.33300 51.68300 26.05800
C  23.44700 51.48400 27.37300
C  24.56000 50.73300 27.59800
C  22.17500 52.30700 25.35300
C  22.83800 51.71900 28.60400
O  21.85700 52.38200 28.89000
C  23.79400 51.14600 29.74800
C  24.41800 52.24100 30.53000
O  25.39400 52.89300 30.22400
O  23.60500 52.42100 31.61400
C  24.21500 53.31700 32.63400
H  29.87100 47.81500 29.36100
H  29.47700 48.20700 22.96300
H  23.87000 51.15200 23.44000
H  26.32300 50.50100 31.34900
H  28.04900 48.07300 31.39900
H  28.49500 50.77800 32.04600
H  29.64800 50.40500 30.80600
H  29.63700 49.35300 32.14500
H  25.87700 47.52700 31.92900
H  24.60800 48.28800 30.96000
H  24.13400 48.17300 33.48300
H  23.93300 49.73700 32.75100
H  31.87800 45.73500 27.25100
H  31.08100 46.48800 28.68500
H  32.45100 47.20600 27.94100
H  33.24500 47.17900 25.83100
H  33.68600 46.77300 24.09400
H  32.63600 45.64800 24.98400
H  27.38200 48.48900 21.61900
H  25.90900 51.12700 21.76900
H  29.36800 50.38500 21.76700
H  28.14300 51.39400 21.15600
H  28.72400 49.79400 20.33600
H  23.97100 49.19900 22.14000
H  25.13000 48.30200 21.15000
H  23.02600 49.84000 20.34200
H  24.37000 49.41100 19.34300
H  24.31600 51.02600 20.12200
H  21.96600 51.93100 24.35100
H  22.52600 53.31900 25.15000
H  21.24500 52.19400 25.91100
H  23.19100 50.46700 30.35200
H  23.40600 53.52500 33.33500
H  24.59800 54.29600 32.34400
H  25.03200 52.84100 33.17600

