158

Mg 47.01400 34.85900 26.14900
C  45.73700 33.29600 29.08900
C  47.28300 37.71800 28.11900
C  48.00900 36.44900 23.44600
C  46.51700 31.90000 24.43900
N  46.62100 35.40300 28.34200
C  46.25200 34.59900 29.39300
C  46.31200 35.29000 30.72700
C  46.66000 36.76200 30.40900
C  46.97700 36.60400 28.88100
C  45.71000 37.77400 30.96100
C  47.51200 34.56400 31.54000
C  47.52000 34.52000 33.06700
H  46.33600 35.23700 33.70200
N  47.48800 36.81100 25.78900
C  47.50800 37.85100 26.73100
C  47.93000 39.12600 26.05700
C  48.34900 38.62700 24.71400
C  47.86500 37.26500 24.57200
C  48.18200 40.38600 26.83400
C  49.09200 39.47100 23.68200
O  49.44500 39.02800 22.57800
C  49.51600 40.85900 24.05200
N  47.01400 34.29100 24.22800
C  47.66600 35.09600 23.28200
C  48.14500 34.34900 22.04900
C  47.67100 32.85500 22.32200
C  47.03100 33.04000 23.69400
C  47.70900 34.89200 20.66100
C  48.87000 31.76300 22.37000
C  49.25200 30.99000 21.10100
N  46.25100 33.00500 26.57500
C  46.13400 31.86400 25.77000
C  45.51600 30.79800 26.53000
C  45.23400 31.32300 27.81600
C  45.75200 32.67000 27.82500
C  45.16900 29.39500 25.93900
C  44.67000 31.11800 29.06100
O  43.98000 30.16700 29.35700
C  44.91200 32.43000 29.94100
C  45.44300 31.80900 31.18200
O  46.36900 31.01400 31.30600
O  44.50700 31.99900 32.17800
C  44.72400 31.44800 33.56900
H  47.26700 38.66400 28.66400
H  48.35000 36.91800 22.52100
H  46.37700 30.98700 23.85600
H  45.37500 35.13300 31.26000
H  47.56200 37.13100 30.89700
H  45.20400 38.17000 30.08000
H  46.22800 38.63300 31.38800
H  45.07100 37.28400 31.69500
H  48.35300 35.16600 31.19700
H  47.71000 33.53300 31.24800
H  48.45000 34.70200 33.60500
H  47.32000 33.45400 33.17200
H  47.91700 41.23000 26.19600
H  49.23100 40.28800 27.11400
H  47.68500 40.51800 27.79500
H  48.67800 41.55500 24.10700
H  50.12700 41.22600 23.22700
H  50.22700 40.89000 24.87700
H  49.23400 34.36300 22.10000
H  46.88500 32.49200 21.66100
H  46.72500 35.36000 20.67700
H  47.76300 34.14700 19.86700
H  48.43800 35.67100 20.43900
H  48.77600 31.12700 23.24900
H  49.81800 32.29600 22.45200
H  50.26100 31.18000 20.73600
H  48.57900 31.35200 20.32300
H  49.18400 29.91300 21.25500
H  45.02000 28.64300 26.71300
H  46.10000 29.07800 25.46900
H  44.30000 29.38800 25.28000
H  43.96000 32.89600 30.19200
H  43.80300 31.17000 34.08000
H  45.17300 32.25200 34.15300
H  45.49900 30.68600 33.65400
Mg -9.87000 17.40000 41.03000
C  -6.43900 17.31500 41.29600
C  -9.79000 20.72900 40.34200
C  -13.16600 17.24500 40.21800
C  -9.83700 13.94900 41.37600
N  -8.25400 18.83800 40.70100
C  -6.95900 18.61300 40.95100
C  -6.19800 19.91700 40.66700
C  -7.25600 21.05500 40.85500
C  -8.55500 20.19700 40.68300
C  -7.18500 21.80100 42.22600
C  -5.56200 19.92600 39.29300
C  -4.08100 19.78900 39.08300
H  -3.42900 18.68100 38.22700
N  -11.26600 18.79900 40.33600
C  -11.06000 20.14000 40.14500
C  -12.26500 20.80900 39.66000
C  -13.28500 19.79700 39.59700
C  -12.61700 18.54300 40.10900
C  -12.26300 22.25300 39.21600
C  -14.76200 20.01400 39.08700
O  -15.10100 21.10500 38.57200
C  -15.81200 18.89500 38.89400
N  -11.30200 15.72900 40.55000
C  -12.57100 15.95300 40.38900
C  -13.41700 14.64400 40.45600
C  -12.31100 13.60800 41.03300
C  -10.99700 14.45100 40.88800
C  -14.75400 14.66800 41.28600
C  -12.28400 12.20900 40.21100
C  -12.51300 10.99700 41.14900
N  -8.42500 15.84300 41.22100
C  -8.57200 14.51300 41.29400
C  -7.34600 13.87400 41.28800
C  -6.47100 14.94300 41.45700
C  -7.16500 16.12600 41.27100
C  -7.02900 12.34700 41.30400
C  -5.10600 15.29000 41.58000
O  -4.06300 14.60000 41.67000
C  -5.00400 16.86400 41.43700
C  -4.39200 17.53200 42.65800
O  -3.45000 18.29300 42.57500
O  -5.17500 17.23300 43.76600
C  -4.57300 17.96300 44.87300
H  -9.75800 21.78600 40.07000
H  -14.24700 17.32200 40.08400
H  -9.75100 12.87000 41.52100
H  -5.45300 20.03300 41.45400
H  -7.31700 21.77800 40.04100
H  -6.96800 21.16100 43.08200
H  -8.05400 22.40400 42.48600
H  -6.47500 22.59200 41.98800
H  -5.91700 20.85500 38.84800
H  -6.08400 19.10000 38.80800
H  -3.68900 19.75500 40.09900
H  -3.72300 20.67600 38.56000
H  -13.30300 22.57900 39.20500
H  -11.76500 22.29200 38.24700
H  -11.73100 22.80700 39.98900
H  -15.36300 18.18600 38.19900
H  -16.72300 19.33300 38.48500
H  -16.07900 18.39000 39.82200
H  -13.75300 14.29100 39.48100
H  -12.46300 13.43700 42.09900
H  -14.77900 13.94500 42.10100
H  -15.55300 14.36200 40.61100
H  -14.94500 15.59400 41.82800
H  -11.34900 12.19600 39.65100
H  -13.07700 12.24000 39.46300
H  -12.13600 10.19500 40.51400
H  -13.59000 10.87300 41.26100
H  -11.96400 11.10200 42.08400
H  -7.25800 11.98400 42.30700
H  -5.99100 12.06100 41.13500
H  -7.73900 11.75100 40.73100
H  -4.32400 17.09500 40.61800
H  -3.76800 17.40400 45.35200
H  -5.30900 17.94500 45.67700
H  -4.38500 19.02600 44.72300

