158

Mg 25.21500 1.56400 29.80600
C  27.31000 1.49600 32.59500
C  22.52200 1.82800 31.86300
C  23.17600 1.35300 27.07900
C  28.08100 0.88100 27.71200
N  25.02300 1.63200 31.93500
C  26.01100 1.77800 32.92000
C  25.41500 2.12400 34.28000
C  23.84400 1.79000 33.98000
C  23.75200 1.77100 32.44500
C  23.28400 0.43500 34.54400
C  25.75700 3.55800 34.75400
C  26.80600 3.66400 35.93500
H  26.54900 4.53000 37.18200
N  23.11100 1.67000 29.49300
C  22.22700 1.90800 30.48700
C  20.90300 1.92100 29.89200
C  21.03300 1.76500 28.52400
C  22.47800 1.58900 28.29200
C  19.68100 2.04300 30.69200
C  19.99200 1.80700 27.48300
O  20.20400 1.65000 26.26900
C  18.53400 2.06400 27.90400
N  25.53500 0.97600 27.73600
C  24.49200 1.11700 26.78900
C  25.00600 0.93900 25.33200
C  26.59200 1.05300 25.59800
C  26.79200 1.05500 27.10400
C  24.51000 -0.37200 24.62600
C  27.21300 2.15600 24.71300
C  27.23300 3.49300 25.41700
N  27.23700 1.11100 30.04200
C  28.24500 0.87800 29.13000
C  29.49000 0.97400 29.80500
C  29.18500 1.09200 31.15500
C  27.79500 1.21200 31.26900
C  30.82600 0.81900 29.19900
C  29.69100 1.24900 32.50200
O  30.85800 1.18100 32.79500
C  28.55700 1.52500 33.45000
C  28.64000 0.48900 34.52400
O  28.43900 -0.71600 34.32800
O  28.97000 1.12200 35.68900
C  28.97700 0.19000 36.76600
H  21.65600 1.98400 32.50900
H  22.57300 1.35400 26.16900
H  28.96300 1.06100 27.09400
H  25.73000 1.45300 35.07900
H  23.17100 2.50700 34.45100
H  22.90400 -0.18100 33.72900
H  22.46500 0.58200 35.24900
H  24.06500 -0.09900 35.08600
H  24.87700 4.19000 34.87400
H  26.26600 3.92900 33.86500
H  27.69500 4.00800 35.40600
H  27.06200 2.65200 36.25000
H  19.13100 2.97100 30.53700
H  19.81000 2.03400 31.77500
H  19.02700 1.18000 30.57100
H  18.04300 1.28300 28.48500
H  17.92000 2.12000 27.00400
H  18.50400 3.04700 28.37300
H  24.70900 1.83600 24.78800
H  27.03600 0.11900 25.25500
H  23.72200 -0.84000 25.21700
H  25.34700 -1.05600 24.49300
H  24.13000 -0.04300 23.65900
H  26.62900 2.38700 23.82300
H  28.12600 1.77300 24.25800
H  27.21000 3.36400 26.50000
H  26.39700 4.11300 25.09400
H  28.18600 3.98500 25.22900
H  30.88200 1.42000 28.29100
H  30.86700 -0.18800 28.78500
H  31.55900 1.03900 29.97500
H  28.70900 2.53400 33.83600
H  27.98300 0.06900 37.19600
H  29.62500 0.66500 37.50200
H  29.42100 -0.79100 36.59700
Mg 1.46200 42.59100 25.78200
C  2.98200 42.76100 29.02200
C  -1.42700 41.61200 27.35300
C  0.22500 41.86800 22.83800
C  4.49300 43.40300 24.40100
N  0.85000 42.31900 28.00500
C  1.58900 42.54000 29.15300
C  0.76200 42.33100 30.42800
C  -0.65700 41.74100 29.85400
C  -0.39800 41.87200 28.31700
C  -1.04400 40.27200 30.28000
C  0.51700 43.60300 31.22700
C  0.83300 43.47100 32.67900
H  0.58700 42.21000 33.51800
N  -0.36100 41.87600 25.21100
C  -1.43600 41.62600 25.94600
C  -2.59500 41.31200 25.10600
C  -2.10300 41.21800 23.81400
C  -0.69800 41.72200 23.87500
C  -4.02900 41.06100 25.68400
C  -2.70200 40.69600 22.58000
O  -2.27900 40.63200 21.44500
C  -4.14900 40.26800 22.77300
N  2.30800 42.49700 23.90800
C  1.53600 42.23300 22.77300
C  2.35100 42.62100 21.45700
C  3.57300 43.37400 22.05600
C  3.48100 43.03900 23.53900
C  2.67800 41.39300 20.60300
C  3.37600 44.86300 21.66400
C  2.17200 45.57300 22.29500
N  3.36000 42.87800 26.51900
C  4.52600 43.27800 25.87000
C  5.61900 43.56600 26.79100
C  4.98000 43.31900 28.01100
C  3.68900 42.94900 27.81400
C  7.04700 43.65900 26.53600
C  5.23900 43.31600 29.41100
O  6.28000 43.58400 30.00500
C  3.94600 42.89800 30.17400
C  4.24500 41.64700 30.97600
O  4.10600 40.45100 30.62200
O  4.93800 41.96600 32.11400
C  5.68200 40.91100 32.73900
H  -2.41900 41.42500 27.77000
H  -0.24300 41.82900 21.85200
H  5.37000 43.75300 23.85100
H  1.32900 41.56100 30.95100
H  -1.52400 42.36500 30.07600
H  -1.38100 39.63200 29.46400
H  -1.82000 40.24700 31.04500
H  -0.10800 39.79400 30.56900
H  -0.52800 43.85800 31.05200
H  1.17700 44.39000 30.86100
H  0.46700 44.32600 33.24900
H  1.92100 43.49200 32.62200
H  -4.87700 41.52900 25.18400
H  -4.16300 41.56400 26.64100
H  -4.29700 40.04000 25.95800
H  -4.33700 39.67600 23.66800
H  -4.37300 39.69000 21.87600
H  -4.74500 41.18000 22.81600
H  1.83600 43.27900 20.75700
H  4.47800 42.96100 21.61000
H  2.28200 40.56100 21.18600
H  3.75800 41.36900 20.45700
H  2.08900 41.48500 19.69000
H  3.23600 44.87900 20.58300
H  4.27300 45.46800 21.79400
H  2.59300 46.31700 22.97100
H  1.58700 44.92000 22.94300
H  1.51200 46.10300 21.60800
H  7.42700 44.63500 26.23300
H  7.13500 42.93100 25.73000
H  7.47200 43.25200 27.45400
H  3.74100 43.76900 30.79700
H  6.55000 40.66500 32.12700
H  5.05900 40.01700 32.75900
H  5.84800 41.19400 33.77800

