158

Mg 16.98300 -1.14700 27.69100
C  15.98300 0.63000 30.39700
C  19.09700 -3.21700 29.92700
C  18.62500 -2.49900 25.14600
C  15.35500 1.09700 25.70900
N  17.42100 -1.41500 29.96700
C  16.80600 -0.46500 30.81700
C  17.24900 -0.76700 32.24100
C  18.44800 -1.69000 32.07700
C  18.34200 -2.19600 30.57800
C  19.83800 -1.02900 32.28000
C  16.08700 -1.21900 33.21300
C  16.06100 -0.65900 34.67900
H  17.33900 -0.21900 35.42400
N  18.54600 -2.62000 27.52500
C  19.18700 -3.38000 28.50600
C  19.93500 -4.38900 27.92400
C  19.70600 -4.36300 26.48600
C  18.98700 -3.11000 26.32500
C  20.66100 -5.46600 28.70700
C  20.08500 -5.27000 25.42900
O  19.87200 -5.02800 24.21600
C  20.71600 -6.63000 25.70600
N  16.88400 -0.90600 25.69100
C  17.63200 -1.55100 24.79800
C  17.60200 -0.95500 23.43000
C  16.44600 0.14400 23.56200
C  16.12800 0.12700 25.11400
C  18.95700 -0.43500 22.85300
C  15.20300 -0.13400 22.71700
C  15.11700 0.70700 21.37600
N  15.72000 0.49500 27.92200
C  15.30400 1.38200 27.03200
C  14.71000 2.50300 27.72800
C  14.92500 2.23300 29.04700
C  15.56600 0.97900 29.11500
C  14.07800 3.57600 27.09400
C  14.61100 2.66200 30.36400
O  13.90500 3.61100 30.67800
C  15.37300 1.67000 31.33300
C  16.35500 2.50800 32.02200
O  17.50500 2.68100 31.65200
O  15.86700 2.85500 33.28600
C  16.61700 3.87600 34.00200
H  19.83800 -3.73100 30.54300
H  19.01500 -2.82700 24.18000
H  15.03900 1.93200 25.08100
H  17.61600 0.19100 32.60900
H  18.42200 -2.60100 32.67500
H  20.51800 -1.69700 32.80900
H  19.79500 -0.15100 32.92400
H  20.23300 -0.70200 31.31800
H  16.06200 -2.30800 33.19100
H  15.22100 -0.77600 32.72100
H  15.67300 -1.51300 35.23500
H  15.38700 0.19600 34.73200
H  21.68900 -5.33100 28.37000
H  20.46100 -6.52600 28.54800
H  20.83600 -5.35300 29.77700
H  21.53200 -6.30500 26.35100
H  21.05900 -7.07300 24.77100
H  19.96600 -7.22100 26.23100
H  17.33200 -1.77000 22.75900
H  16.81600 1.15000 23.36300
H  19.64800 -0.41000 23.69600
H  18.88800 0.59200 22.49300
H  19.41300 -1.01000 22.04600
H  14.29800 0.01400 23.30500
H  15.16000 -1.13500 22.28700
H  16.06700 1.17500 21.11700
H  14.40900 1.53500 21.40600
H  14.89800 -0.00900 20.58400
H  13.66500 4.29200 27.80500
H  13.23700 3.08500 26.60400
H  14.69200 4.02600 26.31400
H  14.68600 1.30600 32.09800
H  16.02400 4.51100 34.66100
H  17.17300 4.62100 33.43200
H  17.40300 3.31500 34.50800
Mg 28.17400 56.54800 40.24200
C  25.99800 53.85200 39.55300
C  30.71600 54.57600 39.11100
C  30.10700 59.41000 39.76500
C  25.41000 58.60100 40.63200
N  28.22900 54.47900 39.23800
C  27.29100 53.53800 39.16300
C  27.81200 52.22000 38.54000
C  29.38100 52.37900 38.81300
C  29.49700 53.90700 39.04500
C  29.99500 51.54600 40.03200
C  27.39100 52.10800 37.00900
C  27.08200 53.35500 36.15000
H  27.30500 53.33400 34.70100
N  30.14900 56.94600 39.69100
C  31.02900 55.93500 39.31700
C  32.36100 56.56600 39.08000
C  32.21100 57.99300 39.29400
C  30.80600 58.19700 39.58900
C  33.54700 55.77700 38.57200
C  33.27800 59.05500 39.05600
O  34.34400 58.75400 38.58400
C  33.14600 60.44800 39.39800
N  27.86900 58.62200 40.23100
C  28.80800 59.62700 39.99800
C  28.20700 60.99300 40.13800
C  26.71900 60.73000 40.13300
C  26.62300 59.19800 40.38100
C  28.78800 61.81800 41.30400
C  25.91800 61.02000 38.78400
C  24.88000 62.16500 38.64000
N  26.09400 56.28300 40.20500
C  25.14000 57.23600 40.52400
C  23.86400 56.45700 40.77400
C  24.13600 55.13900 40.33900
C  25.51800 55.12500 40.01800
C  22.52700 56.95400 41.27300
C  23.67600 53.80000 40.13600
O  22.54500 53.35000 40.26900
C  24.82900 52.98800 39.60800
C  24.97300 51.83700 40.51900
O  24.49700 50.71300 40.44200
O  25.88200 52.11000 41.51800
C  26.19800 51.01700 42.48100
H  31.57000 53.92100 38.92400
H  30.62800 60.35500 39.60200
H  24.53000 59.23700 40.75000
H  27.44200 51.36200 39.10200
H  29.97400 52.08700 37.94700
H  29.97100 50.47100 39.85800
H  29.62000 51.79600 41.02500
H  31.06900 51.71700 39.96500
H  26.52500 51.44800 36.94900
H  28.20600 51.53600 36.56600
H  27.56000 54.21800 36.61400
H  26.01600 53.55700 36.25200
H  34.18100 56.26100 37.82900
H  33.23100 54.85800 38.07700
H  34.19700 55.56600 39.42100
H  32.83200 60.48200 40.44200
H  32.46700 60.94000 38.70100
H  34.03600 61.07100 39.31100
H  28.40300 61.56800 39.23300
H  26.24100 61.34500 40.89600
H  28.95900 62.85800 41.02200
H  29.68400 61.27400 41.60300
H  28.06800 61.58500 42.08700
H  25.34700 60.12300 38.54500
H  26.59900 61.13800 37.94100
H  24.76800 62.72300 39.56900
H  23.90500 61.77300 38.34900
H  25.35400 62.87100 37.95800
H  21.79800 56.93300 40.46200
H  22.75800 57.97400 41.58000
H  22.27100 56.28400 42.09300
H  24.71900 52.47300 38.65400
H  25.38200 50.96400 43.20200
H  27.16900 51.34400 42.85300
H  26.36600 50.02900 42.05300

