158

Mg 6.86700 53.84800 41.29500
C  6.64300 50.31000 41.04600
C  10.23000 53.59900 40.16800
C  6.85200 57.10200 40.97400
C  3.43500 53.85700 42.02100
N  8.28100 52.09400 40.74200
C  7.92800 50.80200 40.55500
C  9.03000 49.90400 40.11200
C  10.27900 50.92200 40.14100
C  9.57500 52.32400 40.27400
C  11.21800 50.59100 41.35700
C  8.83300 49.16900 38.75300
C  8.23000 50.03100 37.57000
H  7.25400 49.28900 36.56300
N  8.35000 55.18900 40.79400
C  9.63900 54.92500 40.37900
C  10.32500 56.08600 40.07600
C  9.38600 57.20600 40.29200
C  8.08900 56.54200 40.65700
C  11.77100 56.08300 39.49600
C  9.65600 58.70300 40.15200
O  10.79900 59.11800 40.03200
C  8.49300 59.64200 40.09000
N  5.28900 55.16200 41.32000
C  5.61900 56.53600 41.39800
C  4.53300 57.40300 41.96800
C  3.43600 56.32400 42.32000
C  4.13400 54.99200 41.93100
C  4.98200 58.23200 43.22900
C  1.90200 56.51400 41.79500
C  0.72900 56.76600 42.78400
N  5.24900 52.37800 41.52100
C  3.95100 52.57300 41.85600
C  3.35900 51.18400 42.05100
C  4.36900 50.30500 41.78100
C  5.51900 51.10200 41.43200
C  1.94700 50.98000 42.51800
C  4.71100 48.89600 41.85600
O  4.07800 47.89900 42.26500
C  6.11600 48.93200 41.11700
C  5.84200 48.15200 39.78300
O  5.39000 48.52100 38.71300
O  6.40600 46.87900 39.91100
C  6.36200 46.05800 38.66800
H  11.31500 53.59700 40.04000
H  6.97700 58.15300 41.24400
H  2.40900 53.95700 42.38200
H  9.12900 49.18600 40.92600
H  10.75600 51.03800 39.16800
H  12.25100 50.68600 41.02200
H  11.02000 49.55300 41.62500
H  10.90700 51.21000 42.19900
H  8.24700 48.25300 38.81800
H  9.81200 48.82100 38.42400
H  9.09100 50.26900 36.94400
H  7.68900 50.91100 37.91800
H  12.32000 56.91700 39.93300
H  11.67300 56.07500 38.41100
H  12.36900 55.21200 39.76100
H  8.09800 59.81900 41.09100
H  7.87800 59.11900 39.35800
H  8.81800 60.59200 39.66700
H  4.20100 58.07500 41.17700
H  3.39700 56.21600 43.40400
H  4.26600 58.37800 44.03700
H  5.07100 59.25600 42.86400
H  5.93600 57.92500 43.65600
H  1.63400 55.59500 41.27400
H  1.77900 57.34600 41.10100
H  0.15200 55.85100 42.91200
H  0.10400 57.60500 42.47900
H  1.15500 56.92700 43.77500
H  1.49800 50.12900 42.00700
H  1.42800 51.90400 42.26200
H  2.01500 50.82000 43.59400
H  6.75200 48.21300 41.63300
H  6.81200 45.09000 38.88500
H  6.92700 46.55700 37.88100
H  5.32800 45.83800 38.39900
Mg 0.53700 43.94500 25.84400
C  2.88200 43.46900 28.59400
C  -1.86300 42.59800 27.88700
C  -1.45000 43.77200 23.19000
C  3.33500 44.88700 23.93300
N  0.66300 43.08700 27.92600
C  1.62100 43.06400 28.90200
C  1.00400 42.88500 30.27600
C  -0.43600 42.44000 29.93600
C  -0.57600 42.72200 28.47900
C  -0.75700 40.96200 30.21000
C  1.02400 44.16900 31.21300
C  1.35400 43.81700 32.71300
H  0.80500 42.59500 33.41000
N  -1.40700 43.33100 25.62100
C  -2.24800 42.76300 26.50600
C  -3.56600 42.57700 25.89800
C  -3.43800 42.88100 24.50200
C  -2.08000 43.32100 24.38500
C  -4.72300 42.08600 26.72800
C  -4.49100 42.85000 23.49300
O  -4.27600 42.99600 22.31000
C  -5.86100 42.56200 23.93100
N  0.83800 44.23500 23.89100
C  -0.17100 44.27200 22.99000
C  0.26900 45.05900 21.70100
C  1.67200 45.58200 22.19700
C  2.02900 44.80600 23.42900
C  0.37100 44.24300 20.40400
C  1.60000 47.04500 22.52700
C  1.26900 47.90300 21.20000
N  2.68500 44.22800 26.13200
C  3.64700 44.65500 25.22800
C  4.97800 44.60500 25.91700
C  4.66600 44.29900 27.24200
C  3.31700 44.01000 27.32700
C  6.35500 44.81900 25.23000
C  5.30000 44.06800 28.55200
O  6.46000 44.03700 28.88600
C  4.07900 43.72500 29.54400
C  4.48100 42.52600 30.31000
O  4.99400 41.49900 29.83300
O  4.53300 42.80300 31.66400
C  5.22100 41.84100 32.57100
H  -2.64200 42.19800 28.54000
H  -2.02500 43.93500 22.27600
H  4.14500 45.26000 23.30300
H  1.46300 42.03700 30.78300
H  -1.10900 43.01800 30.56900
H  -1.53600 40.96900 30.97300
H  0.10400 40.38000 30.53800
H  -1.19500 40.48000 29.33600
H  0.07100 44.69500 31.26900
H  1.74400 44.90200 30.85000
H  0.99400 44.65300 33.31200
H  2.44000 43.91200 32.69600
H  -5.54400 42.80300 26.76100
H  -4.38000 42.03200 27.76100
H  -4.90900 41.08500 26.33900
H  -6.06800 41.64400 24.48000
H  -6.51500 42.64700 23.06300
H  -6.22700 43.40200 24.52100
H  -0.53500 45.77600 21.53200
H  2.46500 45.39600 21.47200
H  0.85500 44.91600 19.69500
H  -0.56700 43.92900 19.94500
H  0.91400 43.35300 20.72000
H  2.58600 47.35400 22.87600
H  0.88800 47.27400 23.32000
H  0.24800 48.24900 21.36100
H  1.18000 47.27000 20.31700
H  1.94200 48.75000 21.07200
H  6.20400 45.16900 24.20900
H  7.07500 44.03200 25.45000
H  6.80700 45.70200 25.68200
H  3.91100 44.64200 30.10900
H  5.51400 42.35700 33.48500
H  6.06700 41.42800 32.02200
H  4.59100 40.98100 32.79700

