158

Mg -1.92500 17.13500 25.59600
C  -2.03900 15.08000 28.45600
C  -2.79200 19.73000 27.53500
C  -1.91700 18.97600 22.81400
C  -1.50500 14.22100 23.65400
N  -2.23200 17.26500 27.75100
C  -2.23700 16.37000 28.73100
C  -2.53300 17.01200 30.19700
C  -2.93300 18.46100 29.74300
C  -2.58700 18.54400 28.23400
C  -4.41700 18.86100 29.97000
C  -1.30400 16.89900 31.12700
C  -1.52000 16.15600 32.45100
H  -2.22500 16.87300 33.58000
N  -2.20400 19.11900 25.26600
C  -2.54600 20.05300 26.23200
C  -2.49000 21.35500 25.55600
C  -2.20800 21.18100 24.17700
C  -1.99700 19.70100 24.06000
C  -2.63800 22.72200 26.32500
C  -1.99600 22.22000 23.06500
O  -2.09200 21.97400 21.87400
C  -1.76200 23.70700 23.45700
N  -1.75700 16.66000 23.54900
C  -1.86000 17.60600 22.55900
C  -1.80700 16.99000 21.12100
C  -1.33900 15.59100 21.41800
C  -1.58800 15.45000 22.94600
C  -3.02300 17.17600 20.25500
C  0.09500 15.39900 20.88900
C  1.16100 16.04400 21.80600
N  -1.78600 15.02000 25.98500
C  -1.62300 13.95100 25.07700
C  -1.53400 12.71300 25.73500
C  -1.76700 13.05300 27.08200
C  -1.86800 14.43300 27.17900
C  -1.38500 11.29800 25.20500
C  -1.92100 12.53700 28.45700
O  -1.94100 11.37000 28.82100
C  -1.97500 13.77600 29.35300
C  -0.65600 13.70700 30.10200
O  0.40800 14.20500 29.72200
O  -0.87600 12.91900 31.22100
C  0.24800 12.65900 32.19100
H  -3.14800 20.55100 28.16100
H  -1.90800 19.50800 21.86100
H  -1.23900 13.37400 23.01700
H  -3.36900 16.54800 30.72100
H  -2.27500 19.19300 30.21100
H  -4.41300 19.87400 30.37400
H  -4.91900 18.23900 30.71100
H  -4.92600 18.87000 29.00600
H  -1.05200 17.89800 31.48300
H  -0.46800 16.43200 30.60700
H  -0.55100 15.80000 32.80100
H  -2.14500 15.28700 32.24500
H  -2.72200 22.53100 27.39500
H  -3.40700 23.37900 25.92000
H  -1.66400 23.18100 26.15700
H  -1.83200 24.23200 22.50400
H  -0.77300 23.91600 23.86600
H  -2.64400 24.09700 23.96400
H  -0.96300 17.53300 20.69500
H  -1.94600 14.80100 20.97700
H  -2.64200 17.56500 19.31000
H  -3.67700 17.90100 20.74000
H  -3.51300 16.21500 20.10000
H  0.29800 15.69300 19.85900
H  0.38900 14.34900 20.86200
H  0.68300 16.85200 22.35900
H  2.04300 16.44700 21.30900
H  1.47800 15.30200 22.53900
H  -0.87500 10.65900 25.92600
H  -0.71000 11.31300 24.34900
H  -2.40300 10.92800 25.08800
H  -2.79100 13.61200 30.05600
H  0.00300 11.71700 32.68100
H  0.22900 13.46800 32.92000
H  1.25500 12.61300 31.77600
Mg 1.69500 7.10200 25.23400
C  2.27800 9.23700 27.96900
C  2.02000 4.40300 27.37500
C  1.63600 5.23100 22.65300
C  1.84400 10.05500 23.18700
N  2.25900 6.86900 27.39900
C  2.24400 7.87100 28.34700
C  2.06100 7.32500 29.77200
C  2.17800 5.78100 29.60500
C  2.13800 5.68300 28.03600
C  3.45800 5.15600 30.29800
C  0.77200 7.84300 30.40400
C  0.83900 7.91100 31.96100
H  2.08200 7.35500 32.71700
N  1.59300 5.03100 25.09000
C  1.77400 4.08300 26.05200
C  1.82900 2.82200 25.47600
C  1.69200 3.00500 24.07100
C  1.62000 4.43900 23.82000
C  1.89000 1.51400 26.29800
C  1.48900 2.01700 22.92300
O  1.02400 2.29400 21.85600
C  1.56600 0.51200 23.27800
N  1.73600 7.57500 23.25600
C  1.60800 6.65400 22.36900
C  1.67500 7.16900 20.96700
C  1.49600 8.69400 21.16900
C  1.68000 8.78700 22.64300
C  2.96300 6.65900 20.09200
C  0.09500 9.22700 20.66500
C  -0.03700 9.36500 19.08400
N  1.99600 9.31500 25.44800
C  2.02000 10.31600 24.53100
C  2.17400 11.58400 25.23600
C  2.23000 11.26200 26.62700
C  2.20100 9.83700 26.63700
C  2.29000 12.93900 24.66600
C  2.43700 11.76800 27.95100
O  2.77800 12.86800 28.29300
C  2.24000 10.45800 28.97200
C  3.38400 10.56600 29.94600
O  4.53300 10.09600 29.80600
O  3.06400 11.36300 31.02000
C  4.12200 11.65900 32.01100
H  1.86500 3.52500 28.00500
H  1.76400 4.67400 21.72300
H  1.67900 10.91500 22.53600
H  2.88100 7.79600 30.31400
H  1.38200 5.19100 30.05900
H  3.91500 5.83100 31.02100
H  4.23300 4.88400 29.58100
H  3.12900 4.23400 30.77800
H  -0.15900 7.28800 30.28100
H  0.53000 8.82000 29.98600
H  -0.11900 7.62400 32.39500
H  0.73900 8.98100 32.13900
H  2.72100 0.91300 25.92700
H  0.98100 0.97500 26.03300
H  2.01600 1.63900 27.37400
H  0.69400 0.37300 23.91800
H  2.44000 0.31000 23.89700
H  1.56600 -0.13500 22.40100
H  0.87400 6.75000 20.35800
H  2.23100 9.24000 20.57700
H  3.79500 6.59600 20.79300
H  3.15600 7.44500 19.36100
H  2.92900 5.73000 19.52300
H  -0.00100 10.27700 20.94100
H  -0.69700 8.67200 21.16800
H  -0.53500 8.45900 18.74000
H  0.93000 9.35600 18.58000
H  -0.61200 10.22600 18.74200
H  1.52400 13.50000 25.20100
H  2.04100 12.92600 23.60500
H  3.31400 13.28600 24.80700
H  1.30400 10.69000 29.48000
H  3.62400 11.61500 32.98000
H  4.65800 12.60700 31.96900
H  4.85100 10.86900 32.19500

