158

Mg 46.69200 24.38800 28.37400
C  47.65900 26.71000 30.87500
C  46.55500 21.85600 30.81400
C  45.93000 22.18800 26.07500
C  47.98600 26.65600 26.11600
N  47.13400 24.25300 30.57400
C  47.32900 25.42600 31.35200
C  47.14700 25.00800 32.77500
C  46.83100 23.52300 32.77800
C  46.92600 23.13000 31.31300
C  47.83500 22.61400 33.54800
C  46.02800 25.83800 33.44800
C  45.52600 25.33200 34.83700
H  45.68200 26.20500 36.06100
N  46.12200 22.32600 28.53600
C  46.11100 21.50600 29.59900
C  45.52100 20.28600 29.22000
C  45.26600 20.31700 27.82100
C  45.80600 21.57400 27.41800
C  45.21200 19.15500 30.15400
C  44.85400 19.23100 26.87600
O  44.80600 19.41100 25.69300
C  44.52200 17.94700 27.35800
N  46.85900 24.39800 26.42100
C  46.41200 23.38400 25.61900
C  46.74300 23.65900 24.20100
C  47.12300 25.19200 24.23700
C  47.38200 25.45300 25.64800
C  47.85900 22.74200 23.57300
C  46.13200 26.12600 23.48200
C  46.57300 27.38300 22.80000
N  47.66000 26.28300 28.45500
C  48.09400 27.03800 27.45600
C  48.66700 28.29400 27.90400
C  48.38900 28.27500 29.24600
C  47.84600 26.96500 29.56600
C  49.18000 29.46900 27.16000
C  48.33400 29.07500 30.42500
O  48.65800 30.24200 30.55200
C  47.89500 28.06900 31.57700
C  48.78300 28.11400 32.78700
O  49.55100 27.24200 33.03400
O  48.59700 29.21100 33.59300
C  49.26700 29.20200 34.92900
H  46.45400 21.11800 31.61200
H  45.75700 21.58500 25.18100
H  48.24100 27.47300 25.43800
H  48.02000 25.20100 33.39800
H  45.83500 23.31300 33.16800
H  47.17200 21.92700 34.07300
H  48.39400 23.20400 34.27500
H  48.60800 22.04400 33.03100
H  45.16300 26.03600 32.81600
H  46.50700 26.81500 33.51100
H  46.27500 24.56200 35.02000
H  44.47300 25.06000 34.77200
H  44.38000 18.58600 29.73900
H  45.02900 19.46300 31.18300
H  46.04300 18.45000 30.12400
H  45.19700 17.44400 28.05000
H  44.45200 17.35600 26.44500
H  43.52300 18.03300 27.78500
H  45.84600 23.43300 23.62500
H  48.08100 25.42100 23.77000
H  48.81800 22.98200 24.03200
H  47.96000 22.62000 22.49500
H  47.51900 21.84200 24.08600
H  45.45700 26.50700 24.24900
H  45.58500 25.41100 22.86800
H  46.08900 28.29900 23.13900
H  46.47600 27.21400 21.72700
H  47.64400 27.56100 22.89700
H  48.31300 29.86800 26.63500
H  49.81600 29.16900 26.32700
H  49.73700 30.13500 27.82000
H  46.93000 28.36300 31.98900
H  48.73500 28.45400 35.51700
H  49.20600 30.16600 35.43600
H  50.28000 28.80300 34.89500
Mg 0.04900 43.61100 26.01400
C  2.44000 43.79700 28.65000
C  -2.29700 43.18700 28.32400
C  -2.15100 42.86300 23.49400
C  2.58600 44.01500 23.66600
N  0.08600 43.57600 28.24300
C  1.16400 43.59300 29.12700
C  0.68800 43.45800 30.61600
C  -0.89300 43.45500 30.48500
C  -1.05700 43.34100 28.93900
C  -1.54200 42.24200 31.21600
C  1.34200 44.65200 31.49500
C  0.83200 44.89400 32.99100
H  0.57300 43.66400 33.84700
N  -2.02700 43.01100 25.89600
C  -2.82000 42.95900 26.97300
C  -4.14100 42.81200 26.57500
C  -4.12200 42.68700 25.16400
C  -2.71800 42.83600 24.77000
C  -5.30200 42.80200 27.46200
C  -5.27000 42.58100 24.16300
O  -5.07800 42.38700 22.95500
C  -6.71000 42.74200 24.67300
N  0.10000 43.65200 23.94500
C  -0.85300 43.13100 23.13000
C  -0.46800 43.08000 21.63100
C  0.89300 43.81700 21.67900
C  1.23300 43.82800 23.19600
C  -0.62800 41.76400 20.91700
C  0.89600 45.22500 20.92600
C  1.60900 45.44600 19.64700
N  2.12300 43.92700 26.05200
C  3.01400 44.00500 24.99100
C  4.30100 44.23200 25.62100
C  4.17100 44.10500 26.99200
C  2.79100 43.94900 27.27000
C  5.58700 44.44800 24.94600
C  4.88900 43.94000 28.27800
O  6.07800 43.98200 28.52500
C  3.82900 43.94000 29.38900
C  4.14900 42.69900 30.16500
O  3.72800 41.57700 29.86400
O  4.94000 43.05300 31.24200
C  5.12700 42.08000 32.27900
H  -3.04100 43.12900 29.12100
H  -2.80800 42.65900 22.64600
H  3.34100 44.16200 22.89100
H  1.03400 42.43400 30.75900
H  -1.25800 44.40100 30.88400
H  -1.72200 41.41600 30.52800
H  -2.47500 42.55500 31.68300
H  -0.91500 41.81700 32.00100
H  1.34800 45.55900 30.89000
H  2.38500 44.36800 31.62800
H  0.05000 45.65200 33.01900
H  1.66200 45.48300 33.38200
H  -5.91500 43.69800 27.37300
H  -4.98700 42.51400 28.46500
H  -5.91500 42.00200 27.04800
H  -6.96200 43.70000 25.12700
H  -6.90100 41.86900 25.29700
H  -7.43300 42.68300 23.85900
H  -1.23500 43.73800 21.22500
H  1.68200 43.17200 21.29100
H  0.09200 41.03900 21.29600
H  -0.65000 41.92500 19.83900
H  -1.66000 41.48100 21.12400
H  1.52700 45.84100 21.56600
H  -0.14300 45.55200 20.89200
H  2.52900 44.86100 19.63300
H  1.84400 46.50500 19.75000
H  0.87700 45.16800 18.88900
H  5.52300 45.01200 24.01600
H  6.08700 43.50800 24.71200
H  6.02700 45.21700 25.58100
H  3.89100 44.85500 29.97700
H  5.85500 41.41000 31.82200
H  4.20800 41.56600 32.56100
H  5.57100 42.62800 33.11000

