158

Mg -0.03300 7.88500 26.19200
C  0.75800 10.19000 28.93700
C  0.12400 5.41600 28.53100
C  -0.02200 5.79800 23.71200
C  0.27800 10.58000 24.02800
N  0.21700 7.88800 28.47300
C  0.46500 8.94700 29.40300
C  0.26200 8.42200 30.82300
C  0.44100 6.91700 30.63800
C  0.10800 6.69800 29.13800
C  1.82000 6.35200 31.07400
C  -1.14900 8.81600 31.42600
C  -1.24900 8.52100 32.92400
H  0.03900 8.30700 33.76400
N  -0.01500 5.88100 26.12800
C  -0.01400 5.00300 27.21600
C  -0.22000 3.68600 26.78400
C  -0.26800 3.80100 25.30200
C  -0.11300 5.19200 25.01900
C  -0.40200 2.56000 27.73500
C  -0.48400 2.74400 24.26400
O  -0.66900 2.93200 23.09500
C  -0.49300 1.24700 24.68300
N  -0.00300 8.13700 24.24200
C  -0.12900 7.15600 23.36200
C  -0.22100 7.57600 21.86100
C  -0.58500 9.10100 22.06800
C  -0.08800 9.28900 23.56400
C  1.08700 7.39300 21.02400
C  -2.10700 9.65100 21.97600
C  -2.27700 11.03200 21.27200
N  0.28400 10.01900 26.38500
C  0.43700 10.95100 25.37500
C  0.85600 12.23800 25.98600
C  1.00200 11.98200 27.35800
C  0.59800 10.65100 27.59700
C  1.33300 13.51500 25.29600
C  1.51700 12.50400 28.64000
O  2.04500 13.62800 28.85800
C  1.18500 11.42100 29.66000
C  2.41000 11.00700 30.43500
O  3.24400 10.22700 30.11800
O  2.31100 11.55400 31.66700
C  3.37500 11.37500 32.68200
H  0.29100 4.61400 29.25300
H  0.09200 5.02800 22.94500
H  0.57900 11.31500 23.27900
H  0.99100 8.90500 31.47400
H  -0.37500 6.45600 31.19400
H  2.37400 7.16000 31.55000
H  2.45800 5.92800 30.29900
H  1.51700 5.56200 31.76100
H  -1.89500 8.15100 30.99000
H  -1.36600 9.87500 31.28700
H  -1.90500 7.65100 32.93000
H  -1.75700 9.36800 33.38500
H  0.58700 2.27500 28.09300
H  -1.03700 1.78700 27.30000
H  -1.04000 2.75300 28.59700
H  -0.39900 0.64900 23.77700
H  -1.38400 0.94200 25.23100
H  0.36200 1.22600 25.35800
H  -1.06000 7.07600 21.37900
H  0.06300 9.76100 21.49100
H  1.27000 8.33100 20.49800
H  0.89200 6.66100 20.24000
H  1.91000 7.00900 21.62600
H  -2.47300 9.80000 22.99200
H  -2.69500 8.97600 21.35300
H  -2.97700 10.72700 20.49400
H  -1.39900 11.34800 20.70800
H  -2.58200 11.83600 21.94200
H  0.70800 14.37900 25.52100
H  1.42600 13.33900 24.22400
H  2.29700 13.77200 25.73500
H  0.38400 11.77100 30.31100
H  3.47300 10.30100 32.84400
H  3.06700 11.95600 33.55100
H  4.28800 11.87400 32.35800
Mg -5.67000 25.75300 25.62400
C  -4.36400 26.90200 28.69800
C  -7.56800 23.62900 27.42800
C  -6.51000 24.35500 22.71900
C  -3.50600 27.94900 23.95800
N  -5.74600 25.16600 27.79300
C  -5.15900 25.81500 28.83000
C  -5.72600 25.33200 30.16700
C  -6.52500 23.97800 29.79100
C  -6.65600 24.26000 28.25900
C  -5.94800 22.64000 30.17000
C  -6.64400 26.39800 30.74900
C  -6.59600 26.63000 32.24600
H  -5.98200 25.49200 33.05900
N  -7.01200 24.34000 25.13600
C  -7.73200 23.61600 26.01400
C  -8.66800 22.83800 25.27600
C  -8.24700 22.79500 23.92800
C  -7.21400 23.87600 23.86800
C  -9.84200 22.13700 25.92700
C  -8.68300 22.00900 22.73600
O  -8.11800 22.13200 21.66700
C  -9.88900 21.12400 22.90200
N  -5.06900 26.09000 23.56000
C  -5.56100 25.35200 22.55000
C  -4.99500 25.84600 21.28800
C  -3.95600 26.91200 21.67500
C  -4.19800 27.06100 23.13300
C  -4.38500 24.69900 20.43500
C  -4.14600 28.20000 20.89700
C  -2.84700 28.94700 20.67900
N  -4.14200 27.07700 26.20400
C  -3.39700 27.97000 25.35700
C  -2.61700 28.80700 26.19300
C  -3.03200 28.47000 27.52800
C  -3.88800 27.41500 27.46100
C  -1.65500 29.86400 25.69300
C  -2.81000 28.83600 28.85700
O  -2.06500 29.62200 29.35400
C  -3.71500 27.83500 29.73400
C  -2.80100 27.14500 30.64700
O  -2.24300 26.10400 30.44400
O  -2.69100 27.92400 31.76600
C  -1.89100 27.30900 32.81900
H  -8.17100 22.95600 28.04100
H  -6.76400 23.92400 21.74900
H  -3.02200 28.86900 23.62500
H  -4.90400 25.03500 30.81800
H  -7.52500 23.94200 30.22400
H  -6.67300 22.09500 30.77500
H  -5.17400 22.93000 30.88000
H  -5.63200 22.03400 29.32000
H  -7.67900 26.10400 30.57700
H  -6.63400 27.31500 30.16100
H  -7.59500 26.76900 32.65900
H  -6.01900 27.54400 32.38900
H  -9.96700 22.47100 26.95700
H  -9.80400 21.04900 25.98800
H  -10.82100 22.26000 25.46300
H  -10.78200 21.68400 23.18000
H  -9.65100 20.35200 23.63300
H  -9.98400 20.65300 21.92300
H  -5.73100 26.29400 20.62200
H  -2.97100 26.44700 21.69800
H  -3.37800 24.86200 20.05400
H  -4.97500 24.55600 19.53000
H  -4.40600 23.72900 20.93300
H  -4.81500 28.80300 21.51100
H  -4.65200 28.04900 19.94400
H  -1.96400 28.31100 20.61300
H  -2.73800 29.71700 21.44200
H  -2.91600 29.49800 19.74100
H  -1.34300 30.50000 26.52100
H  -2.10400 30.52500 24.95100
H  -0.66800 29.50600 25.39700
H  -4.50400 28.37600 30.25600
H  -0.88200 27.04100 32.50300
H  -2.40500 26.43000 33.20900
H  -1.89300 27.97300 33.68300

