158

Mg 40.51100 9.08700 29.27000
C  42.61400 10.51000 31.81800
C  38.69000 7.58300 31.57100
C  39.13600 7.33300 26.72400
C  43.08200 10.11300 26.96300
N  40.77400 8.95400 31.37000
C  41.52200 9.78300 32.23800
C  41.14000 9.45000 33.73700
C  39.86800 8.54300 33.58700
C  39.74500 8.35900 32.04500
C  39.85300 7.14400 34.32300
C  40.84300 10.70500 34.64100
C  40.10000 10.50400 35.98400
H  40.87300 10.86800 37.28500
N  38.95300 7.81400 29.18200
C  38.34000 7.28200 30.25600
C  37.16600 6.50600 29.80200
C  37.35100 6.40700 28.36400
C  38.56400 7.19400 28.02600
C  36.35900 5.74800 30.82400
C  36.60900 5.65100 27.36300
O  36.84400 5.58900 26.14900
C  35.34500 4.86900 27.70000
N  41.01000 8.78500 27.18600
C  40.21700 8.13600 26.35600
C  40.61600 8.22700 24.86900
C  41.99700 8.94600 24.97400
C  42.01300 9.34300 26.46000
C  40.72200 6.84300 24.10100
C  42.21900 10.14300 24.00800
C  41.38600 11.44100 24.23800
N  42.39800 10.22400 29.30500
C  43.31100 10.52100 28.30100
C  44.48800 11.20600 28.86000
C  44.22600 11.28700 30.23200
C  42.95000 10.64100 30.48200
C  45.66300 11.63500 28.06500
C  44.72100 11.79200 31.47900
O  45.76800 12.38600 31.72800
C  43.67900 11.24800 32.53100
C  44.36900 10.48300 33.55000
O  44.99700 9.48300 33.47500
O  44.32000 11.15800 34.73800
C  44.75800 10.48700 36.02200
H  38.09300 7.12000 32.36000
H  38.72700 6.81600 25.85300
H  43.80600 10.36700 26.18600
H  42.03000 8.90800 34.05800
H  39.01000 9.16900 33.83200
H  40.64500 7.01500 35.06100
H  39.79100 6.28100 33.65900
H  38.81300 7.13900 34.64700
H  40.48000 11.57400 34.09200
H  41.69700 11.26100 35.02700
H  39.77400 9.46600 36.04200
H  39.17100 11.04600 35.80700
H  36.75000 5.81900 31.83900
H  36.29700 4.68000 30.61300
H  35.29000 5.96000 30.84400
H  34.58100 5.45100 28.21500
H  35.68400 4.06200 28.35000
H  34.86400 4.55900 26.77200
H  39.86500 8.81700 24.34300
H  42.75300 8.16200 24.91800
H  40.05600 6.80400 23.23800
H  40.56000 6.02500 24.80300
H  41.71000 6.64800 23.68500
H  41.91000 9.75500 23.03700
H  43.26600 10.44700 23.99100
H  41.95000 12.16700 24.82500
H  40.44600 11.31600 24.77500
H  41.11700 11.92500 23.29900
H  45.75100 11.07800 27.13300
H  46.47100 11.43300 28.76900
H  45.66400 12.68700 27.77900
H  43.21200 12.09500 33.03300
H  44.95800 9.43900 35.80100
H  44.04900 10.66200 36.83100
H  45.72200 10.92000 36.28800
Mg 9.59300 48.60200 26.43800
C  7.58900 48.61600 29.26200
C  12.18000 49.78800 28.25600
C  11.32700 48.68200 23.60700
C  6.58000 48.15900 24.37900
N  9.77600 49.27200 28.52500
C  8.88300 49.10400 29.51100
C  9.57500 49.40700 30.91600
C  10.83100 50.27200 30.48300
C  10.99000 49.74300 29.01100
C  10.62600 51.81200 30.51500
C  9.96200 48.08200 31.60800
C  9.44800 47.85700 33.01300
H  9.80500 46.62200 33.71700
N  11.53800 48.96500 26.02300
C  12.50400 49.37900 26.94800
C  13.78300 49.38700 26.30800
C  13.60200 48.97800 24.94300
C  12.11500 48.87900 24.81400
C  15.11500 49.63000 27.07100
C  14.64400 48.82300 23.88200
O  14.28400 48.71300 22.74200
C  16.08400 48.91900 24.16600
N  8.99300 48.64300 24.28200
C  9.93700 48.61000 23.34900
C  9.31200 48.29500 21.91800
C  7.86100 47.89700 22.19900
C  7.79600 48.21100 23.71900
C  9.55200 49.49900 20.94200
C  7.59900 46.40900 21.95800
C  7.56100 46.10100 20.43600
N  7.44900 48.53900 26.68800
C  6.42800 48.20100 25.80500
C  5.26600 47.90400 26.58900
C  5.66200 48.04500 27.90300
C  7.02000 48.43000 27.95300
C  3.86400 47.59500 26.09600
C  5.18300 47.99000 29.28800
O  4.06200 47.78800 29.74600
C  6.45900 48.27400 30.22100
C  6.65000 47.03200 30.95800
O  7.31100 46.09600 30.57500
O  5.81500 46.94500 32.05300
C  5.77200 45.75800 32.89100
H  12.90800 50.37500 28.81900
H  11.94300 48.52700 22.71900
H  5.78300 47.85700 23.69600
H  8.86000 49.96700 31.51900
H  11.72800 49.98600 31.03300
H  11.52100 52.33500 30.85000
H  9.80700 52.06200 31.18900
H  10.42800 52.32200 29.57200
H  11.03800 47.92400 31.68400
H  9.63400 47.27100 30.95900
H  8.37700 47.72900 32.86000
H  9.42000 48.77900 33.59400
H  14.86900 49.70300 28.13000
H  15.55300 50.60600 26.86000
H  15.80900 48.81000 26.89000
H  16.65400 48.97000 23.23800
H  16.23200 47.96800 24.67700
H  16.36400 49.77600 24.77800
H  9.83200 47.44400 21.47900
H  7.05300 48.43800 21.70700
H  10.20500 49.16900 20.13400
H  9.99100 50.35700 21.45200
H  8.60500 49.85200 20.53300
H  6.65000 46.11700 22.40700
H  8.43500 45.84100 22.36700
H  7.34700 47.00400 19.86500
H  6.81200 45.31300 20.35200
H  8.45900 45.56900 20.12100
H  3.13200 48.09300 26.73100
H  3.52900 46.55900 26.05300
H  3.75100 47.96100 25.07500
H  6.16400 49.11700 30.84400
H  6.17500 45.94700 33.88600
H  6.35000 44.89500 32.56300
H  4.70800 45.52200 32.91700

