158

Mg 9.13100 3.84700 27.70500
C  10.33200 2.15500 30.45700
C  7.28900 5.86900 29.85000
C  7.94100 5.47200 24.97600
C  10.64300 1.36300 25.65500
N  8.69600 3.88300 29.92500
C  9.52200 3.22300 30.85000
C  9.24900 3.72800 32.23300
C  8.14700 4.84000 32.01800
C  7.96800 4.87300 30.53100
C  6.83500 4.70000 32.74900
C  10.63800 4.08700 32.88700
C  10.63100 5.11400 34.01200
H  11.32300 4.74200 35.29800
N  7.85100 5.45400 27.47500
C  7.24600 6.17500 28.43700
C  6.45500 7.24100 27.85700
C  6.67600 7.15800 26.46300
C  7.48500 5.98800 26.25900
C  5.43300 8.04200 28.69100
C  6.08400 8.04200 25.41300
O  6.05300 7.80900 24.21700
C  5.24900 9.15500 25.83400
N  9.18000 3.44100 25.61900
C  8.64700 4.31200 24.72200
C  8.84400 3.77100 23.32300
C  9.68600 2.53900 23.55900
C  9.96100 2.43900 24.96700
C  7.54400 3.65600 22.47800
C  10.97200 2.35600 22.66000
C  11.14100 1.01900 22.01900
N  10.29500 2.05400 27.92900
C  10.80900 1.17200 27.04900
C  11.61700 0.19400 27.68800
C  11.54100 0.54700 29.08200
C  10.67100 1.65800 29.14900
C  12.34300 -0.97100 27.09200
C  11.96200 0.24700 30.44500
O  12.75500 -0.55600 30.89500
C  11.22900 1.31900 31.35300
C  10.50500 0.62400 32.49300
O  9.32500 0.25500 32.46200
O  11.35700 0.56300 33.54400
C  10.88700 0.23600 34.91600
H  6.83100 6.65700 30.45100
H  7.45000 5.97600 24.14100
H  11.04700 0.57700 25.01300
H  8.81000 2.91100 32.80500
H  8.58600 5.77800 32.35800
H  6.46700 5.72100 32.85300
H  7.00400 4.21400 33.71000
H  6.01300 4.11000 32.34500
H  11.18400 4.56800 32.07600
H  11.24400 3.32000 33.37000
H  9.60500 5.41100 34.22800
H  11.18700 5.96200 33.61400
H  4.46400 7.72700 28.30300
H  5.58500 9.10200 28.49100
H  5.51100 7.83800 29.75900
H  4.38000 8.87500 26.42900
H  4.88700 9.52500 24.87400
H  5.78200 9.97800 26.31100
H  9.52200 4.51800 22.91100
H  9.14400 1.61700 23.34700
H  6.73900 3.75100 23.20800
H  7.32000 2.70400 21.99900
H  7.38800 4.44200 21.73900
H  11.85800 2.41900 23.29200
H  11.07300 3.19300 21.96900
H  11.45100 1.17800 20.98600
H  10.23200 0.41900 21.97500
H  11.87500 0.39000 22.52200
H  12.80800 -1.57100 27.87400
H  13.10600 -0.50300 26.46900
H  11.79100 -1.57300 26.37100
H  12.06400 1.89000 31.76000
H  9.90300 0.68700 35.04800
H  11.52700 0.54100 35.74400
H  10.63600 -0.82200 34.98900
Mg -10.91800 40.41500 39.62900
C  -9.56000 37.31400 38.60500
C  -7.85500 41.84600 38.77600
C  -12.27400 43.39900 40.06000
C  -14.06000 38.87200 39.66900
N  -8.99000 39.69500 38.73300
C  -8.64100 38.38500 38.50600
C  -7.20200 38.25700 38.01000
C  -6.59500 39.64900 38.28700
C  -7.86000 40.42600 38.66500
C  -5.57700 39.80100 39.43600
C  -7.21000 37.91600 36.49900
C  -6.15800 37.04100 35.87900
H  -6.65900 36.20800 34.67500
N  -10.20300 42.37300 39.32400
C  -8.87000 42.79500 39.06800
C  -8.79200 44.20500 39.19800
C  -10.05700 44.69800 39.48100
C  -10.94000 43.47700 39.64800
C  -7.54300 45.09100 38.98300
C  -10.47000 46.16800 39.52100
O  -9.55900 46.99800 39.43000
C  -11.92200 46.60300 39.55600
N  -12.92000 40.97600 39.75900
C  -13.16800 42.33000 39.96000
C  -14.65200 42.56600 40.26100
C  -15.26700 41.16900 40.11200
C  -14.00900 40.25400 39.80600
C  -15.01500 43.09900 41.69800
C  -16.34500 41.13600 38.86300
C  -17.68700 41.76100 39.32200
N  -11.72400 38.41400 39.39400
C  -12.98400 37.97400 39.41800
C  -13.00000 36.54500 39.24500
C  -11.66300 36.23100 38.93700
C  -10.92900 37.45700 39.00900
C  -14.18600 35.60100 39.36500
C  -10.73900 35.17100 38.52100
O  -10.89300 33.98700 38.32900
C  -9.32200 35.82100 38.25500
C  -8.39500 35.12500 39.14400
O  -8.66000 34.76100 40.27200
O  -7.33800 34.69900 38.36600
C  -6.41400 33.78800 39.06800
H  -6.85300 42.26100 38.64800
H  -12.63300 44.34800 40.46400
H  -15.09300 38.58400 39.87300
H  -6.62700 37.49300 38.53400
H  -6.06800 40.10600 37.45000
H  -5.12100 40.77600 39.26600
H  -4.73200 39.11700 39.35500
H  -5.98700 39.81400 40.44600
H  -7.10700 38.83900 35.92900
H  -8.17900 37.52600 36.18700
H  -5.69100 36.40000 36.62600
H  -5.42200 37.69700 35.41500
H  -7.53600 45.47800 37.96400
H  -6.65700 44.45800 38.92800
H  -7.35000 45.81800 39.77200
H  -11.95300 47.45600 38.87800
H  -12.36500 46.77300 40.53700
H  -12.50500 45.87600 38.99000
H  -15.13100 43.27600 39.58600
H  -15.82000 40.84200 40.99300
H  -14.13000 43.50000 42.19300
H  -15.52700 42.53100 42.47400
H  -15.64100 43.95200 41.43700
H  -16.56800 40.22300 38.31000
H  -15.87500 41.80200 38.14000
H  -17.44100 42.65400 39.89700
H  -18.10300 40.98200 39.96100
H  -18.34600 42.03300 38.49800
H  -14.28500 35.01900 38.44900
H  -15.11700 36.16500 39.42600
H  -14.12200 34.84800 40.14900
H  -9.01100 35.66700 37.22200
H  -5.37100 34.03700 38.87300
H  -6.72400 32.74500 39.00100
H  -6.45200 33.92000 40.15000

