158

Mg 8.97300 2.86800 27.65500
C  9.88100 1.12100 30.60600
C  7.51500 5.22800 29.69200
C  7.57500 4.12500 24.90500
C  10.16900 0.17000 25.85800
N  8.89100 3.19800 29.89200
C  9.32500 2.34800 30.90100
C  9.16400 3.09200 32.25700
C  8.32300 4.36800 31.97800
C  8.24100 4.25200 30.42600
C  7.00900 4.59900 32.69900
C  10.42600 3.20300 33.10900
C  10.39600 4.29300 34.28500
H  11.21400 3.92800 35.50200
N  7.65700 4.45300 27.31400
C  7.24000 5.36400 28.28600
C  6.52300 6.37000 27.59600
C  6.42900 6.08200 26.20300
C  7.19500 4.81300 26.07200
C  6.01600 7.49800 28.39700
C  5.80000 6.86700 25.10100
O  5.87900 6.60700 23.90500
C  4.84700 7.96600 25.47400
N  8.61000 2.05700 25.68700
C  8.29400 2.87800 24.72200
C  8.51500 2.32700 23.28400
C  9.55100 1.24400 23.63600
C  9.43700 1.13400 25.18200
C  7.21300 1.81500 22.66100
C  11.02300 1.57200 23.20500
C  11.79900 0.46000 22.44100
N  9.90000 1.07300 28.07300
C  10.38800 0.10900 27.24800
C  11.05400 -0.93300 28.05800
C  10.91800 -0.55300 29.38600
C  10.12800 0.65700 29.35400
C  11.76100 -2.05200 27.60100
C  11.26900 -0.82600 30.72900
O  12.04800 -1.67200 31.18400
C  10.66200 0.22600 31.57800
C  9.88900 -0.26200 32.72300
O  8.70900 -0.42400 32.68300
O  10.77000 -0.51300 33.74800
C  10.11400 -1.00600 34.94500
H  7.17900 6.05100 30.32500
H  7.23500 4.64900 24.01000
H  10.68100 -0.51600 25.18000
H  8.64200 2.32100 32.82400
H  8.96100 5.24200 32.10700
H  7.16600 4.30100 33.73500
H  6.26100 4.04000 32.13600
H  6.73900 5.65100 32.78600
H  11.15100 3.67000 32.44200
H  10.63000 2.18900 33.45400
H  9.37100 4.54900 34.55100
H  10.92900 5.13600 33.84700
H  6.13600 8.47300 27.92400
H  6.43100 7.64000 29.39500
H  4.93700 7.38400 28.50900
H  5.40200 8.81500 25.87200
H  4.24600 7.60500 26.30900
H  4.10000 8.19000 24.71300
H  8.95500 3.16200 22.73900
H  9.32100 0.27000 23.20400
H  7.27700 0.72700 22.64700
H  7.17800 2.16000 21.62700
H  6.30700 2.19500 23.13200
H  11.59300 2.08600 23.97900
H  10.99600 2.37200 22.46500
H  11.53600 0.69500 21.41000
H  11.42800 -0.54100 22.66000
H  12.85200 0.61400 22.67600
H  12.61100 -1.58700 27.10300
H  11.27000 -2.77500 26.95000
H  11.90400 -2.63200 28.51300
H  11.54900 0.78900 31.87000
H  10.55900 -1.95200 35.25300
H  9.02700 -1.04700 35.00600
H  10.42100 -0.23600 35.65300
Mg 8.90400 47.55600 27.67700
C  7.51500 47.07500 30.87900
C  11.95500 48.14800 29.26200
C  10.22900 48.71600 24.78800
C  5.77000 47.54000 26.29800
N  9.67800 47.63100 29.86700
C  8.89400 47.36600 31.00600
C  9.75400 47.51900 32.23800
C  11.18500 48.04500 31.66400
C  10.97100 47.78900 30.15200
C  11.69900 49.44800 32.19400
C  9.77100 46.29600 33.18800
C  9.47300 46.66800 34.60400
H  9.96100 45.61800 35.59600
N  10.80900 48.18500 27.08100
C  11.90500 48.22200 27.87500
C  13.04900 48.28300 27.06400
C  12.59500 48.73900 25.78100
C  11.14600 48.66000 25.84200
C  14.39500 48.03100 27.62300
C  13.44900 49.09100 24.52100
O  12.90900 49.31200 23.46000
C  14.93600 49.04300 24.60200
N  8.14000 48.05300 25.83900
C  8.80700 48.52100 24.82200
C  8.04800 48.98100 23.61600
C  6.58500 48.39800 23.98900
C  6.82200 48.02600 25.50400
C  8.08900 50.45700 23.35900
C  6.28300 47.18300 23.19200
C  5.49800 47.50000 21.85700
N  7.00100 47.28800 28.35800
C  5.77900 47.32000 27.71000
C  4.71000 47.14000 28.64500
C  5.38200 46.95900 29.87300
C  6.73100 47.08700 29.68800
C  3.27900 47.33100 28.40400
C  5.08800 46.93400 31.30800
O  4.09700 46.84600 32.01300
C  6.51800 46.87900 32.00300
C  6.58400 45.50500 32.51600
O  6.69700 44.52300 31.80000
O  6.51600 45.52300 33.87800
C  6.79300 44.20500 34.58800
H  12.93100 48.32700 29.71900
H  10.66900 49.07700 23.85500
H  4.76900 47.52500 25.86100
H  9.28800 48.35500 32.76000
H  11.97700 47.30700 31.79200
H  11.87000 50.03800 31.29300
H  12.67900 49.42000 32.67000
H  10.99100 49.95500 32.85000
H  10.72500 45.78800 33.05000
H  9.07000 45.54300 32.82800
H  8.40400 46.81200 34.75600
H  9.82900 47.68400 34.77200
H  14.27100 47.30900 28.43000
H  14.99500 48.91200 27.85100
H  14.96700 47.51200 26.85300
H  15.28900 49.74100 25.36000
H  15.41600 49.18400 23.63300
H  15.21800 48.05700 24.97200
H  8.42000 48.46700 22.73000
H  5.80300 49.13500 23.80800
H  7.77500 50.50600 22.31600
H  9.10100 50.86100 23.38100
H  7.56800 51.17500 23.99300
H  5.63000 46.62200 23.86000
H  7.16900 46.60300 22.93300
H  5.39500 48.56000 21.62300
H  4.50100 47.12100 22.08000
H  6.04800 47.09900 21.00600
H  2.86400 46.33500 28.55500
H  3.06400 47.71200 27.40500
H  2.89600 47.93900 29.22400
H  6.54500 47.54200 32.86800
H  7.80000 43.85100 34.36400
H  6.01200 43.47700 34.37200
H  6.91900 44.52800 35.62200

