158

Mg 0.93600 8.01500 24.91400
C  2.04300 9.93600 27.68800
C  0.69000 5.34700 26.92600
C  0.65200 6.24700 22.22300
C  1.35600 10.97800 22.92400
N  1.58700 7.68600 27.07100
C  1.81600 8.63300 27.99500
C  1.70400 8.05300 29.42000
C  1.61400 6.53500 29.12700
C  1.20100 6.50700 27.62300
C  2.96300 5.74600 29.28900
C  0.56900 8.65800 30.38200
C  1.05200 9.13500 31.71100
H  2.01300 8.28600 32.49100
N  0.57100 6.15900 24.54400
C  0.41700 5.16600 25.53100
C  0.20800 3.84200 24.81200
C  0.33300 4.08900 23.40800
C  0.45600 5.55900 23.36000
C  -0.00500 2.45300 25.53500
C  0.19800 3.13000 22.18900
O  0.27700 3.52700 21.04600
C  -0.08900 1.59600 22.46400
N  1.01600 8.56600 22.83400
C  0.91400 7.60000 21.89100
C  1.34800 8.23300 20.51900
C  1.19700 9.71900 20.70400
C  1.18300 9.79900 22.18900
C  2.76500 7.71200 20.22600
C  -0.13100 10.31700 20.13400
C  -1.52500 9.63900 20.38200
N  1.48700 10.08700 25.17500
C  1.59800 11.12000 24.27900
C  1.98300 12.33900 25.06300
C  2.03000 11.96600 26.40900
C  1.89300 10.53900 26.40100
C  2.13400 13.71200 24.46800
C  2.29900 12.43300 27.73000
O  2.50900 13.53400 28.17300
C  2.21000 11.12800 28.64300
C  3.31900 11.06300 29.54300
O  4.41900 10.48100 29.41200
O  3.08300 11.96300 30.57300
C  4.27100 12.07600 31.47800
H  0.54200 4.50200 27.60300
H  0.62100 5.82500 21.21600
H  1.52100 11.86700 22.31000
H  2.60500 8.32400 29.97000
H  0.74600 6.10000 29.62200
H  2.73000 4.86600 29.88900
H  3.68600 6.36700 29.81600
H  3.36500 5.43000 28.32700
H  -0.16300 7.86900 30.55500
H  0.17800 9.56000 29.91100
H  0.20300 9.39000 32.34500
H  1.49000 10.13200 31.66900
H  -0.82600 1.87000 25.11700
H  -0.18100 2.54500 26.60700
H  0.83800 1.80000 25.30800
H  0.78000 1.05700 22.84200
H  -0.42300 1.14700 21.52900
H  -0.93000 1.52600 23.15300
H  0.61300 8.01900 19.74300
H  2.05800 10.21500 20.25600
H  3.24100 7.06500 20.96200
H  3.44500 8.53000 19.99300
H  2.69500 7.21800 19.25700
H  0.11900 10.49900 19.08900
H  -0.29300 11.26700 20.64300
H  -1.41000 8.70600 20.93400
H  -1.91200 9.52700 19.37000
H  -2.24200 10.29600 20.87400
H  1.19000 14.01700 24.01600
H  2.91800 13.59100 23.72100
H  2.35700 14.36700 25.31000
H  1.32800 11.32600 29.25200
H  3.93000 12.75800 32.25700
H  5.13800 12.46900 30.94700
H  4.47800 11.12300 31.96700
Mg 23.82600 -6.58600 47.46600
C  26.44900 -4.30800 46.39200
C  22.01200 -5.38500 44.95100
C  21.85500 -9.11600 48.12400
C  26.34500 -8.00600 49.56100
N  24.25600 -4.95900 45.92500
C  25.29200 -4.19900 45.63100
C  25.01300 -3.16900 44.48000
C  23.49600 -3.36600 44.19700
C  23.17300 -4.63700 45.09800
C  22.66600 -2.03700 44.57500
C  25.85100 -3.45000 43.17900
C  26.60300 -2.19800 42.57800
H  26.54300 -1.99600 41.05000
N  22.08700 -7.28200 46.60000
C  21.52000 -6.66500 45.56200
C  20.33000 -7.34300 45.26900
C  20.14500 -8.33900 46.30700
C  21.38200 -8.31600 47.07200
C  19.45500 -6.92600 44.07500
C  18.87700 -9.10800 46.47600
O  17.86000 -8.90600 45.83600
C  18.80400 -10.13400 47.49500
N  24.14000 -8.37700 48.56800
C  23.13400 -9.26700 48.73800
C  23.38100 -10.19600 50.04200
C  24.88500 -9.90900 50.28000
C  25.16600 -8.66500 49.44200
C  22.38000 -9.87000 51.17500
C  25.98200 -11.03200 49.90100
C  27.19000 -11.16700 50.81400
N  25.90000 -6.19000 48.07100
C  26.71400 -6.88500 48.88500
C  28.04800 -6.24600 48.92600
C  27.92600 -5.18900 47.99600
C  26.65100 -5.26500 47.43300
C  29.18000 -6.73800 49.72800
C  28.63300 -3.99000 47.49800
O  29.75000 -3.51500 47.72200
C  27.69900 -3.40700 46.36800
C  27.40100 -2.03800 46.87900
O  26.73900 -1.79500 47.86900
O  27.80400 -1.03800 45.91800
C  27.56600 0.33300 46.43400
H  21.35900 -4.91700 44.21100
H  21.18000 -9.89800 48.47900
H  27.03300 -8.49400 50.25500
H  25.24400 -2.16100 44.82700
H  23.29700 -3.67400 43.17100
H  23.30600 -1.34200 45.11900
H  21.71400 -2.20400 45.07700
H  22.49500 -1.52900 43.62500
H  25.31500 -3.94600 42.36900
H  26.73800 -4.03500 43.42000
H  27.67100 -2.25600 42.78600
H  26.17600 -1.31600 43.05600
H  19.85500 -7.41500 43.18700
H  19.53100 -5.85400 43.89100
H  18.40100 -7.17300 44.20500
H  18.63800 -9.67700 48.47000
H  19.69000 -10.74100 47.30600
H  17.98100 -10.79100 47.21200
H  23.32600 -11.22700 49.69300
H  25.08700 -9.53700 51.28400
H  21.77600 -10.72900 51.46600
H  21.64300 -9.14600 50.82700
H  22.97300 -9.38600 51.95200
H  26.41300 -10.83800 48.91900
H  25.57800 -12.04100 49.81900
H  27.16100 -12.17900 51.21800
H  27.04300 -10.36500 51.53800
H  28.12700 -10.96400 50.29700
H  29.11700 -7.79800 49.97300
H  29.27800 -6.05600 50.57300
H  30.05600 -6.55500 49.10700
H  28.21500 -3.29300 45.41400
H  27.75800 0.38700 47.50500
H  26.53200 0.57600 46.19000
H  28.24400 0.92900 45.82300

