158

Mg -0.77300 17.82800 27.07900
C  -1.48700 15.81300 30.02600
C  -1.28900 20.59300 29.21300
C  -0.65200 19.69700 24.39100
C  -1.03800 14.95400 25.14000
N  -1.20200 18.17300 29.43500
C  -1.44400 17.22500 30.35900
C  -1.65400 17.85400 31.76000
C  -2.02000 19.32400 31.38800
C  -1.52700 19.39400 29.92700
C  -3.61000 19.54500 31.61600
C  -0.50000 17.68600 32.76200
C  -0.91000 16.98900 33.99800
H  0.11400 16.38100 35.05700
N  -0.75700 19.94000 26.81300
C  -0.91700 20.87700 27.81900
C  -0.77600 22.17300 27.15600
C  -0.56300 21.93200 25.73600
C  -0.65200 20.44700 25.57700
C  -1.00800 23.54000 27.79400
C  -0.32000 22.91200 24.57900
O  -0.11900 22.54900 23.40300
C  -0.23900 24.42300 24.91800
N  -0.62700 17.39200 25.07900
C  -0.67100 18.34000 24.15200
C  -0.59600 17.67800 22.75900
C  -0.63000 16.18100 23.05700
C  -0.68700 16.13800 24.54600
C  -1.55200 18.20300 21.75600
C  0.53500 15.41400 22.38500
C  1.92900 15.54200 22.99700
N  -1.16500 15.77600 27.48000
C  -1.23300 14.76000 26.51100
C  -1.49300 13.57200 27.20500
C  -1.61600 13.87500 28.58100
C  -1.47500 15.31700 28.68200
C  -1.77500 12.21500 26.64600
C  -1.91500 13.36900 29.89200
O  -2.09100 12.15900 30.18100
C  -1.75000 14.56000 30.92500
C  -0.77100 14.23400 31.90800
O  0.33900 14.67400 31.92000
O  -1.30600 13.45600 32.90700
C  -0.26700 13.12100 33.90600
H  -1.41100 21.52700 29.76500
H  -0.73400 20.18400 23.41700
H  -1.05900 14.05100 24.52700
H  -2.58300 17.35700 32.04000
H  -1.54000 20.05800 32.03600
H  -4.04300 19.62700 30.61900
H  -3.83200 20.44700 32.18500
H  -4.20800 18.74000 32.04200
H  -0.12800 18.64700 33.11700
H  0.43300 17.21900 32.44400
H  -1.82000 16.45000 33.73300
H  -1.32900 17.78300 34.61500
H  -1.72200 24.22600 27.33700
H  -0.10500 24.13000 27.95100
H  -1.35800 23.39000 28.81500
H  -1.20200 24.82000 25.23900
H  0.07300 24.88800 23.98300
H  0.57400 24.66400 25.60200
H  0.40600 17.91300 22.40200
H  -1.61200 15.82300 22.74900
H  -2.23400 18.95700 22.14800
H  -2.19700 17.45900 21.28700
H  -1.05500 18.75200 20.95600
H  0.59700 15.80600 21.36900
H  0.27900 14.36600 22.22900
H  1.96200 16.14300 23.90600
H  2.54800 15.99000 22.22000
H  2.24400 14.54100 23.29400
H  -1.53100 11.52500 27.45400
H  -1.03300 11.97100 25.88500
H  -2.80000 12.05700 26.31100
H  -2.71200 14.51100 31.43500
H  -0.19900 12.03300 33.87800
H  -0.70100 13.47200 34.84200
H  0.76200 13.47100 33.83100
Mg 0.04000 7.64200 27.73200
C  1.07900 10.05100 30.13300
C  -0.46300 5.43600 30.43500
C  -1.04300 5.35300 25.59700
C  1.06600 9.80400 25.23300
N  0.30100 7.75200 29.96400
C  0.60800 8.86200 30.70600
C  0.29500 8.55600 32.18800
C  0.25100 6.98900 32.28800
C  0.06600 6.69400 30.76600
C  1.48600 6.31000 32.98500
C  -1.04200 9.23200 32.50300
C  -1.69800 9.00500 33.90300
H  -0.85500 8.67400 35.09500
N  -0.68400 5.67700 27.93800
C  -0.98100 5.01700 29.13200
C  -1.63800 3.78600 28.75200
C  -1.82500 3.78100 27.38700
C  -1.17100 4.92800 26.94300
C  -2.08100 2.84100 29.81500
C  -2.54200 2.77800 26.53100
O  -2.76300 2.90600 25.31400
C  -3.16600 1.62100 27.20700
N  0.17600 7.55000 25.69600
C  -0.44100 6.51600 25.00800
C  -0.70900 6.90900 23.56100
C  0.08400 8.30400 23.41600
C  0.50200 8.57400 24.84100
C  -0.25100 5.70000 22.65400
C  -0.74900 9.47100 22.83900
C  0.01200 10.40300 21.77300
N  0.76900 9.55600 27.66400
C  1.25900 10.29900 26.54300
C  1.72600 11.63200 27.03300
C  1.66300 11.54500 28.36200
C  1.12100 10.26000 28.71800
C  2.20000 12.83900 26.24000
C  1.87000 12.29700 29.62200
O  2.23300 13.46400 29.79000
C  1.49700 11.31600 30.87300
C  2.66100 10.99700 31.69700
O  3.53000 10.14600 31.50500
O  2.78400 11.94400 32.65000
C  4.01200 11.90200 33.46900
H  -0.62400 4.73200 31.25400
H  -1.63400 4.96600 24.76400
H  1.29600 10.48400 24.41000
H  1.05600 8.95000 32.86200
H  -0.63300 6.80800 32.89900
H  1.90400 5.51000 32.37500
H  1.07200 5.96700 33.93400
H  2.19000 7.11600 33.18900
H  -1.80100 8.97000 31.76600
H  -0.82500 10.30000 32.48500
H  -2.49300 8.26100 33.87000
H  -2.20500 9.92900 34.18100
H  -2.36000 3.42600 30.69100
H  -1.29100 2.14000 30.08300
H  -2.96200 2.22000 29.65300
H  -3.63600 1.04700 26.40900
H  -3.96600 2.04400 27.81500
H  -2.34600 1.19700 27.78700
H  -1.76000 7.16900 23.43900
H  0.91500 8.07700 22.74900
H  -1.10400 5.22500 22.16900
H  0.25000 4.95200 23.26800
H  0.42000 5.93400 21.82700
H  -1.04700 10.17500 23.61700
H  -1.61400 8.97900 22.39500
H  -0.57500 10.51100 20.86100
H  1.04700 10.12600 21.57400
H  0.12100 11.35400 22.29600
H  2.76500 13.51300 26.88400
H  1.30900 13.39500 25.94700
H  2.67700 12.55500 25.30200
H  0.66600 11.47400 31.56100
H  4.70400 12.45900 32.83700
H  4.31900 10.87300 33.65500
H  3.73200 12.40500 34.39500

