158

Mg 34.95200 2.86400 30.11000
C  32.89200 3.89000 32.47000
C  37.49100 2.72500 32.24500
C  36.88500 2.04900 27.44600
C  32.36000 3.51100 27.64700
N  35.21000 3.34400 32.12200
C  34.18300 3.62800 32.96500
C  34.65800 3.71300 34.41200
C  36.19500 3.48100 34.32200
C  36.36400 3.23800 32.80800
C  37.10100 4.70700 34.70100
C  33.89600 2.79400 35.47400
C  33.22000 3.67200 36.64400
H  33.97700 4.78900 37.14700
N  36.91000 2.41900 29.92300
C  37.82300 2.33100 30.93300
C  39.14700 2.07800 30.33500
C  38.85500 1.80700 28.95500
C  37.46300 2.09400 28.71900
C  40.39700 2.00300 31.12800
C  39.94700 1.37200 27.93200
O  39.69000 1.19600 26.74400
C  41.39800 1.08500 28.37200
N  34.69900 2.88800 27.77700
C  35.58000 2.32600 26.95700
C  35.13100 2.27300 25.49300
C  33.66700 2.69700 25.62700
C  33.53400 3.07800 27.11800
C  36.08300 3.13000 24.64400
C  32.48600 1.83400 25.13500
C  32.35900 0.47900 25.86300
N  33.04300 3.58600 30.01800
C  32.07000 3.76600 29.02600
C  30.81300 3.95400 29.63900
C  31.03200 4.08900 30.97400
C  32.45800 3.83100 31.15400
C  29.55300 4.04700 28.87300
C  30.40300 4.40400 32.26900
O  29.24400 4.58600 32.54400
C  31.59700 4.36500 33.23800
C  31.63700 5.70200 33.85500
O  32.29800 6.61700 33.47400
O  30.79700 5.87300 34.93400
C  30.94700 7.07500 35.80700
H  38.28500 2.72400 32.99500
H  37.51300 1.77100 26.59800
H  31.56900 3.68900 26.91500
H  34.46500 4.74200 34.71900
H  36.48600 2.58200 34.86500
H  37.53700 4.46900 35.67100
H  36.48200 5.58400 34.88800
H  37.81300 4.81400 33.88300
H  34.54100 2.11300 36.03000
H  33.06700 2.23500 35.04200
H  32.99700 2.95000 37.42900
H  32.28700 4.01500 36.19700
H  41.23900 2.34600 30.52600
H  40.60200 0.95300 31.33500
H  40.36200 2.58900 32.04700
H  42.00700 1.95100 28.63300
H  41.88000 0.74500 27.45600
H  41.40800 0.28400 29.11100
H  35.19300 1.24300 25.14100
H  33.50300 3.57000 24.99600
H  37.01200 3.51500 25.06600
H  35.53100 3.98400 24.25100
H  36.37500 2.42700 23.86400
H  32.63500 1.61700 24.07700
H  31.54800 2.39000 25.15300
H  31.32500 0.14000 25.79600
H  32.69800 0.46300 26.89900
H  32.91300 -0.24000 25.25900
H  29.60900 4.85800 28.14700
H  28.68600 4.21600 29.51100
H  29.51700 3.06100 28.40900
H  31.40600 3.62300 34.01300
H  30.79800 6.74700 36.83600
H  30.27000 7.89100 35.55300
H  31.94700 7.50700 35.81100
Mg 49.84700 35.71900 26.12600
C  47.88700 34.41500 28.78400
C  49.88700 38.71100 27.96400
C  51.21300 37.17000 23.53300
C  48.79300 33.03900 24.15600
N  49.26800 36.39900 28.24400
C  48.63800 35.60200 29.15200
C  48.52700 36.34500 30.51800
C  48.81300 37.82200 30.14600
C  49.31100 37.63600 28.71100
C  47.55800 38.72300 30.24900
C  49.48400 35.66900 31.45500
C  49.11800 35.45900 33.01400
H  47.89400 36.27700 33.55100
N  50.54200 37.67900 25.84500
C  50.47700 38.75300 26.70300
C  51.11300 39.87600 26.09100
C  51.69300 39.45500 24.83700
C  51.18800 38.04500 24.69900
C  51.16500 41.26400 26.87300
C  52.56200 40.21700 23.92500
O  53.01700 39.81700 22.85900
C  53.02400 41.55900 24.31400
N  49.88200 35.21000 24.13000
C  50.57600 35.93700 23.23500
C  50.65900 35.24500 21.84000
C  50.00500 33.84300 22.13200
C  49.47200 34.05100 23.55200
C  50.03100 36.07800 20.77200
C  51.07400 32.65500 22.07100
C  50.92700 31.60000 21.04800
N  48.70000 34.04600 26.37400
C  48.38200 33.01400 25.53400
C  47.52400 32.02600 26.17100
C  47.31500 32.52500 27.46200
C  48.03700 33.75600 27.57100
C  46.84800 30.83900 25.54100
C  46.56800 32.28700 28.63000
O  45.94200 31.30400 28.93700
C  46.82400 33.58200 29.49800
C  47.37400 33.07600 30.70800
O  48.33300 32.39400 30.88800
O  46.32300 33.25900 31.65800
C  46.30600 32.50900 32.84100
H  49.88800 39.65200 28.51900
H  51.84900 37.71100 22.82900
H  48.45500 32.25500 23.47400
H  47.56400 36.22000 31.01300
H  49.51100 38.34100 30.80300
H  47.16500 38.99400 29.26900
H  47.76200 39.62400 30.82700
H  46.71800 38.21100 30.71700
H  50.39200 36.27200 31.48000
H  49.68800 34.71900 30.96200
H  49.91900 35.77400 33.68200
H  48.94800 34.40100 33.21200
H  52.15600 41.70600 26.97600
H  50.90200 41.09400 27.91700
H  50.49400 41.92100 26.32000
H  52.23100 42.27700 24.52500
H  53.49100 41.96400 23.41600
H  53.83100 41.67800 25.03600
H  51.67700 35.07500 21.49000
H  49.22000 33.64900 21.40100
H  50.18500 37.14300 20.94300
H  48.95200 36.01100 20.91300
H  50.32300 35.72000 19.78500
H  51.11800 32.19500 23.05700
H  52.07900 33.07200 22.01500
H  51.29000 30.62500 21.37300
H  51.70100 31.85400 20.32400
H  49.88100 31.56400 20.74100
H  45.75800 30.80400 25.52800
H  47.19400 29.92900 26.03200
H  47.05700 30.87000 24.47200
H  45.98000 34.23500 29.71800
H  45.77600 31.57200 32.66900
H  45.78000 33.00100 33.65900
H  47.29200 32.18300 33.17300

