158

Mg 47.88200 34.78700 26.63900
C  45.70600 33.25000 29.04000
C  48.19300 37.59800 28.75000
C  49.71100 36.30600 24.32500
C  47.21300 32.19300 24.51400
N  46.93500 35.28800 28.63800
C  46.26200 34.46600 29.47400
C  46.42200 34.99400 30.95000
C  46.86400 36.55400 30.64500
C  47.40500 36.53900 29.22800
C  45.62700 37.53100 30.89700
C  47.52400 34.32100 31.84700
C  47.30000 34.45900 33.43000
H  46.11500 35.26900 33.92400
N  48.79900 36.70200 26.56500
C  48.77900 37.69800 27.46700
C  49.40000 38.89100 26.97300
C  49.80700 38.52600 25.65200
C  49.43600 37.12000 25.45000
C  49.40700 40.22200 27.79100
C  50.42500 39.43900 24.58200
O  50.65800 39.14100 23.43200
C  50.86500 40.78000 25.03700
N  48.21800 34.42700 24.61300
C  49.14200 35.10400 23.95200
C  49.63200 34.32600 22.72400
C  48.80200 33.04400 22.65900
C  48.03800 33.19800 24.02800
C  49.56900 35.09300 21.42900
C  49.66500 31.67100 22.57800
C  49.64300 31.03100 21.16900
N  46.65300 33.14300 26.66400
C  46.57300 32.11500 25.75000
C  45.64600 31.06800 26.24900
C  45.27800 31.49200 27.46400
C  45.93100 32.74000 27.73200
C  45.18100 29.94700 25.46200
C  44.45400 31.18300 28.63100
O  43.77300 30.19800 28.81400
C  44.71400 32.22300 29.70000
C  45.09700 31.66100 30.95300
O  46.08900 31.04100 31.13600
O  44.13400 31.90800 31.92000
C  44.40000 31.32400 33.25800
H  48.14800 38.40900 29.48000
H  50.43100 36.65700 23.58200
H  46.99500 31.37400 23.82500
H  45.52700 34.94100 31.56900
H  47.68200 36.79000 31.32600
H  44.73100 36.97000 31.16200
H  45.45300 38.09100 29.97800
H  45.87700 38.13500 31.76900
H  48.52600 34.57400 31.50000
H  47.45100 33.24700 31.67500
H  48.20300 34.91700 33.83500
H  47.32300 33.41800 33.75100
H  48.91200 40.96500 27.16600
H  50.44600 40.51500 27.94200
H  48.75900 40.15200 28.66400
H  50.00800 41.43600 25.18400
H  51.64500 41.10100 24.34700
H  51.36100 40.73500 26.00700
H  50.68800 34.13700 22.91900
H  48.00400 33.10700 21.91900
H  49.01300 34.57800 20.64500
H  50.54300 35.38400 21.03600
H  49.06000 36.02900 21.65700
H  49.07200 31.03500 23.23500
H  50.69700 31.65000 22.92900
H  49.26300 31.68300 20.38300
H  49.06200 30.10900 21.19400
H  50.65500 30.88600 20.79000
H  45.90000 29.12700 25.48600
H  44.99200 30.33000 24.45900
H  44.20800 29.62000 25.83000
H  43.67400 32.54500 29.65700
H  43.64500 30.56600 33.46800
H  44.15600 32.00200 34.07500
H  45.45900 31.13700 33.43300
Mg -9.65500 40.55100 39.50600
C  -8.61700 37.38600 38.68300
C  -6.55300 41.71700 38.73100
C  -10.91900 43.65700 39.57200
C  -12.89400 39.23300 39.96300
N  -7.81200 39.57700 38.78400
C  -7.58300 38.24800 38.55600
C  -6.04500 38.00800 38.12900
C  -5.41900 39.41100 38.40400
C  -6.66300 40.29200 38.63800
C  -4.49800 39.48700 39.69900
C  -5.89300 37.45200 36.65400
C  -6.69700 38.26400 35.54400
H  -7.58500 37.42100 34.64000
N  -8.91200 42.45200 39.05500
C  -7.58500 42.72900 38.80800
C  -7.39300 44.13600 38.58000
C  -8.59300 44.78200 39.08800
C  -9.52600 43.66400 39.30600
C  -6.13400 44.77600 38.17900
C  -8.79300 46.23900 39.21400
O  -8.03400 47.03700 38.66000
C  -9.92100 46.75300 39.97000
N  -11.69800 41.30500 39.48000
C  -11.86000 42.60000 39.65100
C  -13.36700 42.92900 39.84800
C  -14.01300 41.53500 40.05800
C  -12.78700 40.58600 39.94800
C  -13.64400 43.81600 41.06200
C  -15.21400 41.11700 39.20000
C  -16.49500 40.71500 39.97300
N  -10.56600 38.69000 39.45600
C  -11.88900 38.35400 39.61300
C  -12.09300 36.93500 39.48300
C  -10.77900 36.45300 39.07700
C  -9.90000 37.61400 39.08100
C  -13.35900 36.14900 39.68100
C  -10.02600 35.27800 38.72900
O  -10.39600 34.10400 38.72300
C  -8.52100 35.85600 38.50000
C  -7.53800 35.05500 39.33700
O  -7.72100 34.90400 40.54300
O  -6.48300 34.48700 38.65800
C  -5.37500 34.03700 39.49000
H  -5.52500 42.08300 38.69200
H  -11.23600 44.67400 39.81000
H  -13.87200 38.75000 40.01100
H  -5.73100 37.23300 38.82700
H  -4.81500 39.72500 37.55200
H  -4.98600 40.13200 40.42900
H  -3.45600 39.71500 39.47300
H  -4.50700 38.45400 40.04700
H  -6.09400 36.38600 36.54900
H  -4.83900 37.55800 36.39900
H  -5.94800 38.59500 34.82500
H  -7.31300 39.06800 35.94600
H  -6.38400 45.56300 37.46700
H  -5.36200 44.04500 37.93800
H  -5.77400 45.31700 39.05400
H  -9.99000 46.16400 40.88500
H  -10.84400 46.59600 39.41200
H  -9.80400 47.82000 40.15700
H  -13.73900 43.34800 38.91300
H  -14.28900 41.38600 41.10200
H  -14.31100 43.42100 41.82800
H  -14.01000 44.80200 40.77500
H  -12.66600 43.89200 41.53600
H  -14.85400 40.28300 38.59800
H  -15.38000 41.92300 38.48500
H  -17.19600 41.50200 39.69400
H  -16.27700 40.62900 41.03700
H  -16.83100 39.79800 39.48700
H  -14.22700 36.29400 39.03900
H  -13.76300 36.53500 40.61700
H  -13.04600 35.10500 39.69900
H  -8.30500 35.57100 37.47000
H  -4.46800 34.22500 38.91600
H  -5.46300 32.97400 39.71500
H  -5.41400 34.54100 40.45500

