158

Mg 16.12000 51.41600 24.83400
C  17.45400 50.61000 27.88700
C  13.14600 52.33400 26.66400
C  14.63500 52.44900 22.07300
C  18.70800 50.20700 23.14000
N  15.45600 51.74700 27.10300
C  16.26400 51.30800 28.12400
C  15.68700 51.83000 29.45100
C  14.24100 52.20300 29.07900
C  14.27800 52.10100 27.54000
C  13.16100 51.36500 29.79700
C  16.53700 53.02800 30.11500
C  16.71100 53.08500 31.61800
H  15.55700 52.33100 32.48100
N  14.24900 52.26600 24.39200
C  13.12700 52.56800 25.26500
C  12.05100 53.06200 24.58200
C  12.48900 53.14300 23.17300
C  13.79000 52.61200 23.15200
C  10.74100 53.42700 25.24000
C  11.72700 53.63800 21.94000
O  12.20400 53.84300 20.83800
C  10.35000 54.05900 22.10800
N  16.58000 51.15800 22.79100
C  15.79100 51.69000 21.83800
C  16.43100 51.43600 20.45200
C  17.85800 50.94000 20.87100
C  17.76800 50.81600 22.35400
C  15.83800 50.37500 19.51400
C  18.98200 52.01100 20.50300
C  18.92500 52.52400 19.09000
N  17.76300 50.59700 25.34500
C  18.77500 50.06900 24.54500
C  19.84900 49.51700 25.39700
C  19.31600 49.70000 26.65100
C  18.08700 50.29900 26.58100
C  21.08200 48.90200 24.90800
C  19.68500 49.53600 28.04600
O  20.66500 49.12300 28.61900
C  18.52400 50.11300 28.87900
C  18.07500 49.17800 29.99800
O  17.19400 48.34800 29.90400
O  18.86300 49.42600 31.11200
C  18.36700 48.89200 32.38000
H  12.21100 52.59800 27.16300
H  14.28400 52.96500 21.17800
H  19.65800 49.97900 22.65200
H  15.72700 51.05400 30.21500
H  13.94700 53.23700 29.26100
H  12.33500 52.01300 30.08900
H  13.50300 50.86600 30.70400
H  12.84100 50.56500 29.13000
H  15.94200 53.85300 29.72200
H  17.52800 53.08200 29.66500
H  16.93200 54.07200 32.02400
H  17.66800 52.57700 31.73800
H  10.31700 54.31300 24.76700
H  10.75000 53.69000 26.29800
H  10.13000 52.54200 25.06200
H  9.60800 53.41300 22.57800
H  10.01000 54.34500 21.11200
H  10.46600 54.95900 22.71100
H  16.45500 52.44000 20.03000
H  18.14700 49.97000 20.46800
H  15.24700 49.68800 20.11900
H  16.55800 49.82700 18.90600
H  15.09400 50.78600 18.83200
H  19.90700 51.44100 20.58600
H  18.93600 52.78900 21.26400
H  18.44400 51.79700 18.43600
H  19.98700 52.54600 18.84400
H  18.41900 53.47900 18.95100
H  21.88000 49.64400 24.95000
H  20.87500 48.48500 23.92300
H  21.46700 48.11900 25.56100
H  18.97600 50.95500 29.40200
H  17.59800 49.55800 32.77000
H  19.09200 48.90100 33.19400
H  18.05200 47.85100 32.30900
Mg -8.79100 18.39800 42.90500
C  -5.40400 17.59800 42.62000
C  -8.11400 21.62300 42.07700
C  -12.13100 18.88700 42.66200
C  -9.40900 14.94200 43.10100
N  -6.98300 19.43200 42.60700
C  -5.70700 18.97500 42.49800
C  -4.68100 20.09200 42.25900
C  -5.60500 21.38400 42.48600
C  -7.02600 20.80600 42.42300
C  -5.29600 22.23800 43.77500
C  -4.03300 20.07900 40.84300
C  -5.05000 20.13400 39.60500
H  -4.80300 19.07500 38.54200
N  -10.02600 20.06300 42.44400
C  -9.52800 21.32500 42.09900
C  -10.68800 22.15600 41.93200
C  -11.86700 21.36400 42.01600
C  -11.38200 20.01500 42.37800
C  -10.45700 23.61400 41.53100
C  -13.28900 21.83500 41.65800
O  -13.54000 22.97500 41.30700
C  -14.40100 20.86300 41.49200
N  -10.53900 17.06400 42.71000
C  -11.81900 17.54300 42.82300
C  -12.85500 16.39300 42.83600
C  -12.00800 15.13400 42.74600
C  -10.56100 15.75600 42.85000
C  -14.00200 16.54500 43.92500
C  -12.29200 14.18500 41.57500
C  -13.26600 13.07500 41.99300
N  -7.66400 16.55900 42.93300
C  -8.04600 15.21200 42.99000
C  -6.83300 14.37600 43.12400
C  -5.80100 15.29600 42.95700
C  -6.34500 16.59300 42.83600
C  -6.76600 12.91700 43.37400
C  -4.36300 15.41600 43.07800
O  -3.53700 14.49700 43.28300
C  -4.02500 16.91900 42.87900
C  -3.36500 17.34900 44.10600
O  -2.55400 18.25400 44.21300
O  -3.96400 16.72100 45.20600
C  -3.40500 17.09900 46.50500
H  -8.01100 22.69100 41.87600
H  -13.20800 18.93500 42.83400
H  -9.73900 13.91900 43.29500
H  -3.99600 20.12900 43.10500
H  -5.44200 22.03400 41.62700
H  -4.53000 21.76700 44.39000
H  -6.16100 22.34700 44.42900
H  -4.99100 23.23800 43.46900
H  -3.42800 19.17800 40.73900
H  -3.30700 20.89200 40.84600
H  -4.98700 21.07900 39.06600
H  -6.06000 20.01600 39.99600
H  -9.74300 23.67900 40.71100
H  -9.98000 24.16600 42.34000
H  -11.38000 24.17300 41.37800
H  -14.88100 20.41300 42.36200
H  -14.04000 20.06600 40.84300
H  -15.25100 21.36400 41.02800
H  -13.31900 16.63300 41.87900
H  -12.00100 14.58200 43.68600
H  -14.16800 15.54300 44.32000
H  -14.98300 16.75900 43.50200
H  -13.76400 17.17600 44.78100
H  -11.41900 13.59800 41.29200
H  -12.58100 14.71200 40.66600
H  -12.98300 12.09100 41.62000
H  -14.25200 13.30600 41.58800
H  -13.09400 12.92300 43.05900
H  -5.86300 12.36000 43.12400
H  -7.51800 12.38600 42.79100
H  -6.96200 12.63600 44.40900
H  -3.32800 17.07800 42.05700
H  -3.78400 16.41800 47.26700
H  -3.70000 18.06400 46.91900
H  -2.31900 17.01300 46.50600

