158

Mg -1.41600 16.73000 26.12400
C  -1.85400 14.64000 28.84600
C  -2.43600 19.31400 27.96400
C  -1.63800 18.57400 23.33700
C  -1.46400 13.80900 23.99500
N  -2.14000 16.89000 28.11300
C  -2.15100 15.96700 29.11300
C  -2.48600 16.55300 30.50000
C  -3.01100 17.98400 30.09100
C  -2.62300 18.10600 28.59500
C  -4.50700 18.17300 30.35600
C  -1.27400 16.45500 31.52700
C  -1.12600 17.41700 32.66000
H  -0.65500 16.71400 33.92300
N  -1.59000 18.73700 25.70600
C  -1.98100 19.67400 26.65600
C  -1.83200 21.00300 26.02800
C  -1.54400 20.78000 24.62500
C  -1.58300 19.30600 24.51100
C  -1.92600 22.37600 26.84600
C  -1.30500 21.77300 23.50300
O  -1.06700 21.37200 22.34300
C  -1.22200 23.28600 23.70700
N  -1.61500 16.27500 24.05800
C  -1.52500 17.26200 23.09400
C  -1.51500 16.67900 21.67400
C  -1.28600 15.16700 21.92300
C  -1.50000 15.02300 23.42100
C  -2.92700 16.95500 20.90200
C  0.20700 14.64000 21.57800
C  1.37000 15.50300 22.17600
N  -1.53200 14.63900 26.33400
C  -1.55500 13.60500 25.39700
C  -1.47500 12.40700 26.06100
C  -1.52400 12.72700 27.43400
C  -1.64000 14.11000 27.55900
C  -1.48400 11.05400 25.55400
C  -1.69000 12.19500 28.78300
O  -1.74800 11.07100 29.17800
C  -1.74600 13.42400 29.80900
C  -0.56700 13.47300 30.71500
O  0.46100 14.00500 30.42400
O  -0.90700 12.87100 31.93700
C  0.04600 12.91000 33.04500
H  -2.70000 20.17200 28.58600
H  -1.64800 19.03300 22.34600
H  -1.24200 12.87300 23.47900
H  -3.27900 15.90500 30.87300
H  -2.35000 18.73200 30.52800
H  -4.98400 17.19400 30.40700
H  -4.87400 18.83000 29.56700
H  -4.68700 18.52000 31.37300
H  -0.38100 16.46500 30.90200
H  -1.36300 15.47800 32.00200
H  -2.02000 18.00900 32.85800
H  -0.34800 18.15900 32.48000
H  -0.98600 22.92400 26.78100
H  -2.17900 22.21000 27.89300
H  -2.60800 23.01400 26.28400
H  -2.11600 23.70400 24.17000
H  -1.09700 23.80400 22.75600
H  -0.34000 23.55100 24.28900
H  -0.67800 17.17200 21.18000
H  -1.95000 14.43600 21.46100
H  -3.43000 15.99300 20.79600
H  -2.68000 17.42400 19.95000
H  -3.45900 17.67200 21.52700
H  0.21900 14.74600 20.49300
H  0.27500 13.57700 21.80900
H  1.65600 16.13400 21.33500
H  2.23600 14.94200 22.52700
H  1.14800 16.13400 23.03600
H  -2.37200 10.58200 25.97400
H  -0.72800 10.50200 26.11100
H  -1.42800 10.98600 24.46700
H  -2.72500 13.40000 30.28800
H  0.28900 13.95000 33.26000
H  1.02300 12.51500 32.76500
H  -0.38300 12.48300 33.95100
Mg -0.08100 43.58500 26.20600
C  2.13500 43.41100 28.98700
C  -2.53600 42.55100 28.41700
C  -2.17100 43.56000 23.64300
C  2.57900 44.20300 24.12100
N  -0.09400 42.95400 28.56600
C  0.87900 43.08600 29.47200
C  0.31900 42.94200 30.90400
C  -1.16100 42.46700 30.59900
C  -1.32200 42.76700 29.09300
C  -1.55000 41.00100 31.02400
C  0.40600 44.24700 31.75200
C  0.84500 44.19600 33.24500
H  0.73000 42.91300 33.99600
N  -2.07200 43.12000 26.04700
C  -2.91900 42.77500 27.09600
C  -4.32600 42.67100 26.59400
C  -4.26200 43.07100 25.20100
C  -2.80900 43.33700 24.94100
C  -5.48400 42.21800 27.45100
C  -5.35100 43.17300 24.13300
O  -5.10400 43.43800 22.99000
C  -6.78200 42.87500 24.50500
N  0.19100 43.80700 24.10800
C  -0.84400 43.86700 23.24800
C  -0.40100 44.26300 21.87000
C  1.09200 44.64300 22.13000
C  1.30300 44.23900 23.52700
C  -0.56400 43.08600 20.93100
C  1.44600 46.13700 21.75800
C  1.31600 47.10800 22.98600
N  1.94200 43.66600 26.47000
C  2.89200 43.89000 25.48800
C  4.26800 43.81800 26.13200
C  4.02900 43.67300 27.53100
C  2.56100 43.61300 27.66400
C  5.49200 44.01200 25.32700
C  4.63600 43.47400 28.84400
O  5.77200 43.52100 29.21800
C  3.39300 43.43700 29.77600
C  3.57200 42.24300 30.54100
O  3.28400 41.10900 30.25600
O  4.08800 42.53600 31.77000
C  4.36200 41.36700 32.65700
H  -3.30300 42.21300 29.11700
H  -2.81200 43.62900 22.76200
H  3.36800 44.27600 23.36900
H  0.98300 42.20800 31.36100
H  -1.91100 43.10400 31.06800
H  -2.47200 41.02400 31.60500
H  -0.78900 40.40900 31.53300
H  -1.73000 40.38900 30.14000
H  -0.57600 44.72100 31.74800
H  1.03100 45.00700 31.28500
H  0.12900 44.82700 33.77200
H  1.82200 44.66500 33.35600
H  -6.44000 42.41700 26.96600
H  -5.48100 42.90300 28.29900
H  -5.44800 41.27200 27.99100
H  -7.45800 43.01100 23.66100
H  -7.10500 43.50100 25.33700
H  -6.89600 41.83500 24.80800
H  -1.02300 45.12200 21.61700
H  1.77800 43.98900 21.59200
H  -0.56000 43.38300 19.88300
H  -1.54100 42.64800 21.13600
H  0.14400 42.26800 21.06700
H  0.77700 46.35700 20.92600
H  2.45700 46.28300 21.37700
H  0.92100 48.05900 22.62900
H  2.37300 47.24900 23.21000
H  0.72000 46.73300 23.81900
H  5.46500 44.79700 24.57100
H  5.70400 43.08300 24.79700
H  6.27700 44.31200 26.02100
H  3.51200 44.23100 30.51300
H  4.86800 40.58800 32.08700
H  3.44200 40.97700 33.09300
H  4.91600 41.65000 33.55200

