158

Mg 9.18100 3.04400 27.59700
C  10.74500 1.52300 30.36600
C  7.22700 4.80600 29.70800
C  7.65100 4.35900 24.79700
C  10.95200 0.88700 25.43200
N  8.97900 3.10800 29.80900
C  9.81500 2.53400 30.75900
C  9.52900 3.12900 32.16500
C  8.29100 4.02600 31.92900
C  8.10400 3.95900 30.41000
C  7.00100 3.69700 32.66100
C  10.76200 3.73000 32.90200
C  10.37200 4.52800 34.19100
H  11.05400 4.25600 35.52700
N  7.61900 4.49900 27.33600
C  6.95400 5.12100 28.38800
C  5.97900 6.07300 27.70600
C  6.26700 6.05000 26.28200
C  7.18300 4.92800 26.09800
C  4.95000 6.75200 28.50700
C  5.68800 6.90100 25.21300
O  5.73700 6.70200 24.02800
C  4.92000 8.02000 25.71900
N  9.19800 2.52700 25.45800
C  8.50600 3.29100 24.53000
C  8.75400 2.86600 23.06500
C  9.96600 1.79700 23.29800
C  10.06500 1.76300 24.81800
C  7.54800 2.28700 22.27300
C  11.40400 2.05800 22.72500
C  12.05800 1.07100 21.64800
N  10.55000 1.49500 27.80100
C  11.17700 0.72400 26.84400
C  12.12300 -0.15200 27.50000
C  11.92500 0.05500 28.87300
C  10.94600 1.09300 29.03000
C  12.96400 -1.28900 26.92300
C  12.35200 -0.37000 30.18900
O  13.15900 -1.25200 30.52800
C  11.74800 0.70900 31.24700
C  11.08800 0.02100 32.38800
O  10.37500 -0.96300 32.32600
O  11.47400 0.53400 33.60500
C  10.88600 -0.08300 34.77200
H  6.79400 5.56000 30.36900
H  7.09200 4.69500 23.92100
H  11.57000 0.19700 24.85300
H  9.20600 2.24200 32.71000
H  8.35900 5.09600 32.12100
H  6.75600 4.42900 33.43100
H  7.00900 2.66700 33.01600
H  6.15300 3.68200 31.97600
H  11.21600 4.40200 32.17400
H  11.38000 2.89700 33.23900
H  9.29600 4.45200 34.34600
H  10.51900 5.59000 33.99600
H  3.94800 6.41300 28.24300
H  5.15500 7.82300 28.52300
H  5.07500 6.52200 29.56500
H  4.01100 7.63100 26.17800
H  4.53100 8.70500 24.96600
H  5.54500 8.46400 26.49400
H  9.07800 3.73800 22.49600
H  9.64000 0.87400 22.81800
H  6.58900 2.34400 22.78800
H  7.64600 1.21000 22.13700
H  7.42500 2.84700 21.34500
H  12.10900 2.14500 23.55100
H  11.36500 3.07100 22.32400
H  11.32500 0.48100 21.09800
H  12.80600 0.38400 22.04500
H  12.50800 1.71700 20.89500
H  12.54400 -2.22800 27.28400
H  14.01000 -1.31600 27.22600
H  12.95400 -1.29100 25.83300
H  12.55700 1.26800 31.71900
H  9.82400 -0.30400 34.66100
H  10.90700 0.62100 35.60400
H  11.37600 -1.01300 35.06100
Mg 31.03600 58.33200 39.75400
C  28.31400 56.49800 38.71800
C  33.07800 55.53100 39.08700
C  33.67700 60.25400 40.13400
C  28.95700 61.23000 39.92800
N  30.70400 56.25600 38.82800
C  29.50200 55.74800 38.61500
C  29.68900 54.20400 38.29000
C  31.15500 53.90400 38.46700
C  31.69300 55.30400 38.81900
C  31.53500 52.87200 39.47100
C  29.25500 53.75600 36.92200
C  29.78300 54.51800 35.69800
H  28.67100 55.17700 34.79900
N  33.18200 57.95800 39.46900
C  33.78800 56.77300 39.19300
C  35.23000 56.96900 39.27100
C  35.41000 58.29400 39.70700
C  34.09200 58.91800 39.76700
C  36.28300 55.89900 38.96200
C  36.66800 58.93100 39.97900
O  37.66800 58.22400 40.00500
C  36.87000 60.49000 40.25700
N  31.30700 60.46900 39.87100
C  32.46200 60.95600 40.21500
C  32.47600 62.48400 40.52900
C  30.96400 62.72500 40.70300
C  30.33200 61.51600 40.04700
C  33.41900 63.08700 41.60800
C  30.42300 64.07800 40.01200
C  29.61600 64.96600 41.00100
N  29.02200 58.87200 39.43800
C  28.32200 60.02000 39.59300
C  26.92500 59.76200 39.38700
C  26.83200 58.38100 39.01900
C  28.10100 57.87300 39.08600
C  25.78400 60.80900 39.44300
C  25.94200 57.30100 38.66100
O  24.72400 57.36900 38.45100
C  26.82700 56.03300 38.56700
C  26.32600 55.03100 39.54400
O  26.76600 54.81100 40.67100
O  25.42400 54.18400 38.93000
C  25.11100 52.96200 39.67500
H  33.68300 54.63600 38.92600
H  34.45600 60.94400 40.46300
H  28.22800 61.98400 40.23100
H  29.17700 53.58200 39.02500
H  31.62700 53.51900 37.56300
H  31.64700 51.88600 39.02000
H  30.88900 52.76300 40.34200
H  32.47400 53.13500 39.95700
H  28.17100 53.70200 36.81900
H  29.60900 52.73200 36.80800
H  30.35300 53.87300 35.02900
H  30.35500 55.39400 36.00300
H  36.59900 56.08400 37.93500
H  35.82700 54.90900 38.95600
H  37.03600 55.88600 39.74900
H  36.62700 60.73600 41.29000
H  36.35200 61.13100 39.54400
H  37.93000 60.74000 40.21600
H  32.71200 62.84300 39.52700
H  30.72200 62.64500 41.76300
H  32.80500 63.55400 42.37800
H  34.18100 63.69800 41.12400
H  34.04000 62.38200 42.16100
H  29.82400 63.88200 39.12200
H  31.20900 64.71200 39.60100
H  28.60600 64.91500 40.59500
H  29.98500 65.99100 40.95900
H  29.77300 64.57000 42.00400
H  25.69900 61.25200 38.45100
H  25.83900 61.59500 40.19600
H  24.90600 60.17700 39.58000
H  26.75700 55.50800 37.61500
H  24.68100 52.21200 39.01100
H  24.27800 53.15400 40.35200
H  25.86600 52.37200 40.19400

