158

Mg 43.22400 4.02900 47.22800
C  41.05200 6.68000 47.25900
C  40.40900 1.85500 47.29900
C  45.30300 1.40900 46.95300
C  45.88800 6.19300 46.91000
N  41.01500 4.27500 47.43900
C  40.40200 5.47000 47.33900
C  38.82700 5.25800 47.24600
C  38.61700 3.70200 47.34500
C  40.09300 3.22000 47.53000
C  37.65400 3.22100 48.47700
C  38.08900 5.84700 46.01500
C  38.75900 5.49800 44.62400
H  38.30900 6.30400 43.28500
N  42.89900 1.97100 47.13300
C  41.69100 1.26600 47.11800
C  41.97800 -0.07700 46.90000
C  43.39700 -0.26800 46.80200
C  43.92300 1.09400 46.98700
C  40.85800 -1.12000 46.73600
C  44.12000 -1.58500 46.56900
O  43.52900 -2.64000 46.38400
C  45.53800 -1.70200 46.48500
N  45.29600 3.76000 46.75900
C  45.95000 2.62500 46.86800
C  47.45800 2.79400 46.64600
C  47.61500 4.35700 46.79100
C  46.16400 4.82000 46.73900
C  48.34700 1.82600 47.44700
C  48.51400 5.08300 45.74900
C  49.64600 4.20600 45.15100
N  43.53400 6.10600 47.01700
C  44.62300 6.88800 46.97200
C  44.31100 8.34300 46.91100
C  42.92700 8.25700 47.06600
C  42.49900 6.87500 47.17600
C  45.21400 9.57500 46.90900
C  41.75600 9.10800 47.29400
O  41.63200 10.33100 47.34600
C  40.47500 8.11800 47.28000
C  39.61700 8.51100 48.44900
O  39.77600 8.03200 49.56600
O  38.51200 9.23100 48.09000
C  37.40300 9.32600 49.09000
H  39.48800 1.26900 47.24900
H  46.07700 0.66000 46.76900
H  46.80400 6.78300 46.83200
H  38.30300 5.63300 48.12500
H  38.27200 3.22700 46.42600
H  38.03600 2.38000 49.05500
H  36.72900 2.93800 47.97500
H  37.35100 3.98200 49.19700
H  37.97400 6.93000 46.06100
H  37.13100 5.32800 46.04500
H  38.61700 4.42600 44.48400
H  39.83100 5.61300 44.78000
H  40.67200 -1.23100 45.66800
H  39.97800 -0.72800 47.24500
H  41.12600 -2.05000 47.23800
H  46.04500 -1.70100 47.45000
H  45.94600 -1.00500 45.75300
H  45.75000 -2.67000 46.03200
H  47.64400 2.59700 45.59000
H  47.97500 4.72300 47.75200
H  48.84300 1.13200 46.76700
H  47.78100 1.23000 48.16200
H  49.06000 2.43300 48.00500
H  49.07700 5.87500 46.24300
H  47.96300 5.44300 44.88000
H  50.53200 4.84100 45.13100
H  49.29100 3.82300 44.19500
H  49.93000 3.43500 45.86700
H  45.32000 10.03200 47.89300
H  44.74800 10.33300 46.28100
H  46.13500 9.21600 46.45000
H  40.04900 8.18900 46.27900
H  37.47300 10.30100 49.57200
H  37.49800 8.62100 49.91600
H  36.43300 9.26800 48.59700
Mg 40.66400 9.01600 29.18000
C  42.46100 10.28500 31.86300
C  38.53300 7.64700 31.52000
C  39.05100 7.71500 26.67000
C  43.34800 9.95200 27.13200
N  40.47900 9.13000 31.40500
C  41.34000 9.70600 32.28300
C  40.80200 9.60200 33.70900
C  39.77400 8.45700 33.59500
C  39.56000 8.41500 32.04400
C  40.04700 7.04100 34.14200
C  40.13400 10.91800 34.33600
C  40.34200 11.01100 35.86400
H  40.77800 12.27200 36.49300
N  39.04400 7.78000 29.12200
C  38.27000 7.36800 30.17900
C  37.15300 6.57000 29.68200
C  37.21400 6.65100 28.24700
C  38.44800 7.40800 27.94900
C  36.15600 5.92800 30.64900
C  36.22400 6.08000 27.11000
O  36.42800 6.11000 25.92900
C  34.95300 5.42300 27.53200
N  41.32400 8.63800 27.19600
C  40.33600 8.25100 26.30800
C  40.74900 8.50000 24.84800
C  42.11900 9.16700 25.02100
C  42.31200 9.23700 26.51700
C  40.62700 7.18100 24.02300
C  42.26600 10.47200 24.24200
C  41.70300 11.71400 24.87500
N  42.46100 10.11900 29.36800
C  43.52200 10.30600 28.41400
C  44.52900 11.10300 29.12500
C  44.15500 11.08800 30.47600
C  42.89300 10.51300 30.51800
C  45.76300 11.67900 28.50200
C  44.60700 11.57800 31.69800
O  45.54100 12.23700 32.07200
C  43.48900 11.02500 32.65000
C  44.10200 10.03600 33.59600
O  44.66300 8.95900 33.33500
O  43.96900 10.57300 34.90700
C  44.57200 9.80500 35.92200
H  37.75400 7.29400 32.19800
H  38.39100 7.61200 25.80600
H  44.02100 10.28300 26.33800
H  41.58200 9.21600 34.36600
H  38.85600 8.71400 34.12400
H  40.80900 7.18700 34.90700
H  40.27900 6.28400 33.39300
H  39.22200 6.77900 34.80500
H  39.06300 10.96500 34.14400
H  40.56500 11.78700 33.83800
H  41.09200 10.30700 36.22600
H  39.41700 10.63900 36.30400
H  36.49500 5.70600 31.66100
H  36.04200 4.91100 30.27500
H  35.18700 6.42600 30.69100
H  35.09200 4.67100 28.30800
H  34.39900 5.04200 26.67300
H  34.40400 6.26000 27.96300
H  40.07100 9.17500 24.32600
H  42.80500 8.42600 24.61100
H  41.60100 6.76600 23.76500
H  40.12600 7.37700 23.07500
H  40.08500 6.44900 24.62000
H  41.73800 10.44900 23.28900
H  43.33500 10.60300 24.07800
H  41.37200 11.55900 25.90200
H  40.95000 12.10600 24.19100
H  42.49000 12.46000 24.98900
H  45.41200 12.29100 27.67100
H  46.43400 10.89100 28.15900
H  46.30300 12.21400 29.28300
H  43.06700 11.87300 33.18900
H  45.56600 9.40300 35.72400
H  43.92500 8.99500 36.25900
H  44.67600 10.52500 36.73400

