158

Mg 2.13000 -3.43800 45.32700
C  4.72900 -1.61100 44.12800
C  0.06200 -1.70400 43.09100
C  -0.33800 -5.69900 46.00700
C  4.42600 -5.59200 46.92400
N  2.44900 -1.97100 43.57600
C  3.58200 -1.27500 43.42400
C  3.38700 -0.02500 42.46400
C  1.86500 -0.06900 42.19300
C  1.42500 -1.35800 42.95000
C  1.08200 1.21000 42.63800
C  4.28300 -0.14500 41.17500
C  5.49400 0.78200 40.80700
H  5.50400 1.33700 39.37100
N  0.11600 -3.62700 44.77200
C  -0.53800 -2.73700 43.90400
C  -1.94900 -3.04400 43.92700
C  -2.07800 -4.23900 44.73500
C  -0.75500 -4.63800 45.16900
C  -3.01000 -2.27000 43.15600
C  -3.40200 -5.06300 44.95200
O  -4.42700 -4.77100 44.36400
C  -3.42300 -6.28300 45.92300
N  2.08000 -5.45800 46.28000
C  0.94600 -6.09600 46.51000
C  1.18200 -7.49100 47.20500
C  2.65100 -7.41500 47.45000
C  3.06900 -6.10000 46.86700
C  0.39800 -7.86200 48.50400
C  3.56000 -8.61900 47.01700
C  3.62900 -8.96300 45.56100
N  4.18200 -3.60200 45.57100
C  4.95900 -4.50000 46.29900
C  6.22700 -3.95700 46.36600
C  6.26000 -2.85100 45.47300
C  4.93000 -2.69700 45.01200
C  7.53500 -4.51500 46.98600
C  7.12700 -1.86800 44.90700
O  8.28000 -1.62800 44.99600
C  6.11900 -0.93400 44.03700
C  6.10200 0.40700 44.65000
O  5.50400 0.68200 45.65900
O  6.67300 1.37600 43.90600
C  6.43000 2.76500 44.18700
H  -0.62600 -1.07500 42.52100
H  -1.09200 -6.34200 46.46700
H  5.16900 -6.22300 47.41500
H  3.71400 0.88300 42.97000
H  1.62700 -0.20100 41.13700
H  0.72700 1.07200 43.65900
H  0.30300 1.50700 41.93500
H  1.81100 2.02000 42.60800
H  3.57900 -0.05300 40.34800
H  4.64100 -1.17400 41.14600
H  6.39500 0.20100 41.00300
H  5.52600 1.65200 41.46300
H  -2.69500 -1.49000 42.46300
H  -3.66900 -1.85200 43.91700
H  -3.64400 -2.94800 42.58500
H  -2.82200 -7.13000 45.59100
H  -4.44300 -6.64200 46.05800
H  -3.05700 -6.00500 46.91200
H  0.93100 -8.31600 46.53900
H  2.73500 -7.14200 48.50200
H  -0.25800 -7.08000 48.88700
H  1.15600 -8.14900 49.23300
H  -0.38700 -8.61700 48.47000
H  3.14700 -9.58000 47.32300
H  4.61800 -8.50400 47.25200
H  4.70000 -9.03900 45.37400
H  3.06600 -8.23800 44.97400
H  3.11300 -9.85600 45.20900
H  8.09500 -3.72700 47.49100
H  8.02500 -5.13600 46.23600
H  7.26100 -5.25400 47.73900
H  6.46400 -0.86900 43.00500
H  6.96100 3.38500 43.46500
H  6.82400 3.05900 45.16000
H  5.35600 2.90000 44.05700
Mg 35.01000 3.08400 29.84400
C  33.17500 4.07700 32.65700
C  37.65500 3.04800 31.92600
C  36.92300 2.60000 27.19600
C  32.30000 3.94700 27.88700
N  35.36500 3.72000 32.01800
C  34.48000 3.98600 33.00200
C  35.13200 4.02400 34.40200
C  36.60500 4.02000 34.01700
C  36.55900 3.52300 32.53500
C  37.29400 5.40300 34.03100
C  34.66100 2.71700 35.24300
C  34.56600 2.88700 36.76300
H  35.35600 3.99400 37.46100
N  37.08100 2.80200 29.60200
C  38.00200 2.67300 30.61100
C  39.33200 2.38600 29.96600
C  39.14300 2.37900 28.60900
C  37.63800 2.56900 28.42500
C  40.57700 2.21100 30.75800
C  40.15700 2.26000 27.50400
O  39.89200 2.32000 26.33800
C  41.54500 1.75200 27.87900
N  34.69400 3.36200 27.87400
C  35.62400 3.05100 26.93400
C  35.05800 3.11400 25.52400
C  33.51400 3.31900 25.80700
C  33.51700 3.52000 27.26400
C  35.69100 4.27700 24.67100
C  32.59800 2.12500 25.34000
C  31.24600 2.48300 24.75800
N  33.01000 3.79600 30.13200
C  32.03500 4.15100 29.24100
C  30.86600 4.59000 29.87000
C  31.22100 4.42900 31.22600
C  32.55700 4.05100 31.37200
C  29.63400 5.04000 29.12200
C  30.72200 4.63500 32.53400
O  29.58100 4.93800 32.86700
C  31.96100 4.46800 33.55700
C  32.04100 5.78800 34.25300
O  32.41400 6.83300 33.70400
O  31.27400 5.77200 35.34900
C  31.00000 7.12800 35.87500
H  38.47500 2.95100 32.64100
H  37.53500 2.37100 26.32100
H  31.46200 3.98500 27.18800
H  34.71400 4.88400 34.92500
H  37.22500 3.31800 34.57500
H  38.23200 5.34800 34.58500
H  36.68800 6.18600 34.48700
H  37.35300 5.79900 33.01700
H  35.34200 1.91100 34.97200
H  33.66400 2.53900 34.84100
H  34.85700 1.97100 37.27800
H  33.51300 2.95300 37.03600
H  40.62100 2.15100 31.84600
H  41.25000 3.00300 30.42900
H  41.06400 1.29100 30.43700
H  41.51700 0.92400 28.58600
H  42.10300 2.48800 28.45900
H  42.18800 1.38000 27.08100
H  35.39700 2.26700 24.92800
H  33.19100 4.21700 25.28000
H  36.30400 4.84100 25.37400
H  34.95600 4.97700 24.27500
H  36.34300 3.95100 23.86000
H  32.47100 1.48300 26.21100
H  33.00200 1.52100 24.52600
H  30.42000 2.10500 25.36000
H  31.10000 2.03800 23.77300
H  31.06900 3.55000 24.62200
H  28.87800 5.33500 29.85000
H  29.23000 4.35200 28.38000
H  29.93900 5.86800 28.48200
H  31.77100 3.76900 34.37100
H  30.02200 7.49900 35.57000
H  31.77400 7.88600 35.75400
H  30.85500 7.01800 36.95000

