158

Mg 17.51600 -1.21300 28.21100
C  16.53700 0.67400 31.02100
C  19.70300 -3.03400 30.24500
C  19.03700 -2.60500 25.54700
C  15.83000 1.00500 26.17300
N  18.17200 -1.01300 30.31900
C  17.45200 -0.34900 31.31400
C  17.96100 -0.64900 32.74800
C  19.10100 -1.70300 32.39600
C  18.92500 -2.00200 30.90800
C  20.55900 -1.30100 32.61000
C  16.90000 -1.18200 33.76000
C  16.68900 -0.19800 34.94200
H  17.86700 0.45300 35.51400
N  18.90100 -2.88500 27.95300
C  19.64500 -3.46700 28.90400
C  20.55900 -4.35800 28.23100
C  20.19500 -4.34000 26.83000
C  19.32200 -3.28000 26.74600
C  21.43700 -5.35400 29.06300
C  20.71100 -5.19500 25.70500
O  20.59600 -4.96600 24.54200
C  21.53900 -6.50400 25.90800
N  17.54700 -0.74200 26.11100
C  18.23700 -1.53700 25.25600
C  18.15500 -1.01400 23.86000
C  17.06400 0.05100 24.04200
C  16.78100 0.16800 25.54600
C  19.56600 -0.67300 23.28600
C  15.82300 -0.26400 23.12100
C  14.64100 -0.86300 23.84200
N  16.36900 0.51500 28.48900
C  15.63100 1.24800 27.59500
C  14.88000 2.28700 28.30200
C  15.22200 2.00700 29.64600
C  16.15000 0.99700 29.75100
C  14.05100 3.33600 27.67400
C  14.89900 2.47100 30.96300
O  14.16200 3.32100 31.40400
C  15.78000 1.63700 31.90000
C  16.68600 2.64000 32.57000
O  17.82800 2.80600 32.17500
O  16.01000 3.17700 33.63000
C  16.82100 4.11700 34.44400
H  20.35300 -3.62200 30.89600
H  19.46300 -2.87400 24.57800
H  15.31500 1.71600 25.52300
H  18.43600 0.27400 33.08000
H  18.85000 -2.63000 32.91300
H  21.02200 -0.92400 31.69800
H  21.19700 -2.04200 33.09300
H  20.61700 -0.48600 33.33100
H  17.09500 -2.18100 34.15200
H  15.94900 -1.37000 33.26100
H  16.17100 -0.72400 35.74300
H  15.99800 0.56100 34.57700
H  22.15300 -4.81000 29.67900
H  22.07100 -5.89800 28.36300
H  20.76100 -6.02600 29.59100
H  21.16100 -7.15700 26.69500
H  22.55400 -6.22200 26.18600
H  21.60000 -7.05300 24.96800
H  17.77700 -1.87100 23.30300
H  17.41800 1.04500 23.76900
H  20.47800 -1.00400 23.78200
H  19.68200 0.41100 23.26600
H  19.68200 -1.09600 22.28800
H  16.04900 -1.03200 22.38100
H  15.47500 0.68000 22.70300
H  14.05500 -0.00800 24.18000
H  15.00500 -1.39000 24.72400
H  14.08000 -1.55400 23.21300
H  14.50000 3.70500 26.75200
H  14.03500 4.13500 28.41500
H  13.03200 3.07500 27.38800
H  15.15600 1.27100 32.71500
H  17.85800 4.36300 34.21600
H  16.76700 3.79900 35.48500
H  16.28600 5.06600 34.49300
Mg -5.23200 25.35500 26.00200
C  -4.21500 27.06400 28.86100
C  -7.06000 23.22500 28.00900
C  -5.83700 23.57500 23.22400
C  -3.26600 27.64700 24.01100
N  -5.49800 25.14400 28.18000
C  -5.00200 25.97800 29.16600
C  -5.52000 25.55800 30.53900
C  -6.38100 24.24800 30.29100
C  -6.32900 24.16900 28.71700
C  -5.79100 23.00100 31.00900
C  -6.44600 26.65900 31.20200
C  -6.28000 26.88600 32.64400
H  -5.83200 25.75500 33.47600
N  -6.22500 23.67100 25.68400
C  -7.01900 22.94300 26.58000
C  -7.56100 21.72900 25.92700
C  -7.35000 21.91700 24.52900
C  -6.38500 23.07600 24.46700
C  -8.45800 20.89300 26.65100
C  -7.77100 20.98400 23.41800
O  -7.40900 21.22900 22.28100
C  -8.66900 19.78500 23.63000
N  -4.37700 25.46500 23.89200
C  -5.01400 24.65100 22.96900
C  -4.61800 25.03900 21.56900
C  -3.78300 26.39500 21.82900
C  -3.88600 26.59200 23.33500
C  -3.85900 23.89800 20.91000
C  -4.16000 27.63600 20.95300
C  -3.01100 28.30700 20.21800
N  -3.92400 26.98100 26.30000
C  -3.28200 27.85000 25.39900
C  -2.62200 28.90100 26.17200
C  -2.95300 28.59500 27.49400
C  -3.70000 27.37800 27.55500
C  -1.89600 30.07800 25.55700
C  -2.81700 29.13700 28.83000
O  -2.35200 30.17900 29.26200
C  -3.58000 28.13300 29.77600
C  -2.49600 27.38200 30.59400
O  -1.36500 26.96500 30.17600
O  -2.92800 27.23400 31.87600
C  -2.00900 26.70700 32.90900
H  -7.77300 22.72000 28.66400
H  -6.13800 23.15100 22.26500
H  -2.75200 28.40200 23.41300
H  -4.61100 25.43200 31.12700
H  -7.43700 24.38800 30.52200
H  -4.82900 23.24100 31.46100
H  -5.60400 22.21600 30.27600
H  -6.47900 22.53000 31.71200
H  -7.46600 26.27500 31.18700
H  -6.33700 27.56900 30.61100
H  -7.14100 27.32300 33.14900
H  -5.61400 27.74700 32.70300
H  -8.91500 20.10700 26.05000
H  -9.31400 21.49500 26.95600
H  -7.93700 20.55300 27.54600
H  -9.69500 19.97600 23.94500
H  -8.18000 19.12900 24.35100
H  -8.78100 19.08600 22.80100
H  -5.44200 25.31700 20.91200
H  -2.72200 26.16600 21.73000
H  -3.33200 23.28800 21.64300
H  -3.18700 24.24900 20.12700
H  -4.65600 23.23700 20.57000
H  -4.78300 28.28300 21.57100
H  -4.85200 27.16900 20.25300
H  -3.13700 29.38200 20.34800
H  -3.15700 28.09300 19.15900
H  -2.05200 27.88400 20.51700
H  -2.25300 30.44600 24.59500
H  -0.86800 29.72100 25.50000
H  -2.01800 30.80600 26.35900
H  -4.18300 28.60400 30.55300
H  -0.95700 26.85600 32.66800
H  -2.10700 25.62500 33.00200
H  -2.24900 27.10200 33.89600

