158

Mg 36.18000 49.19700 24.68800
C  35.94400 47.21500 27.67300
C  34.79100 51.74000 26.52200
C  35.73900 50.61000 21.82300
C  37.33100 46.26400 23.16700
N  35.47400 49.43400 26.90800
C  35.59300 48.53100 27.92100
C  35.49200 49.29500 29.36900
C  34.79000 50.69400 28.91500
C  35.05900 50.62300 27.35300
C  33.31400 50.85100 29.43400
C  36.81200 49.35300 30.20000
C  36.74000 49.05800 31.71700
H  35.41200 49.33500 32.46200
N  35.31300 50.95000 24.22500
C  34.85400 51.91400 25.11300
C  34.64700 53.17000 24.38200
C  34.93800 52.89500 22.95900
C  35.30300 51.42700 22.91200
C  34.30400 54.51100 24.98300
C  35.05300 53.72600 21.72100
O  35.30500 53.25100 20.64800
C  34.70700 55.09700 21.83100
N  36.44400 48.46400 22.78500
C  36.29400 49.31500 21.73900
C  36.69800 48.64600 20.42900
C  37.52700 47.45600 20.96800
C  37.05200 47.37500 22.39100
C  35.51300 48.20000 19.49800
C  39.09600 47.71800 20.91500
C  39.75200 49.14900 20.92000
N  36.48300 47.10800 25.25000
C  36.97800 46.06700 24.48900
C  37.14600 44.79900 25.29100
C  36.73700 45.32800 26.55700
C  36.38400 46.71000 26.45100
C  37.68000 43.47100 24.85000
C  36.52900 44.88000 27.98300
O  36.65100 43.73500 28.46300
C  36.14400 46.13600 28.75500
C  34.90300 45.86800 29.58600
O  33.78500 46.22600 29.33800
O  35.24800 45.24700 30.77900
C  34.13000 44.87900 31.67600
H  34.48800 52.64000 27.06200
H  35.52400 50.95400 20.80900
H  37.73400 45.42000 22.60300
H  34.82200 48.66500 29.95400
H  35.25300 51.58300 29.34500
H  33.17900 51.79900 29.95500
H  32.98300 50.08000 30.13000
H  32.52600 50.91600 28.68300
H  37.26300 50.33400 30.04800
H  37.39500 48.61000 29.65700
H  37.63300 49.50700 32.15300
H  36.90000 47.98700 31.84000
H  35.12900 55.18200 24.74600
H  34.00600 54.59600 26.02800
H  33.46400 54.88900 24.40000
H  33.69200 55.13600 22.22600
H  34.75900 55.51600 20.82600
H  35.44200 55.66400 22.40200
H  37.29900 49.30800 19.80500
H  37.36300 46.44300 20.60100
H  34.52800 48.38600 19.92600
H  35.61500 47.17800 19.13500
H  35.54500 48.87200 18.64000
H  39.38600 47.17700 20.01400
H  39.31000 47.19200 21.84600
H  40.25400 49.28700 19.96200
H  40.61600 49.33700 21.55800
H  39.07100 49.99800 20.97600
H  37.95700 43.38500 23.79900
H  36.86000 42.82800 25.17000
H  38.58500 43.28600 25.42800
H  37.00400 46.48700 29.32500
H  34.32000 43.91800 32.15500
H  33.14400 44.88400 31.21200
H  34.21000 45.74700 32.33000
Mg 17.04400 52.28800 26.13500
C  18.85900 50.89800 28.69000
C  14.55800 53.13800 28.29800
C  15.03700 53.25200 23.50600
C  19.28100 50.87400 23.78700
N  16.73600 51.97800 28.21900
C  17.69900 51.59500 29.12300
C  17.30900 52.00300 30.50300
C  15.73700 52.05800 30.29400
C  15.62700 52.51500 28.84600
C  15.04000 50.67900 30.39600
C  18.09800 53.29400 31.05000
C  18.27400 53.34600 32.57300
H  17.42800 52.40400 33.41400
N  15.08700 53.21700 25.93100
C  14.24400 53.47400 26.96200
C  13.07500 54.10500 26.41700
C  13.19700 54.17300 25.01400
C  14.49100 53.56500 24.73200
C  11.84900 54.51300 27.25400
C  12.26500 54.76000 23.97200
O  12.44900 54.69700 22.75600
C  11.08100 55.50100 24.38900
N  17.07500 51.93700 23.88300
C  16.21200 52.61400 23.06000
C  16.56300 52.38500 21.57700
C  18.01800 51.75400 21.68900
C  18.14200 51.48100 23.19300
C  15.50500 51.42900 20.86700
C  19.10400 52.70500 21.20300
C  19.15600 54.11100 21.88300
N  18.69200 51.10200 26.14500
C  19.46000 50.55500 25.11700
C  20.58500 49.87400 25.78000
C  20.41200 49.94100 27.16700
C  19.24000 50.69800 27.33100
C  21.79500 49.29100 25.13700
C  20.91800 49.61700 28.52600
O  21.89300 49.03600 28.85600
C  19.86300 50.25600 29.56600
C  19.51700 49.11800 30.52400
O  19.03300 48.06100 30.12400
O  19.83300 49.41500 31.84700
C  19.50900 48.40300 32.77400
H  13.73200 53.26400 29.00000
H  14.60900 53.74200 22.62900
H  20.10400 50.57100 23.13600
H  17.43300 51.11800 31.12700
H  15.13500 52.72300 30.91300
H  14.16100 50.81100 31.02700
H  15.67900 49.91500 30.83900
H  14.72800 50.29000 29.42700
H  17.53400 54.20900 30.86900
H  19.04200 53.36700 30.51000
H  18.05100 54.32500 32.99700
H  19.30800 53.08900 32.80500
H  11.67500 55.58500 27.16500
H  11.97000 54.36600 28.32700
H  10.93500 54.00200 26.94900
H  10.46900 55.92100 23.59100
H  11.47300 56.37200 24.91500
H  10.52800 54.78900 25.00200
H  16.58500 53.29300 20.97400
H  17.99500 50.75100 21.26100
H  14.77200 51.02500 21.56600
H  16.05300 50.57100 20.47800
H  14.93700 51.99300 20.12800
H  18.81500 52.93400 20.17800
H  20.06400 52.18900 21.23000
H  19.83200 54.82400 21.41100
H  19.78000 53.92100 22.75600
H  18.19000 54.57700 22.07400
H  21.70000 48.20900 25.04800
H  22.57300 49.57200 25.84600
H  21.91000 49.77800 24.16900
H  20.46100 50.96400 30.14000
H  18.49100 48.05600 32.59200
H  19.63700 48.76300 33.79400
H  20.26700 47.62000 32.79200

