158

Mg 35.48800 1.45600 29.40900
C  33.46600 2.46200 32.05700
C  38.19500 1.40700 31.52000
C  37.67700 0.93300 26.77500
C  32.82400 1.90500 27.19800
N  35.78200 1.93400 31.59900
C  34.82000 2.21200 32.50100
C  35.41300 2.16500 33.90300
C  36.98000 2.24000 33.62600
C  37.01700 1.80800 32.15100
C  37.62700 3.67300 33.82700
C  34.90900 0.91300 34.70700
C  34.64100 1.09900 36.17100
H  35.06300 2.34100 36.87500
N  37.63900 1.04700 29.20400
C  38.51900 1.07900 30.25200
C  39.81200 0.69000 29.67300
C  39.73200 0.55600 28.28100
C  38.31000 0.89900 28.01500
C  41.03300 0.54600 30.72500
C  40.84400 0.26700 27.20800
O  40.77700 0.16000 25.94800
C  42.27800 -0.13100 27.79100
N  35.32400 1.32100 27.41200
C  36.33200 1.11500 26.47000
C  35.85800 1.05200 25.01900
C  34.31200 1.03500 25.24500
C  34.10700 1.42600 26.70000
C  36.48500 2.17900 24.16300
C  33.66400 -0.20200 24.78800
C  33.19400 -1.26100 25.87500
N  33.54600 2.12500 29.49900
C  32.54700 2.26700 28.54200
C  31.33000 2.78200 29.15900
C  31.63100 2.75700 30.53400
C  33.03300 2.50700 30.67900
C  30.03500 3.14400 28.43900
C  31.04400 2.87900 31.86300
O  29.87700 3.00200 32.21700
C  32.27200 2.78700 32.90700
C  32.36600 3.95700 33.62700
O  32.61900 5.08000 33.15000
O  31.89500 3.79500 34.92100
C  31.56000 5.00600 35.62800
H  39.09000 1.54100 32.13100
H  38.34500 0.79400 25.92300
H  32.03300 2.01100 26.45300
H  35.05000 3.05600 34.41600
H  37.55000 1.55000 34.24800
H  36.88300 4.32900 34.27900
H  37.74900 4.09400 32.82900
H  38.60700 3.60600 34.30000
H  35.57000 0.04900 34.63200
H  33.94800 0.66400 34.25700
H  35.15300 0.21700 36.55600
H  33.57900 1.01400 36.40100
H  41.85000 -0.09900 30.40000
H  40.77800 0.01800 31.64300
H  41.41200 1.56500 30.80500
H  42.60900 0.67800 28.44200
H  43.03300 -0.33900 27.03200
H  42.05200 -0.98800 28.42700
H  36.18000 0.11000 24.57500
H  33.77400 1.75600 24.63000
H  37.03900 1.70400 23.35300
H  37.14100 2.84600 24.72300
H  35.70900 2.75900 23.66200
H  34.38500 -0.74600 24.17800
H  32.78000 0.15400 24.26100
H  32.11100 -1.30900 25.76200
H  33.55600 -1.17600 26.89900
H  33.67200 -2.14900 25.46100
H  29.17400 2.82700 29.02700
H  30.01500 2.60000 27.49400
H  29.95100 4.20000 28.18200
H  32.01700 1.93600 33.53800
H  30.77600 4.78800 36.35300
H  31.30100 5.85600 34.99700
H  32.50200 5.29000 36.09800
Mg 6.56600 57.61400 41.71500
C  5.37800 54.26300 41.47800
C  9.61000 56.25800 40.55300
C  7.67700 60.58100 41.33400
C  3.47800 58.60700 42.61500
N  7.33900 55.59100 40.87500
C  6.65600 54.35700 40.89800
C  7.48300 53.25100 40.26100
C  8.92400 53.90100 40.47400
C  8.63300 55.29700 40.67200
C  9.63700 53.29700 41.71600
C  7.00700 53.19400 38.78000
C  6.99400 51.91000 38.07800
H  7.80900 51.67200 36.82100
N  8.38000 58.39300 40.98600
C  9.49200 57.64600 40.63600
C  10.51100 58.50900 40.28700
C  10.04400 59.87300 40.44300
C  8.64500 59.65500 40.92900
C  11.89700 58.06900 39.77600
C  10.74200 61.13300 40.22600
O  11.88600 61.22300 39.78200
C  10.10500 62.47600 40.67400
N  5.56200 59.38000 41.49600
C  6.30900 60.46600 41.58900
C  5.57400 61.66600 42.22500
C  4.19000 61.01000 42.55600
C  4.40400 59.56500 42.16100
C  6.23000 62.19900 43.49500
C  3.09800 61.77300 41.89400
C  1.79500 61.78400 42.66100
N  4.71300 56.67500 42.04900
C  3.59900 57.18800 42.51700
C  2.61300 56.17500 42.73100
C  3.29100 54.99300 42.39200
C  4.59000 55.35200 41.97600
C  1.22300 56.47400 43.35700
C  3.12600 53.57600 42.34500
O  2.17500 52.83600 42.61800
C  4.52000 52.97800 41.71200
C  4.15400 52.33400 40.49800
O  3.93800 52.91200 39.42300
O  4.11900 50.98900 40.65600
C  3.80000 50.14000 39.44600
H  10.57700 55.75600 40.48200
H  8.08600 61.58600 41.46200
H  2.50900 58.94900 42.98600
H  7.27000 52.30500 40.75800
H  9.53400 53.84100 39.57300
H  9.71200 53.83600 42.66100
H  10.70500 53.12700 41.57900
H  9.27000 52.28700 41.90400
H  7.76100 53.75900 38.23200
H  6.05000 53.68700 38.60900
H  5.99900 51.86900 37.63600
H  7.23000 51.08600 38.75100
H  12.12800 58.36300 38.75200
H  12.16200 57.01600 39.87500
H  12.62700 58.62200 40.36700
H  9.95800 62.32100 41.74300
H  9.23500 62.60000 40.02900
H  10.83800 63.28000 40.60900
H  5.40500 62.40600 41.44300
H  4.02200 60.94400 43.63100
H  7.09900 61.62400 43.81400
H  5.53600 62.29500 44.33100
H  6.65700 63.12400 43.10800
H  2.91000 61.29600 40.93200
H  3.48700 62.78200 41.75900
H  1.50900 62.83300 42.72900
H  2.04600 61.40300 43.65000
H  0.88700 61.23800 42.40400
H  1.34700 57.20700 44.15400
H  0.77200 55.56800 43.76000
H  0.57600 56.74500 42.52300
H  4.99300 52.30200 42.42400
H  2.95500 49.55400 39.80900
H  4.69500 49.61500 39.11200
H  3.42400 50.70900 38.59600

