158

Mg 35.02800 2.29700 29.89700
C  32.74000 3.49400 32.28700
C  37.41600 2.24600 32.44200
C  37.43900 1.62700 27.49400
C  32.64500 2.84900 27.45500
N  35.02800 2.67900 32.13000
C  34.03600 3.29200 32.83700
C  34.36300 3.25600 34.34300
C  35.91800 3.02000 34.36200
C  36.11000 2.53800 32.92600
C  36.84700 4.03000 34.98700
C  33.60100 2.11800 35.11700
C  33.77600 2.11500 36.68700
H  34.53000 3.19400 37.42200
N  37.08800 1.81700 29.97700
C  37.84000 1.88400 31.09800
C  39.20200 1.66700 30.67400
C  39.21800 1.35700 29.30300
C  37.91100 1.63800 28.87300
C  40.27800 1.86200 31.70900
C  40.38300 1.00600 28.44200
O  40.26200 1.11800 27.26800
C  41.65200 0.49100 29.05500
N  35.01700 2.18100 27.81500
C  36.16600 1.91200 27.02900
C  35.75000 1.72600 25.52200
C  34.16400 2.02900 25.56300
C  33.87900 2.30000 27.08600
C  36.43900 2.61000 24.47300
C  33.37000 0.82100 25.00800
C  32.25500 0.99800 24.09400
N  33.08900 3.05800 29.78500
C  32.21000 3.19800 28.76400
C  30.91000 3.56000 29.16800
C  31.08600 3.75200 30.57300
C  32.45700 3.42500 30.89400
C  29.77500 4.05400 28.30600
C  30.44100 4.23700 31.78000
O  29.29200 4.64400 32.07100
C  31.48800 3.99100 32.94100
C  31.89300 5.25200 33.59000
O  32.36400 6.24800 33.03800
O  31.61900 5.18000 34.94400
C  31.92000 6.37100 35.78800
H  38.20900 2.18000 33.19000
H  38.15300 1.30800 26.73200
H  31.91700 2.94000 26.64700
H  34.08900 4.16800 34.87200
H  36.08600 2.09800 34.91900
H  36.22200 4.87000 35.28800
H  37.67500 4.47600 34.43700
H  37.33700 3.53500 35.82600
H  33.96500 1.15700 34.75100
H  32.53600 2.14700 34.88400
H  34.26700 1.21100 37.04700
H  32.85000 1.99900 37.25000
H  40.48500 0.90900 32.19500
H  40.05300 2.61900 32.46100
H  41.22300 2.19900 31.28300
H  42.21300 1.40000 29.27500
H  42.23600 -0.19900 28.44700
H  41.40800 -0.02900 29.98200
H  36.09900 0.73700 25.22500
H  33.97900 2.90400 24.93800
H  36.75000 1.94400 23.66800
H  37.37300 3.06100 24.80900
H  35.84900 3.37800 23.97100
H  32.99600 0.25100 25.85800
H  34.07600 0.06500 24.66600
H  32.49200 0.26300 23.32400
H  32.17200 1.96300 23.59400
H  31.33600 0.78200 24.63900
H  30.28600 4.34500 27.38800
H  29.39400 5.00200 28.68600
H  29.00500 3.30200 28.13200
H  30.97400 3.38900 33.69100
H  31.05300 7.03100 35.79000
H  32.78300 6.92100 35.41400
H  32.15600 6.03400 36.79700
Mg 35.73200 48.54600 25.03400
C  35.77000 46.74300 28.06300
C  34.26100 51.14600 26.68500
C  35.33200 50.11000 22.10100
C  36.66000 45.52600 23.36900
N  35.07700 48.82100 27.18800
C  35.31000 48.01300 28.24500
C  35.00600 48.78000 29.58500
C  34.20900 50.04800 29.04100
C  34.52800 50.02100 27.57500
C  32.67500 50.03700 29.50200
C  36.28800 49.19400 30.42000
C  36.15500 48.86400 31.90200
H  34.71200 48.72100 32.42900
N  35.03800 50.39800 24.48400
C  34.52700 51.33700 25.30400
C  34.30200 52.59000 24.62100
C  34.61200 52.30300 23.21500
C  35.00000 50.88300 23.24200
C  33.82800 53.88200 25.35800
C  34.67700 53.18500 21.98900
O  35.05200 52.72900 20.88800
C  34.24600 54.61500 21.99900
N  36.03600 47.91000 23.06700
C  35.77000 48.76900 22.00200
C  35.89500 48.00000 20.65000
C  36.61600 46.66200 21.12500
C  36.45300 46.68100 22.61300
C  34.59200 47.76700 19.90800
C  38.04900 46.46100 20.57900
C  39.23400 47.15400 21.18600
N  36.13100 46.51000 25.55200
C  36.44900 45.39300 24.75500
C  36.81400 44.29600 25.62700
C  36.56000 44.80400 26.94100
C  36.10300 46.10200 26.81300
C  37.31500 42.94300 25.19100
C  36.52800 44.41300 28.31000
O  36.87100 43.35200 28.86400
C  36.10700 45.70900 29.16100
C  34.83900 45.23300 29.88900
O  33.71400 45.39900 29.47900
O  35.21100 44.69300 31.14500
C  34.03500 44.37600 32.06700
H  33.60800 51.91300 27.10600
H  35.07700 50.58000 21.14800
H  37.06400 44.67200 22.82100
H  34.36400 48.10300 30.14800
H  34.69400 50.91600 29.48800
H  32.48000 49.08200 29.99100
H  31.95800 50.21400 28.70000
H  32.51800 50.83600 30.22700
H  36.53600 50.24900 30.30400
H  37.06000 48.59700 29.93500
H  36.70000 49.48400 32.61400
H  36.69800 47.92300 31.99300
H  32.76100 53.76900 25.55400
H  33.93300 54.79800 24.77800
H  34.33100 53.95200 26.32300
H  33.17700 54.61200 22.21300
H  34.41800 54.97200 20.98400
H  34.89300 55.20100 22.65100
H  36.54500 48.51100 19.94000
H  36.03600 45.76900 20.88700
H  34.61700 46.86600 19.29500
H  34.40900 48.55300 19.17700
H  33.75000 47.74500 20.60000
H  37.99700 46.55800 19.49500
H  38.27500 45.43400 20.86600
H  39.97300 46.56500 21.72800
H  38.76400 47.85900 21.87300
H  39.65000 47.72400 20.35500
H  38.17600 42.60100 25.76300
H  37.63600 43.07800 24.15800
H  36.55900 42.16200 25.27100
H  36.93000 46.07300 29.77600
H  34.43400 43.88400 32.95400
H  33.18200 43.75500 31.79300
H  33.59000 45.30900 32.41300

