158

Mg 24.73600 -8.42500 47.39100
C  27.17000 -6.16800 46.40600
C  22.78200 -7.42700 44.78600
C  22.68300 -11.02500 48.05000
C  27.19700 -9.81500 49.58000
N  24.89900 -6.89800 45.81500
C  26.02900 -6.15700 45.56400
C  25.82700 -5.19300 44.38700
C  24.28100 -5.38400 44.13000
C  23.97300 -6.65000 44.94800
C  23.45600 -4.07100 44.47500
C  26.66900 -5.66700 43.17700
C  27.48700 -4.59200 42.34300
H  26.99000 -4.32700 40.94400
N  22.88500 -9.05100 46.61000
C  22.25100 -8.50000 45.53000
C  21.02300 -9.20200 45.27000
C  20.99200 -10.28800 46.19500
C  22.20400 -10.15700 47.05900
C  20.06000 -8.79200 44.17500
C  19.92000 -11.35700 46.15300
O  19.01400 -11.41400 45.32300
C  19.75300 -12.26100 47.39100
N  24.96500 -10.23400 48.57300
C  23.87000 -10.97100 48.83100
C  24.27100 -12.12400 49.79400
C  25.63100 -11.65900 50.45000
C  26.00800 -10.52100 49.48800
C  23.18400 -12.67000 50.77100
C  26.69700 -12.75100 50.56500
C  27.45200 -12.85100 51.91300
N  26.76100 -8.10000 47.93600
C  27.58200 -8.72800 48.82900
C  28.90900 -8.04500 48.90500
C  28.77200 -6.99700 47.96200
C  27.44300 -7.09200 47.42600
C  30.02400 -8.37600 49.69600
C  29.43200 -5.95700 47.23600
O  30.62700 -5.66700 47.23300
C  28.45700 -5.32300 46.27300
C  28.12700 -3.90400 46.51700
O  27.50400 -3.57900 47.50600
O  28.68100 -3.10800 45.51700
C  28.12300 -1.77700 45.48700
H  22.17400 -7.01600 43.97700
H  21.99400 -11.84000 48.28100
H  27.93500 -10.25000 50.25600
H  26.05100 -4.19600 44.76500
H  24.10800 -5.56700 43.07000
H  22.82800 -4.28400 45.34000
H  22.87700 -3.75500 43.60800
H  24.03900 -3.21300 44.81000
H  26.08300 -6.13800 42.38700
H  27.34100 -6.48300 43.44400
H  28.54700 -4.79200 42.50100
H  27.27800 -3.72200 42.96500
H  19.18200 -9.40400 43.97000
H  20.56600 -8.68400 43.21600
H  19.73200 -7.80300 44.49200
H  20.39800 -13.13700 47.32500
H  18.70000 -12.53900 47.44500
H  19.98700 -11.67400 48.27900
H  24.50000 -12.97900 49.16000
H  25.43300 -11.20700 51.42200
H  22.20800 -12.32800 50.42700
H  23.41200 -12.05900 51.64500
H  23.25500 -13.71500 51.07400
H  27.36100 -12.75900 49.70100
H  26.17500 -13.70800 50.55100
H  28.51200 -12.99700 51.70500
H  27.06000 -13.66200 52.52600
H  27.28400 -11.93800 52.48300
H  30.64200 -9.17600 49.28900
H  29.74900 -8.65900 50.71300
H  30.58600 -7.44300 49.73400
H  28.94400 -5.38300 45.29900
H  27.14000 -1.88300 45.94500
H  28.12300 -1.34500 44.48600
H  28.65900 -1.05900 46.10800
Mg 46.92700 46.65800 43.78600
C  43.61300 46.76900 42.75300
C  47.41400 43.67700 42.01600
C  50.13500 46.88800 44.19200
C  46.42300 49.83300 45.14800
N  45.65100 45.60000 42.32200
C  44.33600 45.74500 42.16500
C  43.83600 44.57600 41.22000
C  44.93500 43.50600 41.28400
C  46.09000 44.30100 41.96900
C  44.73800 42.16200 42.13600
C  43.53600 45.11100 39.80000
C  42.26200 44.59500 39.14100
H  42.51600 43.25800 38.32300
N  48.55700 45.32100 43.28600
C  48.61300 44.21900 42.52800
C  49.93200 43.60200 42.60000
C  50.77000 44.57000 43.24200
C  49.84400 45.66600 43.55200
C  50.24600 42.22100 41.92700
C  52.23300 44.33100 43.48000
O  52.79600 43.24700 43.30700
C  53.15400 45.42900 44.11900
N  48.04500 48.12800 44.67600
C  49.42900 48.01600 44.63800
C  50.07400 49.29100 45.16500
C  48.86700 50.24900 45.48200
C  47.68600 49.37100 45.08500
C  51.22800 49.16100 46.18600
C  48.97000 51.58700 44.74800
C  49.36000 52.81700 45.55700
N  45.35000 48.11200 43.92200
C  45.24500 49.25100 44.60100
C  43.89700 49.76700 44.68100
C  43.24000 48.78100 44.02000
C  44.14100 47.83300 43.53600
C  43.41700 50.96700 45.35800
C  41.91700 48.35500 43.61200
O  40.82000 48.86600 43.77000
C  42.16900 47.00200 42.78900
C  41.48000 45.92600 43.55200
O  40.69200 45.06400 43.13000
O  41.89300 45.99100 44.82300
C  41.73300 44.78600 45.71500
H  47.45000 42.64900 41.65000
H  51.21200 47.06300 44.23700
H  46.32600 50.81300 45.62100
H  42.90200 44.13700 41.57100
H  45.37600 43.30000 40.30800
H  43.71000 41.80900 42.05600
H  44.90500 42.48200 43.16500
H  45.41600 41.38600 41.78100
H  44.37800 44.76100 39.20400
H  43.49200 46.19400 39.91700
H  41.96500 45.34500 38.40700
H  41.46900 44.34500 39.84500
H  51.23800 42.20100 41.47600
H  49.52500 42.05000 41.12800
H  50.17700 41.38400 42.62300
H  53.40300 46.16400 43.35300
H  54.10600 44.96700 44.38300
H  52.65500 45.83900 44.99600
H  50.59900 49.68400 44.29400
H  48.87300 50.40400 46.56100
H  51.09100 49.89900 46.97600
H  52.14400 49.49000 45.69400
H  51.13800 48.17100 46.63200
H  48.02400 51.75900 44.23500
H  49.72700 51.43100 43.97800
H  50.39200 53.10600 45.35800
H  49.04400 52.84300 46.59900
H  48.83000 53.67900 45.15100
H  44.15700 51.53700 45.92000
H  42.77800 50.57200 46.14800
H  42.80500 51.49500 44.62700
H  41.69700 47.07200 41.80900
H  42.04400 45.00200 46.73800
H  42.31600 43.91300 45.41900
H  40.65700 44.66200 45.83300

