158

Mg 0.83900 8.25700 26.86000
C  1.54200 10.44500 29.53400
C  0.81800 5.65400 28.94500
C  0.40900 6.19500 24.28900
C  1.13500 11.08200 24.67400
N  1.36400 8.08500 28.94200
C  1.53900 9.08100 29.84500
C  1.42000 8.49900 31.28400
C  1.45200 6.97900 31.08800
C  1.18500 6.87300 29.56300
C  2.85800 6.24800 31.38100
C  0.16700 9.02000 32.13900
C  0.36700 9.28200 33.69600
H  1.58700 8.56400 34.28200
N  0.44800 6.24900 26.69000
C  0.47000 5.33900 27.61700
C  0.27300 4.00900 27.12300
C  0.05700 4.11200 25.73300
C  0.30300 5.57700 25.51800
C  0.21600 2.75200 27.98600
C  -0.31000 3.04600 24.68200
O  -0.28000 3.20600 23.48200
C  -0.76400 1.64800 25.10800
N  1.05300 8.61900 24.78500
C  0.76600 7.58000 23.92600
C  0.72100 8.04500 22.45800
C  0.51200 9.61400 22.62800
C  0.98900 9.81200 24.11900
C  1.98400 7.55600 21.73600
C  -1.01200 9.99200 22.56500
C  -1.40600 10.68200 21.23000
N  1.32100 10.49600 26.99600
C  1.45500 11.45800 26.03300
C  1.56400 12.73300 26.75700
C  1.73400 12.47000 28.13600
C  1.52100 11.03200 28.24800
C  1.59800 14.00700 26.03400
C  1.88900 12.97500 29.44400
O  2.03500 14.09600 29.89600
C  1.76800 11.72200 30.34500
C  2.84100 11.63100 31.34000
O  3.90300 11.08300 31.11900
O  2.51100 12.24900 32.53700
C  3.48400 12.12400 33.61000
H  0.88400 4.88400 29.71700
H  0.21100 5.59600 23.39800
H  0.91000 11.84300 23.92400
H  2.28600 8.90900 31.80500
H  0.70500 6.42500 31.65700
H  3.36600 6.09800 30.42800
H  2.77700 5.37200 32.02400
H  3.46000 6.97500 31.92700
H  -0.67000 8.33300 32.01600
H  0.03700 9.99700 31.67300
H  -0.53700 9.04300 34.25700
H  0.51100 10.35800 33.78700
H  0.61300 1.97900 27.32900
H  -0.81500 2.52100 28.25200
H  0.83700 2.83700 28.87800
H  0.06800 0.99300 25.36800
H  -1.39300 1.28300 24.29600
H  -1.39500 1.63700 25.99700
H  -0.12300 7.50000 22.03600
H  1.07000 10.23100 21.92400
H  2.62400 7.03500 22.44800
H  2.62200 8.37100 21.39400
H  1.79000 6.84100 20.93700
H  -1.38100 10.59300 23.39600
H  -1.62500 9.10400 22.71700
H  -2.07400 10.03800 20.65900
H  -0.53700 10.93800 20.62500
H  -2.04000 11.55600 21.37600
H  0.56300 14.25900 25.80300
H  2.10600 13.82900 25.08700
H  2.18900 14.84500 26.40600
H  0.81200 11.79900 30.86400
H  4.41000 11.59800 33.38000
H  3.10000 11.62200 34.49800
H  3.63600 13.13100 34.00000
Mg 16.90800 -0.57600 27.27600
C  15.93500 1.07000 30.02600
C  19.23800 -2.40500 29.24200
C  18.15500 -1.92400 24.47700
C  15.17600 1.93400 25.26300
N  17.62200 -0.58500 29.33200
C  16.95100 0.11600 30.30200
C  17.38500 -0.31600 31.72200
C  18.59300 -1.32900 31.40100
C  18.51000 -1.42500 29.89500
C  20.01200 -0.94200 31.78000
C  16.14600 -0.84400 32.62200
C  16.07600 -0.40100 34.12000
H  17.36400 0.19700 34.78600
N  18.31500 -2.18800 26.97600
C  19.06700 -2.84000 27.90000
C  19.79900 -3.93500 27.21300
C  19.45400 -3.84800 25.83400
C  18.60300 -2.65700 25.68500
C  20.80800 -4.80700 27.90000
C  19.70300 -4.81600 24.72100
O  19.19100 -4.55900 23.62300
C  20.43100 -6.15800 24.94600
N  16.61400 -0.07100 25.15300
C  17.35200 -0.75800 24.18400
C  17.32100 0.01400 22.84100
C  16.24400 1.13500 23.06800
C  15.94200 0.97000 24.55500
C  18.70000 0.59900 22.39300
C  14.98500 1.06100 22.08300
C  14.82800 2.06700 20.97000
N  15.63100 1.10800 27.51800
C  15.02200 2.03500 26.67000
C  14.22500 2.98300 27.48500
C  14.55900 2.65600 28.81100
C  15.43200 1.53700 28.81900
C  13.37000 4.14600 27.03700
C  14.40400 3.04000 30.23200
O  13.75800 4.02100 30.61000
C  15.28800 2.04200 31.03200
C  16.31900 2.83600 31.86000
O  17.30800 3.37500 31.34200
O  15.75600 2.97000 33.11300
C  16.48400 4.04500 33.87400
H  19.99300 -2.98000 29.78300
H  18.74900 -2.11400 23.58100
H  14.54900 2.72100 24.84000
H  17.72300 0.55100 32.28900
H  18.46900 -2.25600 31.96200
H  20.54400 -1.83300 32.11400
H  20.01400 -0.14600 32.52500
H  20.59400 -0.57600 30.93400
H  16.11700 -1.93200 32.55800
H  15.28400 -0.34800 32.17500
H  15.90900 -1.34700 34.63400
H  15.15200 0.16100 34.25000
H  20.51300 -5.85200 27.80600
H  20.85700 -4.74300 28.98700
H  21.76600 -4.59200 27.42600
H  21.51400 -6.06400 25.02900
H  20.20000 -6.84000 24.12900
H  20.08500 -6.46300 25.93400
H  17.07700 -0.50800 21.91600
H  16.62800 2.13600 22.87400
H  19.47900 0.42500 23.13600
H  18.51700 1.64000 22.12800
H  19.09500 0.09200 21.51300
H  14.12500 1.17300 22.74400
H  14.75700 0.07700 21.67400
H  14.11400 2.86600 21.16900
H  14.54700 1.54900 20.05300
H  15.79400 2.57100 20.97100
H  13.48900 5.12000 27.51100
H  12.31800 3.94800 27.24200
H  13.35100 4.33400 25.96300
H  14.61100 1.54100 31.72400
H  16.46800 5.00200 33.35200
H  17.53900 3.88000 34.09000
H  16.04000 4.16700 34.86200

