158

Mg 46.24000 24.81400 28.61800
C  47.10400 27.24000 31.14200
C  45.63300 22.58200 31.11100
C  45.52800 22.54600 26.32000
C  47.64100 26.87800 26.32000
N  46.15900 25.01300 30.85700
C  46.58200 26.06100 31.60100
C  46.33300 25.83000 33.07200
C  46.00200 24.26700 33.09500
C  45.97100 23.88000 31.61400
C  46.99000 23.45700 34.01800
C  45.16100 26.77600 33.56500
C  45.30600 27.49400 34.87700
H  45.73800 26.70600 36.15300
N  45.63900 22.87800 28.70700
C  45.41400 22.09800 29.80200
C  44.98400 20.87000 29.44800
C  44.67800 20.88300 28.11900
C  45.25200 22.16000 27.61000
C  44.95600 19.68900 30.46500
C  43.97900 19.87200 27.36900
O  43.55600 20.15500 26.25000
C  43.66500 18.53600 27.94200
N  46.66700 24.64900 26.60300
C  46.29800 23.63100 25.79000
C  46.54200 23.86000 24.36000
C  47.13400 25.32100 24.37200
C  47.21600 25.63500 25.88200
C  47.40100 22.73700 23.60800
C  46.25900 26.29900 23.49400
C  45.20900 27.20700 24.14100
N  47.07000 26.70600 28.63700
C  47.65000 27.39100 27.60900
C  48.07100 28.56700 28.13900
C  47.93900 28.55600 29.50600
C  47.27700 27.41500 29.77200
C  48.70100 29.71100 27.34100
C  48.25800 29.25400 30.74300
O  48.80500 30.32500 30.95800
C  47.59000 28.51000 31.85200
C  48.55700 28.30900 32.89700
O  49.52300 27.57000 32.87100
O  48.22800 29.22300 33.87700
C  48.95700 28.98200 35.17900
H  45.36500 21.87800 31.90100
H  45.08700 21.77000 25.69100
H  48.11000 27.50600 25.56000
H  47.32800 26.12500 33.40500
H  45.00200 24.01400 33.44800
H  47.62100 24.14500 34.58000
H  47.63200 22.90000 33.33500
H  46.47400 22.66500 34.56100
H  44.33900 26.12900 33.87200
H  44.90600 27.51100 32.80200
H  44.38600 28.05200 35.05000
H  46.19200 28.05400 34.58000
H  45.52500 18.87400 30.01700
H  43.93400 19.38700 30.69600
H  45.40800 19.81500 31.44900
H  43.22300 17.89100 27.18200
H  42.97200 18.66500 28.77400
H  44.52000 17.92200 28.22300
H  45.59200 23.89200 23.82600
H  48.19200 25.25300 24.11900
H  48.44900 22.99700 23.45900
H  47.03500 22.79400 22.58300
H  47.35900 21.73200 24.02700
H  45.89100 25.77000 22.61500
H  47.02700 26.99800 23.16500
H  45.16000 27.05800 25.21900
H  44.16900 27.11000 23.82800
H  45.52400 28.24000 23.99000
H  48.20200 29.65300 26.37400
H  49.76900 29.53500 27.21200
H  48.38200 30.67500 27.73700
H  46.73400 29.01900 32.29400
H  48.94500 29.89900 35.76700
H  50.02000 28.74200 35.16100
H  48.32500 28.27600 35.71700
Mg 27.01700 51.32900 26.74800
C  24.92000 52.29300 29.62700
C  29.35300 50.39100 28.99900
C  28.93300 50.55700 24.15700
C  24.58500 52.73700 24.67200
N  27.10600 51.50600 29.14200
C  26.11200 51.67200 30.08400
C  26.56300 51.31200 31.51300
C  28.04200 50.68000 31.26100
C  28.21400 50.87500 29.72600
C  29.15000 51.28500 32.03600
C  25.65700 50.24100 32.09800
C  26.16500 49.39100 33.32700
H  25.33600 49.24600 34.61700
N  28.90300 50.67500 26.62000
C  29.74500 50.33500 27.66400
C  31.02600 49.74500 27.19500
C  30.96400 49.84000 25.70600
C  29.54700 50.33800 25.40400
C  32.18300 49.32900 28.06600
C  32.07900 49.59200 24.69600
O  31.89600 49.86100 23.51500
C  33.33200 48.88200 25.06000
N  26.75300 51.65700 24.68500
C  27.69500 51.18100 23.74800
C  27.22500 51.46100 22.30600
C  25.70200 51.87500 22.48700
C  25.66900 52.05700 24.07300
C  28.00400 52.42900 21.40900
C  24.68800 50.84600 22.02100
C  23.28300 51.48200 21.83500
N  25.11100 52.38400 27.05700
C  24.28800 52.89800 26.03400
C  23.14300 53.48400 26.73700
C  23.28500 53.21600 28.13000
C  24.54400 52.55000 28.26900
C  21.84100 53.96500 26.04900
C  22.71400 53.35100 29.48600
O  21.72500 54.00400 29.80900
C  23.73100 52.72100 30.49600
C  24.04300 53.66900 31.57200
O  25.03200 54.40000 31.55700
O  23.13300 53.62400 32.61700
C  23.37600 54.48500 33.75900
H  30.12100 49.96600 29.64900
H  29.54800 50.43300 23.26400
H  23.65500 52.98100 24.15500
H  26.63900 52.25100 32.06200
H  27.95300 49.60100 31.38300
H  29.70900 50.57000 32.63900
H  28.63500 51.92800 32.75100
H  29.75500 51.93300 31.40200
H  25.42900 49.46300 31.36900
H  24.75700 50.80000 32.35200
H  27.16200 49.71000 33.63000
H  26.32700 48.32900 33.14300
H  32.38100 48.28000 27.84400
H  32.06300 49.59400 29.11600
H  33.00300 49.91600 27.65300
H  33.82900 48.55800 24.14500
H  32.99900 48.02700 25.64900
H  33.88200 49.61600 25.64700
H  27.28900 50.49300 21.80800
H  25.49200 52.80200 21.95400
H  29.04900 52.39700 21.71500
H  27.52400 53.40800 21.41900
H  28.00700 51.95500 20.42700
H  24.53700 50.19000 22.87900
H  24.98200 50.38700 21.07700
H  22.97100 51.69200 20.81200
H  23.29900 52.51100 22.19500
H  22.55600 50.97100 22.46800
H  21.77100 53.54000 25.04800
H  21.82800 55.05300 25.99100
H  21.07900 53.62500 26.75000
H  23.29700 51.76200 30.77900
H  23.56400 55.51600 33.46100
H  24.22900 54.24100 34.39300
H  22.56900 54.50400 34.49100

