158

Mg 2.12400 -0.30200 43.89000
C  5.58800 0.39400 43.27500
C  1.37500 2.48800 42.08200
C  -1.12000 -1.07800 44.09300
C  2.99700 -3.51100 44.85300
N  3.35500 1.22200 42.86000
C  4.74500 1.34100 42.63200
C  5.12100 2.48000 41.74000
C  3.75300 3.28900 41.58100
C  2.75100 2.29800 42.30700
C  3.73700 4.68900 42.29600
C  5.65100 1.96500 40.32600
C  6.99000 2.37400 39.94700
H  7.04200 3.26000 38.71100
N  0.33400 0.59700 43.25600
C  0.28400 1.72400 42.50000
C  -1.06500 2.05500 42.25000
C  -1.84600 0.99600 42.80400
C  -0.89000 0.08500 43.35600
C  -1.45200 3.17200 41.28100
C  -3.37500 0.97100 42.66600
O  -3.87700 1.91800 42.10900
C  -4.27200 -0.08500 43.17700
N  1.14300 -1.94700 44.48700
C  -0.17400 -1.93800 44.60300
C  -0.58500 -3.32600 45.01900
C  0.59600 -4.19100 44.76100
C  1.67900 -3.13500 44.69700
C  -1.22000 -3.41500 46.44000
C  0.57000 -5.05600 43.42900
C  -0.18900 -6.46400 43.45500
N  3.87800 -1.28700 44.28000
C  4.08600 -2.59000 44.71000
C  5.45200 -2.78700 44.82900
C  6.10800 -1.57200 44.36300
C  5.05800 -0.77000 44.02100
C  6.04900 -4.00300 45.35600
C  7.42400 -0.99700 44.14000
O  8.56500 -1.44200 44.36900
C  7.17400 0.41500 43.47200
C  7.59600 1.43300 44.57000
O  7.20500 1.47600 45.72100
O  8.09800 2.57500 43.95200
C  8.16100 3.91400 44.62100
H  1.16100 3.45300 41.61900
H  -2.17200 -1.33900 44.22400
H  3.07900 -4.53600 45.22000
H  5.81400 3.14600 42.25500
H  3.46700 3.46500 40.54400
H  4.68100 5.09000 42.66600
H  3.10000 4.64800 43.18000
H  3.08200 5.43000 41.83800
H  4.83400 2.09900 39.61700
H  5.68600 0.89600 40.53700
H  7.56700 1.47300 39.73700
H  7.45200 3.00900 40.70300
H  -2.17600 2.83100 40.54000
H  -0.61400 3.63100 40.75600
H  -1.94700 3.92600 41.89300
H  -5.28900 0.22500 42.93700
H  -4.11200 0.10300 44.23900
H  -4.04200 -1.10500 42.86700
H  -1.45600 -3.55900 44.40700
H  0.76500 -4.94800 45.52700
H  -0.48100 -3.67300 47.20000
H  -2.03000 -4.13900 46.52900
H  -1.62000 -2.42400 46.65100
H  1.55800 -5.16900 42.98200
H  0.08400 -4.36700 42.73900
H  -0.26200 -6.73100 44.50900
H  0.45900 -7.18500 42.95600
H  -1.14400 -6.46600 42.93100
H  5.36500 -4.45300 46.07600
H  6.89800 -3.78900 46.00500
H  6.35000 -4.72500 44.59700
H  7.76000 0.58500 42.56900
H  9.03500 3.83000 45.26700
H  7.27500 4.09500 45.23000
H  8.22600 4.63400 43.80600
Mg 47.43500 34.93100 28.26400
C  45.81400 32.87400 30.67100
C  47.37000 37.43900 30.46100
C  48.37000 36.87500 25.78500
C  46.55900 32.36500 25.93100
N  46.64400 35.07700 30.31700
C  46.16300 34.15600 31.16100
C  46.03900 34.62700 32.57900
C  46.12000 36.21200 32.38300
C  46.73800 36.29400 30.92100
C  44.83300 37.11000 32.49300
C  47.18000 34.08100 33.47600
C  46.66600 33.84600 34.94200
H  47.13100 34.84600 35.90000
N  47.94000 36.90800 28.22100
C  48.03500 37.74100 29.24800
C  48.85700 38.89400 28.94200
C  49.16500 38.76400 27.56700
C  48.44300 37.53900 27.09900
C  49.27900 39.86200 30.04800
C  49.95300 39.64400 26.65900
O  50.13700 39.27900 25.51300
C  50.46900 40.95600 27.23400
N  47.21800 34.71200 26.11100
C  47.84300 35.64500 25.30500
C  48.10200 35.16900 23.91100
C  47.49300 33.72300 23.99500
C  47.04500 33.54800 25.40100
C  47.53600 36.09400 22.83300
C  48.55600 32.69000 23.51400
C  49.46700 32.02200 24.56400
N  46.52000 32.96700 28.25600
C  46.23300 32.06200 27.28600
C  45.61200 30.88800 27.78300
C  45.41300 31.13600 29.16900
C  46.02600 32.40400 29.40800
C  45.06600 29.65300 27.01700
C  44.84200 30.73000 30.35300
O  44.28400 29.68700 30.61700
C  44.90500 31.83900 31.34700
C  45.37900 31.31700 32.69200
O  46.55200 30.95200 33.00600
O  44.34900 31.20900 33.56600
C  44.63100 30.62000 34.87300
H  47.37200 38.21300 31.23100
H  48.71700 37.45600 24.92700
H  46.35000 31.57800 25.20300
H  45.06600 34.22500 32.86000
H  46.77200 36.56800 33.18000
H  44.72500 37.58800 31.52000
H  44.78700 37.91100 33.23100
H  44.07200 36.37800 32.76400
H  48.01000 34.78400 33.40900
H  47.65200 33.13300 33.21600
H  47.12300 32.88700 35.18700
H  45.57700 33.80500 34.96300
H  48.98200 39.68600 31.08200
H  48.70100 40.77500 29.91100
H  50.35200 40.05300 30.06800
H  51.13400 41.31400 26.44900
H  51.15400 40.75700 28.05800
H  49.58700 41.59600 27.26700
H  49.18800 35.16000 23.81900
H  46.76500 33.57200 23.19800
H  48.29800 36.70600 22.35000
H  46.90300 36.79600 23.37700
H  47.02200 35.51700 22.06400
H  49.24800 33.13000 22.79700
H  48.06900 31.86500 22.99300
H  49.11000 32.30300 25.55400
H  50.47700 32.41200 24.43400
H  49.45400 30.93300 24.50600
H  44.50800 29.88300 26.10900
H  44.47500 29.17900 27.80000
H  45.91400 29.02700 26.74000
H  43.92000 32.30300 31.40800
H  44.70200 31.51300 35.49400
H  45.59700 30.11400 34.89300
H  43.81900 29.94100 35.13300

