158

Mg 47.80500 25.74500 29.39500
C  48.66800 28.17000 31.75200
C  46.61400 23.82600 31.85800
C  47.12800 23.47700 27.03400
C  49.34900 27.75300 26.99400
N  47.54500 26.07700 31.53500
C  47.96300 27.07400 32.26900
C  47.59300 26.92100 33.72500
C  47.00300 25.51400 33.75200
C  47.11100 25.06500 32.26300
C  47.61900 24.47000 34.75000
C  46.55100 27.96400 34.15400
C  46.38400 28.14200 35.67500
H  47.34100 27.51200 36.65200
N  46.88400 23.91200 29.39800
C  46.49800 23.29500 30.56500
C  45.64700 22.10900 30.23600
C  45.73600 22.07000 28.76900
C  46.63000 23.16700 28.30100
C  44.97300 21.22600 31.29400
C  45.25900 21.01800 27.79900
O  45.34700 21.11400 26.57700
C  44.30200 19.95600 28.30000
N  48.42800 25.50800 27.40800
C  48.01000 24.52000 26.66500
C  48.58900 24.52100 25.22800
C  49.22000 25.88000 25.17400
C  48.92100 26.50300 26.57100
C  49.54100 23.32800 25.02900
C  48.53800 26.67400 24.04400
C  49.51700 27.36900 23.00300
N  48.73500 27.67300 29.33400
C  49.26500 28.31400 28.27600
C  49.94600 29.48300 28.73100
C  49.69500 29.51000 30.10800
C  48.94400 28.39900 30.43300
C  50.56800 30.56400 27.92300
C  49.87300 30.31100 31.32300
O  50.38700 31.41500 31.54900
C  49.34500 29.32900 32.49900
C  50.54900 28.90500 33.27400
O  51.08800 27.78000 33.24100
O  50.89400 29.83000 34.19100
C  52.04100 29.44600 35.04200
H  46.12000 23.22300 32.62300
H  47.03200 22.72900 26.24400
H  49.94400 28.19400 26.19100
H  48.48500 26.91700 34.35100
H  45.92600 25.53900 33.91500
H  48.49500 24.83600 35.28500
H  47.88500 23.53900 34.24800
H  46.83500 24.15800 35.44000
H  45.59800 27.68000 33.70900
H  46.82600 28.94300 33.76300
H  45.38700 27.96100 36.07600
H  46.49400 29.22600 35.69200
H  45.25300 20.17600 31.20900
H  43.89900 21.32800 31.13500
H  45.11300 21.47400 32.34600
H  43.46200 20.54000 28.67600
H  44.63500 19.26700 29.07700
H  43.85400 19.38800 27.48500
H  47.68800 24.40100 24.62800
H  50.30800 25.82500 25.19500
H  48.98800 22.38900 25.05700
H  50.15800 23.35300 25.92700
H  50.05700 23.46500 24.07900
H  47.84000 27.38200 24.49200
H  47.84200 26.11600 23.41800
H  49.18100 27.15600 21.98800
H  50.54500 27.05100 23.17600
H  49.51300 28.43200 23.24600
H  49.82100 30.71700 27.14400
H  51.50100 30.27800 27.43800
H  50.78800 31.38700 28.60300
H  48.59900 29.88800 33.06400
H  51.79300 28.50700 35.53600
H  52.07600 30.20800 35.82000
H  53.01000 29.41500 34.54400
Mg 7.15700 53.00800 41.40000
C  6.62600 49.67100 40.53500
C  10.32900 52.66200 40.24700
C  7.33300 56.30800 41.57300
C  3.92300 53.18100 42.75100
N  8.23700 51.40800 40.43300
C  7.89100 50.10500 40.20100
C  9.02900 49.24100 39.52400
C  10.27500 50.12200 39.92700
C  9.58200 51.52400 40.31900
C  11.05700 49.48300 41.11100
C  8.90400 49.01000 37.97600
C  8.63700 50.24200 37.09500
H  7.26300 50.17600 36.31100
N  8.56300 54.37300 40.86200
C  9.83700 54.01400 40.36700
C  10.59500 55.24400 40.24300
C  9.78900 56.27400 40.59100
C  8.52300 55.71200 41.06800
C  11.95800 55.28700 39.63400
C  10.22000 57.73300 40.70900
O  11.35600 58.02100 40.31700
C  9.31300 58.88900 41.26700
N  5.77900 54.51700 42.04700
C  6.17300 55.82200 42.02100
C  5.03300 56.77200 42.48100
C  4.12100 55.67500 43.16000
C  4.63300 54.36900 42.66300
C  5.38700 57.93600 43.46000
C  2.60900 55.95200 43.05000
C  1.85800 55.85100 41.75200
N  5.60500 51.69100 41.74400
C  4.34800 51.86900 42.33700
C  3.66600 50.61500 42.41600
C  4.53400 49.74000 41.67400
C  5.67400 50.41400 41.29400
C  2.32900 50.31100 42.96100
C  4.59500 48.37400 41.10600
O  3.73900 47.50800 41.17100
C  5.96900 48.28900 40.39300
C  5.75300 47.78700 39.00900
O  5.04600 48.34900 38.15800
O  6.43000 46.52900 38.89100
C  5.76300 45.78200 37.85800
H  11.38700 52.52500 40.01600
H  7.41500 57.39300 41.66800
H  2.98900 53.20700 43.31600
H  8.91600 48.26800 40.00300
H  10.81400 50.36300 39.01100
H  10.60800 48.54300 41.43200
H  11.03300 50.21500 41.91900
H  12.13700 49.36500 41.01200
H  8.08100 48.30000 37.89300
H  9.86900 48.66700 37.60400
H  9.42700 50.31000 36.34600
H  8.53500 51.17700 37.64600
H  12.09100 56.10200 38.92200
H  12.20600 54.48300 38.94100
H  12.75800 55.27200 40.37400
H  8.95100 58.63500 42.26300
H  8.51100 58.98100 40.53500
H  9.95200 59.77200 41.25700
H  4.48600 57.16600 41.62500
H  4.43400 55.56600 44.19900
H  6.45300 57.91300 43.68400
H  4.85300 57.89200 44.40900
H  5.04700 58.82000 42.92100
H  2.38200 56.90600 43.52500
H  2.15600 55.20300 43.69900
H  2.50000 55.68000 40.88800
H  1.41300 56.79100 41.42500
H  1.15000 55.03800 41.91100
H  1.94600 51.17000 43.51100
H  2.22900 49.46600 43.64300
H  1.81400 50.10500 42.02200
H  6.66400 47.60900 40.88600
H  6.22400 44.79600 37.91000
H  6.10800 46.24100 36.93100
H  4.69500 45.58500 37.94700

