158

Mg 1.15200 8.27600 25.54300
C  1.59800 10.04900 28.45100
C  0.94000 5.40500 27.41200
C  1.15400 6.66700 22.68600
C  1.65900 11.32000 23.81000
N  1.39800 7.78000 27.80500
C  1.39400 8.67700 28.77100
C  1.28900 8.03300 30.18600
C  1.41900 6.45800 29.76800
C  1.21900 6.52800 28.28200
C  2.62200 5.75600 30.30100
C  -0.07500 8.30000 30.88100
C  -0.20600 8.56400 32.44600
H  0.98800 8.08500 33.35000
N  0.98700 6.27400 25.09300
C  0.93200 5.25400 25.95700
C  0.88600 4.00300 25.24100
C  0.86200 4.32200 23.85400
C  0.95800 5.79600 23.79900
C  0.90000 2.64600 25.95100
C  0.89100 3.39100 22.71800
O  0.88500 3.83300 21.55600
C  0.97200 1.80800 22.93300
N  1.30400 8.87000 23.51500
C  1.39900 8.07400 22.51600
C  1.74200 8.72900 21.16300
C  1.34400 10.22300 21.55100
C  1.42500 10.14800 23.03900
C  3.18900 8.38400 20.85700
C  -0.10700 10.63200 21.07900
C  -0.30800 12.11100 20.87700
N  1.67900 10.27600 25.96200
C  1.71300 11.42700 25.19700
C  1.94400 12.56700 25.94400
C  1.88000 12.10500 27.29300
C  1.73000 10.72500 27.23300
C  2.05000 13.98200 25.44300
C  1.92400 12.50000 28.68500
O  2.04800 13.63600 29.20900
C  1.62500 11.16800 29.50100
C  2.66300 11.07400 30.59000
O  3.79700 10.63700 30.43900
O  2.11000 11.45200 31.85500
C  2.94200 11.61100 33.02100
H  0.81400 4.45000 27.92600
H  1.17200 6.16700 21.71600
H  1.57700 12.17100 23.13000
H  2.11700 8.31700 30.83500
H  0.58000 5.93000 30.22100
H  2.89100 5.13600 29.44600
H  2.61800 5.06700 31.14600
H  3.41200 6.49800 30.41900
H  -0.81400 7.51500 30.72700
H  -0.47400 9.17600 30.36900
H  -1.07000 8.06000 32.87800
H  -0.43500 9.62300 32.57100
H  1.14700 2.66800 27.01300
H  1.58400 1.99100 25.41200
H  -0.06900 2.14900 25.90900
H  0.92500 1.40700 21.92000
H  0.18400 1.44000 23.59000
H  1.98100 1.64400 23.31100
H  1.19100 8.49700 20.25100
H  2.17100 10.86400 21.24400
H  3.57900 7.54500 21.43400
H  3.88800 9.20000 21.03800
H  3.32600 8.18900 19.79400
H  -0.85800 10.30900 21.79900
H  -0.38500 10.18100 20.12600
H  -0.88900 12.35300 19.98600
H  0.60500 12.70600 20.86100
H  -0.82800 12.47900 21.76200
H  2.44700 14.25300 24.46500
H  2.78800 14.36500 26.14800
H  1.13000 14.55100 25.58200
H  0.68100 11.22900 30.04400
H  3.18300 12.64700 33.25800
H  3.84600 11.00300 32.99800
H  2.45300 11.35600 33.96100
Mg 55.67600 24.11700 43.92700
C  53.11800 26.50400 43.09700
C  53.69600 21.81500 42.27700
C  58.42100 22.34700 43.62700
C  57.45300 26.79500 45.35500
N  53.61700 24.17600 42.82500
C  52.78500 25.21000 42.56700
C  51.61400 24.67700 41.66700
C  51.65100 23.12600 42.03300
C  53.05300 23.01900 42.47000
C  50.68600 22.64900 43.15900
C  51.92800 25.00600 40.21600
C  50.69900 25.04800 39.28000
H  50.84000 25.75800 37.91700
N  56.02900 22.28800 43.08200
C  55.09900 21.46700 42.54700
C  55.68800 20.16000 42.43000
C  57.01300 20.24800 42.88000
C  57.23600 21.67900 43.18700
C  54.92800 18.91200 41.91900
C  57.97200 19.14300 42.90300
O  57.69000 18.07800 42.39200
C  59.29300 19.30100 43.44000
N  57.66800 24.59600 44.26200
C  58.65500 23.66500 44.19900
C  60.01100 24.19700 44.69500
C  59.63800 25.49200 45.37100
C  58.15600 25.65800 44.95600
C  60.74800 23.14300 45.58700
C  60.55400 26.73700 45.05300
C  60.15100 27.67100 43.89000
N  55.34800 26.17700 44.35600
C  56.16200 27.12000 44.97000
C  55.49800 28.35800 44.96100
C  54.37000 28.16300 44.26600
C  54.25800 26.85800 43.87900
C  55.94500 29.67800 45.48600
C  53.10000 28.82600 43.79200
O  52.73100 30.00000 43.89400
C  52.23700 27.64000 43.19100
C  51.58500 28.20100 42.00200
O  52.11800 28.40900 40.94300
O  50.30700 28.54800 42.28300
C  49.42600 28.53100 41.09900
H  53.12800 21.03300 41.76900
H  59.32500 21.74600 43.74400
H  57.96900 27.62300 45.84600
H  50.66000 25.05800 42.03000
H  51.52000 22.48700 41.15900
H  51.33100 22.34800 43.98500
H  50.05300 21.84300 42.78800
H  50.02600 23.39600 43.59900
H  52.66100 24.35600 39.73800
H  52.22900 26.05300 40.17300
H  49.89800 25.57400 39.79800
H  50.43000 24.00400 39.11900
H  54.09500 19.40000 41.41100
H  54.50600 18.23400 42.66100
H  55.47600 18.47500 41.08600
H  59.15800 19.60700 44.47700
H  59.81900 20.02000 42.81200
H  59.98500 18.46900 43.31100
H  60.56000 24.32800 43.76200
H  59.47400 25.38800 46.44300
H  61.66900 22.78700 45.12600
H  60.26100 22.19200 45.80500
H  61.11700 23.57400 46.51800
H  61.50400 26.33200 44.70300
H  60.70900 27.36000 45.93400
H  61.06400 27.86600 43.32700
H  59.70700 28.61800 44.19800
H  59.51200 27.11000 43.20900
H  55.19200 30.44800 45.65400
H  56.80900 29.99600 44.90300
H  56.32000 29.48800 46.49200
H  51.47200 27.40300 43.93100
H  49.54600 29.45100 40.52700
H  48.37600 28.37900 41.34600
H  49.73100 27.70300 40.45900

