158

Mg 41.26100 9.09500 30.67400
C  42.79800 10.49500 33.42600
C  38.76700 7.92700 32.73600
C  39.65000 8.03500 27.93300
C  44.09200 9.79700 28.62000
N  40.71700 9.31300 32.80100
C  41.54300 9.84700 33.72800
C  40.93200 9.72600 35.17200
C  39.78800 8.72200 34.96500
C  39.80000 8.54200 33.41300
C  39.93900 7.39300 35.76400
C  40.48900 11.12400 35.81000
C  40.07000 11.12100 37.20800
H  41.02300 11.81300 38.24100
N  39.42400 8.24600 30.41200
C  38.59600 7.69500 31.36900
C  37.41600 7.10300 30.71600
C  37.58900 7.33100 29.32500
C  38.91200 7.90300 29.14300
C  36.48700 6.31300 31.53200
C  36.72800 6.87100 28.16000
O  37.01000 6.88300 26.96200
C  35.39200 6.46300 28.52600
N  41.77000 8.92300 28.59400
C  40.92500 8.46400 27.60700
C  41.52000 8.33400 26.22700
C  42.94100 9.06200 26.48700
C  42.97300 9.23200 27.98500
C  41.68400 6.92100 25.70700
C  43.23900 10.37700 25.77000
C  42.24700 11.46500 25.88500
N  43.08200 9.92200 30.92600
C  44.11800 10.18200 30.03600
C  45.05200 10.97300 30.73700
C  44.58900 11.14100 32.07100
C  43.39200 10.44000 32.13200
C  46.20200 11.56300 30.05500
C  45.02500 11.65600 33.32100
O  46.03000 12.25300 33.74400
C  43.84400 11.20000 34.25400
C  44.48200 10.33600 35.34800
O  45.11900 9.30600 35.16600
O  44.08400 10.82700 36.61400
C  44.45100 9.95700 37.72200
H  37.98800 7.59000 33.42300
H  39.09800 7.79700 27.02200
H  44.99500 10.11000 28.09300
H  41.61600 9.25800 35.88000
H  38.78600 9.11500 35.14000
H  40.53800 7.45300 36.67300
H  40.43500 6.76500 35.02300
H  38.88600 7.23200 35.99100
H  39.67700 11.60300 35.26400
H  41.39300 11.71800 35.67500
H  39.93700 10.07900 37.49800
H  39.08100 11.55500 37.35800
H  36.97400 5.99600 32.45400
H  36.26500 5.36600 31.04100
H  35.51000 6.74700 31.74500
H  34.95100 7.05700 29.32600
H  35.53400 5.42100 28.81100
H  34.71800 6.47100 27.66900
H  40.89600 8.87700 25.51800
H  43.78100 8.48700 26.09700
H  41.33700 6.08100 26.30900
H  42.72300 6.74200 25.43000
H  41.09400 6.81100 24.79700
H  43.32500 10.26800 24.68900
H  44.14500 10.72400 26.26700
H  41.48200 11.61500 25.12300
H  42.54100 12.47700 26.16500
H  41.65800 11.12400 26.73700
H  46.34200 12.56200 30.46900
H  46.00900 11.53400 28.98200
H  47.05500 10.91700 30.26200
H  43.47700 12.14200 34.66100
H  44.54700 8.89500 37.49700
H  43.67000 9.94400 38.48300
H  45.36600 10.36800 38.14900
Mg 47.98800 15.97000 29.18700
C  45.94100 15.75100 31.83400
C  50.23300 17.85900 31.05600
C  49.82100 16.36100 26.36800
C  45.42700 14.48800 27.14800
N  48.03400 16.82900 31.19500
C  47.15500 16.41200 32.11300
C  47.79400 16.63500 33.53000
C  48.87700 17.71000 33.23300
C  49.00700 17.56800 31.70200
C  48.50400 19.12700 33.61000
C  48.34600 15.33900 34.23600
C  48.66100 15.42100 35.73500
H  48.43100 16.74600 36.43200
N  49.81600 16.82400 28.86600
C  50.59900 17.49100 29.76000
C  51.94700 17.67400 29.18800
C  51.81700 17.32300 27.79400
C  50.45400 16.82800 27.61400
C  53.18000 18.00500 29.89700
C  52.80900 17.43300 26.57300
O  52.59300 16.86900 25.50300
C  54.09300 18.22800 26.68000
N  47.62400 15.58700 27.08300
C  48.56500 15.83900 26.14900
C  48.13500 15.54900 24.66700
C  46.81800 14.71700 24.97200
C  46.62900 14.90600 26.49900
C  47.75900 16.88800 23.88300
C  46.88100 13.20600 24.63900
C  45.98400 12.61600 23.54100
N  46.07000 15.29300 29.41600
C  45.13500 14.74400 28.54500
C  43.87300 14.49400 29.23100
C  44.20000 14.82900 30.57700
C  45.49100 15.34300 30.60200
C  42.64100 13.91800 28.64500
C  43.65100 14.82200 31.89900
O  42.59000 14.40700 32.30300
C  44.79200 15.35400 32.81500
C  44.28100 16.43800 33.78500
O  43.89100 17.54500 33.46300
O  44.34100 16.03200 35.05800
C  44.03800 17.07200 36.04300
H  51.09400 18.20100 31.63600
H  50.34500 16.52000 25.42400
H  44.64800 13.96800 26.58700
H  47.09900 17.05000 34.25900
H  49.78800 17.32300 33.68900
H  49.43100 19.69700 33.54700
H  48.04900 19.26900 34.59000
H  47.94700 19.50400 32.75200
H  49.28200 15.05700 33.75300
H  47.59700 14.55300 34.14300
H  49.66400 15.03100 35.90800
H  47.95600 14.67800 36.10900
H  53.67100 18.85500 29.42500
H  53.76500 17.11400 29.66900
H  53.11900 18.09200 30.98200
H  54.71300 17.49900 27.20200
H  53.91400 19.15000 27.23400
H  54.40800 18.47400 25.66600
H  48.90000 15.04200 24.07900
H  45.90700 15.10600 24.51800
H  47.65700 17.75200 24.54000
H  46.87600 16.61500 23.30500
H  48.61100 16.97500 23.20800
H  46.70300 12.65800 25.56500
H  47.93100 13.07800 24.37800
H  46.42000 11.68900 23.16800
H  45.75000 13.35000 22.77000
H  45.05700 12.25800 23.98900
H  42.40200 14.28200 27.64500
H  41.82800 14.20500 29.31200
H  42.62100 12.83100 28.57700
H  45.15600 14.50800 33.39800
H  44.79200 17.85200 35.94500
H  44.01500 16.50400 36.97300
H  43.02500 17.46700 35.96100

