158

Mg 30.16400 58.20900 39.99200
C  27.41000 56.30300 38.74700
C  32.21800 55.54300 39.04700
C  32.76500 60.17500 40.34900
C  28.03100 61.00000 40.18400
N  29.77700 56.20300 39.06400
C  28.56000 55.53700 38.76900
C  28.68000 54.01000 38.48800
C  30.21000 53.83200 38.75800
C  30.79500 55.26800 38.90400
C  30.48700 52.87200 39.94600
C  28.09600 53.57100 37.10700
C  28.87500 54.05600 35.83600
H  28.14800 54.67300 34.56900
N  32.29200 57.88400 39.79300
C  32.87100 56.72400 39.37000
C  34.25600 56.96100 39.42700
C  34.50500 58.35000 39.69700
C  33.17600 58.89300 40.05600
C  35.32500 55.87900 39.18400
C  35.89900 59.07200 39.69600
O  36.97900 58.48500 39.46700
C  35.96700 60.55100 40.18400
N  30.40200 60.28000 40.15200
C  31.57900 60.84200 40.44400
C  31.50300 62.31300 40.60000
C  29.98600 62.58500 40.71000
C  29.39800 61.23700 40.33800
C  32.27600 62.88200 41.84700
C  29.34800 63.81600 39.92700
C  28.19300 64.50500 40.72600
N  28.14300 58.59100 39.59300
C  27.42400 59.84800 39.77300
C  26.02400 59.58800 39.39400
C  25.99600 58.24300 39.03000
C  27.30600 57.68300 39.13400
C  24.85200 60.47700 39.45500
C  25.08100 57.19600 38.63500
O  23.88700 57.17600 38.47800
C  25.95300 55.89800 38.51600
C  25.44200 55.02400 39.65900
O  25.25200 55.35200 40.80400
O  25.18900 53.72100 39.16200
C  24.65300 52.75800 40.17800
H  32.94100 54.73800 38.89500
H  33.54700 60.92000 40.51100
H  27.33000 61.83600 40.14400
H  28.00600 53.65200 39.26600
H  30.68100 53.58600 37.80600
H  30.75200 53.54400 40.76200
H  31.26700 52.11800 39.83600
H  29.51200 52.51600 40.27600
H  27.03600 53.79000 36.97700
H  28.04000 52.48400 37.04300
H  29.40300 53.18300 35.45200
H  29.60200 54.75800 36.24400
H  36.27000 56.20500 38.74900
H  34.98800 55.05700 38.55300
H  35.59600 55.52800 40.18000
H  35.52500 60.62900 41.17700
H  35.37000 61.12800 39.47600
H  36.97100 60.96000 40.07200
H  31.95100 62.69500 39.68300
H  29.95600 62.66000 41.79700
H  33.24400 63.20300 41.46200
H  32.39700 62.19600 42.68500
H  31.77800 63.72600 42.32400
H  28.83900 63.31600 39.10300
H  30.06700 64.59200 39.66500
H  27.34800 64.70900 40.06900
H  28.52000 65.41200 41.23600
H  27.83300 63.87700 41.54100
H  24.79600 61.00500 38.50400
H  24.91000 61.28900 40.18100
H  24.02500 59.79700 39.66000
H  25.67200 55.47300 37.55300
H  24.11300 51.99300 39.62000
H  23.87600 53.17300 40.82100
H  25.36800 52.24200 40.81800
Mg -11.08700 16.05100 42.30200
C  -8.00100 14.74500 41.57900
C  -10.13300 18.90700 40.20800
C  -14.31100 17.05100 41.82200
C  -12.12500 13.16000 43.65000
N  -9.31800 16.64900 40.87500
C  -8.08800 15.97500 40.88300
C  -6.99300 16.82500 40.13700
C  -7.67400 18.22000 40.03000
C  -9.14100 17.92700 40.44800
C  -6.88700 19.33400 40.78300
C  -6.54600 16.26400 38.73500
C  -5.08400 16.45000 38.20600
H  -5.00000 17.16300 36.78300
N  -12.02400 17.88700 41.41700
C  -11.45200 18.88600 40.64200
C  -12.46500 19.81700 40.24100
C  -13.68500 19.29700 40.82100
C  -13.40000 17.99300 41.38600
C  -12.32700 21.07200 39.46900
C  -15.02000 20.01900 40.88400
O  -15.13700 21.10400 40.29300
C  -16.26600 19.63300 41.73000
N  -12.99200 15.18900 42.72000
C  -14.18600 15.81400 42.54200
C  -15.37700 15.01700 43.01200
C  -14.57300 13.86800 43.80800
C  -13.13400 14.03000 43.35200
C  -16.36000 15.81900 43.91300
C  -15.18900 12.47600 43.52200
C  -15.27700 11.60100 44.72200
N  -10.24900 14.34500 42.74000
C  -10.80600 13.21700 43.35000
C  -9.67100 12.22700 43.61500
C  -8.55800 12.86500 43.00600
C  -8.96100 14.10800 42.43400
C  -9.69200 10.85600 44.21000
C  -7.19400 12.62200 42.63900
O  -6.41900 11.72800 42.91300
C  -6.73700 13.91600 41.73600
C  -5.69700 14.70700 42.42400
O  -5.78500 15.40800 43.40500
O  -4.57100 14.43400 41.63200
C  -3.29900 15.04200 42.16500
H  -9.96500 19.88100 39.74400
H  -15.34700 17.12100 41.48200
H  -12.43100 12.23900 44.15000
H  -6.15900 16.98600 40.82000
H  -7.83800 18.60400 39.02400
H  -6.05300 19.00700 41.40300
H  -7.60500 19.84700 41.42300
H  -6.53200 20.14100 40.14200
H  -7.12300 16.84500 38.01600
H  -6.68200 15.18300 38.74100
H  -4.60400 15.47300 38.16500
H  -4.54300 17.08300 38.91000
H  -12.02300 21.86200 40.15600
H  -13.24900 21.43400 39.01500
H  -11.62400 20.99900 38.63900
H  -16.78800 20.55700 41.97600
H  -15.72000 19.32800 42.62300
H  -16.96400 18.95800 41.23500
H  -15.96400 14.68100 42.15700
H  -14.65500 14.03800 44.88200
H  -16.06300 16.86200 44.02000
H  -16.51600 15.48600 44.94000
H  -17.29600 15.72000 43.36300
H  -14.47700 11.98900 42.85600
H  -16.11400 12.61500 42.96300
H  -14.60600 10.77400 44.49100
H  -16.27500 11.16400 44.69300
H  -15.02400 12.00400 45.70300
H  -10.41600 10.72400 45.01400
H  -8.74300 10.71500 44.72700
H  -9.85300 10.13800 43.40600
H  -6.45900 13.61000 40.72800
H  -2.45600 14.38000 41.96800
H  -3.34900 15.12700 43.25000
H  -3.20500 16.01500 41.68300

