158

Mg 54.52400 24.39800 44.89800
C  51.93000 26.33500 43.87000
C  52.83900 21.62500 43.81600
C  57.34900 22.52600 45.28700
C  56.43600 27.29500 45.41100
N  52.71300 24.05600 43.84100
C  51.83500 24.98500 43.44000
C  50.66600 24.34900 42.67800
C  50.67900 22.94000 43.31200
C  52.18900 22.82200 43.69600
C  49.66000 22.64100 44.50500
C  50.93600 24.53200 41.13300
C  49.68500 24.71600 40.33400
H  49.59300 23.96800 39.03200
N  54.93900 22.36700 44.67800
C  54.09000 21.36800 44.21900
C  54.73700 20.07000 44.41600
C  56.05700 20.33200 44.87700
C  56.17800 21.79400 45.01600
C  54.05300 18.75400 44.02700
C  57.09000 19.19700 45.25500
O  56.80800 17.99500 45.16600
C  58.60300 19.49700 45.50800
N  56.57800 24.84600 44.99000
C  57.52700 23.94500 45.21100
C  58.96400 24.55700 45.31900
C  58.67300 26.08300 45.51500
C  57.06400 26.08300 45.32100
C  59.61900 24.01100 46.56700
C  59.35500 26.98900 44.46900
C  60.37500 28.05500 44.93000
N  54.24800 26.44900 44.79500
C  55.04000 27.51100 45.15300
C  54.22700 28.72100 45.15300
C  52.91200 28.32900 44.65700
C  53.05400 26.90100 44.46500
C  54.68200 30.09000 45.62500
C  51.60100 28.77500 44.25800
O  51.05600 29.84900 44.26200
C  50.92800 27.45700 43.75300
C  50.39400 27.91700 42.47000
O  50.94200 27.97100 41.39400
O  49.08800 28.26300 42.67400
C  48.32400 28.52400 41.47700
H  52.31400 20.68400 43.64000
H  58.27900 21.95300 45.27900
H  57.04200 28.14900 45.72100
H  49.81300 24.90900 43.06000
H  50.45700 22.19800 42.54500
H  50.17900 22.15500 45.33100
H  48.96300 21.87900 44.15400
H  49.25800 23.61100 44.79500
H  51.57100 23.72800 40.76100
H  51.47200 25.47900 41.07400
H  49.47900 25.77200 40.15600
H  48.89900 24.33000 40.98300
H  54.79500 18.00000 43.76500
H  53.57400 19.07700 43.10200
H  53.26900 18.28100 44.61700
H  59.06900 19.92100 44.61800
H  59.09600 18.53000 45.60500
H  58.73200 20.06700 46.42800
H  59.49700 24.35400 44.39000
H  58.75200 26.28800 46.58200
H  59.01000 23.28700 47.10900
H  60.10200 24.67800 47.28200
H  60.45800 23.47100 46.12900
H  58.60400 27.55000 43.91300
H  59.91500 26.32900 43.80700
H  60.50500 28.87800 44.22800
H  61.38900 27.65500 44.91100
H  60.21300 28.51200 45.90600
H  54.27400 30.77700 44.88400
H  55.75100 30.07100 45.84100
H  54.22000 30.25400 46.59800
H  50.12100 27.17600 44.42900
H  48.75000 27.97800 40.63500
H  48.37800 29.57200 41.18400
H  47.28300 28.22900 41.60600
Mg -12.21000 16.26400 41.77400
C  -9.09100 14.55100 41.37700
C  -10.68500 18.94100 40.39300
C  -15.25900 17.58400 41.25200
C  -13.67200 13.25800 42.84900
N  -10.14500 16.60300 40.95200
C  -9.07000 15.84800 40.82800
C  -7.87500 16.53900 40.22900
C  -8.35300 18.05700 40.18700
C  -9.84800 17.86600 40.46400
C  -7.67200 18.95900 41.30000
C  -7.35800 15.82900 38.90500
C  -5.90800 15.39600 38.79000
H  -4.93100 16.32400 37.99700
N  -12.88200 18.01500 41.10700
C  -12.08600 18.99900 40.63500
C  -12.86600 20.21700 40.43100
C  -14.22900 19.84100 40.56700
C  -14.16100 18.41900 40.93600
C  -12.37800 21.55000 39.94800
C  -15.38200 20.77800 40.13200
O  -15.16400 21.87700 39.66200
C  -16.82300 20.13700 39.94100
N  -14.22500 15.50600 42.00700
C  -15.31500 16.30600 41.74000
C  -16.55100 15.54700 42.04400
C  -16.03700 14.41300 42.97200
C  -14.54900 14.37700 42.60900
C  -17.70300 16.32700 42.75600
C  -16.72800 13.04400 42.59800
C  -16.87800 12.05300 43.77200
N  -11.57100 14.29500 41.95500
C  -12.26200 13.20100 42.55800
C  -11.37100 12.03600 42.79000
C  -10.07400 12.53700 42.35800
C  -10.27600 13.89400 41.88700
C  -11.81600 10.64400 43.14000
C  -8.61500 12.30200 42.23900
O  -7.94400 11.35300 42.53200
C  -7.96000 13.58600 41.51500
C  -6.86200 14.05400 42.39000
O  -6.98900 14.88800 43.26200
O  -5.67400 13.57700 41.95400
C  -4.50700 14.41500 42.29700
H  -10.21100 19.78800 39.89200
H  -16.23700 18.06800 41.29000
H  -14.18100 12.40600 43.30400
H  -7.01100 16.47000 40.89100
H  -8.20600 18.41800 39.16900
H  -7.96700 18.82900 42.34100
H  -7.85500 20.00600 41.06000
H  -6.58600 18.90900 41.22000
H  -7.51200 16.40900 37.99400
H  -8.02200 14.99500 38.68000
H  -5.89500 14.36400 38.43700
H  -5.66800 15.21800 39.83900
H  -12.95800 22.34800 40.41300
H  -12.46300 21.60300 38.86300
H  -11.34000 21.64600 40.26500
H  -16.65700 19.16800 39.46900
H  -17.24300 20.76800 39.15800
H  -17.34400 20.10900 40.89800
H  -16.88400 15.21200 41.06200
H  -16.19500 14.63900 44.02700
H  -17.38200 17.35500 42.92500
H  -18.09100 15.84400 43.65300
H  -18.47300 16.49800 42.00400
H  -16.18200 12.47100 41.84800
H  -17.72100 13.13500 42.15700
H  -17.90100 11.67800 43.79300
H  -16.67500 12.46100 44.76200
H  -16.22400 11.21200 43.53900
H  -12.26200 10.67000 44.13500
H  -10.91700 10.02800 43.12200
H  -12.49600 10.28100 42.37000
H  -7.60000 13.28800 40.53100
H  -4.15900 14.12600 43.28900
H  -4.54800 15.49200 42.13200
H  -3.75600 14.14000 41.55600

