158

Mg 47.52100 24.76900 27.97500
C  48.41100 27.05900 30.60400
C  47.03900 22.36000 30.50500
C  46.91300 22.49300 25.56400
C  48.66100 26.96900 25.81700
N  47.64500 24.77200 30.28900
C  47.81200 25.89100 31.11200
C  47.82700 25.53400 32.64700
C  47.54800 23.97800 32.52300
C  47.36400 23.65500 31.01400
C  48.68400 23.16900 33.25500
C  46.76900 26.27400 33.51200
C  47.06700 26.25700 34.99900
H  45.89500 26.41800 35.96700
N  46.94500 22.76700 28.07900
C  46.85600 21.92300 29.15200
C  46.32900 20.61400 28.76700
C  46.34000 20.62800 27.27900
C  46.72800 22.03000 26.91600
C  45.99700 19.53400 29.69900
C  46.10600 19.55200 26.27500
O  46.39600 19.66600 25.09200
C  45.65400 18.20300 26.79100
N  48.04400 24.57800 25.91500
C  47.49300 23.66700 25.07200
C  47.45100 24.12400 23.60700
C  48.01400 25.59900 23.71900
C  48.18900 25.76100 25.26100
C  48.27200 23.17500 22.67400
C  47.15100 26.74700 23.13800
C  47.75800 27.55300 21.96200
N  48.29600 26.73600 28.15100
C  48.72200 27.45200 27.09600
C  49.20800 28.68300 27.50000
C  49.15100 28.61800 28.94600
C  48.58100 27.34200 29.26700
C  49.94000 29.70900 26.70600
C  49.46300 29.27000 30.21400
O  50.11600 30.31300 30.49100
C  48.79000 28.40200 31.23300
C  49.61800 28.38200 32.52100
O  50.72300 27.81900 32.61100
O  48.99000 29.01100 33.52100
C  49.60000 29.16500 34.85700
H  46.81300 21.62000 31.27500
H  46.48500 21.89300 24.75900
H  48.91800 27.66800 25.01800
H  48.79200 25.75300 33.10600
H  46.58600 23.68400 32.94300
H  49.26600 23.81400 33.91400
H  49.45200 22.76900 32.59300
H  48.24900 22.37500 33.86200
H  45.84800 25.69500 33.44100
H  46.68400 27.26000 33.05400
H  47.79800 27.04700 35.16800
H  47.39200 25.23300 35.18400
H  45.00600 19.09000 29.60900
H  46.12800 19.76400 30.75600
H  46.80900 18.82500 29.53500
H  46.46600 17.79900 27.39600
H  45.54100 17.48400 25.97900
H  44.67300 18.27900 27.26000
H  46.45300 24.23900 23.18500
H  49.01900 25.62900 23.29700
H  48.57200 22.23400 23.13500
H  49.18000 23.75000 22.49300
H  47.79800 23.06100 21.69900
H  47.03700 27.51400 23.90400
H  46.16700 26.38200 22.84300
H  48.67500 27.10500 21.57700
H  47.82400 28.63700 22.05000
H  46.96200 27.59600 21.21800
H  49.78900 29.57200 25.63500
H  51.02600 29.70400 26.80600
H  49.50800 30.67700 26.95900
H  47.83700 28.88800 31.44200
H  50.53100 28.60200 34.92900
H  48.98100 28.76300 35.65900
H  49.72800 30.21200 35.13000
Mg 29.88600 57.95300 38.81400
C  27.31800 55.65000 37.85400
C  32.11000 55.57800 38.30900
C  32.30800 60.34200 38.93300
C  27.41500 60.57700 38.29900
N  29.67700 55.87500 38.20200
C  28.59100 55.08000 37.95800
C  28.97500 53.62100 37.85500
C  30.45700 53.58100 38.27100
C  30.79900 55.12700 38.22100
C  30.92600 52.97300 39.61500
C  28.61800 52.99900 36.42700
C  29.07000 53.79300 35.25800
H  28.05000 54.13500 34.14400
N  31.97100 57.92900 38.86700
C  32.67900 56.83500 38.59400
C  34.11300 57.12100 38.61500
C  34.23900 58.53600 38.83000
C  32.81700 59.02400 38.92200
C  35.13000 56.12400 38.46600
C  35.57500 59.31300 38.83800
O  36.68000 58.79000 38.73200
C  35.59400 60.77000 39.02700
N  29.93600 60.14700 38.48700
C  31.01700 60.85200 38.71200
C  30.80000 62.35100 38.66000
C  29.25400 62.44900 38.45800
C  28.83000 60.93700 38.47000
C  31.21800 63.21000 39.99000
C  28.69600 63.12000 37.14500
C  27.62200 64.19400 37.39200
N  27.75200 58.13800 38.29100
C  26.89200 59.20900 38.15900
C  25.56700 58.72200 37.78300
C  25.72900 57.36900 37.65100
C  27.04100 57.02900 38.04000
C  24.34900 59.52700 37.53800
C  24.95600 56.16000 37.41300
O  23.79700 55.96800 37.07800
C  25.99500 55.02500 37.60500
C  25.58400 54.08700 38.64400
O  25.59900 54.36700 39.82200
O  25.15000 52.88200 38.16800
C  25.02000 51.84300 39.16900
H  32.78500 54.77100 38.01600
H  33.11300 61.08000 38.95100
H  26.66500 61.36600 38.21400
H  28.32100 53.13400 38.57900
H  31.03500 53.14300 37.45700
H  31.47700 52.03700 39.52400
H  30.04600 52.73500 40.21200
H  31.56500 53.65500 40.17600
H  27.53700 52.85800 36.40700
H  29.15100 52.05000 36.37000
H  29.88600 53.25000 34.78000
H  29.58300 54.74500 35.39600
H  35.47900 55.98900 37.44200
H  34.73100 55.13100 38.67600
H  36.01100 56.30500 39.08200
H  35.08800 61.03100 39.95700
H  35.02100 61.36300 38.31500
H  36.62400 61.10000 39.16200
H  31.37600 62.59100 37.76600
H  28.80000 62.86800 39.35600
H  32.00500 62.66800 40.51500
H  30.34800 63.26900 40.64400
H  31.68400 64.14600 39.68200
H  28.34800 62.48700 36.32800
H  29.54100 63.67700 36.74300
H  26.64400 63.79300 37.12500
H  27.84300 65.13100 36.88000
H  27.55800 64.43700 38.45200
H  23.59500 59.26100 38.27900
H  24.03400 59.32500 36.51400
H  24.48500 60.60600 37.61000
H  26.15600 54.49600 36.66600
H  24.27800 52.13300 39.91300
H  25.95900 51.69300 39.70200
H  24.72600 50.90900 38.69000

