158

Mg 40.62300 8.05600 29.49800
C  42.64500 9.21200 32.31600
C  38.43400 7.05800 31.63400
C  39.17000 6.74800 26.78500
C  43.38500 8.99200 27.46000
N  40.67100 7.99600 31.79100
C  41.43000 8.68400 32.68500
C  40.70000 8.67600 34.07700
C  39.39900 7.95500 33.74900
C  39.44000 7.69900 32.29900
C  39.21500 6.75000 34.68800
C  40.49000 10.12300 34.71400
C  41.32700 10.34500 35.99900
H  41.16600 9.54900 37.22700
N  39.09800 7.03800 29.24200
C  38.20300 6.74700 30.27900
C  36.98500 6.09200 29.77000
C  37.23900 5.93700 28.40600
C  38.52900 6.61500 28.06800
C  35.90200 5.58600 30.73600
C  36.36000 5.41100 27.33700
O  36.56400 5.46400 26.14900
C  34.99700 4.89500 27.74700
N  41.19200 7.96000 27.39300
C  40.38000 7.43700 26.45000
C  40.90700 7.69900 25.05100
C  42.19100 8.53000 25.31000
C  42.31500 8.49700 26.79600
C  41.17000 6.30800 24.37200
C  42.18400 9.97000 24.64300
C  41.42100 11.01300 25.51500
N  42.66200 8.87900 29.78200
C  43.54900 9.31400 28.80700
C  44.63000 10.05300 29.36200
C  44.35000 10.01100 30.78000
C  43.14400 9.24100 30.99500
C  45.64800 10.84600 28.65900
C  44.81800 10.45500 32.05900
O  45.74900 11.11700 32.39200
C  43.74300 10.05600 33.09600
C  44.51200 9.23300 34.17100
O  44.79700 8.05800 34.11400
O  44.84600 10.03900 35.20200
C  45.37600 9.38200 36.39800
H  37.64700 6.80000 32.34600
H  38.71500 6.23500 25.93400
H  44.07900 9.44500 26.74900
H  41.33200 8.10300 34.75500
H  38.49600 8.54800 33.89700
H  39.50500 5.80900 34.22000
H  38.14200 6.65600 34.85600
H  39.82100 6.81500 35.59200
H  39.46100 10.22800 35.05600
H  40.80500 10.90000 34.01600
H  41.22600 11.38700 36.30200
H  42.39400 10.22800 35.80600
H  35.85700 4.49800 30.68100
H  35.07000 6.14000 30.30100
H  36.12300 5.94900 31.73900
H  35.25200 4.20500 28.55100
H  34.51700 4.35300 26.93200
H  34.45700 5.73400 28.18500
H  40.20500 8.33400 24.51000
H  43.04100 8.10500 24.77500
H  40.40600 5.54900 24.53900
H  42.11600 5.90600 24.73400
H  41.29700 6.44300 23.29700
H  41.76500 9.98400 23.63700
H  43.16700 10.37900 24.40900
H  41.12700 10.56000 26.46200
H  40.46300 11.32200 25.09600
H  42.08900 11.83800 25.76200
H  45.73000 11.83100 29.11800
H  45.54400 11.04100 27.59200
H  46.58500 10.32300 28.85200
H  43.32900 10.95000 33.56300
H  46.06100 8.54600 36.25500
H  44.59700 9.10900 37.11000
H  45.91100 10.07000 37.05300
Mg 0.28500 44.37000 27.33000
C  2.62300 43.68200 29.67400
C  -2.22000 43.34300 29.50500
C  -2.16800 44.85200 24.86700
C  2.73600 44.84000 24.84500
N  0.23100 43.58900 29.20200
C  1.28700 43.63100 30.10900
C  0.86600 43.65700 31.61000
C  -0.57200 43.08400 31.44900
C  -0.89600 43.37100 29.99500
C  -0.80100 41.56300 31.94900
C  0.96800 45.07100 32.25800
C  1.34800 45.17600 33.77100
H  1.20200 43.88400 34.63100
N  -1.89400 44.16700 27.17000
C  -2.69700 43.69600 28.20100
C  -4.07800 43.59700 27.74500
C  -4.07100 44.07900 26.39000
C  -2.67700 44.43400 26.09200
C  -5.23000 43.05900 28.61900
C  -5.22800 44.33700 25.48100
O  -5.16800 45.05400 24.50300
C  -6.61700 43.74100 25.75300
N  0.32200 44.92600 25.17800
C  -0.83400 45.06000 24.48200
C  -0.48800 45.27400 22.97500
C  1.03600 45.36800 22.89800
C  1.42500 45.03000 24.36100
C  -1.14100 44.17800 22.07200
C  1.42200 46.71700 22.27800
C  1.33600 48.03700 23.09300
N  2.29100 44.31900 27.22000
C  3.22300 44.50300 26.17700
C  4.48100 44.24200 26.78200
C  4.28800 43.99400 28.14900
C  2.93700 43.94000 28.36400
C  5.73600 44.21100 25.99500
C  5.00500 43.91700 29.39700
O  6.20400 43.83300 29.64600
C  3.85800 43.79600 30.48700
C  4.04700 42.62500 31.32800
O  3.55800 41.53600 31.22200
O  4.88100 42.99700 32.35300
C  5.19600 41.95400 33.36800
H  -2.94000 42.90000 30.19600
H  -2.93500 44.93400 24.09400
H  3.49500 45.17000 24.13400
H  1.46000 42.97700 32.22100
H  -1.26500 43.74500 31.97000
H  0.13700 41.10100 32.25400
H  -1.30200 40.91400 31.23000
H  -1.51000 41.58300 32.77600
H  -0.01500 45.50700 32.07700
H  1.87300 45.43300 31.77100
H  0.85700 46.04900 34.20100
H  2.41100 45.41600 33.75000
H  -5.90600 42.29700 28.23200
H  -5.84700 43.87800 28.98900
H  -4.85000 42.57500 29.51900
H  -6.60600 42.66700 25.56400
H  -7.34500 44.32000 25.18600
H  -6.87300 43.83700 26.80900
H  -0.94000 46.21100 22.65200
H  1.43900 44.65800 22.17600
H  -1.52500 43.40100 22.73200
H  -0.39100 43.72300 21.42400
H  -1.91200 44.71200 21.51700
H  0.90100 46.87200 21.33300
H  2.48800 46.61000 22.07700
H  0.78000 48.87300 22.66900
H  2.37800 48.31500 23.24800
H  0.99800 47.71300 24.07700
H  6.42700 43.77000 26.71300
H  5.84000 45.26000 25.71500
H  5.61600 43.46800 25.20700
H  3.89900 44.70400 31.08900
H  5.93500 41.30300 32.90100
H  4.34100 41.40700 33.76600
H  5.59800 42.33000 34.30900

