158

Mg 24.37400 -5.60100 46.14700
C  26.56800 -3.27900 44.68600
C  21.96000 -4.48000 44.23800
C  22.89600 -8.42000 47.03400
C  27.35400 -6.84200 47.88900
N  24.38700 -4.25500 44.27800
C  25.37600 -3.32900 43.95700
C  24.76900 -2.28700 42.97600
C  23.27800 -2.50500 43.05000
C  23.18600 -3.83100 43.91800
C  22.37000 -1.42100 43.55600
C  25.39600 -2.42100 41.54800
C  25.38700 -1.13400 40.62900
H  24.39800 -1.14600 39.48000
N  22.68200 -6.26100 45.82700
C  21.76300 -5.68400 45.01500
C  20.57600 -6.57800 45.02200
C  20.78200 -7.70800 45.82300
C  22.18700 -7.54800 46.26900
C  19.30700 -6.10800 44.24300
C  19.81000 -8.75200 46.07300
O  18.70600 -8.64400 45.54100
C  20.07800 -9.94900 46.81300
N  25.07000 -7.36700 47.28800
C  24.19100 -8.39300 47.53700
C  24.88300 -9.58300 48.21900
C  26.11600 -8.89300 48.81600
C  26.25400 -7.67700 47.83300
C  23.97200 -10.28800 49.29100
C  27.39200 -9.73000 48.83700
C  28.31500 -9.56900 50.10000
N  26.57900 -5.08100 46.39000
C  27.58900 -5.65200 47.13300
C  28.77500 -4.86900 47.08100
C  28.39600 -3.83200 46.14200
C  27.05500 -4.09200 45.70600
C  30.02100 -5.26000 47.75200
C  28.89100 -2.78700 45.36100
O  30.02600 -2.34400 45.26900
C  27.77300 -2.41900 44.36900
C  27.43200 -0.99800 44.35400
O  26.71100 -0.43900 45.14900
O  27.95400 -0.33300 43.30300
C  27.65100 1.09700 43.21200
H  21.09900 -4.07500 43.70300
H  22.39400 -9.34100 47.33800
H  28.16300 -7.32600 48.44100
H  25.09800 -1.32800 43.37600
H  22.90700 -2.73500 42.05100
H  23.06400 -0.88800 44.20600
H  21.53700 -1.76400 44.17000
H  22.05300 -0.77500 42.73700
H  24.78700 -3.15500 41.02000
H  26.38600 -2.86400 41.65500
H  26.38700 -0.95200 40.23500
H  25.14500 -0.22900 41.18500
H  19.12000 -6.71100 43.35400
H  19.46800 -5.12000 43.81200
H  18.35600 -5.96300 44.75700
H  19.17800 -10.42900 47.19800
H  20.54600 -9.64900 47.75100
H  20.60700 -10.76000 46.31200
H  25.17200 -10.29400 47.44500
H  25.95700 -8.50000 49.82000
H  23.85000 -11.35300 49.09300
H  22.99500 -9.81200 49.37500
H  24.50800 -10.28100 50.24000
H  27.92300 -9.39100 47.94700
H  27.12000 -10.78300 48.76400
H  27.72300 -9.41400 51.00300
H  29.02400 -8.75900 49.93100
H  28.81400 -10.52300 50.27300
H  30.15800 -4.78700 48.72500
H  30.83800 -4.93100 47.10900
H  30.07700 -6.32900 47.95500
H  28.24000 -2.65200 43.41100
H  26.82600 1.20700 42.50700
H  28.50400 1.60800 42.76400
H  27.51900 1.60300 44.16800
Mg 49.26900 44.76600 43.07800
C  45.92900 45.57000 42.11700
C  48.89200 41.64000 41.75100
C  52.61500 44.43700 43.37800
C  49.52400 48.19500 44.03000
N  47.62700 43.86900 41.92300
C  46.38500 44.36400 41.64100
C  45.51400 43.36900 40.79500
C  46.45000 42.05900 40.77100
C  47.73800 42.49000 41.60400
C  45.85800 40.77400 41.43100
C  45.17000 44.03800 39.41200
C  43.71600 43.73100 39.01000
H  43.55700 42.69700 37.85200
N  50.61100 43.19800 42.65700
C  50.21300 41.98000 42.14500
C  51.40400 41.16400 42.00900
C  52.50800 41.96000 42.39500
C  51.96800 43.26900 42.85800
C  51.40500 39.66000 41.69000
C  53.99900 41.65300 42.33500
O  54.37700 40.57900 41.83000
C  55.15000 42.54300 42.92300
N  50.79900 46.04300 43.75300
C  52.14700 45.69600 43.71200
C  53.11700 46.84000 44.15700
C  52.11900 47.89200 44.55500
C  50.71800 47.37500 44.05500
C  54.27900 46.41700 45.05000
C  52.34800 49.35700 44.09800
C  52.11300 50.54200 45.03700
N  48.06400 46.51000 43.23600
C  48.26200 47.82900 43.61200
C  47.11300 48.64600 43.45200
C  46.14700 47.78100 42.95300
C  46.75200 46.49700 42.83200
C  46.85900 50.06300 43.92000
C  44.77800 47.71700 42.55500
O  43.92500 48.55200 42.70600
C  44.58200 46.26100 42.01900
C  43.40400 45.56100 42.64400
O  43.41400 44.87900 43.66800
O  42.33600 45.92700 41.90500
C  41.10400 45.32600 42.39700
H  48.70000 40.64800 41.33700
H  53.70700 44.40800 43.40800
H  49.59400 49.26400 44.24600
H  44.59300 43.10300 41.31400
H  46.62400 41.83800 39.71800
H  45.46500 40.04800 40.71900
H  45.05800 41.11700 42.08700
H  46.45300 40.27400 42.19500
H  45.81900 43.52100 38.70500
H  45.48900 45.08000 39.40400
H  43.24400 44.64300 38.64500
H  43.05600 43.50100 39.84700
H  51.72000 39.40100 40.67900
H  50.34100 39.42700 41.64800
H  51.93000 39.12700 42.48200
H  54.95900 42.90700 43.93300
H  55.46700 43.35000 42.26300
H  56.03100 41.93000 43.11300
H  53.51400 47.14900 43.19000
H  52.23900 47.96600 45.63600
H  54.35400 45.33000 45.07900
H  54.16500 46.72000 46.09100
H  55.18900 46.79900 44.58700
H  51.74300 49.49500 43.20200
H  53.41500 49.29500 43.88100
H  51.79900 50.17700 46.01400
H  51.23900 51.10100 44.70300
H  52.96900 51.17100 45.28000
H  47.34500 50.19000 44.88700
H  45.77300 50.11000 43.99800
H  47.24900 50.78800 43.20600
H  44.24300 46.45500 41.00200
H  40.72800 45.99500 43.17000
H  41.32300 44.32800 42.77400
H  40.38400 45.12300 41.60500

