158

Mg 24.61500 -7.39100 48.21800
C  27.16100 -5.30600 47.05700
C  22.77000 -6.50000 45.56900
C  22.42100 -9.93300 48.92400
C  26.95800 -8.99500 50.22900
N  24.94000 -5.89700 46.58000
C  26.10600 -5.28700 46.15500
C  25.89900 -4.40600 44.99600
C  24.38900 -4.63900 44.60700
C  23.95000 -5.72400 45.64700
C  23.59100 -3.26100 44.56100
C  26.86400 -4.69000 43.80400
C  27.30200 -3.41700 43.02100
H  26.55000 -3.13400 41.67100
N  22.78200 -8.03900 47.45900
C  22.19700 -7.54500 46.28500
C  20.87200 -8.04500 46.07200
C  20.69300 -9.13400 47.04400
C  21.98800 -9.07200 47.90400
C  20.04400 -7.79100 44.81600
C  19.51400 -10.01300 47.26300
O  18.67800 -10.12600 46.36200
C  19.35900 -10.89600 48.44600
N  24.62800 -9.11100 49.45600
C  23.64700 -10.00100 49.56400
C  23.87500 -11.11400 50.59200
C  25.35100 -10.82300 51.01700
C  25.63000 -9.52900 50.24500
C  22.79700 -11.08000 51.77000
C  26.33500 -12.05700 50.75500
C  27.09100 -12.03900 49.40700
N  26.58900 -7.10700 48.73900
C  27.42300 -7.87900 49.53000
C  28.73200 -7.29800 49.51800
C  28.61900 -6.22700 48.59900
C  27.33900 -6.20900 48.13700
C  29.87700 -7.73100 50.33300
C  29.30200 -5.14400 48.08100
O  30.42200 -4.66700 48.27300
C  28.46700 -4.52000 47.00500
C  28.22900 -3.04500 47.20700
O  27.96100 -2.49700 48.21300
O  28.52700 -2.37700 46.01300
C  28.28200 -0.99200 45.87000
H  22.19400 -6.13700 44.71600
H  21.60600 -10.62300 49.15000
H  27.80100 -9.52000 50.68200
H  26.03300 -3.36900 45.30600
H  24.38600 -4.98200 43.57200
H  23.32900 -2.99600 43.53600
H  24.14200 -2.47600 45.07900
H  22.73000 -3.41000 45.21400
H  26.40200 -5.45000 43.17300
H  27.80000 -5.09500 44.19000
H  28.39100 -3.37600 43.01300
H  27.00600 -2.54000 43.59700
H  20.11500 -8.60800 44.09800
H  20.16000 -6.76800 44.45800
H  19.00800 -7.91500 45.13100
H  20.03400 -11.74700 48.34800
H  18.34300 -11.29000 48.42500
H  19.53900 -10.35200 49.37300
H  23.85100 -12.00200 49.96000
H  25.32100 -10.63900 52.09100
H  23.25000 -10.89500 52.74500
H  22.14100 -11.95000 51.80100
H  22.24800 -10.17300 51.52000
H  25.74200 -12.97200 50.77400
H  27.08200 -12.10300 51.54800
H  26.94200 -13.05700 49.04500
H  28.16100 -11.90100 49.56200
H  26.63800 -11.35400 48.69100
H  29.71600 -7.32800 51.33300
H  30.86400 -7.35300 50.06700
H  29.82400 -8.82000 50.32600
H  28.99800 -4.70300 46.07100
H  29.10700 -0.43600 46.31500
H  27.28100 -0.78500 46.24900
H  28.27300 -0.79400 44.79900
Mg 0.93000 43.19400 25.62000
C  2.95700 42.59200 28.37000
C  -1.77900 42.15700 27.38800
C  -0.90200 43.21200 22.73600
C  3.70000 44.17100 23.78300
N  0.66900 42.26100 27.69200
C  1.61600 42.35600 28.70200
C  0.92100 42.18900 30.00500
C  -0.60900 41.86100 29.71500
C  -0.57600 42.02700 28.19000
C  -1.11300 40.41300 30.10000
C  1.11600 43.36700 30.96900
C  0.68500 43.09200 32.42300
H  0.20200 41.67300 32.77500
N  -1.05300 42.71100 25.17700
C  -2.04500 42.36900 25.98800
C  -3.29400 42.11500 25.34100
C  -3.04300 42.43800 23.97600
C  -1.59300 42.84900 23.94700
C  -4.57800 41.80800 26.04900
C  -4.10800 42.43500 22.88500
O  -3.82800 42.75000 21.76200
C  -5.49200 41.88000 23.10700
N  1.29600 43.71900 23.52800
C  0.36500 43.72100 22.53200
C  0.97000 44.20000 21.24700
C  2.37200 44.74100 21.67200
C  2.50400 44.29800 23.10800
C  1.08800 43.16800 20.14900
C  2.56200 46.27000 21.56000
C  1.47900 47.10100 22.15700
N  2.81900 43.16800 25.94200
C  3.84800 43.50100 25.04400
C  5.10300 43.21000 25.66200
C  4.80300 42.89300 26.95900
C  3.41600 42.87600 27.10300
C  6.41800 43.40000 24.99300
C  5.35400 42.59300 28.26100
O  6.53000 42.43600 28.61100
C  4.16000 42.51900 29.23700
C  4.29800 41.35500 30.24400
O  4.36500 40.10400 30.04900
O  4.22300 41.89400 31.49100
C  4.19700 40.88000 32.58400
H  -2.68000 42.07700 28.00100
H  -1.45300 43.15000 21.79600
H  4.56900 44.62300 23.30100
H  1.43800 41.34000 30.45300
H  -1.29400 42.56000 30.19500
H  -1.95000 40.47400 30.79500
H  -0.33800 39.88100 30.65000
H  -1.49500 39.91700 29.20700
H  0.45100 44.16800 30.64300
H  2.09400 43.82700 30.82300
H  -0.22800 43.67300 32.55400
H  1.43000 43.41200 33.15100
H  -5.36000 42.48400 25.70500
H  -4.41000 41.95600 27.11600
H  -4.89800 40.78500 25.85500
H  -5.95800 42.64200 23.73300
H  -5.53700 40.89300 23.56700
H  -6.00200 41.93600 22.14500
H  0.40600 45.07400 20.92100
H  3.23100 44.43900 21.07300
H  2.11900 43.08100 19.80600
H  0.61800 43.51200 19.22800
H  0.73900 42.16500 20.39400
H  2.74700 46.54100 20.52100
H  3.41900 46.60900 22.14300
H  0.56300 46.57500 22.42500
H  1.12100 47.81500 21.41500
H  1.77300 47.74900 22.98300
H  6.40400 44.27300 24.34100
H  6.67400 42.59900 24.30000
H  7.05200 43.65800 25.84200
H  4.18900 43.48300 29.74400
H  3.89600 39.89700 32.22200
H  3.50700 41.15200 33.38300
H  5.15100 40.74500 33.09400

