158

Mg 35.75800 3.40700 29.64000
C  33.27200 3.98600 31.98800
C  38.11200 3.65600 32.30200
C  38.14800 2.65700 27.43200
C  33.42600 3.70000 27.06400
N  35.76300 3.91000 31.90900
C  34.55500 3.99900 32.59200
C  34.82200 4.11600 34.13200
C  36.43800 4.27900 34.16200
C  36.83300 3.91700 32.72400
C  36.93100 5.72300 34.45400
C  34.26700 2.88800 34.92500
C  33.86500 3.13700 36.38500
H  34.52300 4.15300 37.27700
N  37.81200 3.16500 29.80600
C  38.56900 3.25200 30.97400
C  39.94300 2.84300 30.71800
C  40.02700 2.50800 29.31600
C  38.66300 2.81600 28.77400
C  40.94000 2.90900 31.88300
C  41.16300 2.03200 28.48500
O  41.07600 1.74800 27.25400
C  42.53600 1.82100 29.08500
N  35.81200 3.42500 27.54000
C  36.90200 2.92500 26.89700
C  36.64900 2.63900 25.44500
C  35.12900 2.74800 25.45600
C  34.77600 3.38300 26.73200
C  37.29100 3.61300 24.44800
C  34.42200 1.37800 25.12400
C  33.27700 1.46200 24.15600
N  33.71600 3.81300 29.47900
C  32.92400 3.91400 28.35900
C  31.60200 4.24600 28.89600
C  31.67600 4.21300 30.28600
C  33.02900 3.93700 30.61900
C  30.32200 4.47500 28.11700
C  30.92400 4.43700 31.50800
O  29.74400 4.74400 31.64000
C  31.94000 4.25400 32.68700
C  31.88000 5.52100 33.44600
O  32.16700 6.64700 33.03500
O  31.40500 5.26400 34.68900
C  31.65500 6.34700 35.64100
H  38.79300 3.80900 33.14200
H  38.98600 2.40800 26.77800
H  32.67900 3.55700 26.27900
H  34.39500 5.04300 34.51200
H  36.85500 3.60000 34.90600
H  37.18600 6.28800 33.55700
H  37.91800 5.73600 34.91500
H  36.22500 6.22400 35.11600
H  35.03700 2.12600 34.80400
H  33.30300 2.62500 34.49100
H  34.00200 2.17400 36.87700
H  32.80000 3.34500 36.47900
H  41.94800 3.09600 31.51300
H  40.83600 1.93500 32.36200
H  40.68300 3.66100 32.62900
H  42.65900 1.21300 29.98100
H  42.88600 2.79900 29.41800
H  43.24100 1.44500 28.34500
H  37.11300 1.67300 25.24600
H  34.84800 3.37800 24.61200
H  38.04300 3.26900 23.73800
H  37.87500 4.36300 24.98100
H  36.58600 4.14900 23.81200
H  34.06000 0.98300 26.07400
H  35.09900 0.59600 24.78100
H  32.41300 0.91400 24.53100
H  33.66400 0.89300 23.31100
H  32.97300 2.48100 23.91400
H  30.29400 5.33100 27.44300
H  29.64700 4.77700 28.91800
H  30.03100 3.51400 27.69100
H  31.53400 3.47800 33.33600
H  32.60200 6.84000 35.42000
H  31.71500 5.97600 36.66400
H  30.81200 7.03700 35.61900
Mg 41.27500 40.93100 26.93700
C  40.76500 43.32100 29.54800
C  42.79700 39.06100 29.25200
C  42.07100 38.98000 24.41400
C  40.42800 43.51000 24.61700
N  41.79000 41.27600 29.13900
C  41.35000 42.17900 30.01700
C  41.57100 41.76400 31.52100
C  42.52800 40.52100 31.30000
C  42.38600 40.23500 29.79300
C  43.98400 40.74300 31.75800
C  40.19500 41.51300 32.19600
C  39.96600 42.34400 33.43800
H  39.18000 41.84100 34.58800
N  42.22000 39.16100 26.88300
C  42.83200 38.50400 27.90900
C  43.34500 37.26800 27.51000
C  43.17400 37.20000 26.08300
C  42.43900 38.47900 25.73000
C  44.05200 36.24900 28.49000
C  43.52200 36.11200 25.08300
O  43.37500 36.22100 23.86300
C  44.27000 34.86900 25.57200
N  41.30200 41.20300 24.80200
C  41.67000 40.19200 23.98700
C  41.46600 40.64800 22.47900
C  40.73000 42.02200 22.62400
C  40.81700 42.27000 24.09300
C  42.78800 40.60500 21.59800
C  39.24800 41.92300 22.02600
C  38.20400 41.09200 22.84000
N  40.60900 42.92500 26.98600
C  40.32500 43.83300 26.00000
C  39.89700 45.11700 26.57000
C  40.02300 44.99300 27.92100
C  40.57900 43.66400 28.13900
C  39.39700 46.31900 25.74600
C  39.84200 45.60900 29.24100
O  39.39700 46.74400 29.44000
C  40.28200 44.49600 30.34300
C  41.36300 45.04300 31.25600
O  42.57100 45.07300 30.97200
O  40.78800 45.53700 32.46000
C  41.61600 46.19800 33.39000
H  43.23200 38.37100 29.97700
H  42.41300 38.38000 23.56900
H  40.05400 44.20800 23.86600
H  42.10900 42.53000 32.08000
H  42.10100 39.61500 31.72800
H  44.10400 40.09800 32.62900
H  44.17300 41.77800 32.04300
H  44.63100 40.49400 30.91700
H  40.22800 40.49500 32.58400
H  39.32100 41.61600 31.55200
H  39.44300 43.26600 33.18500
H  40.93700 42.64800 33.82900
H  45.08200 35.98600 28.25200
H  43.58400 35.26400 28.47300
H  44.03500 36.68800 29.48700
H  43.77700 34.44600 26.44700
H  45.28000 35.14400 25.87700
H  44.26600 34.03000 24.87600
H  40.79100 39.88600 22.09000
H  41.37500 42.68900 22.05100
H  43.38700 41.51400 21.64700
H  42.46700 40.58300 20.55700
H  43.25800 39.68800 21.95400
H  39.21900 41.54500 21.00300
H  38.91300 42.94500 21.84700
H  37.65900 41.70700 23.55600
H  38.69100 40.21600 23.26800
H  37.38200 40.83300 22.17300
H  39.18800 45.93200 24.74900
H  40.20500 47.04600 25.66300
H  38.65700 46.80900 26.37800
H  39.43900 44.28900 31.00200
H  42.01500 45.43200 34.05500
H  41.02000 46.95500 33.90000
H  42.42300 46.75000 32.90900

