158

Mg 47.11300 17.40900 28.02100
C  45.34200 16.93200 30.91700
C  49.38600 19.21600 29.85000
C  48.68700 18.17300 25.22200
C  44.69000 15.66000 26.28300
N  47.20800 18.06400 30.13900
C  46.49900 17.68300 31.18000
C  47.03800 18.21600 32.50200
C  48.17500 19.16800 32.00300
C  48.30500 18.75700 30.55400
C  47.83500 20.65300 32.26200
C  47.46800 17.19800 33.62800
C  46.57000 17.16700 34.90000
H  46.16400 18.52800 35.51200
N  48.85800 18.44400 27.60800
C  49.63900 19.11200 28.47800
C  50.87600 19.54500 27.82900
C  50.73100 19.11600 26.46900
C  49.37200 18.66400 26.36200
C  51.98400 20.21500 28.61100
C  51.67900 19.20300 25.30100
O  51.44800 18.90100 24.15100
C  52.89100 19.93800 25.53400
N  46.76000 16.84400 26.10700
C  47.50000 17.48300 25.06100
C  47.00700 17.08400 23.70300
C  45.99700 15.97400 24.09400
C  45.81600 16.08600 25.62100
C  46.41900 18.21500 22.67500
C  46.25500 14.53600 23.52500
C  45.25500 14.00200 22.49300
N  45.39200 16.32500 28.44800
C  44.39300 15.77000 27.66000
C  43.27000 15.38100 28.47600
C  43.66300 15.73500 29.77200
C  44.86700 16.37500 29.64500
C  41.99900 14.79400 28.02700
C  43.18600 15.70300 31.10600
O  42.12600 15.29300 31.52600
C  44.31500 16.46100 31.96800
C  43.65500 17.58500 32.70800
O  43.47400 18.71100 32.30800
O  43.01500 17.04200 33.84400
C  42.07200 17.94400 34.49000
H  49.99900 19.89700 30.44400
H  49.06900 18.60900 24.29700
H  43.93300 15.17000 25.66700
H  46.18600 18.79400 32.85800
H  49.07600 18.91600 32.56200
H  46.93300 20.84200 32.84300
H  47.66000 21.17100 31.31900
H  48.62300 21.15100 32.82700
H  48.52100 17.32500 33.88000
H  47.54200 16.18300 33.23800
H  47.04600 16.49200 35.61100
H  45.70900 16.59700 34.55200
H  52.31000 21.03200 27.96700
H  52.83200 19.56700 28.83700
H  51.68000 20.76600 29.50000
H  52.63500 20.88100 26.01600
H  53.14600 20.26900 24.52700
H  53.73000 19.38000 25.94900
H  47.80900 16.54600 23.19800
H  45.02500 16.25800 23.69100
H  46.99600 18.31500 21.75500
H  46.34700 19.21400 23.10400
H  45.44700 17.89200 22.30300
H  46.37400 13.84300 24.35800
H  47.21500 14.44900 23.01500
H  44.43000 14.71400 22.47600
H  44.77200 13.12200 22.91700
H  45.72700 13.76300 21.54000
H  42.14000 13.93300 27.37300
H  41.43900 15.55400 27.48100
H  41.29800 14.53300 28.82000
H  44.72600 15.75400 32.68900
H  42.51800 18.77400 35.03700
H  41.44000 17.31200 35.11400
H  41.37800 18.33500 33.74600
Mg -6.52100 24.94900 25.91800
C  -4.68000 26.06500 28.91100
C  -8.21200 22.90400 28.03100
C  -7.61200 23.40200 23.21500
C  -4.00400 26.63900 24.01000
N  -6.48700 24.66100 28.14900
C  -5.74600 25.21700 29.13800
C  -6.21800 24.80600 30.58400
C  -7.04100 23.53400 30.21500
C  -7.29900 23.74200 28.70100
C  -6.25900 22.15300 30.42700
C  -7.01600 25.99300 31.23700
C  -6.90900 26.10100 32.77000
H  -6.51600 24.80600 33.44600
N  -7.97500 23.55100 25.60200
C  -8.53100 22.81700 26.57700
C  -9.47000 21.88200 25.97100
C  -9.34200 22.03200 24.54300
C  -8.34600 23.11200 24.37300
C  -10.40400 21.03600 26.82700
C  -10.03200 21.20100 23.42100
O  -9.80500 21.35000 22.25000
C  -10.97000 20.15400 23.81600
N  -5.88900 24.95800 23.94100
C  -6.51700 24.26100 22.99700
C  -5.82000 24.31200 21.64300
C  -5.01300 25.62100 21.84200
C  -4.92900 25.80200 23.35100
C  -4.88600 23.14600 21.38400
C  -5.56400 26.88100 21.11300
C  -4.73000 27.55700 20.05600
N  -4.70800 26.06500 26.32500
C  -3.87500 26.74400 25.42200
C  -2.86800 27.54700 26.16800
C  -3.08500 27.16400 27.51100
C  -4.19900 26.31200 27.59400
C  -1.83000 28.42700 25.62800
C  -2.67300 27.48100 28.92000
O  -1.73600 28.17600 29.35300
C  -3.67800 26.77700 29.87400
C  -2.91200 25.95100 30.75400
O  -2.54400 24.80200 30.52200
O  -2.55800 26.70600 31.88400
C  -1.77700 26.08800 32.93600
H  -8.81200 22.25400 28.67100
H  -7.89300 22.81700 22.33700
H  -3.34800 27.19600 23.33800
H  -5.33200 24.51400 31.14800
H  -7.97900 23.57800 30.76900
H  -5.27000 22.44700 30.77700
H  -6.13700 21.55100 29.52700
H  -6.73700 21.51300 31.16900
H  -8.06500 25.84000 30.98600
H  -6.60300 26.93000 30.86300
H  -7.85700 26.54700 33.07000
H  -6.08500 26.81100 32.69900
H  -10.76100 21.62400 27.67200
H  -9.87100 20.14500 27.16100
H  -11.29400 20.57400 26.40000
H  -10.30100 19.42800 24.27800
H  -11.40700 19.65500 22.95200
H  -11.76700 20.62200 24.39400
H  -6.56600 24.49400 20.86900
H  -4.01900 25.47800 21.41900
H  -5.01100 22.36900 22.13900
H  -3.84500 23.43600 21.24500
H  -5.17000 22.64300 20.45900
H  -5.69300 27.68400 21.83800
H  -6.51200 26.65600 20.62400
H  -4.88300 28.60800 20.30100
H  -5.08300 27.36400 19.04300
H  -3.70000 27.25400 20.24100
H  -0.89900 28.42600 26.19600
H  -2.24000 29.43100 25.52300
H  -1.60000 28.07000 24.62400
H  -4.26900 27.54600 30.37100
H  -1.61200 26.82000 33.72700
H  -0.82900 25.73200 32.53300
H  -2.35200 25.25000 33.33000

