158

Mg 9.43300 3.90100 27.92100
C  10.90200 2.40600 30.73600
C  7.36100 5.64100 30.05800
C  7.75300 5.08100 25.32000
C  11.16000 1.78000 25.82000
N  9.17400 3.92300 30.20000
C  9.87600 3.31700 31.09100
C  9.59700 3.88200 32.45800
C  8.22100 4.65600 32.25200
C  8.20100 4.72400 30.72100
C  6.94700 4.14200 32.99400
C  10.78700 4.74900 33.15500
C  11.33900 4.10500 34.41400
H  11.64500 5.04000 35.61000
N  7.95600 5.31000 27.75300
C  7.22300 5.92000 28.73000
C  6.32500 6.86100 28.13900
C  6.51100 6.84700 26.76000
C  7.46100 5.69200 26.57200
C  5.46900 7.75100 28.94800
C  5.87300 7.70400 25.65700
O  6.11200 7.44400 24.45400
C  4.98900 8.86000 25.91400
N  9.40300 3.38200 25.76400
C  8.61800 4.06700 24.88900
C  8.79800 3.58900 23.41000
C  9.93900 2.55300 23.61200
C  10.20000 2.58200 25.10600
C  7.47400 2.93400 22.82500
C  11.18300 2.73400 22.69400
C  11.91900 1.45500 22.12500
N  10.80000 2.33500 28.18500
C  11.52100 1.60200 27.20600
C  12.38900 0.73700 27.87700
C  12.23800 1.07200 29.28400
C  11.20300 2.03500 29.39700
C  13.20800 -0.34700 27.16600
C  12.75300 0.75600 30.58300
O  13.53500 -0.06300 30.95500
C  11.92000 1.70100 31.57900
C  11.26000 0.79600 32.58000
O  10.16500 0.30100 32.37500
O  11.98700 0.67400 33.71700
C  11.43100 -0.06400 34.85500
H  6.72200 6.24800 30.70300
H  7.26800 5.53800 24.45500
H  11.82500 1.12300 25.25600
H  9.36800 3.00200 33.05800
H  8.28700 5.63600 32.72500
H  6.16500 3.76100 32.33800
H  6.43000 5.00100 33.42200
H  7.09700 3.32600 33.70100
H  10.38700 5.73500 33.39400
H  11.55200 4.68900 32.38100
H  12.28100 3.60100 34.19600
H  10.78200 3.25500 34.80700
H  5.40800 7.51900 30.01200
H  4.51300 7.70600 28.42600
H  5.93400 8.73500 28.87400
H  5.40700 9.55300 26.64300
H  4.11800 8.44000 26.41600
H  4.61900 9.34400 25.01000
H  9.13400 4.40600 22.77100
H  9.63800 1.52300 23.42100
H  6.60400 3.40300 23.28500
H  7.55900 1.85100 22.90700
H  7.33700 3.32500 21.81600
H  11.91600 3.22200 23.33600
H  10.88300 3.30000 21.81200
H  11.29200 1.00700 21.35400
H  12.03400 0.64600 22.84700
H  12.86200 1.82200 21.72000
H  12.53600 -1.19400 27.02600
H  14.15700 -0.65200 27.60500
H  13.47200 0.12800 26.22100
H  12.61100 2.40900 32.03800
H  11.05400 0.64600 35.59100
H  12.28900 -0.54700 35.32200
H  10.71200 -0.87600 34.75200
Mg 16.25000 52.38100 26.67900
C  17.79600 50.88200 29.46000
C  14.10600 53.86000 28.92100
C  14.78500 53.56800 23.95200
C  18.54900 50.67300 24.64500
N  16.03400 52.46600 28.90000
C  16.80400 51.78600 29.82600
C  16.38200 52.07800 31.25800
C  14.95500 52.71300 30.99700
C  15.01200 53.04500 29.52000
C  13.69300 51.88400 31.49300
C  17.36000 53.07100 32.01000
C  17.61100 52.76000 33.52700
H  16.63100 51.89800 34.31100
N  14.68500 53.53300 26.45800
C  13.98900 54.15800 27.48600
C  13.00300 55.00500 26.88100
C  13.20900 54.96700 25.47200
C  14.22900 53.98900 25.23400
C  11.88700 55.74000 27.66000
C  12.50400 55.76100 24.35200
O  12.68400 55.66300 23.18200
C  11.30500 56.64800 24.79700
N  16.66900 52.16400 24.51800
C  15.78400 52.71200 23.60700
C  16.22900 52.42500 22.21700
C  17.57500 51.62100 22.39900
C  17.63200 51.42900 23.94700
C  15.12000 51.71600 21.42800
C  18.89600 52.37600 21.91600
C  19.76600 51.52000 20.91600
N  17.79700 51.03300 26.92300
C  18.72600 50.56200 26.04000
C  19.74200 49.72000 26.74600
C  19.51700 49.97700 28.08500
C  18.28900 50.62700 28.17200
C  20.81400 48.94200 26.07000
C  19.96500 49.63700 29.39400
O  20.95000 49.04500 29.75800
C  18.78300 50.16000 30.38500
C  18.25200 48.90800 31.04200
O  17.62400 48.01500 30.52500
O  18.59400 48.78100 32.41300
C  18.36700 47.51300 33.05200
H  13.41600 54.30400 29.64200
H  14.36300 53.95000 23.02100
H  19.28800 50.15900 24.02600
H  16.24500 51.09600 31.70900
H  14.79200 53.71100 31.40400
H  13.11300 51.60300 30.61400
H  13.00100 52.55300 32.00400
H  13.98800 51.10300 32.19400
H  17.04400 54.11300 31.96400
H  18.37300 53.03400 31.60900
H  17.76800 53.64200 34.14700
H  18.55800 52.22300 33.59100
H  11.86600 56.82700 27.57500
H  11.76600 55.40200 28.68900
H  10.94300 55.39100 27.24200
H  10.38900 56.14200 25.10400
H  11.05900 57.08300 23.82800
H  11.75600 57.36800 25.48000
H  16.42300 53.40900 21.79000
H  17.43600 50.62700 21.97400
H  14.20500 51.75000 22.01900
H  15.31900 50.65600 21.26700
H  15.07500 52.32000 20.52200
H  19.54600 52.61800 22.75600
H  18.72400 53.30900 21.37900
H  19.17600 50.68800 20.53300
H  20.59900 51.20200 21.54300
H  20.21300 52.12000 20.12300
H  20.55500 48.19000 25.32500
H  21.34500 48.43000 26.87300
H  21.47600 49.68600 25.62800
H  19.20700 50.75000 31.19800
H  18.99800 47.32600 33.92200
H  18.60400 46.69900 32.36700
H  17.34500 47.36200 33.40100

