158

Mg 8.39700 3.56200 28.22200
C  9.93100 1.93600 30.88800
C  6.40900 5.28900 30.34000
C  6.67100 4.54400 25.59800
C  9.97200 1.05200 26.15600
N  8.18900 3.57800 30.30400
C  9.01400 2.95800 31.21000
C  8.81900 3.47100 32.64200
C  7.40400 4.18400 32.48900
C  7.34300 4.44900 30.99800
C  6.20600 3.24500 32.90300
C  10.00900 4.37900 33.20700
C  10.65300 3.91300 34.50800
H  10.89300 4.86100 35.71300
N  6.84700 4.88800 27.96500
C  6.16200 5.49000 28.96100
C  5.16100 6.32800 28.37300
C  5.24500 6.20100 26.98700
C  6.24100 5.14800 26.79900
C  4.04900 7.11600 29.11100
C  4.41100 6.81800 25.85400
O  4.53700 6.57400 24.68900
C  3.35900 7.77400 26.15800
N  8.38900 2.94700 26.18100
C  7.62100 3.57500 25.29600
C  7.68700 2.86900 23.88600
C  8.93100 1.93900 24.03600
C  9.22300 2.04300 25.55500
C  6.25500 2.25500 23.43900
C  10.30900 2.43700 23.41300
C  11.21300 1.32000 22.71800
N  9.64700 1.78900 28.43400
C  10.21100 0.91600 27.53800
C  11.05800 -0.03000 28.21800
C  11.04000 0.33800 29.54100
C  10.11000 1.37300 29.60500
C  11.91400 -1.15400 27.52700
C  11.62500 0.10500 30.86700
O  12.50300 -0.64500 31.25800
C  10.83300 1.17800 31.77700
C  10.12000 0.33300 32.72900
O  9.06100 -0.32400 32.56700
O  10.86600 0.33900 33.91400
C  10.38200 -0.40400 35.12300
H  5.81700 5.93800 30.98900
H  6.01100 4.83700 24.77900
H  10.40600 0.28200 25.51500
H  8.78200 2.59700 33.29300
H  7.41800 5.10200 33.07700
H  6.49900 2.21000 33.08000
H  5.50100 3.22000 32.07300
H  5.73100 3.72300 33.76000
H  9.64800 5.39800 33.34500
H  10.74400 4.47500 32.40800
H  11.67000 3.61800 34.25000
H  10.15700 3.06100 34.97300
H  3.09800 6.78300 28.69500
H  4.26700 8.16200 28.89500
H  3.91900 7.02100 30.18900
H  2.61400 7.30800 26.80200
H  2.97300 8.12400 25.20100
H  3.67500 8.51100 26.89700
H  7.93900 3.61400 23.13100
H  8.82800 0.92700 23.64500
H  5.51100 2.47500 24.20400
H  6.53900 1.21000 23.31400
H  5.93600 2.73500 22.51300
H  10.89200 3.07400 24.07800
H  10.04400 3.09400 22.58400
H  10.97900 1.32200 21.65300
H  11.04000 0.37000 23.22300
H  12.23500 1.55400 23.01700
H  12.89200 -1.14100 28.00800
H  12.05300 -1.01500 26.45500
H  11.54200 -2.16200 27.71500
H  11.46100 1.84400 32.36800
H  10.34400 0.37700 35.88200
H  11.16600 -1.11600 35.37800
H  9.46900 -0.96300 34.91700
Mg -12.26100 15.66900 41.64000
C  -9.17800 13.92600 41.46200
C  -10.70000 18.42700 40.35900
C  -15.35900 17.04700 40.96200
C  -13.81000 12.62000 42.34900
N  -10.16200 16.03600 40.83900
C  -9.09700 15.27600 41.04900
C  -7.87900 15.96400 40.54800
C  -8.40600 17.46500 40.43900
C  -9.80500 17.33400 40.63600
C  -7.75200 18.45900 41.37700
C  -7.24500 15.33200 39.29000
C  -5.71500 15.56800 39.15400
H  -5.17500 16.26800 37.90300
N  -12.96600 17.52500 40.91800
C  -12.07100 18.51900 40.54600
C  -12.86900 19.68300 40.27000
C  -14.24000 19.35800 40.52700
C  -14.27100 17.92200 40.85500
C  -12.29700 21.05600 39.90000
C  -15.40900 20.29300 40.31200
O  -15.16900 21.43300 39.97000
C  -16.83400 19.95300 40.68000
N  -14.30300 14.85900 41.41300
C  -15.39900 15.65000 41.29600
C  -16.70900 14.85700 41.41000
C  -16.17900 13.49400 41.90600
C  -14.66600 13.61200 41.84400
C  -17.84500 15.46100 42.26000
C  -16.73600 12.24300 41.11600
C  -17.19800 11.15100 42.05000
N  -11.69900 13.69500 41.92800
C  -12.40600 12.61600 42.36400
C  -11.53000 11.46300 42.62000
C  -10.24100 12.00800 42.34100
C  -10.42500 13.30900 41.89100
C  -12.00700 10.18200 43.21900
C  -8.83800 11.66700 42.31600
O  -8.21900 10.64900 42.59500
C  -8.11000 12.89700 41.73900
C  -7.06500 13.24100 42.71800
O  -7.24800 13.47800 43.90800
O  -5.89500 13.49300 42.09000
C  -4.91100 14.31000 42.88000
H  -10.26000 19.38100 40.06500
H  -16.30500 17.55900 40.77600
H  -14.27500 11.69300 42.69100
H  -7.07900 16.01500 41.28600
H  -8.20300 17.90600 39.46300
H  -6.75100 18.16500 41.69100
H  -8.31100 18.62100 42.29900
H  -7.55200 19.35200 40.78500
H  -7.75100 15.82600 38.46100
H  -7.41500 14.25500 39.31100
H  -5.23200 14.59400 39.22400
H  -5.48000 16.04500 40.10500
H  -11.35600 21.12600 39.35500
H  -12.19900 21.57100 40.85500
H  -12.94500 21.67100 39.27500
H  -17.23800 19.22100 39.98000
H  -17.54400 20.74900 40.45400
H  -16.84100 19.69100 41.73800
H  -17.15300 14.69100 40.42800
H  -16.36500 13.46200 42.97900
H  -18.51400 16.02700 41.61100
H  -17.40600 16.14100 42.98900
H  -18.32900 14.63400 42.77900
H  -16.07200 11.74200 40.41200
H  -17.64100 12.65100 40.66500
H  -16.48700 10.33000 41.96800
H  -18.21400 10.76200 41.98700
H  -17.21400 11.43800 43.10100
H  -12.89700 9.83400 42.69600
H  -12.17400 10.39500 44.27500
H  -11.23600 9.41200 43.19800
H  -7.48000 12.52500 40.93100
H  -5.36100 15.21400 43.29200
H  -4.17300 14.76400 42.21900
H  -4.42800 13.69000 43.63600

