158

Mg 47.47800 34.29700 28.31100
C  45.77400 32.40900 30.76300
C  47.34000 36.99300 30.64700
C  48.28200 36.31600 25.97100
C  46.94000 31.66800 26.04700
N  46.60300 34.64700 30.45300
C  46.09600 33.66000 31.29700
C  46.04900 34.21400 32.76900
C  45.94200 35.77300 32.49600
C  46.67500 35.84000 31.09200
C  44.64000 36.47500 32.60800
C  47.35800 33.78800 33.43500
C  47.19700 33.33600 34.93600
H  46.29100 34.30300 35.84900
N  47.93600 36.29900 28.30300
C  47.83100 37.25500 29.33300
C  48.56500 38.46600 28.90000
C  49.02700 38.18100 27.57400
C  48.37600 36.93300 27.17700
C  48.82000 39.55500 29.86900
C  49.92000 39.05100 26.61700
O  50.11400 38.78900 25.44400
C  50.45500 40.35100 27.10200
N  47.51400 33.99100 26.25300
C  47.82700 35.03500 25.47100
C  47.95900 34.67800 23.98500
C  47.66200 33.17200 24.07200
C  47.39100 32.86700 25.51400
C  47.06800 35.47700 22.93900
C  48.70500 32.18100 23.52300
C  48.59100 31.52400 22.14200
N  46.65000 32.33400 28.41800
C  46.48000 31.41800 27.36800
C  45.85000 30.23000 27.88600
C  45.45100 30.54000 29.20800
C  46.04500 31.84500 29.48300
C  45.52000 28.97100 27.11400
C  44.78000 30.10200 30.40900
O  44.06800 29.21600 30.64600
C  44.80500 31.36800 31.36100
C  44.87800 31.05100 32.79400
O  45.67300 30.33600 33.35100
O  43.81500 31.72200 33.39700
C  43.67400 31.79700 34.83300
H  47.34900 37.80900 31.37300
H  48.77100 36.76600 25.10400
H  46.82300 30.88400 25.29600
H  45.22200 33.79200 33.33900
H  46.53200 36.28700 33.25400
H  44.00900 35.79300 33.17800
H  44.25700 36.62200 31.59800
H  44.83900 37.35700 33.21600
H  48.21400 34.46100 33.38400
H  47.73200 32.88800 32.94800
H  48.17400 33.35400 35.41900
H  46.90900 32.28600 34.98300
H  49.89900 39.69200 29.81200
H  48.70300 39.38500 30.93900
H  48.29500 40.43400 29.49400
H  51.05000 40.05800 27.96700
H  49.68800 41.08600 27.34500
H  51.15300 40.65400 26.32200
H  48.94400 34.84100 23.54700
H  46.68900 32.88900 23.67200
H  46.28300 34.82300 22.55900
H  47.65000 35.81100 22.08000
H  46.54900 36.27400 23.47300
H  48.90500 31.33500 24.18200
H  49.63900 32.70800 23.72100
H  47.75000 31.96300 21.60500
H  48.58700 30.45100 22.33600
H  49.42400 31.70200 21.46300
H  46.20500 28.74700 26.29600
H  44.49600 29.07600 26.75500
H  45.65300 28.18700 27.86000
H  43.80600 31.80300 31.31500
H  42.93200 31.05300 35.12300
H  43.23000 32.78000 34.98300
H  44.51000 31.72200 35.52900
Mg 16.58600 51.81600 24.58000
C  18.42600 50.99300 27.50500
C  13.85100 52.60400 26.65000
C  14.85200 52.47800 21.87900
C  19.36800 50.79100 22.69500
N  16.25000 51.97600 26.84700
C  17.11900 51.49400 27.75900
C  16.57600 51.92100 29.14600
C  15.15200 52.27400 28.92000
C  15.06400 52.27000 27.36900
C  14.08300 51.52100 29.64500
C  17.45500 52.98000 29.90200
C  17.86300 52.83600 31.39900
H  17.31100 51.80500 32.37200
N  14.74200 52.47300 24.31100
C  13.75500 52.66900 25.26900
C  12.53600 53.06200 24.61400
C  12.74600 53.10100 23.21500
C  14.18900 52.69700 23.07700
C  11.32300 53.61100 25.29700
C  11.82900 53.47800 22.04800
O  12.17200 53.46200 20.90100
C  10.46600 53.95500 22.38200
N  16.99300 51.52200 22.55000
C  16.10100 51.95600 21.67500
C  16.67700 52.08200 20.28600
C  18.15700 51.47900 20.43100
C  18.20000 51.30600 21.99500
C  15.76500 51.31700 19.23700
C  19.29400 52.28700 19.90100
C  19.37200 52.41200 18.33400
N  18.42700 50.85600 24.97000
C  19.47800 50.55200 24.12400
C  20.63500 50.11400 24.81300
C  20.23200 50.28900 26.17800
C  18.92700 50.68900 26.19000
C  21.86500 49.67700 24.20500
C  20.69200 50.10000 27.56600
O  21.74800 49.71000 28.00800
C  19.52300 50.57900 28.44400
C  19.03300 49.49700 29.30800
O  18.26100 48.60700 29.00300
O  19.74900 49.49500 30.49700
C  19.35500 48.54400 31.52500
H  12.94500 52.89300 27.18800
H  14.34700 52.82200 20.97400
H  20.18400 50.59600 21.99600
H  16.56800 51.01400 29.75200
H  15.08700 53.33200 29.17700
H  14.43900 50.57800 30.06100
H  13.23600 51.34000 28.98400
H  13.59100 52.13000 30.40300
H  16.86600 53.89700 29.87100
H  18.35800 53.14600 29.31400
H  17.80700 53.79800 31.91000
H  18.93900 52.66300 31.42600
H  11.34200 53.67500 26.38500
H  10.48500 52.95400 25.06400
H  11.12100 54.61200 24.91700
H  9.91300 54.24500 21.48900
H  10.63500 54.82900 23.01200
H  9.90200 53.15600 22.86200
H  16.70200 53.10700 19.91500
H  18.09000 50.49600 19.96500
H  15.25600 51.99300 18.55000
H  15.11500 50.68800 19.84600
H  16.30600 50.59700 18.62300
H  20.22300 51.89800 20.31900
H  19.08600 53.31800 20.18800
H  19.32500 53.49200 18.19000
H  18.62500 51.88800 17.73800
H  20.34700 52.00800 18.06200
H  21.93100 50.34000 23.34200
H  22.14400 48.65000 23.97000
H  22.72500 49.97400 24.80600
H  19.82800 51.51300 28.91500
H  19.49000 47.54300 31.11500
H  18.31000 48.75500 31.75100
H  19.91800 48.59500 32.45700

