158

Mg 40.27000 8.96000 29.22500
C  41.97400 10.10900 31.98600
C  38.38900 6.96800 31.20900
C  38.71700 7.91400 26.47500
C  42.82700 10.51400 27.26900
N  40.08600 8.70000 31.39400
C  40.82300 9.37800 32.34600
C  40.24300 9.14800 33.72100
C  39.37900 7.80300 33.52000
C  39.28300 7.78300 31.93400
C  39.94300 6.55500 34.22200
C  39.46600 10.36000 34.23100
C  39.29400 10.40100 35.81800
H  40.33400 11.12400 36.65000
N  38.63500 7.74100 28.93000
C  38.02800 6.96700 29.83400
C  36.91900 6.23500 29.20100
C  36.88500 6.61600 27.81300
C  38.14500 7.45500 27.64700
C  36.08100 5.20300 29.86500
C  36.06600 6.03600 26.71600
O  36.30600 6.24600 25.53200
C  34.90400 5.23300 27.00700
N  40.79500 9.16900 27.13400
C  39.88700 8.71800 26.23500
C  40.31700 9.09400 24.78600
C  41.66400 9.86400 24.95200
C  41.78900 9.94400 26.54200
C  40.35600 7.93500 23.83100
C  41.68100 11.24500 24.37400
C  40.66900 12.21800 24.92700
N  42.07600 9.96000 29.48000
C  43.04900 10.43900 28.63600
C  44.18300 11.04100 29.29400
C  43.78500 10.95700 30.62200
C  42.47900 10.32200 30.73700
C  45.46200 11.61800 28.71200
C  44.21600 11.21400 31.97400
O  45.14500 11.83900 32.38200
C  43.04700 10.63800 32.92100
C  43.65900 9.67300 33.80700
O  43.73000 8.49000 33.58600
O  44.12500 10.29200 34.90800
C  44.56200 9.44000 36.01800
H  37.80000 6.27400 31.81300
H  38.06300 7.75900 25.61500
H  43.68300 10.93300 26.73700
H  41.06400 9.08600 34.43500
H  38.36800 7.92300 33.90700
H  39.71400 5.73500 33.54200
H  39.33000 6.48400 35.12100
H  41.01700 6.64300 34.38500
H  38.44400 10.06600 33.99100
H  39.78300 11.29200 33.76300
H  39.13600 9.40400 36.22900
H  38.35100 10.93400 35.94200
H  36.36000 4.95600 30.88900
H  36.16200 4.23800 29.36500
H  35.07300 5.60900 29.94800
H  34.25900 5.78100 27.69300
H  35.23600 4.26600 27.38600
H  34.40700 5.10200 26.04500
H  39.53500 9.72900 24.36800
H  42.53600 9.40000 24.49100
H  40.46100 6.98000 24.34600
H  41.20000 7.98700 23.14400
H  39.44300 7.89900 23.23700
H  41.57100 11.21600 23.29000
H  42.69500 11.60700 24.54700
H  41.11400 12.64300 25.82700
H  39.74900 11.70600 25.20600
H  40.46400 13.09300 24.31000
H  45.89800 12.19100 29.53000
H  45.29200 12.35100 27.92300
H  46.11600 10.84600 28.30700
H  42.61600 11.50900 33.41600
H  44.88100 8.43700 35.73600
H  43.93200 9.48800 36.90600
H  45.55300 9.84500 36.22500
Mg -12.01900 38.25300 42.14600
C  -10.01300 35.55600 41.51100
C  -9.59500 40.35200 40.77500
C  -14.20500 40.75200 42.38500
C  -14.59200 35.91800 42.88500
N  -10.06900 37.93600 41.15100
C  -9.52400 36.75000 40.95000
C  -8.15300 36.87700 40.29900
C  -7.86600 38.47300 40.29300
C  -9.24100 38.99600 40.74900
C  -6.66600 38.98300 41.14100
C  -8.01500 36.23700 38.84600
C  -6.62700 35.62900 38.56100
H  -5.87900 36.34500 37.41400
N  -11.87500 40.32000 41.74200
C  -10.81400 40.97000 41.26000
C  -11.03100 42.38600 41.28500
C  -12.36200 42.61100 41.64800
C  -12.90400 41.21700 41.93000
C  -10.06600 43.51200 40.86700
C  -13.09600 43.99100 41.69500
O  -12.59800 45.08500 41.36800
C  -14.52600 43.98000 42.18000
N  -14.17000 38.29100 42.38700
C  -14.76000 39.48900 42.63700
C  -16.23300 39.32100 43.10700
C  -16.30100 37.74500 43.18800
C  -14.94500 37.24400 42.70100
C  -16.66700 40.10100 44.36600
C  -17.52200 37.13900 42.37200
C  -18.37000 36.10200 43.14600
N  -12.30200 36.07600 42.31800
C  -13.32400 35.31300 42.73000
C  -12.90200 33.90200 42.88900
C  -11.54200 34.01200 42.45500
C  -11.25200 35.33300 42.08400
C  -13.62100 32.68800 43.42800
C  -10.39400 33.19200 42.24900
O  -10.18600 31.97800 42.43000
C  -9.32100 34.22300 41.64900
C  -8.20800 34.19500 42.61100
O  -8.13900 35.03400 43.45100
O  -7.24400 33.29000 42.38900
C  -5.99800 33.23000 43.23600
H  -8.83600 40.97300 40.29400
H  -14.94400 41.49100 42.70000
H  -15.35500 35.22500 43.24700
H  -7.42000 36.38800 40.93900
H  -7.78300 38.86800 39.28100
H  -6.04800 38.14700 41.46800
H  -6.87200 39.61100 42.00800
H  -6.00900 39.58300 40.51200
H  -8.30500 37.07300 38.21000
H  -8.79900 35.48400 38.93200
H  -6.76300 34.55200 38.46000
H  -6.02100 35.67500 39.46600
H  -9.11900 43.03700 40.60900
H  -10.01400 44.21600 41.69800
H  -10.53900 44.15200 40.12300
H  -15.06500 43.24300 41.58400
H  -14.88800 44.97800 41.93400
H  -14.68900 43.84800 43.25000
H  -16.83000 39.71600 42.28500
H  -16.37900 37.42400 44.22700
H  -15.89900 40.75200 44.78400
H  -17.13400 39.54800 45.18100
H  -17.47400 40.76000 44.04500
H  -17.17100 36.61400 41.48400
H  -18.22500 37.87800 41.98700
H  -17.95800 35.80800 44.11100
H  -18.62500 35.15500 42.67100
H  -19.31800 36.54600 43.45100
H  -14.70100 32.82100 43.35300
H  -13.46200 32.51100 44.49200
H  -13.25700 31.76100 42.98500
H  -9.01300 33.81300 40.68700
H  -5.08100 33.08100 42.66600
H  -6.06300 32.41300 43.95500
H  -5.93400 34.15300 43.81100

