158

Mg 45.75100 3.91200 47.08500
C  43.41800 6.63300 46.54600
C  43.17100 1.79400 46.54000
C  48.01000 1.63700 46.80200
C  48.37700 6.40700 47.13500
N  43.58300 4.23100 46.51600
C  42.81900 5.42300 46.41300
C  41.33900 5.04500 46.00200
C  41.26900 3.51500 46.19600
C  42.71400 3.11800 46.42400
C  40.23400 2.98800 47.23800
C  41.05500 5.48000 44.51400
C  40.34500 6.78000 44.21500
H  40.86900 7.61900 43.02200
N  45.59900 1.96400 46.87100
C  44.41100 1.23800 46.65500
C  44.74400 -0.12300 46.70700
C  46.18600 -0.20100 46.66200
C  46.67700 1.16000 46.82500
C  43.68400 -1.19300 46.55500
C  47.01500 -1.53900 46.60800
O  46.47800 -2.61300 46.56200
C  48.58700 -1.58100 46.70300
N  47.91200 4.03700 46.78300
C  48.61100 2.89000 46.74400
C  50.15500 3.12200 46.75300
C  50.29500 4.63200 46.92500
C  48.76100 5.08600 46.93200
C  50.94400 2.21500 47.68600
C  51.22700 5.36000 45.91400
C  52.52500 5.99400 46.35300
N  45.89800 6.05600 46.94000
C  47.06000 6.86800 47.00900
C  46.64700 8.32300 47.01000
C  45.18600 8.23600 46.91800
C  44.79100 6.88100 46.75700
C  47.46500 9.60500 46.82600
C  43.94300 9.02400 46.88800
O  43.75100 10.22600 47.00400
C  42.76200 8.00400 46.73500
C  41.92800 8.09100 47.99300
O  42.19800 7.58600 49.06300
O  40.86000 8.95400 47.78200
C  40.07300 9.34300 48.97800
H  42.33000 1.10700 46.42900
H  48.80900 0.92300 46.59300
H  49.20800 7.09700 47.29500
H  40.71200 5.67500 46.63400
H  40.87700 2.97300 45.33600
H  39.39400 2.71000 46.60200
H  39.96900 3.82800 47.88000
H  40.66100 2.13000 47.75800
H  40.59700 4.65900 43.96200
H  41.98800 5.52400 43.95200
H  40.31600 7.41400 45.10200
H  39.28600 6.64300 43.99600
H  43.78300 -1.62300 45.55800
H  42.62900 -0.92300 46.60900
H  43.82100 -1.93500 47.34100
H  48.84900 -0.95800 47.55900
H  48.97300 -1.19400 45.76000
H  48.87300 -2.61800 46.87500
H  50.50100 2.88000 45.74800
H  50.73400 4.83200 47.90200
H  50.37600 2.07600 48.60600
H  51.92000 2.67400 47.84300
H  51.13300 1.25400 47.20700
H  50.65100 6.18400 45.49300
H  51.40200 4.69700 45.06600
H  52.28400 7.04100 46.53500
H  53.32300 6.09300 45.61700
H  52.97700 5.49200 47.20800
H  48.33800 9.50300 47.47000
H  46.84100 10.37600 47.27800
H  47.72900 9.76200 45.78000
H  42.18400 8.25700 45.84600
H  40.68500 9.89000 49.69500
H  39.81800 8.44400 49.54100
H  39.19400 9.91200 48.67500
Mg 55.06900 23.74700 44.78600
C  52.35700 25.74600 43.74100
C  53.28700 21.03800 43.55100
C  57.91100 21.99600 45.03400
C  56.75800 26.60500 45.86200
N  53.18000 23.48000 43.51900
C  52.23100 24.47500 43.36000
C  50.92400 23.89500 42.76400
C  51.13800 22.36600 43.02900
C  52.62600 22.27000 43.38300
C  50.27300 21.91100 44.28100
C  50.82900 24.14500 41.23300
C  49.30700 24.40600 40.87500
H  48.88500 24.21600 39.38400
N  55.50300 21.75000 44.32500
C  54.68300 20.76200 43.88200
C  55.39900 19.53000 43.81800
C  56.78700 19.73500 44.23100
C  56.83400 21.21100 44.57300
C  54.65400 18.33700 43.40400
C  57.82400 18.69600 44.36800
O  57.61500 17.50700 44.12400
C  59.28000 18.99800 44.84500
N  57.23000 24.31700 45.04700
C  58.07100 23.35300 45.27100
C  59.42900 23.93600 45.77600
C  59.14000 25.49800 45.99600
C  57.65200 25.53200 45.58100
C  59.87100 23.20900 47.06400
C  59.91700 26.40700 45.03400
C  60.85300 27.44100 45.72400
N  54.73500 25.78400 44.86000
C  55.41000 26.80900 45.43000
C  54.50500 27.86000 45.70800
C  53.33200 27.60900 44.87700
C  53.54400 26.28600 44.48600
C  54.69400 29.12800 46.47100
C  52.10500 28.15800 44.27500
O  51.67400 29.33300 44.38000
C  51.47900 27.00400 43.54200
C  51.12300 27.42600 42.15400
O  51.94800 27.52300 41.24100
O  49.80500 27.69500 42.01100
C  49.42200 28.16300 40.74300
H  52.81000 20.10800 43.23300
H  58.81500 21.49600 45.38800
H  57.30000 27.46800 46.25400
H  49.98200 24.22900 43.20000
H  50.90800 21.60200 42.28700
H  50.02600 22.73900 44.94500
H  50.62300 21.08700 44.90300
H  49.30200 21.67100 43.84600
H  51.16500 23.33100 40.59100
H  51.62000 24.87000 41.03900
H  48.96000 25.42000 41.07300
H  48.65200 23.66800 41.33900
H  54.64200 18.34800 42.31400
H  53.63900 18.36200 43.80100
H  55.18700 17.47600 43.80700
H  59.62300 19.95000 44.43900
H  59.91100 18.20300 44.44700
H  59.29900 18.88200 45.92900
H  60.11700 23.76400 44.94800
H  59.28000 25.79700 47.03500
H  59.08600 22.56400 47.45800
H  59.86200 23.99000 47.82500
H  60.83600 22.70900 46.98300
H  59.21100 26.97900 44.43200
H  60.37900 25.79100 44.26300
H  60.39600 28.39400 45.99300
H  61.72100 27.66200 45.10300
H  61.16900 27.01500 46.67600
H  54.86300 28.89000 47.52100
H  53.77900 29.69500 46.30200
H  55.46600 29.71200 45.97100
H  50.53800 26.94700 44.09000
H  49.42100 29.25200 40.79400
H  48.43700 27.78600 40.46700
H  50.12300 27.88200 39.95700

