158

Mg 24.11600 -6.82400 46.22700
C  26.60800 -4.72900 45.10900
C  21.91800 -5.13700 43.90800
C  21.98800 -9.40800 46.23400
C  26.61200 -8.72100 47.84900
N  24.26500 -5.22800 44.69300
C  25.43300 -4.53800 44.44100
C  25.20600 -3.28700 43.54800
C  23.61300 -3.28800 43.42700
C  23.19800 -4.58700 44.07400
C  22.88100 -2.06400 44.11600
C  26.00800 -3.52700 42.16000
C  27.08800 -2.46900 41.80700
H  27.00700 -1.74800 40.50200
N  22.20300 -7.20600 45.18100
C  21.49500 -6.33100 44.40000
C  20.14700 -6.82100 44.13600
C  20.18100 -8.16100 44.69800
C  21.53100 -8.31800 45.41000
C  19.01900 -6.01500 43.41800
C  19.08500 -9.22400 44.44800
O  18.05400 -8.89900 43.86900
C  19.19300 -10.60000 44.99700
N  24.39300 -8.94600 46.66400
C  23.26500 -9.66600 46.76400
C  23.51900 -10.88700 47.64400
C  25.00800 -10.82000 48.04300
C  25.45900 -9.43300 47.46200
C  22.47700 -10.92900 48.80700
C  25.90900 -11.95500 47.49200
C  26.20500 -13.15300 48.35600
N  26.11600 -6.62100 46.64100
C  27.03100 -7.49600 47.29800
C  28.33500 -6.77600 47.26100
C  28.17700 -5.68200 46.43400
C  26.83100 -5.63500 46.07400
C  29.57200 -7.16400 48.03200
C  28.86600 -4.58500 45.85900
O  30.04700 -4.33600 45.96100
C  27.83700 -3.88800 44.96500
C  27.73000 -2.45800 45.43000
O  26.86600 -1.94500 46.15000
O  28.85300 -1.73000 45.00800
C  29.03600 -0.35400 45.35500
H  21.15500 -4.58100 43.36000
H  21.32900 -10.24800 46.46100
H  27.27500 -9.39100 48.40000
H  25.44100 -2.30300 43.95600
H  23.39700 -3.24700 42.35900
H  22.32400 -1.47300 43.38800
H  23.63100 -1.45500 44.62100
H  22.15800 -2.39900 44.86000
H  25.29300 -3.66300 41.34900
H  26.53500 -4.48100 42.16400
H  28.12600 -2.80200 41.81000
H  26.97300 -1.67100 42.54100
H  18.04500 -6.37500 43.75000
H  19.20000 -6.11200 42.34800
H  19.13800 -4.96100 43.66700
H  20.19200 -10.94700 44.73300
H  18.51400 -11.31500 44.53200
H  19.02000 -10.76000 46.06100
H  23.42200 -11.73000 46.96000
H  25.07500 -10.86900 49.13000
H  22.92900 -10.66900 49.76400
H  22.11600 -11.95300 48.71200
H  21.69700 -10.17600 48.69000
H  26.86400 -11.48700 47.25500
H  25.37700 -12.27800 46.59700
H  26.06300 -14.05500 47.76100
H  25.61000 -13.19600 49.26800
H  27.22500 -13.14500 48.73800
H  29.27300 -7.85300 48.82100
H  30.06100 -6.27800 48.43700
H  30.29800 -7.59600 47.34300
H  28.21700 -3.84800 43.94400
H  30.11000 -0.18800 45.26400
H  28.81800 -0.21200 46.41300
H  28.39600 0.31000 44.77400
Mg 25.47400 -0.20400 28.59500
C  27.53100 -0.22200 31.47900
C  22.79100 0.18600 30.74400
C  23.54000 -0.09700 25.92100
C  28.30500 -0.54900 26.60700
N  25.18400 -0.15000 30.85700
C  26.21400 -0.06800 31.82000
C  25.68200 0.08700 33.26000
C  24.14100 0.15600 33.00300
C  24.00100 0.07800 31.44200
C  23.34200 -0.93900 33.66900
C  26.20900 1.35600 34.06200
C  25.55500 1.60000 35.44400
H  26.45200 1.96500 36.61400
N  23.36900 -0.13800 28.42200
C  22.43400 -0.00300 29.42700
C  21.11900 0.08200 28.75900
C  21.32800 0.01800 27.37000
C  22.76900 -0.09800 27.19200
C  19.82100 0.33600 29.53400
C  20.35800 0.02600 26.19300
O  20.75600 -0.07800 25.05100
C  18.86700 0.24300 26.37400
N  25.83500 -0.46700 26.52400
C  24.86500 -0.26300 25.62500
C  25.53400 -0.06800 24.21100
C  27.05300 -0.11100 24.47700
C  27.07400 -0.50800 25.91900
C  24.98500 -1.09200 23.20300
C  27.76900 1.20400 24.28200
C  29.12200 1.33000 23.56700
N  27.50600 -0.45200 28.94900
C  28.57100 -0.58100 28.05400
C  29.78700 -0.75000 28.84300
C  29.42200 -0.60600 30.15100
C  27.98800 -0.42400 30.19000
C  31.18600 -0.90700 28.34200
C  29.95300 -0.54700 31.46100
O  31.09200 -0.61700 31.85700
C  28.73500 -0.27500 32.43900
C  28.61800 -1.14300 33.63300
O  28.46700 -2.35300 33.59600
O  28.97100 -0.51800 34.80900
C  28.81200 -1.28600 36.04400
H  21.91800 0.38800 31.36900
H  23.08900 0.02300 24.93400
H  29.29300 -0.45000 26.15500
H  25.93400 -0.86900 33.71800
H  23.78000 1.16400 33.20600
H  23.84500 -1.30200 34.56500
H  23.10800 -1.75100 32.98100
H  22.37900 -0.48300 33.90200
H  25.94600 2.21400 33.44400
H  27.29800 1.36400 34.10000
H  24.98400 0.72400 35.75300
H  24.78200 2.35700 35.31400
H  19.53100 1.38300 29.45300
H  19.72600 -0.02500 30.55800
H  19.03700 -0.22300 29.02200
H  18.42100 -0.42900 27.10700
H  18.42200 0.02700 25.40200
H  18.72200 1.24800 26.76900
H  25.25400 0.90700 23.81300
H  27.49600 -0.80400 23.76200
H  24.49800 -1.84600 23.82200
H  25.72900 -1.55300 22.55300
H  24.26900 -0.63100 22.52300
H  27.83600 1.74700 25.22500
H  27.11900 1.89100 23.74100
H  28.92100 1.66300 22.54900
H  29.57600 0.34500 23.46600
H  29.80700 2.00400 24.08200
H  31.21000 -0.57100 27.30500
H  31.59700 -1.91400 28.40100
H  31.75000 -0.27300 29.02700
H  28.91500 0.71400 32.86000
H  28.13000 -2.12900 35.93900
H  28.30500 -0.61100 36.73300
H  29.72800 -1.58000 36.55600

