158

Mg 40.46900 9.06500 29.27800
C  42.14800 10.47500 32.10800
C  38.23800 7.62700 31.54500
C  38.86600 8.02900 26.63300
C  43.03000 10.45600 27.20700
N  40.28300 9.06500 31.67300
C  40.95600 9.82100 32.56200
C  40.38800 9.76700 33.98600
C  39.10600 8.87800 33.75800
C  39.21900 8.43100 32.27900
C  38.89200 7.61700 34.64600
C  40.17100 11.16300 34.60800
C  39.16400 11.31500 35.73100
H  39.52300 12.02700 37.03200
N  38.78000 8.04700 29.09900
C  38.03900 7.40700 30.18100
C  37.05600 6.55200 29.52500
C  37.18500 6.75500 28.13300
C  38.30800 7.63200 27.90200
C  36.12000 5.69700 30.27700
C  36.40300 6.06800 27.00300
O  36.49100 6.46300 25.88000
C  35.54700 4.93000 27.36200
N  40.86500 9.33100 27.21900
C  39.97600 8.76500 26.28800
C  40.38400 9.09000 24.85100
C  41.72900 9.92800 25.11900
C  41.88900 9.91000 26.58700
C  40.49600 7.81100 23.99000
C  41.70700 11.40700 24.50000
C  41.58200 12.68900 25.40700
N  42.30900 10.06500 29.58000
C  43.26200 10.51600 28.63300
C  44.29600 11.11000 29.34200
C  43.92900 11.11400 30.70100
C  42.69200 10.47200 30.78500
C  45.49800 11.74000 28.88900
C  44.38100 11.59900 32.07100
O  45.31100 12.28600 32.42500
C  43.14100 11.18400 32.96300
C  43.58600 10.28300 34.10200
O  43.98700 9.16600 33.99600
O  43.55700 10.98900 35.26500
C  43.90200 10.34300 36.51300
H  37.55600 7.08500 32.20200
H  38.24200 7.84200 25.75600
H  43.73000 10.88300 26.48700
H  41.15900 9.28600 34.59000
H  38.20800 9.49000 33.84300
H  37.94900 7.97000 35.06400
H  39.63300 7.56200 35.44300
H  38.80000 6.66200 34.12800
H  39.97800 11.92300 33.85100
H  41.12500 11.49100 35.02000
H  38.71200 10.35500 35.98100
H  38.25800 11.79100 35.35700
H  35.12600 5.97600 29.92900
H  36.19300 5.79600 31.36000
H  36.30100 4.63700 30.09800
H  35.21800 4.53300 26.40100
H  34.61200 5.11100 27.89200
H  36.17600 4.15900 27.80700
H  39.55000 9.70000 24.50300
H  42.52700 9.37700 24.62100
H  39.79700 7.86200 23.15500
H  40.30300 6.90300 24.56300
H  41.49100 7.85800 23.54900
H  40.97700 11.71900 23.75400
H  42.64700 11.57700 23.97500
H  41.36200 12.40200 26.43600
H  40.77000 13.35500 25.11500
H  42.54400 13.20000 25.46000
H  45.33400 12.27000 27.95100
H  46.11000 10.90400 28.54900
H  45.95800 12.35600 29.66100
H  42.74200 12.11800 33.36000
H  43.49100 9.35500 36.72300
H  43.52200 10.99400 37.30100
H  44.98200 10.21700 36.58200
Mg 42.17800 41.89200 26.23600
C  41.88700 44.27600 28.80100
C  43.32500 39.68600 28.64400
C  42.71000 39.72000 23.84200
C  41.72700 44.48800 23.82000
N  42.58300 41.95500 28.53000
C  42.26900 43.00800 29.34600
C  42.36900 42.61000 30.80600
C  42.89900 41.06700 30.74400
C  42.99200 40.85900 29.21400
C  44.23100 40.79100 31.44300
C  41.02800 42.74100 31.56900
C  41.20800 43.52700 32.94200
H  39.96100 43.46900 33.85400
N  42.86300 39.86600 26.27800
C  43.28600 39.20400 27.36100
C  43.78300 37.95500 26.87900
C  43.53300 37.89500 25.46200
C  43.03300 39.17500 25.09100
C  44.37500 36.85400 27.78200
C  43.83300 36.70800 24.40200
O  43.65400 36.80000 23.18600
C  44.45900 35.41400 24.95200
N  42.26600 42.11500 24.15000
C  42.34200 41.01800 23.43400
C  42.34100 41.37100 21.91500
C  41.81400 42.89900 21.89900
C  41.91000 43.20700 23.37500
C  43.80400 41.17200 21.32000
C  40.35500 42.98700 21.45700
C  39.33900 42.25000 22.36600
N  41.99300 43.91900 26.24600
C  41.80900 44.82600 25.21500
C  41.42800 46.14500 25.78600
C  41.53000 45.93400 27.16500
C  41.84300 44.58100 27.38700
C  41.12900 47.44600 25.13500
C  41.23300 46.58700 28.44600
O  40.89500 47.74000 28.70300
C  41.50700 45.62600 29.55800
C  42.62200 46.21400 30.45500
O  43.82100 46.15700 30.12700
O  42.16900 46.68300 31.62600
C  43.15400 47.05500 32.65600
H  43.54100 38.82500 29.28000
H  42.80600 39.04300 22.99100
H  41.41100 45.18900 23.04400
H  43.08900 43.32100 31.21000
H  42.27300 40.25900 31.12300
H  44.96500 40.12700 30.98800
H  44.00400 40.27500 32.37600
H  44.71800 41.74500 31.64900
H  40.66400 41.74600 31.82500
H  40.32800 43.18200 30.86000
H  41.29600 44.58300 32.69000
H  42.17000 43.18800 33.32700
H  43.83600 35.91400 27.66200
H  44.45900 36.95700 28.86300
H  45.29700 36.44500 27.36900
H  44.62600 34.71400 24.13400
H  43.94900 34.88800 25.75900
H  45.39700 35.81400 25.33800
H  41.52200 40.75600 21.54300
H  42.39200 43.55800 21.25100
H  44.22800 40.37200 21.92700
H  44.25500 42.16300 21.36900
H  43.81200 40.94800 20.25400
H  40.23900 42.52000 20.47900
H  39.93700 43.98000 21.28800
H  39.79200 41.76800 23.23300
H  38.80700 41.49800 21.78300
H  38.57500 43.00700 22.54600
H  42.09300 47.95400 25.12700
H  40.40000 48.04100 25.68600
H  40.74200 47.41000 24.11700
H  40.62600 45.48000 30.18300
H  43.98100 47.67100 32.30400
H  43.53200 46.08400 32.97800
H  42.55100 47.52500 33.43300

