158

Mg -0.28400 7.85600 26.78000
C  0.60500 10.03100 29.26200
C  -0.75600 5.32500 28.92900
C  -0.63900 5.80300 24.09400
C  0.55600 10.40900 24.48000
N  0.06100 7.56300 28.82600
C  0.21700 8.70500 29.65600
C  -0.01800 8.33900 31.14000
C  -0.34100 6.75500 31.04700
C  -0.42900 6.50100 29.54900
C  0.55000 5.77100 31.79900
C  -1.28400 9.08700 31.73900
C  -1.75000 8.68300 33.16900
H  -0.75300 8.12500 34.13100
N  -0.70900 5.87800 26.51500
C  -0.85700 5.00000 27.58000
C  -1.28900 3.72800 27.02100
C  -1.19100 3.82300 25.62200
C  -0.85200 5.17800 25.35500
C  -1.67800 2.51200 27.87600
C  -1.51300 2.70900 24.52100
O  -1.26600 2.95700 23.31100
C  -2.11800 1.37100 24.90300
N  -0.15700 8.13900 24.49100
C  -0.38500 7.10900 23.68300
C  -0.11400 7.52500 22.20700
C  -0.18700 9.06100 22.32900
C  0.12900 9.23100 23.85500
C  1.25400 6.95200 21.67200
C  -1.58600 9.63600 22.02400
C  -1.63300 10.65100 20.86800
N  0.54500 9.85300 26.78500
C  0.75900 10.79400 25.81600
C  1.12300 12.03100 26.37500
C  1.18700 11.84900 27.74100
C  0.71400 10.53300 27.93000
C  1.42900 13.28500 25.55700
C  1.39900 12.38500 29.04900
O  1.77200 13.49000 29.32000
C  0.92500 11.24500 30.07300
C  2.15800 11.02100 30.89300
O  3.19600 10.59700 30.42600
O  2.01900 11.66500 32.12100
C  3.07800 11.62000 33.10100
H  -0.97900 4.48400 29.58900
H  -0.62700 5.09300 23.26500
H  0.59300 11.23300 23.76500
H  0.93600 8.54100 31.62700
H  -1.38300 6.65700 31.35300
H  0.73000 4.93900 31.11800
H  -0.04100 5.38200 32.62800
H  1.50400 6.15600 32.15900
H  -2.10000 9.08000 31.01700
H  -1.06700 10.15100 31.84100
H  -2.63800 8.05200 33.13800
H  -2.05000 9.61500 33.64800
H  -1.98600 2.81500 28.87700
H  -0.85800 1.79600 27.92700
H  -2.50100 1.96700 27.41300
H  -2.11800 0.69300 24.05000
H  -3.17300 1.61500 25.02800
H  -1.71600 0.85800 25.77600
H  -0.81100 7.17100 21.44700
H  0.60400 9.53200 21.74400
H  1.63100 6.25500 22.42000
H  1.90000 7.77400 21.36200
H  1.06700 6.26700 20.84500
H  -1.89400 10.19200 22.90900
H  -2.30800 8.87000 21.74200
H  -0.80800 10.42100 20.19400
H  -1.56700 11.66200 21.27000
H  -2.51200 10.43300 20.26200
H  0.73500 13.39000 24.72400
H  2.43700 13.15200 25.16200
H  1.28200 14.19700 26.13500
H  0.15400 11.55600 30.77700
H  2.63500 11.79100 34.08200
H  3.89600 12.29300 32.84500
H  3.37400 10.58000 33.23300
Mg 27.10300 51.41900 27.02700
C  24.89500 52.49000 29.34700
C  29.19200 50.30600 29.57000
C  29.27100 50.43000 24.67900
C  25.14100 52.96600 24.53100
N  26.96400 51.36600 29.22200
C  25.93000 51.79200 29.99900
C  26.21600 51.63200 31.50800
C  27.67800 51.06700 31.46100
C  27.99300 50.87700 29.97400
C  28.78200 51.87400 32.18800
C  25.19800 50.62800 32.18300
C  24.44300 51.14600 33.43800
H  25.26400 51.26900 34.77900
N  29.01000 50.54700 27.11300
C  29.64300 50.06000 28.19000
C  30.85300 49.42300 27.77500
C  30.85800 49.35500 26.38600
C  29.60900 50.10200 25.97500
C  31.89600 48.95500 28.81800
C  31.84900 48.70700 25.48400
O  31.66700 48.61900 24.24900
C  33.14800 48.28900 25.98700
N  27.22000 51.68500 24.93700
C  28.20800 51.16100 24.14000
C  27.88300 51.25500 22.66800
C  26.63400 52.21100 22.62200
C  26.36400 52.40300 24.09300
C  29.10600 51.87800 21.93500
C  25.41100 51.67700 21.81800
C  24.79100 50.38900 22.43100
N  25.27100 52.46900 26.89900
C  24.55100 53.00000 25.79000
C  23.34900 53.53800 26.27600
C  23.40800 53.39100 27.68100
C  24.63700 52.74500 27.98700
C  22.29200 54.27700 25.58000
C  22.71700 53.65700 29.00700
O  21.70300 54.25400 29.23100
C  23.66900 52.98100 30.08300
C  24.07900 53.98100 31.07500
O  25.04500 54.66500 31.02100
O  23.16300 54.02100 32.06500
C  23.47700 54.93800 33.22500
H  29.94600 50.08400 30.32700
H  29.88300 50.05900 23.85400
H  24.62400 53.55300 23.76900
H  26.20100 52.58900 32.02900
H  27.72000 50.04900 31.84600
H  29.30600 52.43100 31.41100
H  29.53100 51.20500 32.61200
H  28.33300 52.57700 32.89100
H  25.64500 49.68400 32.49400
H  24.41900 50.48600 31.43300
H  23.56300 50.54600 33.66700
H  24.00300 52.12100 33.22600
H  32.49500 49.83500 29.05100
H  32.52700 48.12000 28.51100
H  31.40700 48.64400 29.74100
H  33.88200 48.32400 25.18100
H  33.13400 47.27000 26.37300
H  33.45600 48.99200 26.76100
H  27.59200 50.26400 22.32100
H  26.90600 53.20000 22.25400
H  29.75500 52.23400 22.73500
H  28.80500 52.68600 21.26800
H  29.53400 51.04200 21.38300
H  25.73900 51.36500 20.82700
H  24.64000 52.44400 21.73800
H  23.70400 50.43800 22.36800
H  25.12800 50.18900 23.44800
H  25.13500 49.48200 21.93200
H  22.05500 53.82700 24.61600
H  22.54800 55.31900 25.39200
H  21.50000 54.28000 26.32900
H  23.08000 52.25200 30.64000
H  24.34100 54.57200 33.78100
H  22.58600 55.14600 33.81800
H  23.72000 55.92000 32.82100

