158

Mg 34.72000 3.10200 30.26600
C  32.22500 3.96500 32.40000
C  37.01600 3.14300 32.82200
C  37.20100 2.48900 27.95600
C  32.50900 3.29900 27.56600
N  34.61600 3.21000 32.41100
C  33.51200 3.73300 33.00300
C  33.77100 3.84400 34.55800
C  35.34000 3.81000 34.65700
C  35.66400 3.41800 33.20000
C  36.09500 5.08100 35.11500
C  33.13400 2.63600 35.23700
C  32.37800 3.09000 36.47500
H  33.14900 4.00700 37.50900
N  36.75400 2.74500 30.39600
C  37.52700 2.80100 31.55900
C  38.87800 2.42000 31.25700
C  38.98400 2.29800 29.82600
C  37.61800 2.55000 29.33000
C  40.01800 2.42000 32.32700
C  40.24800 1.96000 29.01100
O  40.22600 1.65100 27.82000
C  41.58600 1.79500 29.65800
N  34.87500 2.83000 28.06800
C  35.99400 2.66200 27.37700
C  35.77900 2.67100 25.87100
C  34.22100 2.59600 25.84200
C  33.82400 2.81500 27.26400
C  36.48800 3.88100 25.24200
C  33.62400 1.26700 25.23200
C  34.23400 0.84500 23.93600
N  32.80900 3.52200 29.96300
C  32.08900 3.69200 28.85800
C  30.76300 4.13000 29.18400
C  30.79600 4.29900 30.62100
C  32.03900 3.84000 30.99700
C  29.61200 4.32000 28.27400
C  29.98900 4.62500 31.82000
O  28.80500 4.85100 31.90800
C  30.95400 4.44300 33.04700
C  31.23800 5.84100 33.51600
O  32.06700 6.63000 33.10200
O  30.51700 6.11000 34.65400
C  30.82400 7.41200 35.25200
H  37.69500 2.95100 33.65500
H  37.93000 2.07600 27.25500
H  31.82300 3.26000 26.71700
H  33.41000 4.79500 34.95100
H  35.67800 3.03500 35.34400
H  36.81200 4.82700 35.89600
H  35.50600 5.94900 35.41100
H  36.67100 5.48800 34.28300
H  33.90500 1.96600 35.61800
H  32.41500 2.20100 34.54400
H  32.16100 2.11900 36.92100
H  31.48100 3.65600 36.22500
H  40.99100 2.82600 32.05000
H  40.35600 1.38400 32.35600
H  39.66300 2.73400 33.30800
H  42.29500 1.23800 29.04500
H  41.43600 1.04200 30.43100
H  41.87900 2.77600 30.03100
H  36.16300 1.77700 25.38000
H  33.79700 3.34700 25.17600
H  35.71700 4.56600 24.88900
H  37.13300 3.43500 24.48500
H  37.14900 4.38700 25.94500
H  32.56400 1.40900 25.02400
H  33.71200 0.35400 25.82100
H  33.41400 0.26500 23.51100
H  35.10600 0.24700 24.20200
H  34.54000 1.74000 23.39400
H  29.90300 4.93700 27.42300
H  28.74800 4.84700 28.68000
H  29.35300 3.28300 28.05700
H  30.51200 3.74900 33.76200
H  30.59400 8.19900 34.53300
H  31.88100 7.45900 35.51200
H  30.13400 7.50000 36.09200
Mg -2.08400 34.24400 26.53600
C  -3.77300 32.95100 29.29600
C  -0.60100 36.54000 28.65000
C  -0.53300 35.77300 23.84200
C  -3.84900 32.23500 24.44000
N  -2.27400 34.76700 28.68200
C  -2.89800 33.99500 29.64700
C  -2.44400 34.31100 31.05100
C  -1.60700 35.62300 30.79100
C  -1.51200 35.62700 29.25200
C  -2.09600 36.92500 31.38300
C  -1.64800 33.14600 31.76000
C  -1.01300 33.55000 33.09400
H  -1.46600 32.85700 34.34200
N  -0.79000 36.01400 26.25100
C  -0.21900 36.73600 27.25100
C  0.73000 37.70200 26.65300
C  0.74000 37.49500 25.20800
C  -0.20200 36.37200 25.00300
C  1.60000 38.64000 27.46800
C  1.43100 38.16400 24.09700
O  1.16600 37.90200 22.91000
C  2.49700 39.07200 24.40400
N  -2.28200 34.16900 24.41800
C  -1.52400 34.78900 23.53800
C  -1.52500 34.17400 22.16100
C  -2.48200 32.95900 22.33400
C  -2.92900 33.10700 23.85600
C  -2.17700 35.13200 20.97300
C  -1.77600 31.56100 22.10100
C  -2.83200 30.51800 21.69100
N  -3.59800 32.91200 26.72900
C  -4.13600 32.10700 25.79400
C  -4.93600 31.11500 26.42300
C  -4.89600 31.44300 27.83600
C  -4.07300 32.53100 27.93500
C  -5.67700 30.03900 25.73100
C  -5.39200 31.08600 29.15700
O  -6.17200 30.17400 29.52200
C  -4.59800 32.03800 30.16600
C  -5.57500 32.65700 31.00200
O  -6.70900 33.00500 30.60400
O  -5.22000 32.59200 32.31900
C  -6.36800 32.71100 33.28700
H  -0.04500 37.10400 29.40300
H  -0.06000 35.93700 22.87200
H  -4.48700 31.72000 23.71800
H  -3.40100 34.48800 31.54200
H  -0.63100 35.52900 31.26700
H  -2.57800 37.66700 30.74700
H  -1.30000 37.46900 31.89200
H  -2.85600 36.58400 32.08700
H  -0.94700 32.70900 31.04900
H  -2.40400 32.37500 31.90900
H  -1.03500 34.63200 33.22300
H  0.05700 33.34900 33.04100
H  2.62800 38.63800 27.10400
H  1.62400 38.30300 28.50500
H  1.14300 39.62900 27.46300
H  2.15000 39.94700 24.95300
H  2.86300 39.46700 23.45700
H  3.34800 38.60500 24.90000
H  -0.52500 33.90800 21.81800
H  -3.35200 33.04300 21.68200
H  -3.26400 35.09700 20.90000
H  -1.78400 34.89000 19.98600
H  -1.91500 36.18600 21.06200
H  -1.52700 31.28800 23.12600
H  -0.80600 31.52300 21.60500
H  -2.39400 29.92500 20.88800
H  -3.83800 30.92500 21.58900
H  -3.02000 29.75500 22.44700
H  -5.43600 29.09900 26.22700
H  -5.52000 29.87600 24.66400
H  -6.75700 30.12900 25.84400
H  -3.98900 31.37800 30.78400
H  -6.80000 31.73300 33.49800
H  -7.07400 33.43400 32.87800
H  -6.05800 33.26800 34.17100

