158

Mg 2.41600 -1.01500 44.42000
C  5.64500 -0.09200 43.37500
C  1.17300 1.61900 42.65500
C  -0.68500 -2.34400 44.68400
C  3.89000 -3.87000 45.80700
N  3.34100 0.57500 43.26800
C  4.65200 0.76900 42.92500
C  4.81100 2.05300 42.14900
C  3.48500 2.78800 42.33700
C  2.56300 1.50800 42.69500
C  3.51500 3.90600 43.36800
C  5.10700 1.81700 40.59600
C  6.51100 2.16500 40.10100
H  6.58600 2.89000 38.74000
N  0.46400 -0.42000 43.76800
C  0.18700 0.79200 43.16800
C  -1.29400 0.95200 43.12700
C  -1.85700 -0.22600 43.72800
C  -0.68100 -1.03600 44.08900
C  -1.91200 2.11500 42.49000
C  -3.33100 -0.52600 43.82900
O  -4.18600 0.25000 43.40800
C  -3.90000 -1.72500 44.53900
N  1.72900 -2.85900 45.24600
C  0.43200 -3.15800 45.19100
C  0.21200 -4.53000 45.81700
C  1.60100 -4.98700 46.33600
C  2.48000 -3.87100 45.76500
C  -1.00900 -4.71000 46.77700
C  2.04900 -6.50900 46.10200
C  2.50400 -7.42100 47.24300
N  4.29700 -1.85300 44.59300
C  4.73800 -2.93800 45.29200
C  6.17300 -2.97300 45.35700
C  6.57100 -1.89000 44.57400
C  5.42300 -1.26800 44.07400
C  7.07900 -4.03900 45.98700
C  7.68900 -1.24200 44.07800
O  8.89100 -1.51300 44.14800
C  7.14500 0.04800 43.36600
C  7.63700 1.31700 43.96000
O  7.45600 1.69800 45.11700
O  8.45500 1.89300 43.10400
C  9.24500 3.05500 43.58600
H  0.73900 2.55400 42.29500
H  -1.64800 -2.84700 44.79000
H  4.37000 -4.78300 46.16500
H  5.54500 2.70400 42.62400
H  2.99600 3.28700 41.49900
H  4.51200 4.31200 43.54000
H  3.19800 3.47500 44.31800
H  2.99900 4.78000 42.97300
H  4.35100 2.36200 40.03100
H  5.01300 0.74900 40.39900
H  7.10400 1.25500 40.00800
H  7.06700 2.76200 40.82400
H  -2.34400 2.86200 43.15500
H  -2.74100 1.76900 41.87200
H  -1.18700 2.74900 41.98000
H  -3.63000 -2.58200 43.92100
H  -4.97700 -1.67300 44.70100
H  -3.52000 -1.74900 45.56100
H  -0.00200 -5.20800 44.99200
H  1.66900 -4.82600 47.41200
H  -1.69900 -3.86600 46.79500
H  -0.68800 -4.81100 47.81300
H  -1.62300 -5.53800 46.42100
H  2.94600 -6.44100 45.48700
H  1.13700 -6.85000 45.61200
H  2.66200 -6.91400 48.19400
H  3.46200 -7.90000 47.04100
H  1.80800 -8.25900 47.23100
H  6.43800 -4.51200 46.73100
H  7.89300 -3.51100 46.48300
H  7.57100 -4.62000 45.20700
H  7.59700 -0.05900 42.38000
H  8.60100 3.93400 43.56700
H  10.10900 3.10500 42.92300
H  9.54400 2.97100 44.63100
Mg -10.10700 17.34200 42.67700
C  -6.60200 16.94400 42.74100
C  -9.50200 20.59100 41.41600
C  -13.41000 17.68600 42.09600
C  -10.45500 13.81300 43.04700
N  -8.23300 18.69400 42.24000
C  -6.92100 18.25200 42.39600
C  -5.93400 19.39500 42.11300
C  -6.90200 20.63700 41.76600
C  -8.31400 19.91400 41.79900
C  -6.74600 21.79600 42.82900
C  -4.97900 19.06300 40.90500
C  -5.56900 18.25600 39.71700
H  -5.01000 18.45700 38.29600
N  -11.27500 18.92500 41.86300
C  -10.84200 20.16800 41.51300
C  -11.93800 20.97100 41.10900
C  -13.12600 20.18000 41.25800
C  -12.66200 18.84700 41.79000
C  -11.76200 22.40700 40.70000
C  -14.60100 20.62100 40.91900
O  -14.78900 21.66100 40.30300
C  -15.80800 19.74600 41.09700
N  -11.74900 15.86600 42.39900
C  -13.02900 16.32400 42.40600
C  -13.99600 15.20600 42.57700
C  -13.03800 13.96400 42.97400
C  -11.66300 14.55300 42.78900
C  -15.15700 15.40000 43.58500
C  -13.29200 12.69600 42.16800
C  -13.26200 12.79900 40.63100
N  -8.92400 15.63200 42.89900
C  -9.14600 14.31100 43.03900
C  -7.93200 13.65900 43.28600
C  -6.99500 14.61100 43.30400
C  -7.59900 15.81200 42.91800
C  -7.80500 12.15700 43.39900
C  -5.59400 14.81100 43.44500
O  -4.79300 13.91000 43.64400
C  -5.26900 16.27900 43.05800
C  -4.55200 16.91700 44.15500
O  -3.43900 17.43600 44.08900
O  -5.47300 17.12700 45.20900
C  -5.15000 17.87100 46.41700
H  -9.23400 21.57000 41.01300
H  -14.50200 17.70300 42.10400
H  -10.58300 12.74100 43.21300
H  -5.32400 19.61900 42.98700
H  -6.58600 20.92300 40.76300
H  -6.11200 21.65600 43.70400
H  -7.69600 21.95800 43.33700
H  -6.53300 22.71300 42.28000
H  -4.21000 18.44000 41.36200
H  -4.58800 20.02300 40.56600
H  -6.62400 18.50200 39.59500
H  -5.44600 17.20600 39.98000
H  -11.69600 22.42700 39.61200
H  -10.93700 22.92500 41.18800
H  -12.61100 22.95900 41.10500
H  -15.62500 18.81200 40.56600
H  -16.57400 20.35100 40.61200
H  -16.02200 19.54300 42.14700
H  -14.39500 14.94800 41.59600
H  -13.17900 13.76600 44.03700
H  -15.74400 16.30000 43.40300
H  -14.84400 15.47900 44.62600
H  -15.84600 14.56100 43.68300
H  -14.31200 12.39800 42.41200
H  -12.56700 11.91400 42.39700
H  -13.16200 13.84400 40.33400
H  -14.23000 12.55200 40.19600
H  -12.49100 12.15600 40.20500
H  -8.69300 11.55800 43.19800
H  -7.43500 11.91500 44.39500
H  -7.19400 11.75900 42.58900
H  -4.67100 16.38900 42.15300
H  -5.13400 18.93600 46.18700
H  -4.18300 17.61300 46.85100
H  -5.93800 17.62200 47.12700

