158

Mg 55.52700 23.42800 44.34500
C  53.10400 25.51100 43.24000
C  53.60400 20.74600 43.36100
C  58.20500 21.38700 44.65300
C  57.58300 26.15800 45.07500
N  53.57300 23.15400 43.35400
C  52.71300 24.19600 43.07400
C  51.39300 23.63100 42.47200
C  51.48500 22.17500 42.93500
C  52.92900 21.95600 43.21700
C  50.62700 21.83100 44.23400
C  51.20600 23.81800 40.94700
C  49.81700 24.52200 40.60000
H  49.17100 24.34000 39.26800
N  55.90800 21.39100 44.06200
C  54.95100 20.47000 43.73700
C  55.44800 19.18400 43.83200
C  56.84400 19.25700 44.14900
C  57.08000 20.70200 44.29800
C  54.61300 17.93200 43.54700
C  57.79500 18.13000 44.41100
O  57.43400 16.97200 44.36600
C  59.22800 18.37200 44.89400
N  57.66900 23.72500 44.71300
C  58.52200 22.71500 44.91900
C  59.78300 23.15700 45.59400
C  59.68400 24.76600 45.42300
C  58.25200 24.95300 45.06300
C  60.08400 22.71500 46.94500
C  60.56800 25.41600 44.38700
C  61.99100 25.73700 44.79800
N  55.44000 25.44600 44.29700
C  56.31300 26.44600 44.65400
C  55.57100 27.68700 44.71700
C  54.34300 27.34700 44.16300
C  54.35300 26.00700 43.84000
C  56.10900 29.00200 45.17100
C  53.07900 27.95800 43.82000
O  52.73300 29.10300 43.89300
C  52.28000 26.80800 43.11300
C  52.17600 27.27600 41.70900
O  53.10100 27.11800 40.94300
O  50.98500 27.90200 41.36300
C  50.95500 28.37300 39.95300
H  52.90600 19.90900 43.29600
H  59.12600 20.84400 44.87500
H  58.17500 26.99700 45.44700
H  50.56700 24.19400 42.90600
H  51.16800 21.60900 42.05900
H  51.13400 21.22400 44.98500
H  49.71900 21.25700 44.05100
H  50.41900 22.79600 44.69700
H  51.15900 22.88600 40.38300
H  52.13500 24.32800 40.69400
H  49.85100 25.61200 40.62300
H  49.01700 24.18600 41.25900
H  55.05800 16.95700 43.35100
H  54.01200 18.10300 42.65500
H  53.82400 17.74600 44.27600
H  59.83500 18.88100 44.14600
H  59.75300 17.43100 45.06200
H  59.31200 18.79000 45.89700
H  60.61700 22.79400 44.99300
H  59.77200 25.18900 46.42400
H  60.95800 23.30100 47.22800
H  60.14200 21.63100 47.04700
H  59.23100 23.11000 47.49600
H  60.15500 26.35900 44.02900
H  60.64800 24.79700 43.49400
H  62.32700 26.76600 44.67100
H  62.71800 25.02400 44.41100
H  62.06400 25.64900 45.88200
H  57.02200 29.33500 44.67700
H  56.36600 28.83400 46.21700
H  55.40500 29.79700 44.92300
H  51.26700 26.67300 43.49300
H  50.08100 29.02400 39.93800
H  50.78700 27.57900 39.22400
H  51.81500 28.94600 39.60600
Mg 26.16800 50.32700 26.94600
C  24.04600 51.78900 29.56200
C  28.08500 49.14100 29.46800
C  28.26800 49.26300 24.68900
C  24.50200 52.25300 24.65100
N  25.99200 50.32200 29.26500
C  25.00000 50.91900 30.03500
C  25.19100 50.50900 31.48900
C  26.64400 50.03100 31.51200
C  27.03000 49.88700 29.98000
C  27.66500 51.01900 32.17500
C  24.04900 49.52300 31.98800
C  23.62500 49.62200 33.53100
H  24.44200 50.25200 34.67400
N  27.95500 49.30000 27.01200
C  28.57000 48.90700 28.17200
C  29.76400 48.15500 27.78100
C  29.88900 48.16200 26.38700
C  28.69100 48.86700 25.96200
C  30.60900 47.45000 28.77400
C  30.91100 47.62500 25.45400
O  30.71000 47.63900 24.19400
C  32.19900 47.03700 26.02600
N  26.34400 50.70200 25.00200
C  27.22200 50.03400 24.21600
C  26.96300 50.17200 22.71500
C  25.69200 51.02200 22.74100
C  25.51500 51.39300 24.21900
C  27.99600 50.57500 21.66300
C  24.46600 50.44500 22.08100
C  23.41500 51.40700 21.37000
N  24.56500 51.68000 27.02200
C  23.97500 52.47500 25.98300
C  22.82400 53.18200 26.44600
C  22.90500 53.00700 27.86700
C  23.96100 52.08700 28.20100
C  21.93300 53.98100 25.59700
C  22.19200 53.35200 29.12800
O  21.17200 53.98400 29.28300
C  23.01800 52.63600 30.29100
C  23.71100 53.59100 31.28400
O  24.65300 54.32500 30.99600
O  23.00100 53.68400 32.48300
C  23.65400 54.45700 33.48700
H  28.65900 48.71400 30.29300
H  28.77600 48.84200 23.81900
H  23.88000 52.65900 23.85000
H  25.17900 51.46300 32.01600
H  26.67900 49.03400 31.95100
H  27.10400 51.52800 32.95900
H  28.05800 51.82500 31.55600
H  28.42400 50.45700 32.71900
H  24.26200 48.45700 31.91500
H  23.15500 49.66300 31.38100
H  23.21500 48.63500 33.74900
H  22.83100 50.36400 33.44700
H  31.62600 47.81000 28.62200
H  30.59000 46.37900 28.57100
H  30.29000 47.59100 29.80700
H  32.69100 47.77200 26.66300
H  32.76800 46.59300 25.21000
H  31.81900 46.26400 26.69400
H  26.65300 49.14600 22.51600
H  25.74200 51.99900 22.26000
H  27.79700 51.56700 21.25800
H  27.79900 49.83400 20.88900
H  29.02100 50.49900 22.02700
H  23.90500 49.80400 22.76100
H  24.74300 49.69800 21.33700
H  23.28800 51.11700 20.32700
H  23.80700 52.42400 21.36700
H  22.45500 51.31300 21.87700
H  22.02200 53.77900 24.53000
H  22.01800 55.01600 25.92800
H  20.93600 53.69700 25.93300
H  22.35100 51.91300 30.75900
H  23.95100 55.43400 33.10500
H  24.62900 53.98400 33.61000
H  23.02100 54.48700 34.37400

