158

Mg 24.71400 -4.63300 46.18400
C  26.50500 -2.31900 44.21400
C  21.81000 -3.75300 44.33600
C  23.21100 -7.39800 47.30200
C  27.72200 -5.49300 47.60500
N  24.33200 -3.18600 44.46300
C  25.16000 -2.29200 43.87000
C  24.41000 -1.44500 42.84400
C  22.95300 -1.54500 43.42700
C  23.02000 -2.98300 44.12200
C  22.47500 -0.48500 44.47100
C  24.51400 -2.10600 41.50400
C  25.30700 -1.41600 40.42700
H  25.03300 -2.02400 38.99700
N  22.77700 -5.46200 45.86900
C  21.68100 -4.93800 45.14500
C  20.51600 -5.73500 45.31100
C  20.90900 -6.78500 46.19200
C  22.34400 -6.54000 46.50200
C  19.14000 -5.48200 44.64200
C  19.92000 -7.83000 46.82000
O  18.80900 -7.93900 46.42900
C  20.36100 -8.75800 47.90000
N  25.46400 -6.35600 47.20000
C  24.59800 -7.29900 47.55700
C  25.34900 -8.37300 48.37200
C  26.82200 -7.74900 48.53600
C  26.69500 -6.45500 47.76300
C  24.63900 -8.75500 49.66800
C  27.88600 -8.54800 47.69200
C  28.90700 -9.18600 48.54700
N  26.67200 -4.01100 46.11300
C  27.79100 -4.29300 46.86600
C  29.01400 -3.60300 46.38700
C  28.51300 -2.73900 45.36600
C  27.06600 -3.07600 45.23000
C  30.49700 -3.81300 46.91600
C  28.84900 -1.67700 44.41600
O  29.92600 -1.15700 44.11900
C  27.54400 -1.34900 43.66100
C  27.31700 0.11700 43.65100
O  26.79800 0.69100 44.57500
O  27.87200 0.61800 42.53500
C  27.70100 2.02500 42.20500
H  20.99700 -3.40600 43.69500
H  22.67400 -8.25200 47.72000
H  28.70300 -5.83800 47.93700
H  24.90700 -0.47600 42.86600
H  22.23200 -1.58500 42.61100
H  23.15600 0.36100 44.38000
H  22.51000 -0.80500 45.51200
H  21.46500 -0.09900 44.33000
H  23.49300 -2.26500 41.15800
H  24.91500 -3.11200 41.63000
H  26.38900 -1.50700 40.51500
H  25.14200 -0.33900 40.45600
H  18.90200 -4.42900 44.48800
H  18.25300 -5.91500 45.10400
H  19.07700 -5.95400 43.66200
H  21.04700 -9.55100 47.60000
H  19.47100 -9.29300 48.23200
H  20.65900 -8.13800 48.74500
H  25.33700 -9.26200 47.74100
H  27.15100 -7.58500 49.56200
H  23.69600 -8.25600 49.88900
H  25.24600 -8.45100 50.52100
H  24.50100 -9.83000 49.78000
H  28.41900 -8.04700 46.88500
H  27.52000 -9.47100 47.24000
H  28.61900 -10.20000 48.82400
H  28.99500 -8.53000 49.41400
H  29.82400 -9.28300 47.96700
H  30.78800 -3.15000 47.73100
H  31.21100 -3.64700 46.10900
H  30.53500 -4.86700 47.19400
H  27.76000 -1.52300 42.60600
H  26.92400 2.41400 42.86300
H  27.51000 2.25000 41.15600
H  28.62300 2.56800 42.41600
Mg -12.54600 16.80400 42.32100
C  -9.65900 14.78900 41.61300
C  -10.98600 19.39000 40.70900
C  -15.53500 18.22800 41.96300
C  -14.24400 13.81900 43.22500
N  -10.54400 16.98300 41.22200
C  -9.53600 16.12800 41.15900
C  -8.31900 16.69900 40.43500
C  -8.72800 18.19800 40.56800
C  -10.23900 18.18900 40.78100
C  -7.88200 18.91500 41.73100
C  -8.09000 16.07300 39.04000
C  -6.64600 15.90400 38.57900
H  -6.33200 16.82500 37.46000
N  -13.13100 18.58900 41.56300
C  -12.35400 19.59700 41.01000
C  -13.10300 20.74700 40.71400
C  -14.44500 20.47600 41.10600
C  -14.42100 19.04300 41.58000
C  -12.58200 21.99900 40.19600
C  -15.66800 21.44900 41.07800
O  -15.62800 22.48400 40.45500
C  -16.96500 21.04000 41.63600
N  -14.61100 16.10200 42.83100
C  -15.62100 16.96800 42.52300
C  -16.99200 16.33800 42.79700
C  -16.55600 14.91000 43.32200
C  -15.04100 14.94700 43.14100
C  -18.06200 17.08900 43.62200
C  -17.30900 13.58200 42.83800
C  -17.89500 12.71200 43.99500
N  -12.15200 14.71900 42.41700
C  -12.87900 13.65400 42.86000
C  -12.10300 12.40400 42.79100
C  -10.79100 12.82900 42.37400
C  -10.90100 14.22500 42.09200
C  -12.51600 10.99500 43.17500
C  -9.43200 12.37400 42.14200
O  -8.92100 11.28000 42.35600
C  -8.67600 13.56700 41.51300
C  -7.50700 13.80700 42.43000
O  -7.48600 13.99400 43.66400
O  -6.44000 13.75500 41.56000
C  -5.12600 14.02300 42.10900
H  -10.50000 20.34700 40.51000
H  -16.46100 18.70200 41.62900
H  -14.76700 12.89100 43.46600
H  -7.40200 16.54200 41.00200
H  -8.56400 18.76000 39.64900
H  -7.13400 19.48000 41.17400
H  -7.42600 18.29800 42.50500
H  -8.56200 19.65600 42.15200
H  -8.38000 16.88400 38.37200
H  -8.61500 15.15700 38.77100
H  -6.43400 14.87800 38.27900
H  -5.89300 16.15400 39.32700
H  -12.93700 22.09600 39.17000
H  -11.50500 22.15600 40.25700
H  -13.02900 22.73200 40.86700
H  -17.56600 21.94700 41.69800
H  -16.86400 20.55500 42.60700
H  -17.55300 20.39900 40.97900
H  -17.58100 16.12400 41.90500
H  -16.60000 15.01500 44.40600
H  -17.62300 18.02100 43.97900
H  -18.28100 16.44900 44.47700
H  -18.92500 17.27500 42.98300
H  -16.76700 12.90100 42.18200
H  -18.16500 13.84900 42.21900
H  -18.97400 12.85000 43.91900
H  -17.52700 13.01800 44.97400
H  -17.60300 11.66800 43.88400
H  -12.68700 10.95100 44.25000
H  -11.80000 10.33300 42.68600
H  -13.49700 10.84300 42.72400
H  -8.23100 13.46100 40.52300
H  -5.03300 13.62600 43.12100
H  -4.88900 15.07900 42.23600
H  -4.26500 13.62400 41.57400

