158

Mg 1.67100 -1.90800 44.50300
C  5.04300 -1.00400 44.39200
C  0.91000 0.76000 42.61900
C  -1.36200 -3.19300 44.25500
C  2.74300 -4.87100 46.16200
N  2.86500 -0.42500 43.48100
C  4.18600 -0.12300 43.64000
C  4.61900 1.09700 42.84000
C  3.26700 1.80900 42.50100
C  2.31400 0.57200 42.77700
C  2.85900 3.04500 43.29600
C  5.49200 0.82900 41.59200
C  6.68100 1.70000 41.16300
H  6.90100 2.09400 39.68400
N  -0.05900 -1.27200 43.68900
C  -0.20600 -0.11600 43.01300
C  -1.65500 0.16100 42.88100
C  -2.30700 -0.97100 43.28900
C  -1.26600 -1.87900 43.78800
C  -2.20900 1.40400 42.20200
C  -3.71300 -1.16700 43.18400
O  -4.38700 -0.37300 42.64300
C  -4.33400 -2.39800 43.73300
N  0.84500 -3.85900 44.99900
C  -0.47800 -4.03700 44.89900
C  -0.87600 -5.44700 45.28800
C  0.42000 -5.93000 45.94600
C  1.45100 -4.90200 45.69100
C  -2.06400 -5.59500 46.26000
C  0.89100 -7.33200 45.35300
C  0.05000 -8.52900 45.81600
N  3.48900 -2.80500 45.23400
C  3.81200 -3.94700 45.95100
C  5.19500 -3.90900 46.31100
C  5.71400 -2.79700 45.65800
C  4.66000 -2.14400 45.06200
C  5.87700 -4.92100 47.13700
C  6.93800 -2.01600 45.39300
O  8.10300 -2.23900 45.69000
C  6.58000 -0.80900 44.57000
C  7.04700 0.40000 45.30400
O  6.76500 0.75400 46.47400
O  7.87300 1.09100 44.45100
C  8.05800 2.50400 44.81400
H  0.70100 1.71000 42.12400
H  -2.32400 -3.70500 44.32500
H  3.02700 -5.78000 46.69600
H  5.13200 1.69800 43.59000
H  3.14000 2.07600 41.45200
H  3.60800 3.19500 44.07400
H  1.89300 2.92300 43.78600
H  2.88900 3.93500 42.66800
H  4.92700 0.95700 40.66800
H  5.84600 -0.20200 41.55900
H  7.59500 1.15300 41.39500
H  6.66200 2.53300 41.86600
H  -2.52400 1.17000 41.18500
H  -1.47500 2.20500 42.11800
H  -3.13100 1.60400 42.74800
H  -3.93200 -3.29900 43.26900
H  -5.41700 -2.42800 43.61400
H  -4.12900 -2.47700 44.80000
H  -1.12400 -5.95000 44.35300
H  0.40100 -6.06800 47.02700
H  -2.51800 -4.62000 46.43900
H  -1.65000 -5.90000 47.22100
H  -2.75000 -6.35400 45.88400
H  1.90400 -7.47500 45.72900
H  0.90100 -7.21800 44.26900
H  0.77100 -9.07500 46.42500
H  -0.29600 -9.14400 44.98600
H  -0.76000 -8.16700 46.44900
H  5.15700 -5.69000 47.41900
H  6.20600 -4.50300 48.08800
H  6.69600 -5.28700 46.51700
H  7.00500 -0.76700 43.56700
H  8.95100 2.85600 44.29600
H  8.13800 2.77000 45.86800
H  7.17100 3.04700 44.48900
Mg 34.78500 2.85700 30.35600
C  32.46300 3.73300 33.04700
C  37.28100 2.90600 32.88100
C  36.89200 2.34300 28.08300
C  32.09900 3.44300 28.24400
N  34.76500 3.45600 32.67200
C  33.71200 3.54000 33.50600
C  34.18400 3.44200 34.94500
C  35.73900 3.61600 34.83500
C  35.99100 3.29200 33.36700
C  36.27900 5.00000 35.34100
C  33.72900 2.18800 35.76000
C  33.16500 2.53800 37.17900
H  33.83500 3.60300 38.06200
N  36.77500 2.53700 30.49100
C  37.62700 2.70000 31.59100
C  38.97100 2.32100 31.12600
C  38.94700 2.15000 29.72300
C  37.54700 2.32000 29.34100
C  40.17800 2.51100 32.06500
C  40.02700 1.73400 28.76700
O  39.83600 1.66000 27.53800
C  41.31200 1.24500 29.30400
N  34.51300 3.01400 28.40600
C  35.55200 2.61800 27.62200
C  35.02400 2.44800 26.21400
C  33.47600 2.58200 26.30800
C  33.36100 3.14600 27.70800
C  35.66800 3.51200 25.24000
C  32.69800 1.26800 26.14200
C  31.57400 1.34300 25.10600
N  32.69500 3.60200 30.56000
C  31.76600 3.66700 29.61000
C  30.44500 3.69500 30.21100
C  30.64600 3.79200 31.51000
C  32.06500 3.69400 31.71000
C  29.23200 3.75700 29.45900
C  30.07100 3.88000 32.78100
O  28.88800 3.89700 33.09100
C  31.19200 3.95300 33.84400
C  31.14400 5.24400 34.59700
O  31.28300 6.36000 34.08400
O  31.02900 5.09900 35.96700
C  30.98600 6.32300 36.77400
H  38.11900 2.89100 33.58000
H  37.56100 1.93800 27.32100
H  31.32700 3.44700 27.47100
H  33.81400 4.31700 35.47900
H  36.26700 2.86200 35.41900
H  36.62100 4.75600 36.34600
H  35.45000 5.69800 35.46000
H  37.18700 5.28300 34.80800
H  34.59900 1.55000 35.91600
H  33.00300 1.54400 35.26400
H  33.18600 1.70600 37.88200
H  32.10500 2.75000 37.03600
H  40.42000 1.54500 32.50800
H  40.09900 3.35500 32.75000
H  41.14100 2.66000 31.57700
H  41.15900 0.69100 30.23000
H  41.91000 2.13800 29.48800
H  41.64700 0.51300 28.56900
H  35.35600 1.49400 25.80300
H  33.15700 3.30500 25.55800
H  35.65500 4.55900 25.54100
H  35.18300 3.45400 24.26600
H  36.73500 3.28800 25.24100
H  32.38700 0.86400 27.10600
H  33.48700 0.54900 25.92100
H  30.67000 1.77900 25.53200
H  31.34500 0.30400 24.87100
H  31.88900 1.79500 24.16500
H  28.64000 2.86300 29.65400
H  29.41000 3.98300 28.40800
H  28.73400 4.68700 29.73300
H  31.05600 3.13600 34.55300
H  30.31700 7.04400 36.30600
H  31.95900 6.81500 36.81200
H  30.52800 5.94200 37.68700

