158

Mg -2.46100 16.85800 26.78400
C  -2.88500 14.52900 29.56000
C  -2.72600 19.42200 29.06900
C  -2.46900 18.79200 24.16500
C  -2.83200 13.94100 24.73800
N  -2.87400 16.97400 29.07500
C  -2.82100 15.91300 29.94200
C  -2.85500 16.47900 31.43500
C  -2.95200 18.04500 31.18800
C  -2.85500 18.15700 29.69300
C  -4.23100 18.74900 31.81400
C  -1.70400 15.94100 32.41600
C  -1.19200 16.88800 33.49700
H  -0.74800 16.21300 34.75700
N  -2.48400 18.82500 26.67400
C  -2.60000 19.76800 27.70000
C  -2.58100 21.08900 27.09500
C  -2.59300 20.91800 25.65200
C  -2.49600 19.44600 25.43700
C  -2.75300 22.28700 27.99100
C  -2.66300 21.95500 24.63300
O  -2.79500 21.67800 23.42500
C  -2.78400 23.41600 25.01500
N  -2.71700 16.38400 24.78000
C  -2.57300 17.35000 23.82700
C  -2.59400 16.84100 22.34600
C  -2.58300 15.30500 22.60700
C  -2.59200 15.13300 24.11200
C  -3.92300 17.30500 21.62400
C  -1.45200 14.52200 21.82800
C  -1.93000 13.41000 20.81100
N  -2.82100 14.67100 27.01900
C  -2.89700 13.68200 26.10100
C  -2.96700 12.40700 26.74200
C  -2.99000 12.72500 28.08700
C  -2.85600 14.09500 28.25900
C  -2.93000 11.03800 26.09300
C  -3.00100 12.09100 29.42700
O  -3.08300 10.93400 29.82400
C  -2.88200 13.28500 30.43800
C  -1.62600 13.10400 31.17500
O  -0.52300 13.42900 30.76800
O  -1.78500 12.49200 32.36300
C  -0.64200 12.36900 33.31100
H  -2.63000 20.30200 29.70800
H  -2.40400 19.44500 23.29200
H  -2.81300 13.01400 24.16300
H  -3.78100 16.05600 31.82400
H  -2.11100 18.64700 31.53000
H  -5.07700 18.80400 31.12900
H  -3.93800 19.72400 32.20600
H  -4.53200 18.13800 32.66500
H  -0.86800 15.73400 31.74800
H  -1.99700 14.98900 32.86000
H  -1.90000 17.69500 33.68500
H  -0.29700 17.31500 33.04400
H  -3.34900 21.97500 28.84900
H  -3.25600 23.15800 27.57000
H  -1.86300 22.78400 28.37600
H  -2.86900 24.06700 24.14500
H  -1.94300 23.82400 25.57500
H  -3.68900 23.55400 25.60600
H  -1.73500 17.20300 21.78100
H  -3.57000 14.95200 22.30900
H  -4.80000 17.02000 22.20400
H  -4.05700 16.65600 20.75900
H  -4.05900 18.34900 21.34100
H  -0.68900 14.11500 22.49200
H  -0.93500 15.23800 21.19000
H  -1.50400 13.63600 19.83400
H  -3.01000 13.42700 20.66400
H  -1.58700 12.40600 21.06200
H  -3.91600 10.64900 25.84100
H  -2.36800 10.42900 26.80200
H  -2.41300 11.08800 25.13500
H  -3.75900 13.22500 31.08200
H  -0.78300 11.31100 33.53100
H  -0.68200 13.04000 34.16900
H  0.36600 12.55100 32.93800
Mg 40.28500 9.77600 29.86500
C  42.21500 11.02100 32.35700
C  37.96200 8.50300 32.13200
C  38.69200 8.07300 27.48100
C  43.03100 10.33600 27.62500
N  40.05300 9.82200 31.96000
C  40.96100 10.50200 32.80900
C  40.37800 10.52400 34.20900
C  39.14300 9.54900 34.11400
C  38.98800 9.29100 32.63600
C  39.33400 8.23600 34.92100
C  40.02700 11.96400 34.80800
C  40.90900 12.37800 35.99100
H  40.29600 12.71100 37.33600
N  38.53900 8.56400 29.80200
C  37.74600 8.09700 30.80400
C  36.69800 7.26600 30.30800
C  36.85400 7.27200 28.87400
C  38.11400 7.88600 28.70600
C  35.82000 6.48700 31.20000
C  35.88100 6.67100 27.94600
O  36.12800 6.56700 26.78700
C  34.51800 6.39700 28.40000
N  40.70800 9.40300 27.82700
C  39.83400 8.71500 27.01600
C  40.33300 8.63000 25.50200
C  41.79100 9.30700 25.61400
C  41.86800 9.74200 27.12300
C  40.47700 7.15700 25.01200
C  41.93900 10.46400 24.57300
C  42.14700 11.86200 25.09100
N  42.18700 10.57000 29.90000
C  43.18700 10.71300 28.95600
C  44.33100 11.41000 29.60300
C  43.90600 11.57800 30.91000
C  42.70200 11.01000 31.05800
C  45.68500 11.68000 29.15000
C  44.36900 12.07500 32.16200
O  45.44700 12.55000 32.51500
C  43.20700 11.88300 33.07700
C  43.80100 11.25600 34.37500
O  44.19900 10.09000 34.44800
O  43.99700 12.11900 35.40300
C  44.41900 11.52100 36.69200
H  37.29200 8.22100 32.94700
H  38.26300 7.49900 26.65700
H  43.92700 10.46300 27.01300
H  41.18000 10.09400 34.80900
H  38.22300 10.01300 34.47000
H  40.19800 8.45100 35.54900
H  39.53900 7.46100 34.18200
H  38.49500 8.02000 35.58200
H  38.97100 12.05500 35.06200
H  40.17500 12.74000 34.05800
H  41.45800 13.25900 35.65900
H  41.74600 11.69700 36.14500
H  35.72200 5.43600 30.92800
H  34.81800 6.91300 31.15000
H  36.17800 6.47200 32.22900
H  33.95500 6.20200 27.48800
H  34.01200 7.21400 28.91400
H  34.54700 5.44500 28.92900
H  39.60300 9.15000 24.88100
H  42.59600 8.60200 25.40700
H  40.31700 6.46800 25.84200
H  41.28100 6.87000 24.33500
H  39.59300 7.08200 24.37800
H  41.08000 10.48200 23.90300
H  42.71800 10.14900 23.87900
H  41.89400 12.64900 24.38000
H  43.21400 12.05200 25.20900
H  41.48800 12.04500 25.94000
H  46.48300 11.63500 29.89100
H  45.66000 12.54700 28.48900
H  45.83900 10.84000 28.47300
H  42.87000 12.86600 33.40600
H  43.82700 10.62400 36.87100
H  44.20300 12.21800 37.50200
H  45.47600 11.30900 36.52600

