158

Mg -10.41600 40.21000 42.42500
C  -9.45400 36.98400 41.51100
C  -7.60600 41.34700 40.56700
C  -11.58000 43.35700 42.47100
C  -13.50100 38.94500 43.30400
N  -8.85700 39.26200 40.92200
C  -8.59500 37.89900 40.95100
C  -7.28700 37.57100 40.18400
C  -6.53300 39.00900 40.19200
C  -7.75900 39.92600 40.61300
C  -5.29300 39.20400 41.15100
C  -7.59000 37.04100 38.76800
C  -6.82800 35.84000 38.15000
H  -5.75400 36.13300 37.13900
N  -9.61500 42.06400 41.74800
C  -8.48100 42.29400 41.02300
C  -8.24500 43.77700 41.02000
C  -9.35000 44.40400 41.66900
C  -10.23900 43.27600 41.97800
C  -7.10900 44.40200 40.26800
C  -9.53300 45.93100 41.84500
O  -8.81700 46.80400 41.35100
C  -10.62400 46.41900 42.63100
N  -12.34400 41.06900 42.83500
C  -12.58100 42.33000 42.86600
C  -14.09000 42.55500 43.16500
C  -14.53400 41.16500 43.73200
C  -13.41400 40.32400 43.20800
C  -14.49600 43.80600 44.09800
C  -16.01200 40.76500 43.32600
C  -16.90000 40.27200 44.48500
N  -11.32200 38.29500 42.53900
C  -12.55000 37.93400 42.97800
C  -12.65100 36.50600 42.97600
C  -11.53800 36.04600 42.35800
C  -10.70200 37.22600 42.13900
C  -13.78100 35.64300 43.49900
C  -10.76400 34.93200 41.78400
O  -11.06100 33.73500 41.72700
C  -9.38400 35.49100 41.21800
C  -8.25900 34.78300 41.91100
O  -7.77400 35.09800 42.98400
O  -7.84000 33.72400 41.20100
C  -6.77600 32.86300 41.71600
H  -6.73500 41.66900 39.99200
H  -12.10300 44.31500 42.47300
H  -14.45800 38.46700 43.52500
H  -6.57700 36.93200 40.71000
H  -6.23300 39.25600 39.17300
H  -4.58300 38.45200 40.80300
H  -5.61300 38.96700 42.16500
H  -5.02800 40.25900 41.08000
H  -7.45200 37.88600 38.09300
H  -8.65600 36.81800 38.72100
H  -7.54300 35.19300 37.64100
H  -6.35200 35.36200 39.00600
H  -7.25600 44.48700 39.19100
H  -6.19800 43.81200 40.37000
H  -6.85200 45.37200 40.69400
H  -10.72800 45.80500 43.52500
H  -11.55900 46.32700 42.07800
H  -10.45000 47.45000 42.93800
H  -14.52200 42.59500 42.16500
H  -14.33900 41.12300 44.80400
H  -13.64400 44.47300 44.23200
H  -14.72300 43.55400 45.13400
H  -15.31700 44.29600 43.57600
H  -15.98600 40.03200 42.52000
H  -16.59100 41.63900 43.02700
H  -16.29400 40.01600 45.35400
H  -17.36400 39.35000 44.13400
H  -17.67100 41.02600 44.64900
H  -14.20600 35.96400 44.45000
H  -13.42900 34.61400 43.56800
H  -14.57300 35.69100 42.75200
H  -9.49400 35.20900 40.17100
H  -7.09800 32.15100 42.47600
H  -6.03500 33.46200 42.24600
H  -6.20400 32.42900 40.89700
Mg -1.45600 34.36900 26.81900
C  -3.15900 32.56700 29.18700
C  0.21800 36.10300 29.39100
C  -0.65800 36.90800 24.63000
C  -3.49500 33.01200 24.41200
N  -1.44100 34.28900 29.01700
C  -2.23400 33.46300 29.76200
C  -1.93200 33.57500 31.20600
C  -0.99400 34.78600 31.25200
C  -0.64000 35.07400 29.78900
C  -1.52100 36.10100 32.08100
C  -1.42700 32.24600 31.84900
C  -2.05800 31.91500 33.21700
H  -1.02500 31.93300 34.41900
N  -0.10800 36.04800 26.90500
C  0.41300 36.59400 28.05100
C  1.24300 37.75100 27.67600
C  1.02200 37.99600 26.28400
C  0.06800 37.00500 25.87100
C  1.88500 38.62000 28.68400
C  1.65000 38.99100 25.39600
O  1.29400 39.16300 24.23400
C  2.84500 39.80800 25.90000
N  -2.10700 34.97500 24.88100
C  -1.61700 36.03600 24.20200
C  -2.20400 36.16100 22.85100
C  -2.91500 34.79800 22.70000
C  -2.79100 34.18100 24.06800
C  -3.17300 37.31700 22.59100
C  -2.28600 33.84300 21.57700
C  -3.22800 33.04000 20.60700
N  -2.97900 32.89200 26.80100
C  -3.59100 32.35700 25.68700
C  -4.46400 31.31200 26.10000
C  -4.37300 31.33400 27.49100
C  -3.42000 32.33000 27.87500
C  -5.22800 30.34400 25.19800
C  -4.87600 30.78700 28.75200
O  -5.67800 29.89500 28.97800
C  -4.06100 31.55400 29.86500
C  -5.12700 32.15100 30.72000
O  -5.92200 33.04300 30.42300
O  -5.12800 31.49600 31.97900
C  -6.22500 31.88000 32.92300
H  0.75500 36.57000 30.22000
H  -0.30400 37.58900 23.85300
H  -4.09200 32.53700 23.63100
H  -2.81300 33.95600 31.72200
H  -0.10400 34.50200 31.81300
H  -1.26300 37.00200 31.52300
H  -0.82800 36.14100 32.92100
H  -2.52500 35.99100 32.49000
H  -0.35700 32.41400 31.97600
H  -1.46400 31.46300 31.09200
H  -2.45300 30.90000 33.24100
H  -2.88100 32.61700 33.34900
H  1.15500 38.53300 29.48900
H  1.92500 39.66000 28.35800
H  2.85700 38.26200 29.02000
H  3.40000 40.33700 25.12500
H  3.58200 39.16900 26.38600
H  2.43800 40.58000 26.55200
H  -1.40900 36.28800 22.11600
H  -3.97600 34.92300 22.48300
H  -3.17700 37.84600 23.54400
H  -4.16800 37.02500 22.25500
H  -2.85800 37.84400 21.69000
H  -1.67600 33.18000 22.19200
H  -1.58000 34.48800 21.05300
H  -2.98100 33.28400 19.57400
H  -4.27100 33.33200 20.73600
H  -3.21900 31.95300 20.69200
H  -4.62600 30.02200 24.34800
H  -6.10300 30.94900 24.96100
H  -5.54400 29.49700 25.80800
H  -3.53800 30.85100 30.51400
H  -7.01100 32.51500 32.51300
H  -5.77300 32.42100 33.75400
H  -6.73300 31.00500 33.32700

