158

Mg 25.51100 1.87600 29.15900
C  27.63800 1.48200 31.85100
C  22.88500 2.17800 31.32000
C  23.35100 1.62500 26.58500
C  28.21800 1.13300 27.09400
N  25.33700 1.87400 31.26800
C  26.34200 1.76700 32.19200
C  25.87800 1.83800 33.66600
C  24.35000 2.09100 33.49600
C  24.17200 1.93700 31.94200
C  23.39800 1.07800 34.28600
C  26.55700 2.89600 34.63200
C  25.67400 3.58200 35.70700
H  26.24100 4.02100 37.07600
N  23.36500 2.06500 28.97300
C  22.41000 2.14900 30.01700
C  21.07900 2.21400 29.48300
C  21.24900 1.86100 28.09300
C  22.72300 1.83400 27.81800
C  19.84700 2.53100 30.38500
C  20.25100 1.58800 27.07800
O  20.42600 1.11200 25.92900
C  18.80000 1.87600 27.41500
N  25.78400 1.53600 27.07100
C  24.70900 1.56700 26.23100
C  25.17700 1.26300 24.77400
C  26.71800 1.27100 24.88900
C  26.92900 1.25300 26.41300
C  24.50600 -0.04000 24.15000
C  27.45200 2.47300 24.37300
C  28.12000 2.17000 22.97800
N  27.55300 1.40500 29.34800
C  28.50800 1.10700 28.46700
C  29.72400 0.86400 29.12900
C  29.43600 1.03700 30.47700
C  28.08900 1.30000 30.55300
C  31.05100 0.37600 28.56000
C  29.99700 0.92600 31.81100
O  31.10500 0.72000 32.21000
C  28.76100 1.24400 32.76500
C  28.62000 0.12500 33.72700
O  27.92900 -0.85300 33.42400
O  29.05200 0.40700 34.98700
C  28.85300 -0.53400 36.04800
H  22.12400 2.22300 32.10200
H  22.70500 1.50200 25.71400
H  29.08000 1.03100 26.43200
H  25.98300 0.81200 34.02100
H  23.98900 3.06100 33.83500
H  23.20000 0.16000 33.73300
H  22.42900 1.57500 34.23600
H  23.76400 0.82100 35.28000
H  27.11600 3.59400 34.01000
H  27.38000 2.46100 35.19900
H  24.86500 2.95900 36.08700
H  25.11700 4.46400 35.38900
H  20.06600 2.55500 31.45200
H  19.09900 1.74300 30.30300
H  19.38400 3.47200 30.08600
H  18.26800 2.16900 26.51000
H  18.80800 2.71200 28.11500
H  18.26800 1.04100 27.87000
H  24.73500 2.12900 24.28200
H  27.13500 0.31900 24.56000
H  25.31500 -0.56600 23.64400
H  23.87600 0.25300 23.31100
H  24.00400 -0.70500 24.85300
H  28.22000 2.76700 25.08800
H  26.81300 3.33800 24.19700
H  27.61100 2.69900 22.17200
H  27.96700 1.14400 22.64200
H  29.18000 2.42200 22.97800
H  30.80100 -0.35300 27.78900
H  31.61200 -0.22500 29.27500
H  31.59500 1.15900 28.03100
H  28.93000 2.15800 33.33500
H  28.96900 -1.57400 35.74100
H  27.89400 -0.33100 36.52400
H  29.62600 -0.45400 36.81300
Mg -1.63700 33.70200 26.51700
C  -3.85200 32.21600 28.74700
C  -0.51400 35.69500 29.05700
C  0.05600 35.50100 24.23100
C  -3.40700 32.08200 23.75700
N  -2.37000 34.08300 28.54000
C  -3.07100 33.14400 29.34300
C  -2.87300 33.42300 30.85100
C  -2.16500 34.81600 30.84600
C  -1.59900 34.85400 29.42500
C  -3.08600 36.11600 30.96700
C  -2.06100 32.24000 31.48600
C  -1.41800 32.40300 32.92800
H  -1.83600 31.55300 34.16000
N  -0.28500 35.26000 26.60800
C  0.00300 35.96300 27.73600
C  1.06000 36.88800 27.44100
C  1.19700 36.83600 26.04400
C  0.23600 35.91300 25.53700
C  1.79700 37.68700 28.43900
C  2.19300 37.60900 25.20000
O  2.15200 37.66500 23.96600
C  3.36400 38.34300 25.86300
N  -1.67000 33.85700 24.33500
C  -0.80300 34.55700 23.66200
C  -0.84300 34.32000 22.15700
C  -1.65600 32.97500 22.10000
C  -2.38000 32.96900 23.46300
C  -1.29700 35.50600 21.26600
C  -0.71000 31.74700 21.66100
C  -0.06400 30.90700 22.78200
N  -3.42100 32.50600 26.27600
C  -3.91500 31.85100 25.15400
C  -4.93500 30.95300 25.63600
C  -4.96800 31.03900 27.02000
C  -3.97800 31.96900 27.35800
C  -5.84100 30.08500 24.68000
C  -5.63600 30.55900 28.20200
O  -6.60500 29.89200 28.28400
C  -4.86500 31.21600 29.38400
C  -5.81800 31.95500 30.31700
O  -6.46700 32.93200 30.00600
O  -5.93800 31.37400 31.56100
C  -6.88600 31.93000 32.55200
H  -0.16400 36.19200 29.96400
H  0.68100 36.02500 23.50400
H  -3.77700 31.36100 23.02400
H  -3.79200 33.52300 31.42900
H  -1.30900 34.94400 31.50800
H  -2.97000 36.75500 30.09200
H  -2.68500 36.64600 31.83100
H  -4.15500 35.90400 30.99600
H  -1.21900 31.90400 30.88100
H  -2.81500 31.45300 31.50700
H  -1.66200 33.41300 33.25700
H  -0.33100 32.37000 32.99600
H  2.69300 37.21600 28.84400
H  1.18400 37.94500 29.30200
H  2.07000 38.65600 28.02200
H  3.00800 39.34700 26.09600
H  4.17500 38.57100 25.17100
H  3.85900 37.81800 26.67900
H  0.21600 34.07500 22.08200
H  -2.38400 32.96700 21.29000
H  -1.67100 35.12100 20.31800
H  -0.42700 36.15700 21.17700
H  -2.23400 35.90400 21.65500
H  0.16500 32.07100 21.09800
H  -1.28100 31.13200 20.96600
H  1.01300 30.79400 22.66300
H  -0.49800 29.91300 22.67500
H  -0.27600 31.24300 23.79700
H  -6.85100 29.99600 25.08100
H  -5.46800 29.06100 24.69600
H  -5.89300 30.47600 23.66400
H  -4.43100 30.44900 30.02600
H  -6.26300 32.55400 33.19300
H  -7.20000 31.06500 33.13600
H  -7.66600 32.53300 32.08600

