158

Mg 7.87400 2.20200 27.87100
C  9.72700 0.83800 30.60200
C  6.11700 4.14300 30.05500
C  6.23300 3.44400 25.14300
C  9.40300 -0.31800 25.78900
N  7.94600 2.44400 30.04500
C  8.85000 1.94400 30.91300
C  8.70900 2.54400 32.28200
C  7.34400 3.32900 32.18800
C  7.04800 3.25700 30.62800
C  6.17700 2.68500 33.01800
C  9.89400 3.42400 32.68500
C  10.34500 3.05400 34.14300
H  10.35500 4.25200 35.09100
N  6.37000 3.66400 27.65200
C  5.80200 4.37100 28.67200
C  4.99900 5.42100 28.13100
C  4.88300 5.07100 26.75800
C  5.87500 4.04400 26.42500
C  4.18800 6.36000 28.98200
C  3.91000 5.67900 25.69100
O  3.90400 5.39800 24.51200
C  2.95800 6.71900 26.17400
N  7.75300 1.57600 25.76500
C  7.07800 2.42800 24.84000
C  7.37800 1.84100 23.48000
C  8.53000 0.81000 23.64600
C  8.54800 0.67600 25.16900
C  6.06400 1.28600 22.77300
C  9.93200 1.26700 23.23100
C  10.83400 0.18200 22.60700
N  9.20300 0.54300 28.07400
C  9.79100 -0.35800 27.17300
C  10.60400 -1.29000 27.90800
C  10.78200 -0.83400 29.23900
C  9.83200 0.25800 29.29900
C  11.22800 -2.40700 27.32000
C  11.42600 -0.92100 30.52100
O  12.39600 -1.65000 30.77900
C  10.81200 0.13500 31.47400
C  10.30000 -0.51200 32.63900
O  9.19800 -1.03900 32.58400
O  10.97100 -0.13200 33.73300
C  10.44700 -0.54800 35.08000
H  5.52500 4.71000 30.77800
H  5.82900 3.96700 24.27400
H  9.94500 -0.99000 25.11900
H  8.57100 1.84200 33.10400
H  7.47000 4.33400 32.59200
H  6.61500 1.90300 33.63900
H  5.49000 2.13600 32.37400
H  5.67200 3.43900 33.62100
H  9.76000 4.50200 32.59900
H  10.71200 3.17900 32.00700
H  11.38700 2.78800 33.96800
H  9.79700 2.26100 34.65200
H  3.15000 6.06400 29.13400
H  4.21800 7.39800 28.64900
H  4.59600 6.34700 29.99200
H  2.32700 6.97200 25.32200
H  3.55200 7.61000 26.37700
H  2.44600 6.34000 27.05800
H  7.72100 2.71800 22.93000
H  8.31900 -0.20300 23.30200
H  6.00900 0.20700 22.91600
H  5.97700 1.56900 21.72400
H  5.13400 1.62400 23.23100
H  10.40900 1.79500 24.05700
H  9.80500 1.98500 22.42100
H  11.34100 0.59900 21.73700
H  10.29700 -0.72000 22.31100
H  11.62600 -0.10500 23.29800
H  11.90100 -2.93000 27.99900
H  11.89400 -2.00200 26.55800
H  10.43000 -3.01800 26.89600
H  11.63100 0.83400 31.64100
H  11.25700 -0.95300 35.68800
H  9.74800 -1.38100 35.15800
H  10.00200 0.24200 35.68400
Mg 35.24700 2.53500 29.63300
C  32.94300 3.59000 32.10500
C  37.55800 2.42900 32.14000
C  37.52000 2.38400 27.26700
C  32.62900 2.62600 27.27100
N  35.24000 3.03800 31.90000
C  34.18800 3.35600 32.70400
C  34.61100 3.31800 34.24100
C  36.17700 3.07200 34.13700
C  36.31200 2.77000 32.63500
C  37.19500 4.24500 34.65100
C  33.84700 2.16300 34.96900
C  33.71400 2.38800 36.39300
H  34.51000 3.60500 37.00700
N  37.20900 2.28100 29.66600
C  38.04500 2.27500 30.81900
C  39.45500 2.03900 30.37400
C  39.37100 2.06300 28.96200
C  37.99300 2.23300 28.56900
C  40.65200 1.71900 31.30200
C  40.52600 1.84300 28.02800
O  40.39400 1.78600 26.81300
C  42.00200 1.84700 28.52900
N  35.06000 2.32700 27.55200
C  36.15300 2.25700 26.80000
C  35.69800 2.29100 25.31800
C  34.16500 1.91200 25.40700
C  33.92900 2.29300 26.82100
C  35.91400 3.71700 24.61100
C  33.85600 0.44900 25.03800
C  32.66800 -0.22000 25.73900
N  33.24600 2.97300 29.59300
C  32.31500 3.01500 28.59600
C  31.01900 3.52000 29.15800
C  31.24500 3.72600 30.48900
C  32.59600 3.34800 30.77700
C  29.72000 3.67600 28.43000
C  30.62100 4.13300 31.81700
O  29.47500 4.51800 32.09200
C  31.66100 3.98100 32.88600
C  31.85600 5.21700 33.65600
O  32.33000 6.24400 33.28000
O  31.24700 5.07100 34.88200
C  31.34100 6.20300 35.81400
H  38.31000 2.42600 32.93200
H  38.25700 2.31600 26.46400
H  31.71800 2.64200 26.67000
H  34.38400 4.32900 34.58100
H  36.50200 2.24600 34.76900
H  37.40400 4.78800 33.73000
H  38.14100 3.79700 34.95500
H  36.78400 4.87900 35.43600
H  34.40700 1.23000 34.91000
H  32.89200 1.96800 34.48000
H  34.06700 1.49200 36.90300
H  32.65700 2.49000 36.63800
H  40.43100 1.71000 32.37000
H  41.41700 2.45800 31.06400
H  41.11500 0.78300 30.99000
H  42.33500 2.71400 29.09900
H  42.67400 1.99400 27.68300
H  42.28900 0.89700 28.97900
H  36.17800 1.47400 24.77800
H  33.61100 2.64900 24.82600
H  36.40100 3.56900 23.64700
H  36.63600 4.34500 25.13200
H  34.98800 4.29000 24.55900
H  34.73100 -0.10800 25.37400
H  33.65400 0.41800 23.96800
H  32.07400 0.60300 26.13600
H  33.04500 -0.99000 26.41100
H  32.05000 -0.81100 25.06300
H  29.78300 3.57200 27.34700
H  29.38700 4.70200 28.58600
H  28.93200 3.01900 28.79700
H  31.34200 3.20900 33.58600
H  32.38000 6.53300 35.83900
H  31.01500 6.02400 36.83800
H  30.86100 7.09500 35.41100

