158

Mg 0.66700 8.03500 24.85800
C  1.59900 9.70600 27.92600
C  0.91700 5.11800 26.59300
C  0.21200 6.50800 21.93900
C  1.07700 11.02200 23.23100
N  1.23400 7.53600 27.05500
C  1.30600 8.33600 28.13100
C  1.28600 7.58000 29.44800
C  1.35600 6.08500 28.97900
C  1.21400 6.20400 27.43600
C  2.73700 5.33800 29.37100
C  -0.02800 7.92700 30.29000
C  -0.02600 7.83800 31.78800
H  1.18600 7.07400 32.46400
N  0.53700 6.10200 24.27100
C  0.76200 4.99500 25.12900
C  0.55500 3.79300 24.41500
C  0.10400 4.16000 23.10000
C  0.22700 5.64000 23.07700
C  0.79500 2.41300 25.08000
C  -0.22900 3.27000 21.88800
O  -0.58800 3.79500 20.83100
C  -0.03200 1.86200 21.92200
N  0.67400 8.69400 22.90000
C  0.36700 7.87000 21.85300
C  0.21500 8.57200 20.45400
C  0.32000 10.08700 20.93700
C  0.79000 9.93500 22.44100
C  1.12900 8.13600 19.26800
C  -1.03800 10.89400 20.80400
C  -2.44600 10.37200 21.12000
N  1.19400 9.99800 25.40000
C  1.33600 11.10000 24.57900
C  1.65200 12.29600 25.41400
C  1.80700 11.79300 26.69500
C  1.48400 10.37700 26.68600
C  1.69500 13.71500 24.84300
C  2.11300 12.16700 28.08300
O  2.41000 13.22100 28.65900
C  1.85700 10.87500 28.90400
C  2.92600 10.71500 29.84500
O  4.01200 10.14400 29.65100
O  2.64900 11.30500 31.04600
C  3.68500 11.47600 32.07300
H  0.79200 4.17700 27.13300
H  0.14900 5.99100 20.97900
H  0.98000 11.94700 22.65900
H  2.04200 8.04200 30.08300
H  0.55400 5.55300 29.49100
H  3.18800 5.04900 28.42200
H  2.66900 4.43000 29.97100
H  3.47000 5.99700 29.83700
H  -0.83000 7.21600 30.09500
H  -0.38000 8.87300 29.87900
H  -0.95700 7.33400 32.04700
H  0.03000 8.89200 32.05900
H  0.69000 1.63000 24.33000
H  0.04900 2.31700 25.87000
H  1.81100 2.41600 25.47500
H  -0.69700 1.34600 22.61600
H  1.02200 1.59500 22.00100
H  -0.25200 1.37000 20.97500
H  -0.75700 8.34400 20.01700
H  1.06600 10.62000 20.34800
H  1.20300 8.96700 18.56700
H  0.75400 7.18300 18.89600
H  2.13700 7.91900 19.62100
H  -1.09200 11.22000 19.76600
H  -0.95100 11.77400 21.44100
H  -2.91900 9.68900 20.41500
H  -3.09900 11.20700 21.37700
H  -2.33400 9.58700 21.86800
H  1.04800 13.79800 23.97000
H  2.66500 13.94600 24.40300
H  1.48900 14.45400 25.61700
H  0.98300 11.11100 29.50900
H  3.47500 10.66000 32.76400
H  3.60700 12.40400 32.63800
H  4.72700 11.38300 31.76800
Mg 42.29900 41.62200 25.76800
C  41.26200 43.90800 28.18400
C  43.51200 39.68900 28.34500
C  43.55100 39.50000 23.44100
C  41.64900 44.05100 23.25800
N  42.20900 41.67600 28.02900
C  41.72500 42.70500 28.81800
C  41.91300 42.44600 30.35000
C  42.95200 41.27000 30.23700
C  42.89800 40.84500 28.82500
C  44.38700 41.70800 30.68900
C  40.58500 42.18700 31.05600
C  40.33400 43.00400 32.35900
H  41.27600 42.74300 33.51100
N  43.21000 39.82600 25.89000
C  43.65000 39.21000 27.01400
C  44.41700 38.03700 26.63900
C  44.34600 37.85600 25.23100
C  43.68800 39.10500 24.78900
C  45.17000 37.18600 27.65700
C  44.84500 36.71500 24.34700
O  44.88000 36.82000 23.09900
C  45.21800 35.33700 24.98700
N  42.50900 41.72900 23.62100
C  43.02000 40.68600 22.93400
C  42.93600 40.96600 21.43800
C  42.31400 42.38600 21.39800
C  42.13600 42.79300 22.84800
C  44.21400 40.79400 20.66100
C  40.93100 42.34200 20.79800
C  39.80800 41.55600 21.42000
N  41.51500 43.51300 25.66300
C  41.31400 44.43700 24.61000
C  40.86000 45.64000 25.13500
C  40.64800 45.49900 26.51800
C  41.21100 44.17800 26.82200
C  40.67600 46.96000 24.37800
C  40.31000 46.15800 27.73700
O  39.85200 47.31100 27.90900
C  40.72900 45.13800 28.88000
C  41.66900 45.75600 29.85500
O  42.86700 45.68900 29.86500
O  40.87100 46.34000 30.82000
C  41.75600 46.86800 31.93200
H  44.06200 39.11600 29.09400
H  44.04400 38.92400 22.65500
H  41.51700 44.84800 22.52400
H  42.34600 43.26500 30.92400
H  42.61600 40.48800 30.91900
H  45.03800 41.70500 29.81400
H  44.67900 40.93700 31.40300
H  44.43900 42.68100 31.17700
H  40.48700 41.12600 31.28900
H  39.78200 42.55500 30.41700
H  39.31600 42.74000 32.64300
H  40.28300 44.08100 32.20000
H  44.45300 36.43900 27.99800
H  45.57800 37.80500 28.45500
H  46.01300 36.66100 27.20800
H  44.56300 35.12900 25.83400
H  46.28500 35.37800 25.20700
H  44.98700 34.53900 24.28200
H  42.29800 40.19400 21.00800
H  42.89700 43.21700 21.00000
H  44.93400 41.58600 20.86400
H  44.00900 40.83300 19.59100
H  44.60500 39.80900 20.91800
H  41.06500 42.04500 19.75800
H  40.46800 43.32800 20.77000
H  39.46000 40.77200 20.74800
H  38.94200 42.20400 21.55900
H  40.11300 41.16500 22.39100
H  40.45700 47.76300 25.08200
H  39.78000 47.01300 23.76000
H  41.55300 47.09500 23.74500
H  39.80100 44.88000 29.38900
H  41.99000 45.89500 32.36400
H  41.08100 47.36900 32.62600
H  42.49100 47.54700 31.49900

