158

Mg 24.40000 -5.39800 46.08500
C  26.90200 -3.17600 44.87900
C  22.38700 -4.11700 43.71100
C  22.47100 -8.06300 46.54700
C  26.92700 -7.01000 47.98600
N  24.64900 -3.71600 44.55600
C  25.70000 -2.94900 44.27800
C  25.39900 -2.03500 43.11100
C  23.85000 -2.16400 42.93100
C  23.60800 -3.45200 43.78300
C  22.95700 -0.98200 43.39400
C  26.21700 -2.39600 41.84700
C  26.70900 -1.21900 40.97000
H  26.46000 -1.27500 39.38900
N  22.61400 -6.01000 45.37400
C  21.97700 -5.36800 44.35400
C  20.66500 -5.97600 44.17100
C  20.53200 -7.01900 45.13500
C  21.90300 -7.08300 45.77800
C  19.73300 -5.69300 43.02400
C  19.34500 -7.90800 45.41900
O  18.34600 -7.83200 44.76100
C  19.40000 -8.87100 46.52800
N  24.69800 -7.29800 47.13800
C  23.75100 -8.24500 47.08100
C  24.11000 -9.50200 47.88500
C  25.56500 -9.20900 48.33800
C  25.78700 -7.77200 47.78100
C  23.10300 -9.91100 48.97400
C  26.78000 -10.12700 47.94500
C  26.54100 -11.53300 47.32200
N  26.54700 -5.19500 46.42500
C  27.39100 -5.88400 47.23400
C  28.69200 -5.23200 47.26300
C  28.54300 -4.20000 46.31500
C  27.20500 -4.21700 45.84600
C  29.90000 -5.74700 48.01300
C  29.25100 -3.07800 45.76100
O  30.34700 -2.51500 45.99000
C  28.25900 -2.49800 44.65900
C  28.19200 -1.03900 44.68400
O  27.50000 -0.32200 45.43500
O  29.02900 -0.56900 43.66100
C  29.16200 0.90500 43.51700
H  21.80100 -3.55800 42.97900
H  21.87600 -8.95600 46.74700
H  27.84100 -7.43400 48.40700
H  25.59000 -1.04400 43.52300
H  23.67300 -2.32900 41.86800
H  22.66200 -0.47200 42.47700
H  23.47300 -0.23900 44.00300
H  22.12800 -1.35300 43.99600
H  25.60700 -3.05500 41.22900
H  27.07800 -3.01200 42.10500
H  27.78800 -1.24000 41.12300
H  26.46400 -0.25400 41.41200
H  18.93000 -5.29900 43.64700
H  19.35400 -6.60100 42.55500
H  20.11500 -4.89100 42.39200
H  19.74900 -8.29300 47.38300
H  20.11400 -9.68100 46.37400
H  18.41400 -9.22500 46.82700
H  24.19000 -10.28800 47.13300
H  25.61100 -9.17600 49.42600
H  22.59500 -10.78800 48.57200
H  22.31800 -9.20800 49.25000
H  23.65000 -10.16900 49.88100
H  27.37000 -10.22900 48.85700
H  27.38800 -9.54800 47.25000
H  25.51400 -11.85900 47.48700
H  27.25000 -12.22000 47.78500
H  26.79400 -11.48400 46.26300
H  29.52800 -5.79800 49.03600
H  30.60400 -4.92700 47.87200
H  30.10300 -6.69800 47.52000
H  28.70100 -2.95300 43.77200
H  28.66400 1.37000 44.36800
H  28.77600 1.23000 42.55100
H  30.22100 1.12900 43.65100
Mg 29.99000 56.98900 41.13500
C  27.33600 55.16700 39.56900
C  32.14200 54.84400 39.45100
C  32.25400 59.23700 41.58900
C  27.37100 59.40900 41.80000
N  29.72900 55.31400 39.60500
C  28.60400 54.74200 39.15000
C  28.76700 53.57500 38.19000
C  30.34600 53.40500 38.21700
C  30.79900 54.53800 39.16100
C  30.81900 51.95800 38.77800
C  28.24300 53.98100 36.81500
C  27.45900 52.89000 36.01800
H  26.54300 53.50400 34.94200
N  31.96400 56.93400 40.83300
C  32.68000 55.96500 40.15700
C  34.08800 56.37800 40.22600
C  34.15000 57.65000 40.85100
C  32.76200 58.01800 41.14300
C  35.16400 55.58000 39.51300
C  35.47200 58.37100 41.22300
O  36.54900 57.97400 40.75700
C  35.54500 59.56600 42.13500
N  29.80400 59.04200 41.50800
C  30.93000 59.74600 41.74800
C  30.60400 61.16400 42.13300
C  29.06300 61.26600 42.30200
C  28.70100 59.88600 41.81700
C  31.41600 61.70600 43.32900
C  28.40500 62.52300 41.60000
C  27.24500 63.11300 42.40600
N  27.75700 57.22800 40.96600
C  26.96100 58.15000 41.34300
C  25.58200 57.70700 41.18200
C  25.67700 56.52600 40.51000
C  27.00800 56.30500 40.31100
C  24.27000 58.39500 41.50600
C  24.88300 55.44400 39.94500
O  23.67300 55.32100 39.84100
C  25.96700 54.51600 39.39600
C  25.80000 53.31000 40.22300
O  26.35200 53.01000 41.23700
O  24.82400 52.53700 39.67300
C  24.46300 51.23800 40.27100
H  32.78700 54.19400 38.85600
H  33.08600 59.88200 41.87900
H  26.50400 60.02600 42.04700
H  28.22800 52.70100 38.55800
H  30.97800 53.58200 37.34700
H  30.01700 51.23200 38.91300
H  31.47200 52.07500 39.64200
H  31.53100 51.66700 38.00600
H  29.18100 54.11000 36.27500
H  27.73900 54.93700 36.67500
H  26.88400 52.35600 36.77500
H  28.19900 52.27400 35.50700
H  35.28800 54.74700 40.20500
H  36.06800 56.12900 39.24900
H  34.70800 55.21300 38.59400
H  35.42300 60.46100 41.52400
H  36.52400 59.58700 42.61300
H  34.81500 59.46300 42.93700
H  30.93900 61.80800 41.32000
H  28.80300 61.32900 43.35800
H  32.09800 60.93300 43.68300
H  30.72100 62.15200 44.04100
H  32.06500 62.50600 42.97200
H  28.04000 62.09400 40.66700
H  29.20200 63.23400 41.38200
H  26.31200 63.01800 41.85200
H  27.38700 64.17700 42.59800
H  27.17300 62.46600 43.28100
H  23.51200 58.03800 40.80900
H  24.39000 59.45400 41.27600
H  24.01700 58.15700 42.53900
H  25.59700 54.25400 38.40500
H  24.36900 51.27000 41.35600
H  25.20700 50.45900 40.10400
H  23.54000 50.93600 39.77700

