158

Mg 48.70500 45.73600 43.21300
C  45.25800 45.16100 42.94800
C  49.20600 42.39200 42.78900
C  52.06900 46.25200 43.11700
C  48.14000 49.09900 43.33100
N  47.37200 44.00600 42.80700
C  45.91300 43.97300 42.85900
C  45.38800 42.50200 42.83400
C  46.74100 41.66900 42.64800
C  47.90000 42.72100 42.79600
C  46.84000 40.41800 43.48900
C  44.29500 42.00700 41.85700
C  44.17600 42.59900 40.43900
H  44.04400 41.78900 39.16100
N  50.40700 44.45100 43.02500
C  50.41500 43.11400 42.81800
C  51.77400 42.55900 42.81800
C  52.64300 43.69100 42.98800
C  51.74300 44.86900 43.04700
C  52.00500 41.07900 42.75900
C  54.14900 43.59700 43.06200
O  54.73400 42.52100 42.89800
C  55.05800 44.81800 43.25400
N  49.92700 47.40000 43.00400
C  51.22300 47.36600 43.08100
C  51.82700 48.76700 43.29200
C  50.58300 49.70500 43.08900
C  49.49700 48.71900 43.22100
C  52.43300 48.92400 44.70600
C  50.59000 50.47600 41.74500
C  50.73500 52.02700 41.85500
N  47.01900 46.98800 42.97400
C  46.98700 48.34300 43.14400
C  45.61000 48.74200 43.21900
C  44.91100 47.52000 43.10300
C  45.82300 46.47700 43.02500
C  44.93100 50.06500 43.37700
C  43.56100 46.93800 42.96000
O  42.49100 47.47800 42.79900
C  43.78200 45.34200 43.04300
C  43.12600 44.78100 44.26400
O  42.28900 43.94400 44.24600
O  43.63900 45.29200 45.42200
C  43.03600 44.92600 46.74600
H  49.33100 41.31000 42.70300
H  53.12600 46.52500 43.13900
H  48.05300 50.17200 43.51300
H  44.90600 42.40200 43.80700
H  46.86900 41.28800 41.63500
H  47.11300 39.62200 42.79700
H  45.85400 40.21700 43.90800
H  47.66200 40.34100 44.20100
H  43.30800 42.13900 42.30000
H  44.48300 40.95800 41.62700
H  45.01800 43.28800 40.37500
H  43.33700 43.29300 40.46300
H  51.84500 40.88700 41.69800
H  51.16700 40.53000 43.18800
H  52.89100 40.65100 43.22700
H  55.05500 45.31600 42.28400
H  56.06100 44.41900 43.40300
H  54.65300 45.52900 43.97500
H  52.62300 48.66000 42.55500
H  50.54700 50.44900 43.88500
H  52.25700 48.09200 45.38700
H  52.01500 49.84400 45.11300
H  53.50000 49.14000 44.76700
H  49.69200 50.31500 41.15000
H  51.44700 50.07500 41.20400
H  50.35300 52.37300 42.81500
H  50.16700 52.51900 41.06400
H  51.78100 52.33100 41.82900
H  44.20000 50.17100 42.57600
H  45.67900 50.85200 43.28100
H  44.48600 50.07900 44.37200
H  43.20000 44.81800 42.28500
H  43.75600 44.46600 47.42300
H  42.23500 44.18800 46.71700
H  42.58100 45.86600 47.06000
Mg -11.01600 15.73400 43.56300
C  -7.58700 16.78400 43.51500
C  -11.77100 19.04500 42.85100
C  -14.07400 14.74800 43.14000
C  -9.85800 12.49300 43.41500
N  -9.84200 17.72700 43.20100
C  -8.44800 17.87000 43.20700
C  -8.08500 19.32200 42.78900
C  -9.42900 20.12200 42.89900
C  -10.40000 18.92700 43.03300
C  -9.59300 21.02400 44.16800
C  -7.48500 19.41500 41.41500
C  -6.18000 20.21200 41.27100
H  -4.97900 19.53500 40.54900
N  -12.74700 16.68200 43.04700
C  -12.85100 18.06200 42.89000
C  -14.24700 18.34100 42.60200
C  -14.95100 17.13000 42.62600
C  -13.93900 16.13400 42.90500
C  -14.75600 19.76700 42.21300
C  -16.49200 16.97000 42.32600
O  -17.09200 17.94300 41.92600
C  -17.21700 15.69300 42.49700
N  -11.82400 13.79900 43.27400
C  -13.17400 13.71100 43.27000
C  -13.63400 12.24100 43.40300
C  -12.25400 11.45300 43.42300
C  -11.22500 12.64000 43.41200
C  -14.49000 11.99300 44.62600
C  -12.03900 10.29600 42.28200
C  -11.93000 8.82800 42.64500
N  -9.15700 14.80600 43.54600
C  -8.90000 13.47200 43.55000
C  -7.49600 13.26400 43.69600
C  -6.94900 14.53700 43.78000
C  -7.98300 15.42100 43.61100
C  -6.81300 11.98200 43.65300
C  -5.73600 15.33400 44.03300
O  -4.59500 15.04400 44.26700
C  -6.21700 16.80700 44.02700
C  -6.15100 17.27700 45.46400
O  -6.32900 16.55500 46.44000
O  -5.69900 18.56500 45.44000
C  -5.20800 18.99400 46.72000
H  -12.09900 20.07900 42.73000
H  -15.06500 14.29200 43.18300
H  -9.42200 11.49200 43.39600
H  -7.34400 19.63000 43.52600
H  -9.70500 20.69600 42.01400
H  -8.61500 21.21300 44.60800
H  -10.35700 20.81400 44.91700
H  -9.99100 21.96400 43.78400
H  -8.19600 19.87000 40.72400
H  -7.35400 18.34600 41.24900
H  -5.88600 20.57400 42.25600
H  -6.50600 21.04100 40.64300
H  -15.37000 19.66500 41.31900
H  -14.00200 20.50300 41.93300
H  -15.25700 20.20300 43.07800
H  -18.29300 15.75500 42.33100
H  -17.07800 15.23300 43.47500
H  -16.94800 14.93900 41.75800
H  -14.25400 12.04100 42.52900
H  -12.04100 10.93500 44.35900
H  -15.48200 11.90200 44.18300
H  -14.44600 12.76400 45.39600
H  -14.26900 11.02800 45.08200
H  -11.32500 10.68000 41.55300
H  -12.98200 10.32200 41.73600
H  -11.30400 8.35200 41.89000
H  -12.89500 8.32500 42.58200
H  -11.60600 8.67000 43.67300
H  -5.73000 12.08400 43.58200
H  -7.16200 11.55800 42.71100
H  -7.03800 11.26900 44.44500
H  -5.55200 17.37700 43.38000
H  -4.64900 18.17900 47.17900
H  -6.00700 19.38200 47.35300
H  -4.41500 19.73100 46.59600

