158

Mg 25.82800 1.03900 28.76600
C  27.73100 0.61700 31.79200
C  22.98100 1.22900 30.84000
C  24.04500 1.09300 26.08100
C  28.65800 0.18000 27.04500
N  25.43800 1.01100 31.14300
C  26.34100 0.93900 32.11600
C  25.72600 1.10100 33.47800
C  24.20500 1.15200 33.16600
C  24.16000 1.15400 31.66200
C  23.31200 -0.00300 33.66400
C  26.38100 2.29500 34.28300
C  27.13300 2.09700 35.67500
H  26.92100 3.12600 36.87400
N  23.78800 1.12700 28.48600
C  22.82300 1.20600 29.44800
C  21.48200 1.19300 28.81000
C  21.78800 1.15500 27.41700
C  23.20800 1.16400 27.28800
C  20.19300 0.93400 29.47600
C  20.85600 1.06500 26.19400
O  21.26100 1.14200 25.02200
C  19.35700 0.95000 26.41100
N  26.29100 0.55300 26.83800
C  25.40300 0.87500 25.86300
C  26.11200 1.01000 24.50400
C  27.52600 0.51800 24.81100
C  27.47800 0.38000 26.31700
C  25.44300 0.21000 23.34400
C  28.68900 1.31000 24.16500
C  29.24200 0.72300 22.83800
N  27.77200 0.47500 29.30000
C  28.82800 0.16200 28.40200
C  30.02200 0.01200 29.16100
C  29.66200 0.14400 30.50100
C  28.25900 0.40700 30.51800
C  31.43200 -0.27600 28.62200
C  30.13200 0.11300 31.85900
O  31.25600 -0.16900 32.23500
C  28.90100 0.35100 32.78400
C  28.58500 -0.80600 33.68200
O  27.79500 -1.68400 33.43700
O  29.28300 -0.57400 34.84600
C  28.74800 -1.41100 35.93700
H  22.12100 1.39900 31.49200
H  23.45400 1.36000 25.20200
H  29.63500 0.08200 26.56600
H  25.86400 0.15400 34.00100
H  23.83700 2.15000 33.40300
H  22.55500 0.50100 34.26500
H  23.89100 -0.73900 34.22300
H  22.77400 -0.58000 32.91200
H  25.66900 3.07300 34.55600
H  27.03300 2.83600 33.59700
H  28.19100 2.29100 35.50000
H  26.91300 1.09300 36.03900
H  19.70800 0.03000 29.10800
H  19.59800 1.84500 29.41200
H  20.36600 0.72700 30.53200
H  18.73600 1.28700 25.58100
H  19.09900 1.59900 27.24700
H  19.06400 -0.09700 26.48800
H  26.07000 2.07100 24.26000
H  27.73700 -0.45500 24.36700
H  25.25500 1.03700 22.66000
H  24.42200 -0.14700 23.48200
H  26.16300 -0.51100 22.95700
H  29.57300 1.38200 24.79900
H  28.27800 2.28200 23.89100
H  29.08700 1.49900 22.08900
H  28.75300 -0.18600 22.48800
H  30.30100 0.52500 23.00500
H  31.55200 0.20200 27.65000
H  31.58800 -1.35300 28.55100
H  32.13500 0.25100 29.26800
H  29.09700 1.26600 33.34200
H  28.91100 -2.44600 35.63300
H  27.69800 -1.22900 36.16500
H  29.42300 -1.40500 36.79300
Mg 54.00200 24.82700 45.47400
C  51.39200 27.08800 44.70100
C  52.02200 22.25800 44.44200
C  56.83100 22.85500 45.64100
C  55.94900 27.54600 46.52500
N  52.05000 24.78200 44.38300
C  51.09600 25.79600 44.27700
C  49.78300 25.21000 43.70700
C  49.97000 23.67900 43.95500
C  51.50100 23.51900 44.25500
C  49.14100 23.12300 45.10000
C  49.61400 25.45300 42.15900
C  48.08400 25.40300 41.65100
H  47.87900 25.10600 40.12400
N  54.35600 22.81800 45.04700
C  53.39000 21.95600 44.75100
C  54.00900 20.60500 44.63600
C  55.41900 20.76200 44.85500
C  55.61100 22.20900 45.19400
C  53.41300 19.43300 44.01700
C  56.43400 19.58800 44.78300
O  56.09100 18.43200 44.69400
C  57.90700 19.78300 44.79600
N  56.06300 25.09800 46.13800
C  57.04700 24.14300 46.11200
C  58.35400 24.71200 46.65200
C  58.07600 26.24900 46.53800
C  56.59800 26.33500 46.39400
C  58.53700 24.28000 48.11800
C  58.60600 26.79400 45.18300
C  59.75300 27.80800 45.37200
N  53.68800 26.86400 45.70400
C  54.62100 27.81700 46.14100
C  53.94500 29.17100 46.25600
C  52.70200 28.93300 45.66100
C  52.60000 27.54100 45.31000
C  54.56000 30.46400 46.87800
C  51.45900 29.50900 45.27800
O  51.09500 30.62900 45.46000
C  50.53900 28.32600 44.62600
C  50.17000 28.73400 43.27900
O  51.01400 28.76700 42.35700
O  48.86800 28.90400 43.20300
C  48.32900 29.19300 41.85400
H  51.38000 21.38600 44.29500
H  57.67200 22.20000 45.87700
H  56.58100 28.37300 46.85700
H  48.87000 25.52800 44.21000
H  49.90000 23.03700 43.07700
H  49.83600 22.94500 45.92100
H  48.75300 22.17600 44.72500
H  48.31600 23.75300 45.43200
H  50.26800 24.73800 41.65800
H  49.99700 26.42600 41.85000
H  47.39700 26.21800 41.87600
H  47.77500 24.51500 42.20300
H  54.01300 19.19800 43.13700
H  52.40900 19.68700 43.67700
H  53.45600 18.56200 44.66900
H  58.21700 20.64700 44.20900
H  58.42400 18.87000 44.50200
H  58.14700 19.82300 45.85900
H  59.14800 24.35800 45.99400
H  58.36600 26.85100 47.39900
H  58.49300 23.19200 48.14200
H  57.75400 24.69600 48.75200
H  59.48400 24.54100 48.59100
H  57.84500 27.32400 44.61000
H  58.98700 26.02800 44.50800
H  60.48500 27.59500 44.59400
H  60.24500 27.82500 46.34500
H  59.45300 28.85600 45.34900
H  55.64400 30.56900 46.92000
H  54.23700 30.42100 47.91800
H  54.17900 31.29400 46.28300
H  49.61300 28.27600 45.20100
H  48.02900 30.24100 41.87600
H  47.38900 28.65600 41.72000
H  48.92900 28.84500 41.01400

