158

Mg 46.44200 24.58000 28.43300
C  47.11700 26.71600 31.21200
C  45.34700 22.20400 30.61900
C  46.28600 22.43600 25.79300
C  47.88900 27.03600 26.38400
N  46.45000 24.46200 30.71800
C  46.59500 25.45600 31.62000
C  46.23900 25.06600 33.05400
C  45.59300 23.65200 32.76600
C  45.86500 23.33800 31.28900
C  46.10800 22.61900 33.83200
C  45.31700 26.13700 33.72600
C  45.77800 26.62900 35.09500
H  44.72800 26.87500 36.19600
N  45.69400 22.66500 28.24000
C  45.27500 21.86200 29.30700
C  44.89100 20.61500 28.77500
C  45.19800 20.56000 27.35700
C  45.74200 21.94600 27.01500
C  44.22400 19.52700 29.49300
C  44.88800 19.43400 26.35600
O  45.11300 19.54200 25.16600
C  44.28600 18.15600 26.74700
N  46.79400 24.79300 26.35800
C  46.75500 23.74300 25.50400
C  47.44700 24.17200 24.14500
C  47.80800 25.63700 24.29600
C  47.43000 25.88700 25.75200
C  48.64300 23.31700 23.63500
C  47.17400 26.57700 23.22400
C  47.55300 26.28700 21.77900
N  47.32800 26.47700 28.63300
C  47.84600 27.33900 27.71000
C  48.29300 28.52400 28.37200
C  47.94700 28.38200 29.71200
C  47.44900 27.09300 29.88900
C  48.96100 29.66300 27.68000
C  48.00100 29.00100 30.97900
O  48.27300 30.14000 31.21800
C  47.55300 27.90800 31.96400
C  48.72900 27.58800 32.89200
O  49.58900 26.76500 32.68400
O  48.61500 28.37200 33.96800
C  49.56900 28.08400 35.00900
H  44.84600 21.55000 31.33500
H  46.46800 21.64400 25.06300
H  48.26900 27.73200 25.63400
H  47.16800 24.90700 33.60200
H  44.50500 23.59700 32.82000
H  46.66700 21.91300 33.21800
H  45.35300 22.01700 34.33700
H  46.80100 22.98900 34.58700
H  44.30800 25.74400 33.85500
H  45.04000 26.94300 33.04600
H  46.27800 27.59400 35.00300
H  46.52100 25.92800 35.47500
H  44.54500 18.55600 29.11800
H  43.17300 19.70500 29.26700
H  44.41700 19.66700 30.55700
H  43.92100 17.59900 25.88400
H  43.45300 18.36600 27.41700
H  45.07200 17.62200 27.28100
H  46.68100 23.95100 23.40200
H  48.86000 25.89900 24.18300
H  49.60200 23.81900 23.50300
H  48.35500 22.97900 22.64000
H  48.78300 22.42500 24.24600
H  47.50000 27.59200 23.45400
H  46.08600 26.58200 23.28400
H  46.72900 25.80700 21.25000
H  48.41700 25.62600 21.71300
H  47.74500 27.23000 21.26700
H  48.76200 30.68000 28.02000
H  48.78600 29.50700 26.61600
H  50.04200 29.58000 27.79400
H  46.74600 28.24100 32.61600
H  49.17300 27.36600 35.72800
H  49.83000 28.99600 35.54500
H  50.51100 27.68400 34.63100
Mg 7.81200 53.56400 40.38000
C  7.07000 50.14400 39.96000
C  11.02800 52.99400 39.68800
C  8.06200 56.89100 39.93700
C  4.36900 54.09300 41.07700
N  8.86900 51.72800 39.86000
C  8.43500 50.46300 39.70700
C  9.63000 49.52100 39.41300
C  10.89100 50.45100 39.87100
C  10.24300 51.82800 39.78200
C  11.25000 50.08800 41.35900
C  9.87300 48.92000 38.01400
C  9.79600 50.03100 36.87000
H  8.42300 50.21100 36.15500
N  9.30900 54.74700 39.86000
C  10.65200 54.35400 39.72500
C  11.48000 55.52700 39.58300
C  10.58900 56.68700 39.69600
C  9.23300 56.16000 39.85300
C  13.02300 55.37700 39.37700
C  10.99800 58.11500 39.61400
O  12.19600 58.32700 39.42800
C  10.08500 59.32900 39.74100
N  6.33300 55.28800 40.32600
C  6.70200 56.57600 40.13400
C  5.53000 57.54100 40.34800
C  4.39200 56.54700 40.80200
C  5.08200 55.24700 40.73300
C  5.82300 58.72800 41.35400
C  3.09800 56.61500 39.86400
C  1.85100 57.33400 40.37300
N  6.11100 52.41000 40.60200
C  4.82800 52.78000 40.86400
C  4.04000 51.66000 40.90800
C  4.85500 50.54100 40.55000
C  6.14300 51.09700 40.38900
C  2.59400 51.61800 41.14900
C  4.84700 49.09300 40.30100
O  3.95100 48.26800 40.37600
C  6.40500 48.84700 39.90400
C  6.34500 48.15800 38.60400
O  5.78800 48.45700 37.56600
O  6.85400 46.86100 38.82100
C  6.94400 45.97600 37.68400
H  12.09100 52.81800 39.51200
H  8.18800 57.97100 39.83500
H  3.33800 54.34800 41.33000
H  9.57900 48.64500 40.05900
H  11.70400 50.35700 39.15200
H  10.90500 50.87100 42.03400
H  12.33600 50.17700 41.33200
H  10.91300 49.10200 41.67700
H  8.98400 48.29000 37.96200
H  10.87800 48.50100 37.96900
H  10.44000 49.59300 36.10800
H  10.15700 51.02800 37.12400
H  13.54900 56.28600 39.66900
H  13.20700 55.19700 38.31800
H  13.41300 54.61000 40.04600
H  9.39800 59.33000 38.89400
H  10.71700 60.20900 39.62700
H  9.61100 59.37800 40.72200
H  5.26800 57.88400 39.34700
H  4.26300 56.77500 41.86000
H  6.80800 58.64000 41.81200
H  5.11200 58.85800 42.17000
H  5.99500 59.66500 40.82500
H  2.77200 55.59500 39.66300
H  3.40400 56.91100 38.86000
H  1.53000 57.10000 41.38800
H  1.03800 57.17900 39.66300
H  2.11000 58.39300 40.40700
H  2.19900 52.34400 41.86000
H  2.30000 50.68900 41.63700
H  2.10200 51.73800 40.18400
H  6.77900 48.09700 40.60100
H  7.59900 45.14000 37.93000
H  7.39100 46.58900 36.90200
H  5.93000 45.64900 37.45300

