158

Mg 24.89600 -6.35700 45.68200
C  27.44700 -4.31300 44.36600
C  22.71000 -4.75700 43.58000
C  22.78500 -8.99800 46.12300
C  27.36100 -8.06900 47.45100
N  25.14200 -4.85200 44.09300
C  26.23700 -4.13600 43.73700
C  26.02900 -3.17700 42.62400
C  24.47000 -3.11600 42.62700
C  24.06700 -4.36300 43.48700
C  23.93400 -1.81100 43.17800
C  26.59400 -3.55200 41.23900
C  26.77700 -2.48900 40.19200
H  25.93300 -2.62100 38.94700
N  22.98000 -6.76100 44.96100
C  22.20100 -5.88800 44.29100
C  20.87500 -6.46000 44.25900
C  20.94100 -7.72200 44.83000
C  22.23400 -7.86600 45.39200
C  19.70600 -5.80400 43.53200
C  19.73700 -8.64100 44.96400
O  18.59700 -8.35000 44.71500
C  19.92500 -10.05000 45.51200
N  25.14500 -8.34400 46.49100
C  24.07400 -9.12600 46.65000
C  24.36400 -10.34000 47.59900
C  25.83400 -10.02900 48.03600
C  26.16700 -8.70100 47.32300
C  23.28000 -10.64100 48.75300
C  26.94700 -11.16300 47.73600
C  27.99700 -11.49900 48.81000
N  27.04700 -6.18400 46.01500
C  27.85000 -6.93900 46.76600
C  29.17800 -6.33700 46.77700
C  29.05500 -5.32100 45.81200
C  27.73700 -5.25900 45.40300
C  30.40200 -6.88900 47.56600
C  29.81400 -4.32400 45.04800
O  30.98800 -4.07800 45.00400
C  28.77800 -3.64200 44.14000
C  28.75800 -2.19400 44.34000
O  29.02200 -1.40300 43.40700
O  28.43100 -1.87800 45.61000
C  28.04900 -0.46800 45.84100
H  22.02000 -4.17800 42.96200
H  22.20700 -9.88800 46.38100
H  28.12300 -8.49400 48.10700
H  26.61500 -2.29800 42.89400
H  24.10100 -3.08800 41.60200
H  23.42400 -2.07600 44.10400
H  23.25400 -1.42500 42.41800
H  24.83100 -1.21100 43.33200
H  26.01600 -4.39500 40.86000
H  27.53100 -4.05100 41.48500
H  27.84200 -2.40100 39.97900
H  26.46600 -1.49700 40.51800
H  19.59000 -6.19400 42.52100
H  19.93500 -4.74200 43.44200
H  18.66100 -5.81400 43.84400
H  20.06700 -9.99100 46.59100
H  20.74800 -10.47600 44.93700
H  19.02900 -10.63200 45.29600
H  24.39700 -11.21200 46.94700
H  25.84200 -9.80200 49.10200
H  22.77400 -11.51700 48.34900
H  22.54900 -9.84400 48.89200
H  23.78000 -10.89900 49.68700
H  27.46400 -11.08000 46.78000
H  26.32800 -12.04300 47.56300
H  28.25700 -12.55700 48.77600
H  27.73400 -11.17700 49.81700
H  28.91800 -11.02800 48.46600
H  30.92200 -7.52700 46.85100
H  30.21700 -7.45700 48.47900
H  31.09600 -6.11700 47.89600
H  29.00600 -3.90300 43.10600
H  26.96700 -0.40900 45.95900
H  28.36600 0.18200 45.02500
H  28.50600 -0.04200 46.73400
Mg 25.77600 51.21200 27.02300
C  23.67200 51.89400 29.84400
C  28.05000 49.89600 29.13800
C  27.86300 51.00200 24.39500
C  23.45500 52.68800 24.96100
N  25.78700 50.88300 29.25100
C  24.82700 51.24300 30.21500
C  25.21000 50.81000 31.60500
C  26.71800 50.34000 31.37900
C  26.86000 50.34000 29.81700
C  27.83000 51.11100 32.13000
C  24.31200 49.68400 32.23700
C  23.95600 49.63200 33.73600
H  24.88300 50.30400 34.83700
N  27.63700 50.48400 26.75900
C  28.40400 49.93700 27.75500
C  29.65600 49.42900 27.12600
C  29.57600 49.64100 25.70200
C  28.27600 50.32200 25.53700
C  30.75900 48.78200 27.99400
C  30.56800 49.28800 24.64500
O  30.41700 49.41100 23.44300
C  31.78100 48.55100 25.05600
N  25.72300 51.87100 25.01300
C  26.71700 51.70400 24.14900
C  26.41100 52.25600 22.72200
C  24.93900 52.72600 22.84700
C  24.68500 52.41800 24.35200
C  27.31600 53.47900 22.34300
C  23.85900 51.97400 21.97200
C  23.90400 52.46900 20.50000
N  23.92200 52.08000 27.31900
C  23.06800 52.52200 26.33300
C  21.85600 52.85600 26.98400
C  22.08600 52.70100 28.41600
C  23.35300 52.13700 28.49300
C  20.63200 53.24300 26.30100
C  21.55700 52.85400 29.69200
O  20.45100 53.19000 30.14600
C  22.53200 52.38000 30.66100
C  22.85900 53.55000 31.51200
O  23.30400 54.64100 31.15000
O  22.49500 53.26800 32.79200
C  22.54300 54.36000 33.70800
H  28.92600 49.50700 29.66200
H  28.64000 50.91100 23.63400
H  22.57300 53.10300 24.46800
H  25.27700 51.76200 32.13200
H  26.77400 49.27000 31.57600
H  27.45500 51.83600 32.85300
H  28.53600 51.64500 31.49400
H  28.48900 50.42300 32.65900
H  24.62300 48.68100 31.94500
H  23.38200 49.75200 31.67200
H  23.70200 48.61000 34.01800
H  23.00600 50.16100 33.80800
H  30.59200 47.70500 28.00300
H  30.80400 49.22600 28.98800
H  31.73300 49.05300 27.58700
H  31.44900 47.63900 25.55100
H  32.48600 49.10900 25.67200
H  32.31200 48.22500 24.16100
H  26.47000 51.42600 22.01700
H  24.75600 53.79800 22.78100
H  27.94400 53.93600 23.10800
H  26.69100 54.09500 21.69700
H  28.06100 53.03500 21.68200
H  22.85600 52.11500 22.37400
H  24.07900 50.90600 21.96300
H  24.58000 53.32000 20.41500
H  22.95700 52.74000 20.03300
H  24.42900 51.73200 19.89200
H  19.84400 53.52900 26.99700
H  20.14500 52.44600 25.73900
H  20.79400 54.17300 25.75600
H  21.97900 51.58500 31.16200
H  21.67200 54.99900 33.56200
H  23.45600 54.94700 33.59900
H  22.40500 53.91100 34.69100

