158

Mg 52.88800 23.71600 44.15400
C  49.93000 25.60700 44.04100
C  51.06800 20.94500 43.71800
C  55.78100 21.89600 43.99600
C  54.77000 26.67800 44.12900
N  50.67700 23.38900 43.84200
C  49.66200 24.22400 43.88400
C  48.35800 23.48400 43.59400
C  48.77900 22.03200 43.81200
C  50.32200 22.13100 43.70300
C  48.26600 21.44500 45.17400
C  47.70900 23.83200 42.18400
C  48.65100 23.89700 40.97400
H  48.03200 24.25100 39.64800
N  53.38200 21.70900 43.90800
C  52.41900 20.77000 43.71900
C  52.99600 19.46700 43.79500
C  54.43200 19.66200 43.78400
C  54.63600 21.13800 43.97700
C  52.19800 18.22800 43.58000
C  55.45800 18.53500 43.45000
O  55.01300 17.41700 43.42800
C  56.92800 18.66000 43.25200
N  54.93100 24.22800 43.90500
C  55.96600 23.28800 43.88400
C  57.33600 23.91100 43.88900
C  56.95700 25.44800 44.14900
C  55.46900 25.45900 44.08600
C  58.26000 23.34500 45.05400
C  57.50700 26.32800 43.06800
C  57.97700 27.69500 43.57700
N  52.55800 25.77000 44.14500
C  53.36400 26.86700 44.15400
C  52.61300 28.04800 44.37800
C  51.29000 27.64600 44.30600
C  51.28200 26.22900 44.10600
C  53.16800 29.42400 44.55800
C  49.96400 28.08400 44.28100
O  49.52200 29.21900 44.58600
C  49.05800 26.83900 44.06800
C  48.30900 26.93700 42.84500
O  48.78400 26.92900 41.72200
O  47.04900 27.17900 43.23900
C  46.20700 27.76300 42.21200
H  50.48500 20.04600 43.50500
H  56.68600 21.34000 44.24800
H  55.23700 27.66500 44.13700
H  47.62000 23.77000 44.34500
H  48.31200 21.45700 43.01400
H  47.66200 22.19900 45.67800
H  49.12600 21.15000 45.77600
H  47.76000 20.50800 44.94400
H  47.04700 24.69000 42.29800
H  47.06900 22.96900 41.99800
H  49.20700 22.97800 40.78800
H  49.37200 24.68500 41.18900
H  52.62100 17.22800 43.67800
H  51.85200 18.16100 42.54800
H  51.33800 18.32000 44.24400
H  57.31500 17.91400 42.55800
H  57.47800 18.63600 44.19300
H  57.07800 19.61300 42.74300
H  57.82200 23.68700 42.94000
H  57.28400 25.86100 45.10300
H  58.85700 22.56300 44.58500
H  57.67700 22.97100 45.89600
H  58.93400 24.13100 45.39300
H  56.74700 26.54100 42.31500
H  58.31100 25.78700 42.57000
H  59.02200 27.67000 43.27000
H  57.83300 27.89200 44.63900
H  57.56900 28.51600 42.98700
H  54.01200 29.31400 45.23900
H  52.35100 30.00800 44.98300
H  53.50000 29.82500 43.60000
H  48.41800 26.88800 44.94900
H  45.48700 26.96700 42.02400
H  46.74800 28.00000 41.29600
H  45.62900 28.54600 42.70300
Mg 6.79600 55.08400 42.56500
C  6.20000 51.49900 42.00600
C  9.50100 54.73800 40.61300
C  6.79400 58.38800 42.45200
C  3.33100 55.08400 43.70700
N  7.70100 53.20700 41.51000
C  7.25100 51.97400 41.30600
C  8.23200 51.20800 40.45500
C  9.49100 52.11800 40.37700
C  8.89000 53.45500 40.86100
C  10.66200 51.61200 41.18100
C  7.59400 50.89100 39.08600
C  8.05500 49.57300 38.39400
H  7.09600 49.13300 37.27400
N  8.13600 56.39500 41.91200
C  9.15500 56.08200 41.08100
C  9.83000 57.27000 40.75900
C  9.16300 58.34400 41.33200
C  7.97600 57.74000 41.95900
C  11.10300 57.27300 39.93400
C  9.56100 59.83400 41.29800
O  10.48500 60.25900 40.63400
C  8.87400 60.82900 42.26300
N  5.26200 56.51500 42.93800
C  5.57600 57.85400 42.95900
C  4.30000 58.69800 43.17600
C  3.24100 57.67000 43.51200
C  3.96800 56.32100 43.47300
C  4.53100 59.84300 44.24500
C  1.97400 57.64600 42.60000
C  0.65800 57.57600 43.33500
N  5.15900 53.65700 42.99700
C  3.91400 53.79700 43.54800
C  3.44500 52.55800 43.92000
C  4.27800 51.61500 43.33400
C  5.29300 52.32000 42.72600
C  2.15500 52.26000 44.67600
C  4.45800 50.20700 43.11200
O  3.82000 49.26900 43.49600
C  5.74000 50.08200 42.21000
C  5.37900 49.30600 40.99800
O  4.86200 49.66500 40.00300
O  5.77800 48.04900 41.24300
C  5.68200 47.06000 40.23500
H  10.32800 54.75200 39.90000
H  6.76700 59.47700 42.38000
H  2.27800 55.11500 43.99400
H  8.51300 50.23200 40.85200
H  9.90300 52.25200 39.37600
H  11.55800 51.55400 40.56300
H  10.48400 50.72100 41.78300
H  10.95300 52.37900 41.89800
H  7.95000 51.72700 38.48400
H  6.51200 51.01900 39.09900
H  8.15600 48.73100 39.07800
H  9.04400 49.71700 37.96100
H  10.72800 57.36500 38.91500
H  11.68500 56.35700 40.02900
H  11.69700 58.15000 40.19300
H  8.58300 60.39800 43.22000
H  7.96100 61.10800 41.73800
H  9.44700 61.70300 42.57300
H  4.00200 59.10900 42.21200
H  3.02000 57.91500 44.55100
H  5.41600 59.66600 44.85600
H  3.68400 60.01400 44.90900
H  4.51700 60.77000 43.67100
H  2.05800 56.79000 41.93100
H  1.94800 58.62900 42.12900
H  0.10400 58.45500 43.00400
H  0.61800 57.56800 44.42400
H  0.11100 56.67900 43.04400
H  2.12400 51.46200 45.41700
H  1.53700 51.90000 43.85300
H  1.61500 53.12900 45.05200
H  6.39600 49.47100 42.83000
H  6.61000 47.03800 39.66600
H  4.92800 47.29200 39.48200
H  5.50700 46.05100 40.60900

