158

Mg 35.80700 1.72600 29.71500
C  33.49300 2.70100 32.17700
C  38.12600 1.52800 32.36300
C  38.11400 1.12200 27.47800
C  33.37800 2.25900 27.23300
N  35.81500 2.19400 32.01800
C  34.70800 2.50500 32.78900
C  35.01400 2.48900 34.27100
C  36.60400 2.39700 34.25700
C  36.90400 1.96700 32.77700
C  37.32600 3.59200 34.70800
C  34.36200 1.22200 34.88500
C  33.78100 1.48300 36.34000
H  34.41900 2.52900 37.23300
N  37.86100 1.27800 29.85400
C  38.57300 1.12500 31.04700
C  39.91800 0.63300 30.68100
C  39.97300 0.62100 29.24900
C  38.66100 1.04200 28.81400
C  40.89700 0.08300 31.76700
C  41.21000 0.34200 28.36700
O  41.14600 0.39500 27.10000
C  42.45900 -0.10800 29.02000
N  35.72700 1.77000 27.65900
C  36.83300 1.34600 26.98000
C  36.57200 1.30100 25.51200
C  35.00200 1.43900 25.42300
C  34.69300 1.89200 26.81400
C  37.37400 2.29800 24.63700
C  34.13800 0.20500 25.00400
C  33.16500 0.38700 23.77000
N  33.77600 2.36000 29.61100
C  32.91200 2.53000 28.56800
C  31.64900 2.99800 29.07500
C  31.79200 3.03600 30.50800
C  33.14300 2.60200 30.77900
C  30.49000 3.29900 28.17900
C  31.11700 3.28300 31.73900
O  29.98600 3.61200 32.02300
C  32.24200 3.04500 32.91300
C  32.21700 4.30500 33.77200
O  32.66700 5.37900 33.46200
O  31.65600 4.08700 35.01000
C  31.46700 5.24600 35.91900
H  38.83300 1.60600 33.19200
H  38.91700 0.79900 26.81300
H  32.69500 2.24100 26.38000
H  34.71200 3.40900 34.77000
H  36.98100 1.53600 34.81000
H  36.70300 4.44500 34.97900
H  37.98500 3.85800 33.88200
H  37.93000 3.32500 35.57500
H  35.08100 0.40300 34.90000
H  33.45200 0.98200 34.33600
H  33.78300 0.46800 36.73800
H  32.70900 1.67200 36.29900
H  41.61500 0.88800 31.92000
H  41.42600 -0.80800 31.42800
H  40.32100 -0.09100 32.67500
H  42.65900 0.46100 29.92800
H  43.25600 0.16900 28.33000
H  42.34500 -1.16700 29.25100
H  36.81000 0.30500 25.14000
H  34.79200 2.22400 24.69700
H  37.79100 3.12500 25.21200
H  36.65800 2.64100 23.89000
H  38.12400 1.65500 24.17600
H  33.44000 -0.00400 25.81500
H  34.82900 -0.62700 24.86900
H  33.28200 1.39100 23.36100
H  32.16400 0.12800 24.11500
H  33.43600 -0.24000 22.92100
H  30.95000 3.71400 27.28200
H  29.78300 3.96800 28.66900
H  29.96900 2.36600 27.96800
H  31.91200 2.23400 33.56200
H  31.44500 6.19100 35.37600
H  32.25700 5.32000 36.66600
H  30.53500 5.10500 36.46600
Mg -2.66300 35.04200 26.85200
C  -4.52300 33.47400 29.21300
C  -1.83100 37.50700 29.09600
C  -0.64400 36.44900 24.52400
C  -3.93400 32.98000 24.41800
N  -3.20300 35.45200 28.88200
C  -3.91200 34.60200 29.69500
C  -3.85700 35.10400 31.16300
C  -3.42300 36.58200 30.98200
C  -2.73900 36.53400 29.53900
C  -4.57600 37.58500 30.95900
C  -2.88100 34.28900 32.11000
C  -3.41000 33.70100 33.38600
H  -2.52500 33.59000 34.67100
N  -1.39100 36.74300 26.82300
C  -1.13000 37.59200 27.85400
C  -0.04900 38.44000 27.50100
C  0.33000 38.15200 26.17600
C  -0.53700 37.07200 25.76500
C  0.38700 39.51100 28.47600
C  1.31900 38.78700 25.20700
O  1.57000 38.21700 24.16800
C  1.96200 40.07500 25.55400
N  -2.38200 34.83400 24.70100
C  -1.39500 35.47100 24.06000
C  -1.18600 34.87600 22.62100
C  -2.30100 33.72200 22.58800
C  -2.92400 33.86800 24.01000
C  -1.36700 35.94800 21.48800
C  -1.73000 32.33600 22.19800
C  -2.70900 31.38100 21.46000
N  -4.09200 33.63000 26.75900
C  -4.54500 32.88100 25.68600
C  -5.49900 31.89600 26.18900
C  -5.45300 32.04900 27.58400
C  -4.58900 33.12100 27.83500
C  -6.14000 30.76700 25.43400
C  -5.91300 31.51400 28.83500
O  -6.51700 30.46500 29.07400
C  -5.31500 32.44800 29.97400
C  -6.45800 33.11600 30.69900
O  -7.20700 33.93300 30.23500
O  -6.64700 32.52200 31.91500
C  -7.49100 33.31400 32.78400
H  -1.42600 38.12200 29.90300
H  -0.00700 36.76300 23.69400
H  -4.31200 32.32100 23.63400
H  -4.91900 34.99500 31.38100
H  -2.67200 36.90600 31.70200
H  -5.43600 37.00500 31.29400
H  -4.68600 37.91300 29.92600
H  -4.57800 38.32300 31.76100
H  -2.00500 34.91700 32.27300
H  -2.54500 33.43100 31.52900
H  -3.76500 32.71400 33.09000
H  -4.34400 34.17400 33.69000
H  0.85600 39.23500 29.42000
H  -0.41000 40.18000 28.80000
H  1.01300 40.25600 27.98400
H  2.41800 40.40900 24.62200
H  2.67100 39.79500 26.33400
H  1.20000 40.76600 25.91500
H  -0.18300 34.44900 22.58900
H  -3.04600 33.98100 21.83400
H  -2.13500 36.56900 21.94800
H  -1.75800 35.46600 20.59200
H  -0.44800 36.47600 21.23200
H  -1.59600 31.78000 23.12600
H  -0.70000 32.35300 21.84300
H  -2.15900 30.90700 20.64800
H  -3.49200 32.05500 21.11100
H  -3.06300 30.58400 22.11300
H  -5.76500 30.81700 24.41200
H  -7.21700 30.69900 25.59100
H  -5.60400 29.95400 25.92300
H  -4.64800 31.88200 30.62400
H  -7.24100 34.37100 32.86900
H  -7.60100 32.87400 33.77500
H  -8.47700 33.31300 32.32000

