158

Mg 48.84600 47.06800 42.20600
C  45.44900 47.53500 41.42900
C  48.57200 43.92700 40.70100
C  52.00500 46.66600 42.71300
C  49.00000 50.46500 43.25600
N  47.22600 45.97000 41.00400
C  45.93800 46.29500 40.95200
C  45.14200 45.31600 40.11200
C  46.12600 44.14700 40.00400
C  47.40600 44.71000 40.60800
C  45.51200 42.80700 40.64100
C  44.62500 45.98000 38.85100
C  43.12100 45.83700 38.58700
H  42.65200 45.40500 37.27500
N  50.14300 45.49600 41.67700
C  49.86500 44.29300 41.10800
C  51.02400 43.44500 41.13100
C  52.06800 44.19700 41.76600
C  51.43600 45.50200 42.13300
C  51.04300 42.05200 40.58600
C  53.52700 43.73200 42.09900
O  53.85800 42.64100 41.68900
C  54.51400 44.52900 42.80500
N  50.34800 48.45200 42.55500
C  51.54400 47.96500 42.90500
C  52.47000 49.08000 43.21500
C  51.52200 50.30100 43.49200
C  50.20500 49.75100 43.12300
C  53.37700 48.81000 44.40600
C  51.87900 51.63800 42.75700
C  52.27900 52.81500 43.65200
N  47.54100 48.72400 42.38900
C  47.76300 50.00200 42.90400
C  46.44600 50.69400 43.08200
C  45.53100 49.70100 42.55800
C  46.21900 48.58100 42.08100
C  46.28800 52.09600 43.61400
C  44.10400 49.43800 42.23100
O  43.12600 50.09000 42.50000
C  44.06800 48.11100 41.46000
C  43.13700 47.25600 42.21800
O  43.40500 46.85100 43.38500
O  41.97600 46.87600 41.56700
C  41.13200 45.91900 42.29500
H  48.39900 42.90700 40.35000
H  53.03700 46.44300 42.99400
H  48.94000 51.49800 43.60700
H  44.27500 45.07500 40.72800
H  46.43400 43.84300 39.00400
H  44.53600 42.60500 40.20000
H  45.25500 42.89000 41.69700
H  46.09800 41.91900 40.40400
H  44.99900 45.43300 37.98600
H  45.00000 46.99100 38.68800
H  42.68000 46.80400 38.82700
H  42.85800 45.08800 39.33400
H  51.34900 42.05700 39.54000
H  50.04500 41.64500 40.74800
H  51.75100 41.49600 41.20200
H  54.78700 45.42200 42.24300
H  55.44000 43.96100 42.89100
H  54.19300 44.81100 43.80800
H  53.13700 49.19300 42.36100
H  51.60000 50.59500 44.53900
H  53.43400 49.58800 45.16700
H  54.41100 48.75100 44.06600
H  53.00400 47.91600 44.90500
H  51.09600 52.08800 42.14700
H  52.81800 51.46000 42.23100
H  53.35100 53.01700 43.65500
H  52.01100 52.63300 44.69200
H  51.70600 53.68800 43.34100
H  45.28700 52.47500 43.82100
H  46.78400 52.68600 42.84400
H  46.83300 52.16600 44.55600
H  43.61800 48.25700 40.47900
H  40.19000 46.11400 41.78300
H  41.01800 46.08600 43.36600
H  41.37900 44.87200 42.11500
Mg 41.82900 40.70500 26.43900
C  40.97000 43.08300 29.05700
C  42.83700 38.64600 29.01600
C  43.10300 38.70900 24.09800
C  41.25300 43.11200 24.10400
N  41.89700 40.93700 28.84200
C  41.41200 41.88800 29.69200
C  41.46100 41.49500 31.17100
C  42.42700 40.22500 31.03500
C  42.35800 39.82900 29.52700
C  43.88100 40.31300 31.52700
C  40.17300 41.34600 31.88200
C  39.96300 42.23300 33.17300
H  39.24500 41.61100 34.32700
N  42.66600 38.80900 26.47800
C  43.06800 38.21000 27.69200
C  43.59800 36.87100 27.23900
C  43.64700 36.86000 25.80100
C  43.03800 38.17100 25.40800
C  43.96100 35.78500 28.24300
C  44.22100 35.88000 24.78600
O  44.11100 35.95800 23.57400
C  44.88300 34.59000 25.30600
N  42.16800 40.93300 24.41200
C  42.69700 39.97300 23.61000
C  42.42500 40.19900 22.15500
C  41.71000 41.59200 22.16000
C  41.72500 41.96200 23.62800
C  43.63500 40.01700 21.24900
C  40.28200 41.71100 21.49800
C  39.94000 42.98700 20.67100
N  41.22300 42.71400 26.55100
C  41.00400 43.52900 25.43700
C  40.48000 44.76500 25.96000
C  40.41300 44.65300 27.34300
C  40.94600 43.41400 27.68400
C  40.01100 45.93100 25.10700
C  39.97500 45.30700 28.58800
O  39.39200 46.43000 28.74800
C  40.27000 44.19400 29.71700
C  41.13800 44.76000 30.76900
O  42.34200 44.60300 30.86200
O  40.32700 45.51000 31.59800
C  41.03800 46.02400 32.77800
H  43.05600 37.84300 29.72200
H  43.54000 38.18600 23.24500
H  40.96400 43.88100 23.38500
H  41.97200 42.29700 31.70300
H  42.02000 39.48100 31.71900
H  44.70900 40.45700 30.83300
H  44.05500 39.35900 32.02500
H  43.86500 41.09500 32.28600
H  40.04900 40.30700 32.18800
H  39.27500 41.50800 31.28600
H  39.41500 43.09000 32.78200
H  40.90400 42.63300 33.55100
H  43.64400 34.82200 27.84300
H  43.50500 35.86700 29.23000
H  45.03100 35.71000 28.43400
H  44.12600 34.00100 25.82300
H  45.84500 34.61300 25.81800
H  45.15200 34.03900 24.40500
H  41.62000 39.53000 21.85000
H  42.28800 42.34800 21.62800
H  43.29400 39.33100 20.47500
H  44.51400 39.68700 21.80300
H  43.97600 40.88800 20.68900
H  39.55400 41.58300 22.29900
H  40.16500 40.80500 20.90400
H  40.79000 43.65300 20.52600
H  39.11000 43.54300 21.10800
H  39.55700 42.54100 19.75300
H  39.79900 45.65900 24.07200
H  40.77200 46.71100 25.10100
H  39.03300 46.23900 25.47600
H  39.27700 43.96500 30.10500
H  41.27300 45.18500 33.43400
H  40.31100 46.70200 33.22500
H  41.91100 46.63100 32.53900

