158

Mg 48.16200 46.01800 44.10800
C  44.96000 46.64900 42.91600
C  48.15900 42.94200 42.53900
C  51.46400 45.87900 44.68100
C  48.13000 49.40700 45.40900
N  46.65100 45.00800 42.84300
C  45.46800 45.41000 42.46600
C  44.83200 44.36400 41.57100
C  45.65800 43.04500 41.90000
C  46.94300 43.70100 42.44700
C  45.01100 42.23100 43.09700
C  44.78900 44.70800 40.02700
C  43.76300 44.05100 39.16800
H  44.18500 43.26700 37.92100
N  49.62000 44.50900 43.70400
C  49.39200 43.36500 43.04200
C  50.61700 42.67800 42.96300
C  51.67400 43.47600 43.58400
C  50.96600 44.69600 43.96000
C  50.68600 41.32100 42.31200
C  53.08100 42.94600 43.82700
O  53.44500 41.88300 43.35800
C  54.18300 43.72700 44.54200
N  49.57800 47.44300 44.89600
C  50.91400 47.11000 45.08100
C  51.67300 48.23500 45.80300
C  50.64200 49.38600 45.84600
C  49.32000 48.74900 45.44800
C  52.29600 47.94400 47.24000
C  51.02300 50.62100 44.92600
C  51.95100 51.66100 45.50600
N  46.86400 47.67700 44.17400
C  47.00700 48.97100 44.75600
C  45.78300 49.67400 44.62100
C  44.94700 48.80000 43.99000
C  45.64600 47.61300 43.72800
C  45.42600 51.02200 45.12100
C  43.67100 48.62900 43.39200
O  42.73600 49.40700 43.38100
C  43.57500 47.23300 42.72600
C  42.52800 46.38700 43.43000
O  42.75700 45.59900 44.31200
O  41.42400 46.38200 42.64300
C  40.50700 45.36300 43.06800
H  48.08200 41.89200 42.25000
H  52.54500 45.74900 44.77300
H  47.99200 50.36500 45.91600
H  43.79600 44.25100 41.88800
H  45.90800 42.40200 41.05600
H  43.96500 42.53400 43.14100
H  45.52500 42.42500 44.03800
H  45.08300 41.14900 42.99500
H  45.73000 44.51200 39.51400
H  44.70100 45.79400 39.99100
H  42.95300 44.69500 38.82500
H  43.30700 43.29300 39.80600
H  49.84600 41.06400 41.66700
H  50.66700 40.52900 43.06000
H  51.61000 41.31100 41.73300
H  53.73600 44.05300 45.48100
H  54.31100 44.59400 43.89400
H  55.16000 43.25000 44.62300
H  52.49400 48.49300 45.13400
H  50.59600 49.67700 46.89500
H  51.56700 47.82600 48.04200
H  53.07300 48.68200 47.43800
H  52.64900 46.93300 47.03800
H  50.09800 51.07700 44.57500
H  51.55400 50.30800 44.02700
H  51.48700 52.64600 45.44700
H  52.90600 51.60600 44.98400
H  52.23600 51.54300 46.55100
H  44.64800 51.43300 44.47900
H  46.30600 51.66500 45.09900
H  45.02800 50.94500 46.13300
H  43.25400 47.39500 41.69700
H  40.88500 44.34100 43.04800
H  39.60800 45.47900 42.46300
H  40.22900 45.45300 44.11800
Mg -1.15200 35.28900 26.66700
C  -3.01700 33.60600 29.14700
C  -0.01900 37.43600 28.96600
C  0.36700 36.92900 24.06400
C  -2.59900 33.11100 24.17800
N  -1.45500 35.44800 28.82700
C  -2.23000 34.62200 29.61200
C  -2.15900 35.17200 31.07500
C  -1.33900 36.46900 30.98400
C  -0.85300 36.38500 29.47600
C  -2.21100 37.67600 31.42000
C  -1.44400 33.96500 31.87600
C  -2.18600 33.47700 33.13200
H  -1.34800 33.21600 34.41600
N  -0.01700 37.00800 26.48000
C  0.42800 37.71000 27.59800
C  1.24200 38.85000 27.13600
C  1.27600 38.74200 25.69600
C  0.51700 37.52600 25.33100
C  1.86400 39.80500 28.10900
C  1.78400 39.70700 24.64700
O  1.66600 39.51400 23.46400
C  2.55000 40.97300 25.12100
N  -1.01900 34.98400 24.43000
C  -0.32800 35.83600 23.62200
C  -0.32000 35.37800 22.16700
C  -1.29300 34.13000 22.16500
C  -1.64300 34.02400 23.67200
C  -0.66600 36.50300 21.17400
C  -0.73600 32.78100 21.65800
C  0.35400 32.18200 22.48800
N  -2.46200 33.72400 26.62400
C  -3.00600 32.97800 25.57200
C  -3.94400 31.97900 26.13000
C  -3.91600 32.17700 27.47800
C  -3.04000 33.24700 27.77600
C  -4.69600 30.85500 25.40900
C  -4.42900 31.69400 28.78200
O  -5.29100 30.81900 28.99300
C  -3.83200 32.52900 29.86300
C  -4.84200 33.24300 30.65000
O  -5.32000 34.33800 30.36600
O  -5.14500 32.51500 31.79200
C  -6.40200 32.88300 32.57500
H  0.33700 38.00200 29.83000
H  1.01900 37.33400 23.28600
H  -3.06300 32.54500 23.36800
H  -3.13500 35.37200 31.51700
H  -0.44900 36.32500 31.59700
H  -3.20200 37.47800 31.82900
H  -2.35900 38.25300 30.50800
H  -1.62700 38.29100 32.10400
H  -0.44700 34.22300 32.23400
H  -1.15500 33.16200 31.19900
H  -2.45800 32.43400 32.97000
H  -3.07000 34.08100 33.33900
H  2.94100 39.73600 27.96200
H  1.65600 39.63500 29.16500
H  1.58700 40.82900 27.86100
H  1.97600 41.70300 25.69100
H  2.85100 41.52300 24.22900
H  3.41200 40.67300 25.71500
H  0.68600 35.06800 21.88600
H  -2.23800 34.31500 21.65500
H  -1.13800 37.33500 21.69700
H  -1.26700 36.14100 20.33900
H  0.23000 36.86500 20.67100
H  -0.31100 32.94300 20.66800
H  -1.57900 32.09100 21.62500
H  -0.17600 31.38200 23.00500
H  0.85500 32.84300 23.19600
H  1.11900 31.75700 21.83800
H  -5.00800 30.02300 26.04100
H  -4.09500 30.42900 24.60500
H  -5.62700 31.30900 25.07000
H  -3.24600 31.91900 30.55100
H  -6.20400 33.20900 33.59600
H  -6.91900 31.92500 32.64700
H  -7.01200 33.56300 31.98100

