158

Mg 35.97000 2.34500 30.40100
C  33.55200 3.42700 32.68300
C  38.32100 2.46700 32.94900
C  38.41300 1.83200 28.02400
C  33.75300 2.85500 27.82300
N  35.89500 2.80200 32.56700
C  34.79500 3.15400 33.30300
C  35.12700 3.17000 34.79200
C  36.78900 3.05800 34.73400
C  36.99200 2.70800 33.32400
C  37.48100 4.40000 35.11200
C  34.40700 2.03100 35.49600
C  34.19900 2.13800 36.99000
H  34.87800 3.24000 37.81400
N  38.05300 2.10600 30.46500
C  38.80800 2.16800 31.61300
C  40.13500 1.63200 31.33200
C  40.21800 1.49600 29.89700
C  38.85400 1.80900 29.37700
C  41.28500 1.45300 32.34900
C  41.46200 1.14300 29.03500
O  41.37200 1.00300 27.82300
C  42.86900 1.03900 29.63300
N  36.04800 2.30400 28.24800
C  37.17000 2.15500 27.52300
C  36.86500 2.11400 26.03300
C  35.35000 2.18400 25.95800
C  35.04600 2.41000 27.48600
C  37.61900 3.19800 25.19300
C  34.56000 0.86200 25.47500
C  33.35800 1.05000 24.53300
N  33.97400 2.88300 30.23600
C  33.21700 3.06000 29.09400
C  31.95600 3.53600 29.52800
C  31.99800 3.56600 30.92900
C  33.24200 3.28500 31.29300
C  30.73600 3.61200 28.66600
C  31.26400 3.87300 32.13100
O  30.12800 4.29100 32.31100
C  32.29100 3.77600 33.36600
C  32.24600 5.00800 34.11400
O  32.37900 6.11500 33.64100
O  32.17300 4.77600 35.41900
C  31.96400 6.08900 36.14200
H  39.13900 2.21900 33.62900
H  39.19700 1.70400 27.27600
H  32.97200 2.93500 27.06400
H  34.74300 4.10100 35.20900
H  37.24800 2.20500 35.23300
H  36.72200 5.18300 35.11900
H  38.10900 4.72700 34.28400
H  38.07200 4.24600 36.01600
H  35.00100 1.11700 35.45000
H  33.50600 1.74500 34.95400
H  34.63900 1.30800 37.54300
H  33.13200 2.24700 37.18500
H  41.80400 0.49800 32.26100
H  40.97300 1.73900 33.35300
H  41.99700 2.20600 32.01200
H  42.84600 0.24900 30.38300
H  43.28700 1.94300 30.07600
H  43.58700 0.77900 28.85500
H  37.32300 1.17200 25.73200
H  34.88600 3.07000 25.52500
H  36.91100 3.87300 24.71300
H  38.21200 2.67900 24.44000
H  38.17100 3.90600 25.81100
H  34.08700 0.42500 26.35500
H  35.29900 0.23300 24.97800
H  33.54800 0.93700 23.46600
H  32.99800 2.07600 24.61000
H  32.51600 0.44000 24.86100
H  30.54700 2.66900 28.15200
H  30.86100 4.39900 27.92200
H  29.85500 3.81700 29.27400
H  31.85800 2.91100 33.86800
H  31.01100 6.59300 35.98400
H  32.85500 6.68600 35.94900
H  32.00700 5.90900 37.21600
Mg 16.57800 52.85600 26.53100
C  18.46400 51.12300 28.83100
C  14.28600 53.54400 28.92500
C  14.88000 54.46800 24.14700
C  18.93300 51.83000 24.06900
N  16.33400 52.34300 28.65400
C  17.31500 51.71000 29.36600
C  17.07200 51.87400 30.84000
C  15.55600 52.34900 30.90000
C  15.28400 52.70600 29.42200
C  14.61300 51.24600 31.44300
C  18.14900 52.85000 31.38000
C  18.49900 52.56400 32.86600
H  17.40300 51.97000 33.76800
N  14.88300 53.90900 26.51800
C  14.08600 54.04600 27.62600
C  13.03400 54.94100 27.25800
C  13.13500 55.24400 25.91500
C  14.36900 54.55700 25.46400
C  11.89000 55.43800 28.23900
C  12.25500 56.04900 24.98900
O  12.52000 56.17700 23.82900
C  10.91700 56.70700 25.46800
N  16.94600 53.23700 24.41400
C  16.06100 53.93000 23.69200
C  16.51600 54.02800 22.27800
C  17.86400 53.29300 22.20700
C  17.94900 52.73400 23.64400
C  15.45300 53.50300 21.20800
C  19.18600 54.13100 21.77700
C  19.03600 55.66800 21.46100
N  18.32900 51.73400 26.38700
C  19.17800 51.41100 25.32300
C  20.28500 50.60900 25.79800
C  19.96300 50.41400 27.22100
C  18.81800 51.14300 27.50300
C  21.32800 49.92600 24.98700
C  20.46600 49.76700 28.41000
O  21.43800 49.10400 28.58400
C  19.57600 50.39000 29.59300
C  19.11300 49.15500 30.31600
O  18.60300 48.20800 29.80300
O  19.41100 49.35200 31.64300
C  19.01500 48.23800 32.53600
H  13.49600 53.84600 29.61600
H  14.42300 54.99300 23.30600
H  19.61200 51.49100 23.28400
H  17.10200 50.84000 31.18400
H  15.40500 53.29400 31.42100
H  13.78800 51.76300 31.93400
H  15.13500 50.60300 32.15200
H  14.13000 50.61800 30.69400
H  17.56700 53.76800 31.46400
H  19.00700 52.95600 30.71600
H  18.75900 53.54400 33.26500
H  19.45800 52.04500 32.86100
H  12.01600 56.52000 28.27100
H  11.82200 55.05500 29.25700
H  10.87100 55.21200 27.92400
H  11.05100 57.32900 26.35400
H  10.18100 55.91200 25.58800
H  10.59900 57.33500 24.63600
H  16.62900 55.07300 21.98800
H  17.76300 52.38700 21.61000
H  15.63100 54.23000 20.41500
H  14.43500 53.60200 21.58500
H  15.72800 52.49200 20.90800
H  19.56400 53.63900 20.88000
H  19.85800 54.09000 22.63400
H  19.96800 55.97400 20.98500
H  18.98900 56.19300 22.41500
H  18.19400 55.89700 20.80700
H  21.20200 48.84400 25.01700
H  22.25600 50.13300 25.52000
H  21.47600 50.31900 23.98100
H  20.21300 50.97100 30.26100
H  17.93500 48.16100 32.41400
H  19.13700 48.58700 33.56200
H  19.58300 47.39000 32.15400

