158

Mg 46.66400 34.70900 28.33300
C  45.16000 33.01000 30.94800
C  47.45000 37.12200 30.48400
C  47.56600 36.53600 25.65700
C  45.29200 32.34200 26.03600
N  46.30000 34.93700 30.49700
C  45.78500 34.15500 31.38600
C  46.02800 34.60100 32.88400
C  46.48300 35.97900 32.56500
C  46.84300 35.97900 31.09700
C  45.38800 37.15800 32.93800
C  47.00300 33.72300 33.62400
C  47.02300 33.65500 35.13300
H  46.38500 34.83400 35.82900
N  47.50300 36.51900 28.14900
C  47.70300 37.41400 29.14800
C  48.29600 38.53600 28.54100
C  48.41000 38.38400 27.11800
C  47.85800 37.04600 26.94500
C  49.06000 39.45100 29.54800
C  49.15500 39.13100 26.07000
O  49.33200 38.73000 24.91400
C  49.61300 40.57600 26.42000
N  46.53300 34.39900 26.13400
C  46.85600 35.42400 25.28100
C  46.33200 35.16500 23.85800
C  45.62600 33.75200 23.96500
C  45.93600 33.37300 25.47000
C  45.64300 36.41900 23.23700
C  45.96700 32.53100 23.00100
C  44.79400 31.68400 22.47200
N  45.48100 32.99600 28.42200
C  45.10400 32.09900 27.40900
C  44.43600 30.97300 28.04300
C  44.37300 31.35300 29.37800
C  45.08000 32.56100 29.59500
C  43.72100 29.74900 27.31700
C  43.76500 31.02300 30.68500
O  43.08900 30.07600 31.00300
C  44.11900 32.20600 31.61300
C  44.27700 31.83800 33.10400
O  45.06000 31.04200 33.61200
O  43.32100 32.52900 33.80900
C  43.09900 32.00900 35.19100
H  47.79300 37.82200 31.24800
H  47.61900 37.33100 24.91000
H  44.59600 31.70900 25.48100
H  45.09400 34.63100 33.44400
H  47.40700 36.21500 33.09200
H  45.30900 37.79400 32.05600
H  45.79300 37.62300 33.83700
H  44.40400 36.73200 33.13400
H  48.01200 34.08900 33.43300
H  46.97100 32.71800 33.20500
H  48.02100 33.51200 35.54600
H  46.24700 32.91100 35.31400
H  49.31100 40.29600 28.90700
H  49.93300 38.85100 29.80400
H  48.51700 39.64300 30.47300
H  48.83900 41.16800 26.90700
H  49.92300 41.03100 25.48000
H  50.50400 40.46500 27.04000
H  47.23200 35.04500 23.25500
H  44.55000 33.90900 23.89300
H  45.54000 37.18500 24.00600
H  44.63700 36.19400 22.88300
H  46.29400 36.78800 22.44500
H  46.79100 31.91900 23.36700
H  46.46800 33.07900 22.20300
H  44.55000 31.86600 21.42500
H  43.85800 31.83800 23.01000
H  45.06400 30.65200 22.69300
H  44.33100 29.06100 26.73300
H  42.98100 30.16600 26.63400
H  43.30500 29.13100 28.11300
H  43.13900 32.68300 31.58200
H  42.78000 30.96700 35.14100
H  42.39700 32.72000 35.62500
H  43.99300 32.01300 35.81400
Mg 30.28100 60.15400 39.65500
C  27.33200 58.56600 38.42900
C  31.97400 57.31400 38.59100
C  33.22000 61.79700 40.01900
C  28.50300 63.06400 40.12600
N  29.69200 58.19700 38.48900
C  28.50300 57.78100 38.12900
C  28.61800 56.39100 37.41700
C  29.99700 55.85900 37.91000
C  30.63300 57.22400 38.30200
C  30.04700 54.79600 39.10000
C  28.45400 56.52400 35.89100
C  27.34400 55.71300 35.12900
H  26.53000 56.51300 34.08400
N  32.26800 59.61400 39.37400
C  32.75400 58.33300 38.98300
C  34.16200 58.31100 39.16400
C  34.62700 59.64500 39.44400
C  33.37600 60.44200 39.61900
C  34.99100 57.05900 38.86900
C  36.12800 60.03400 39.69100
O  36.97300 59.19900 39.56900
C  36.51200 61.38600 40.14900
N  30.83600 62.21700 39.77600
C  32.05900 62.59600 40.10600
C  32.01200 64.08200 40.34600
C  30.56700 64.42200 40.74700
C  29.88400 63.13600 40.19900
C  33.10700 64.54900 41.43800
C  30.10500 65.69900 40.04300
C  29.67700 66.83700 41.02500
N  28.31500 60.71100 39.60700
C  27.75700 61.94500 39.76500
C  26.34400 61.86100 39.55500
C  26.13100 60.49900 39.11800
C  27.37300 59.88200 39.06500
C  25.34800 62.85700 39.56200
C  25.16200 59.55700 38.57700
O  23.97600 59.67800 38.30900
C  25.84800 58.20600 38.29400
C  25.49000 57.19700 39.33600
O  25.84000 57.29600 40.51100
O  24.55000 56.38500 38.83100
C  23.76900 55.69400 39.79500
H  32.52100 56.43500 38.24400
H  34.12700 62.39900 40.09900
H  27.92800 63.97700 40.29800
H  27.86400 55.74200 37.86200
H  30.55600 55.33400 37.13500
H  29.04200 54.80600 39.52300
H  30.84500 55.09300 39.78000
H  30.27400 53.81300 38.68800
H  29.39300 56.17900 35.45800
H  28.32200 57.52000 35.46700
H  26.68400 55.31100 35.89800
H  27.85500 54.93700 34.55900
H  35.85300 56.84700 39.50100
H  35.39800 57.00000 37.85900
H  34.51800 56.10300 39.09700
H  37.59300 61.47900 40.25700
H  36.07200 61.40400 41.14600
H  36.17800 62.18200 39.48400
H  32.40100 64.55300 39.44300
H  30.38400 64.22800 41.80400
H  32.69700 65.25900 42.15700
H  33.90600 65.09400 40.93400
H  33.50800 63.77400 42.09000
H  29.34700 65.50900 39.28200
H  30.86500 66.24000 39.48000
H  30.06200 67.73700 40.54700
H  30.12700 66.65200 42.00100
H  28.61100 66.87200 41.24800
H  24.82200 62.81300 38.60800
H  25.78200 63.84800 39.69500
H  24.64000 62.80600 40.38900
H  25.49600 57.87000 37.31900
H  24.28500 54.85300 40.25600
H  22.96600 55.27500 39.18900
H  23.32700 56.43900 40.45700

