158

Mg 9.08100 3.76300 28.09700
C  10.55100 2.63300 31.04800
C  7.63700 6.29700 30.06700
C  7.38100 4.86100 25.40200
C  10.60800 1.23200 26.32600
N  8.99100 4.38300 30.36700
C  9.69000 3.75300 31.26800
C  9.48600 4.27300 32.70900
C  8.41900 5.33700 32.39700
C  8.33100 5.33900 30.86400
C  7.05300 5.13300 33.09800
C  10.79300 4.87100 33.32000
C  11.27000 4.34700 34.73400
H  11.81500 5.53200 35.64400
N  7.62300 5.24500 27.79900
C  7.20500 6.22100 28.69500
C  6.31600 7.15500 27.99600
C  6.18200 6.61400 26.69100
C  7.07000 5.51800 26.57600
C  5.52200 8.21500 28.67300
C  5.26100 7.07300 25.55000
O  5.04200 6.41100 24.59200
C  4.38100 8.27700 25.81300
N  8.68100 2.84800 26.19300
C  8.17500 3.67800 25.24500
C  8.65100 3.22500 23.79800
C  9.66600 2.15500 24.10800
C  9.67800 2.02700 25.64300
C  7.47100 2.86800 22.83800
C  11.14400 2.53900 23.57700
C  12.08400 1.33600 23.25900
N  10.21000 2.21300 28.57000
C  10.78900 1.26800 27.74400
C  11.60900 0.36000 28.55100
C  11.55200 0.87500 29.83200
C  10.68600 1.98400 29.85600
C  12.42800 -0.69300 28.03700
C  12.03000 0.63000 31.15700
O  12.83600 -0.27600 31.56000
C  11.40400 1.81500 32.06100
C  10.66900 1.17300 33.23500
O  9.48500 0.93700 33.31500
O  11.59500 0.68000 34.09600
C  11.10200 -0.02500 35.27400
H  7.15300 6.96100 30.78700
H  6.96600 5.15200 24.43500
H  11.19900 0.43000 25.87800
H  9.04100 3.48900 33.32200
H  8.75800 6.34400 32.64100
H  6.69800 6.14500 33.29500
H  7.32300 4.64400 34.03400
H  6.39100 4.57000 32.43900
H  10.75000 5.96000 33.34800
H  11.59200 4.58200 32.63700
H  12.00700 3.57900 34.50200
H  10.54100 3.68600 35.20200
H  4.49800 7.90300 28.88000
H  5.58000 9.10800 28.05100
H  6.03400 8.36000 29.62400
H  3.82100 8.55900 24.92000
H  4.91000 9.22800 25.85800
H  3.75200 8.12400 26.69000
H  9.16600 4.07300 23.34700
H  9.40700 1.15300 23.76500
H  6.53200 3.22900 23.25700
H  7.38900 1.78200 22.79200
H  7.58400 3.25800 21.82600
H  11.68500 3.19100 24.26300
H  11.02500 3.06000 22.62700
H  12.38600 1.46700 22.22000
H  11.67300 0.33700 23.40000
H  12.90200 1.38500 23.97800
H  12.46700 -1.51400 28.75300
H  13.35000 -0.33600 27.57900
H  11.80600 -1.11000 27.24500
H  12.26600 2.29800 32.52100
H  10.68000 -0.90300 34.78500
H  10.29100 0.59400 35.65800
H  11.90100 -0.34600 35.94300
Mg 9.34200 48.79800 25.98900
C  7.27100 49.16300 28.85900
C  11.99000 49.85100 27.79800
C  11.06100 48.68100 23.11800
C  6.37000 48.32700 24.12100
N  9.54500 49.33900 28.11000
C  8.58600 49.33400 29.14700
C  9.31200 49.63700 30.42200
C  10.67000 50.31400 29.94000
C  10.78200 49.81600 28.48200
C  10.61300 51.84600 30.12700
C  9.60300 48.37600 31.28000
C  9.87400 48.55400 32.71800
H  9.94400 47.33600 33.61400
N  11.26500 49.14600 25.55700
C  12.26800 49.48200 26.50400
C  13.47800 49.38100 25.78400
C  13.25700 49.15900 24.40200
C  11.81100 48.96000 24.28400
C  14.83400 49.61500 26.50200
C  14.23700 49.11900 23.28100
O  13.92600 48.90900 22.09700
C  15.67200 49.44700 23.58800
N  8.80300 48.61000 23.95200
C  9.69900 48.54200 22.95900
C  9.02700 48.30000 21.53200
C  7.55500 48.44200 21.83900
C  7.57100 48.47500 23.42600
C  9.55100 49.20900 20.38800
C  6.64500 47.35400 21.27600
C  5.66700 47.77500 20.16300
N  7.28000 48.56700 26.34700
C  6.20100 48.35800 25.49000
C  4.97400 48.31500 26.20900
C  5.37500 48.66600 27.56600
C  6.77600 48.86500 27.56800
C  3.65800 48.16700 25.56600
C  4.85300 48.93500 28.87400
O  3.71800 49.09500 29.36100
C  6.11300 49.13600 29.79300
C  6.18000 47.94800 30.74800
O  6.08700 46.76400 30.41600
O  6.46000 48.46300 31.98500
C  6.53600 47.43500 33.02500
H  12.84700 50.27600 28.32500
H  11.68800 48.60300 22.22800
H  5.43600 48.24000 23.56200
H  8.60600 50.24700 30.98700
H  11.49100 49.92800 30.54500
H  9.57700 52.18100 30.08000
H  11.04500 52.34200 29.25700
H  11.06500 52.03500 31.10100
H  10.59700 48.06500 30.95700
H  8.96000 47.53300 31.02600
H  9.04900 49.10600 33.16800
H  10.76400 49.17900 32.80000
H  14.55500 49.82500 27.53500
H  15.38600 50.49500 26.17200
H  15.43800 48.70800 26.50700
H  16.11000 48.85700 24.39200
H  15.66700 50.47800 23.94300
H  16.28100 49.52800 22.68800
H  9.12300 47.26300 21.20900
H  7.07200 49.39100 21.60500
H  8.69300 49.71900 19.95200
H  10.08200 48.55200 19.69900
H  10.30100 49.89200 20.78800
H  5.97000 46.92100 22.01400
H  7.21300 46.52400 20.85400
H  4.67900 47.65200 20.60800
H  5.73000 47.02100 19.37900
H  5.78400 48.78900 19.78000
H  3.57600 47.24600 24.98900
H  3.47500 49.01600 24.90800
H  2.89000 48.22000 26.33700
H  5.92600 50.02200 30.40000
H  5.72400 46.71800 32.90300
H  6.46900 47.85000 34.03100
H  7.47900 46.89200 32.97200

