158

Mg 8.43400 2.73400 26.77300
C  9.79800 1.37900 29.65100
C  6.22900 4.39300 28.57700
C  7.26700 3.87900 23.76200
C  10.48700 0.37200 24.99800
N  7.92900 2.63700 28.90900
C  8.74100 2.28500 29.92200
C  8.32900 2.83100 31.32700
C  7.15100 3.77400 30.92200
C  7.05300 3.61000 29.38800
C  5.79800 3.59700 31.62100
C  9.60300 3.50200 31.96600
C  9.42200 4.45400 33.20100
H  10.15400 4.18600 34.45000
N  6.99700 3.99700 26.23300
C  6.12400 4.52600 27.14400
C  5.22000 5.38900 26.38400
C  5.59300 5.33500 25.03200
C  6.70800 4.43000 24.95700
C  4.01500 6.05400 27.14300
C  4.94900 6.11000 23.85500
O  5.35700 6.10400 22.65600
C  3.84700 7.01200 24.14700
N  8.78500 2.10300 24.63700
C  8.17600 2.79600 23.59800
C  8.70100 2.32400 22.23100
C  9.71800 1.24000 22.63500
C  9.76900 1.30400 24.18600
C  7.57600 1.83500 21.25500
C  11.02600 1.46200 21.99500
C  11.22500 1.46800 20.48500
N  9.73000 1.14500 27.16300
C  10.49100 0.28200 26.37400
C  11.42800 -0.55000 27.13900
C  11.16200 -0.09800 28.44700
C  10.16300 0.87100 28.39700
C  12.46200 -1.48500 26.64800
C  11.62100 -0.31800 29.79000
O  12.46200 -1.04700 30.27000
C  10.75000 0.62300 30.65200
C  10.13500 -0.22500 31.70500
O  9.40500 -1.18400 31.53900
O  10.69400 0.15500 32.93200
C  10.30200 -0.41200 34.22000
H  5.68000 5.08100 29.22300
H  6.89000 4.20700 22.79100
H  11.00200 -0.43400 24.47200
H  7.94000 1.99800 31.91200
H  7.36000 4.83500 31.05500
H  5.77900 2.61900 32.10100
H  4.98400 3.53400 30.89800
H  5.45400 4.31700 32.36300
H  10.13300 4.01100 31.16000
H  10.26400 2.73400 32.36800
H  8.33500 4.42800 33.27400
H  9.70900 5.49100 33.02200
H  3.08200 5.82800 26.62700
H  4.25100 7.11800 27.16000
H  3.95300 5.57800 28.12200
H  3.54300 7.69800 23.35700
H  4.36300 7.66800 24.84800
H  3.00700 6.49100 24.60500
H  9.13400 3.20400 21.75500
H  9.46700 0.19300 22.46100
H  6.63800 2.37900 21.36100
H  7.32300 0.85400 21.65900
H  7.71400 1.68400 20.18500
H  11.63800 0.62000 22.32200
H  11.51200 2.39800 22.27200
H  10.25000 1.17100 20.10100
H  11.99800 0.74700 20.22000
H  11.30600 2.49300 20.12300
H  12.92000 -1.08900 25.74200
H  12.15000 -2.51900 26.50300
H  13.34000 -1.47600 27.29400
H  11.36100 1.30000 31.24700
H  9.34100 -0.92100 34.15200
H  10.13900 0.31600 35.01500
H  11.00200 -1.20800 34.47500
Mg 1.69900 42.61800 25.36100
C  3.58700 42.07600 28.20600
C  -1.08200 41.48600 26.95000
C  0.20900 42.43700 22.33200
C  4.75100 43.35300 23.59400
N  1.35000 41.87900 27.37400
C  2.20700 41.91200 28.44100
C  1.50100 41.76900 29.81700
C  0.03500 41.47200 29.30300
C  0.10300 41.58500 27.75600
C  -0.62900 40.16100 29.80000
C  1.70300 43.03300 30.69800
C  2.25900 42.81500 32.12100
H  1.85100 41.57100 32.94600
N  -0.21700 42.17900 24.72500
C  -1.26100 41.70200 25.52700
C  -2.44500 41.61800 24.67800
C  -2.03500 41.82000 23.34400
C  -0.62200 42.20200 23.42800
C  -3.82100 41.25000 25.18800
C  -2.79600 41.83600 22.06200
O  -2.41100 42.32200 21.01600
C  -4.08100 41.13100 22.03800
N  2.43400 42.76700 23.22500
C  1.56200 42.78200 22.25000
C  2.17700 43.24100 20.88300
C  3.53500 43.77500 21.42700
C  3.60800 43.27100 22.84200
C  2.20800 42.11000 19.86400
C  3.48700 45.34300 21.37800
C  3.53500 46.04600 20.03100
N  3.74900 42.65800 25.73900
C  4.81700 43.05800 24.97100
C  6.05800 43.07000 25.75900
C  5.60900 42.67600 27.02300
C  4.21300 42.40100 26.96900
C  7.52000 43.33700 25.35400
C  6.06900 42.32500 28.36700
O  7.17500 42.36300 28.84500
C  4.79800 41.98300 29.15400
C  4.93500 40.72600 29.88400
O  4.52100 39.61600 29.54500
O  5.65400 40.89100 31.08500
C  5.68500 39.75700 31.98100
H  -1.97300 41.11400 27.45900
H  -0.14200 42.53000 21.30200
H  5.68500 43.68200 23.13500
H  1.99700 40.93200 30.30900
H  -0.56700 42.34100 29.57000
H  -1.63800 40.45200 30.09400
H  -0.02400 39.83100 30.64400
H  -0.80800 39.47000 28.97600
H  0.80000 43.63700 30.78300
H  2.50600 43.61800 30.25100
H  2.14600 43.72200 32.71500
H  3.33900 42.82000 31.97400
H  -4.58100 41.86000 24.69900
H  -4.00800 41.48800 26.23500
H  -4.01600 40.20500 24.95100
H  -4.78500 41.65600 22.68400
H  -3.90700 40.11700 22.39600
H  -4.54200 41.00400 21.05900
H  1.72700 44.04900 20.30600
H  4.42500 43.37800 20.93800
H  3.20500 41.67100 19.88800
H  1.98100 42.48000 18.86400
H  1.46000 41.36600 20.13800
H  4.28200 45.73200 22.01500
H  2.58200 45.61000 21.92500
H  3.62200 45.31700 19.22500
H  4.34800 46.76900 20.10300
H  2.63500 46.65400 19.93700
H  7.77900 44.30000 25.79400
H  7.70300 43.30400 24.28000
H  8.11400 42.49700 25.71400
H  4.77400 42.74100 29.93700
H  5.30600 40.39100 32.78300
H  6.67000 39.40000 32.28000
H  4.99600 38.97400 31.66300

