158

Mg 40.42400 10.08300 29.94100
C  42.59400 11.26500 32.44500
C  38.38800 8.72900 32.27300
C  38.42900 8.90400 27.53600
C  42.72400 11.05300 27.57900
N  40.48600 10.09500 32.10800
C  41.47200 10.60300 32.93600
C  41.03200 10.44300 34.42500
C  39.69300 9.56000 34.36800
C  39.56600 9.39900 32.84700
C  39.80600 8.16900 35.09100
C  40.84500 11.79400 35.04200
C  40.22000 11.97300 36.42200
H  40.89500 12.89300 37.42100
N  38.65300 8.88000 29.87600
C  37.94000 8.48200 30.98100
C  36.76700 7.70200 30.59100
C  36.75300 7.83000 29.22600
C  37.97700 8.55600 28.77900
C  35.70700 7.08500 31.62200
C  35.77000 7.23500 28.20700
O  35.82100 7.34600 27.01400
C  34.51800 6.50700 28.68800
N  40.63500 9.79600 27.77700
C  39.58600 9.47100 26.99100
C  39.83100 9.74500 25.51900
C  41.21400 10.60000 25.55200
C  41.63500 10.45500 27.08100
C  39.89700 8.43700 24.66900
C  41.10800 12.05000 25.12300
C  40.00500 12.89300 25.74100
N  42.35400 10.81400 29.98000
C  43.12500 11.21900 28.93000
C  44.29900 11.77000 29.39900
C  44.11500 11.87900 30.81700
C  42.93500 11.23100 31.08300
C  45.37900 12.29000 28.58200
C  44.62700 12.48300 31.98800
O  45.66000 13.12000 32.13300
C  43.70800 12.01800 33.19000
C  44.45500 11.11400 34.17800
O  44.93500 10.03800 33.94800
O  44.47700 11.75100 35.35700
C  45.09200 11.18400 36.52700
H  37.63000 8.33500 32.95400
H  37.69000 8.58900 26.79600
H  43.29800 11.66200 26.87700
H  41.79600 9.87100 34.95100
H  38.78200 10.05300 34.70600
H  39.32800 7.37900 34.51200
H  39.25600 8.35900 36.01200
H  40.85000 8.13400 35.40200
H  40.34000 12.40700 34.29500
H  41.84200 12.22800 35.12000
H  40.30900 11.03400 36.97000
H  39.17500 12.26100 36.30700
H  36.14500 7.11900 32.62000
H  35.37900 6.06700 31.41300
H  34.82900 7.72900 31.57000
H  34.57600 5.66600 29.37800
H  33.91500 6.26300 27.81400
H  34.05200 7.37200 29.16100
H  38.99900 10.37200 25.19900
H  41.99600 10.13100 24.95500
H  39.50500 8.59200 23.66300
H  39.38600 7.59500 25.13600
H  40.93400 8.10200 24.64900
H  40.75200 12.10800 24.09500
H  42.07700 12.52500 25.27800
H  40.49800 13.64100 26.36200
H  39.22600 12.39700 26.31900
H  39.41800 13.46900 25.02500
H  44.96200 13.13800 28.03900
H  45.57700 11.55600 27.80100
H  46.32200 12.60500 29.02800
H  43.33700 12.95600 33.60500
H  45.53900 11.94000 37.17300
H  45.93600 10.59800 36.16300
H  44.44800 10.46700 37.03600
Mg 47.64800 25.30000 29.06000
C  48.61600 27.33200 31.69300
C  46.13800 23.20300 31.38900
C  46.81700 23.21600 26.59300
C  48.87700 27.55200 26.84200
N  47.34100 25.34000 31.27300
C  47.86800 26.26800 32.13200
C  47.44100 26.01100 33.64000
C  46.78200 24.59100 33.47200
C  46.72600 24.37000 32.00600
C  47.53000 23.45100 34.27000
C  46.47800 27.07400 34.27400
C  47.03700 27.88700 35.36600
H  46.34900 27.94200 36.76700
N  46.63600 23.47500 29.03700
C  46.13600 22.74900 30.03100
C  45.51400 21.48600 29.51600
C  45.54300 21.63200 28.09400
C  46.34800 22.78800 27.86700
C  44.89800 20.43700 30.39200
C  44.86600 20.82100 26.95700
O  45.12100 21.01600 25.79200
C  43.74100 19.87500 27.30500
N  47.97500 25.31600 27.02600
C  47.60500 24.26600 26.25300
C  48.07900 24.54400 24.85600
C  48.61800 26.00700 24.83200
C  48.41500 26.36400 26.35000
C  49.01100 23.37200 24.22900
C  47.89300 26.92800 23.85800
C  48.78000 28.16400 23.43200
N  48.61200 26.99000 29.21300
C  49.00800 27.82400 28.18400
C  49.59800 29.10100 28.74600
C  49.40800 28.88700 30.08600
C  48.86700 27.66300 30.35700
C  50.24200 30.24800 28.00100
C  49.64500 29.53800 31.34400
O  50.17200 30.64000 31.60400
C  49.16400 28.57600 32.47700
C  50.38300 28.35800 33.33600
O  51.34000 27.65600 33.04100
O  50.21600 29.00000 34.52000
C  51.08600 28.64000 35.64100
H  45.62200 22.64200 32.17100
H  46.70600 22.63400 25.67600
H  49.33600 28.31200 26.20600
H  48.38200 25.84000 34.16300
H  45.80100 24.68900 33.93700
H  46.83000 22.72400 34.68300
H  48.18100 23.95800 34.98300
H  48.13200 22.85600 33.58300
H  45.64100 26.62200 34.80600
H  46.08500 27.75100 33.51500
H  46.95200 28.90800 34.99300
H  48.06200 27.56100 35.54000
H  45.18700 20.55300 31.43700
H  45.25000 19.48000 30.00500
H  43.81200 20.43300 30.29500
H  43.43900 19.34700 26.40000
H  42.85800 20.45400 27.57600
H  44.11900 19.21400 28.08600
H  47.12000 24.47800 24.34400
H  49.67700 25.96000 24.57800
H  49.99200 23.81400 24.05300
H  48.64400 22.95400 23.29100
H  49.10800 22.59400 24.98500
H  46.95100 27.24000 24.30900
H  47.56800 26.32100 23.01300
H  48.95000 28.15800 22.35500
H  49.76200 28.19100 23.90600
H  48.36500 29.12600 23.73300
H  49.46000 30.83800 27.52100
H  50.92400 29.99400 27.19000
H  50.71200 30.81100 28.80700
H  48.42900 29.13100 33.06000
H  51.16900 29.51600 36.28400
H  52.04400 28.21500 35.34300
H  50.54500 27.96600 36.30600

