158

Mg 47.48000 25.29900 29.16000
C  48.09200 27.55600 31.60500
C  46.20900 23.12400 31.52000
C  46.99800 22.91700 26.68300
C  49.12600 27.31600 26.87700
N  47.23200 25.35400 31.30900
C  47.51300 26.43900 32.16000
C  47.24600 26.17200 33.67300
C  46.79800 24.66500 33.54600
C  46.73000 24.34100 32.02500
C  47.73000 23.66000 34.27600
C  46.10400 27.10400 34.25700
C  46.53000 27.91600 35.45400
H  47.01100 27.00600 36.66700
N  46.64900 23.26600 29.03700
C  46.15000 22.64000 30.13400
C  45.62100 21.36600 29.73100
C  45.75800 21.27900 28.30600
C  46.44600 22.47600 27.91300
C  44.94800 20.47000 30.66200
C  45.26900 20.20300 27.32300
O  45.58600 20.19300 26.14800
C  44.27300 19.20600 27.78400
N  47.81600 25.24600 27.00800
C  47.74500 24.05000 26.33100
C  48.36300 24.18000 24.88800
C  49.01000 25.62000 24.94800
C  48.60700 26.13900 26.37600
C  49.30300 23.00200 24.41800
C  48.59100 26.46100 23.76600
C  49.71400 27.11700 23.00600
N  48.39700 27.13200 29.18600
C  49.02100 27.79200 28.15700
C  49.36500 29.11100 28.58000
C  49.09200 29.10500 29.98600
C  48.49900 27.81600 30.31700
C  50.04800 30.16100 27.73100
C  49.13600 29.84400 31.19700
O  49.51800 30.98200 31.43500
C  48.54900 28.82100 32.33200
C  49.72900 28.47700 33.20600
O  50.52100 27.57100 33.04100
O  49.77500 29.46300 34.16600
C  50.70300 29.13500 35.28200
H  45.82400 22.43900 32.27800
H  46.89100 22.11300 25.95200
H  49.64400 27.95400 26.15700
H  48.19800 26.34300 34.17600
H  45.75200 24.63100 33.85100
H  47.18600 23.17500 35.08700
H  48.65500 24.12000 34.62300
H  48.10400 22.88900 33.60200
H  45.20100 26.51100 34.39800
H  45.93500 27.92800 33.56300
H  45.69100 28.54400 35.75400
H  47.33300 28.60000 35.17700
H  44.88300 20.72200 31.72100
H  45.42800 19.49900 30.54400
H  43.92500 20.46900 30.28800
H  43.41600 19.69100 28.25100
H  44.85100 18.70600 28.56000
H  43.88000 18.49100 27.06000
H  47.55500 24.13300 24.15900
H  50.08400 25.44400 25.00200
H  50.33300 23.35600 24.36500
H  49.03800 22.62200 23.43100
H  49.31700 22.08600 25.00900
H  47.98400 27.33500 24.00400
H  48.01600 25.90800 23.02300
H  50.66500 26.96100 23.51600
H  49.54100 28.15600 22.72500
H  49.89500 26.66600 22.03100
H  49.49600 30.20600 26.79200
H  51.06300 29.88700 27.44400
H  50.05600 31.06100 28.34600
H  47.82400 29.36700 32.93600
H  50.69300 28.04500 35.25800
H  50.26900 29.50700 36.21000
H  51.73100 29.36600 35.00100
Mg 30.44600 56.97400 40.57500
C  27.75900 54.90900 39.76300
C  32.56600 54.31900 39.77800
C  33.11500 59.08200 40.63200
C  28.30000 59.67000 40.92700
N  30.13600 54.90400 39.73300
C  28.93700 54.24500 39.63200
C  29.09100 52.75900 39.48500
C  30.68800 52.58600 39.76100
C  31.20600 54.03200 39.72900
C  30.98600 51.98100 41.15300
C  28.70900 52.15600 38.10300
C  29.11700 52.76100 36.77800
H  28.10400 53.19300 35.70700
N  32.48500 56.70000 40.33000
C  33.16100 55.54000 40.03800
C  34.57800 55.81700 39.99700
C  34.75800 57.20500 40.25200
C  33.39300 57.73700 40.51300
C  35.70600 54.88300 39.49400
C  36.19300 57.90400 40.30200
O  37.23100 57.28300 40.08900
C  36.23600 59.44300 40.53500
N  30.67400 59.08200 40.68800
C  31.83900 59.71200 40.88100
C  31.71300 61.21200 41.29400
C  30.17700 61.26800 41.42500
C  29.65900 59.90800 40.96000
C  32.49300 61.71600 42.55400
C  29.53200 62.52600 40.70300
C  29.46200 63.66100 41.74400
N  28.42000 57.27900 40.35200
C  27.68900 58.44700 40.62700
C  26.27600 58.12200 40.44700
C  26.26400 56.77000 40.05800
C  27.64600 56.25400 40.04200
C  25.06800 59.12600 40.58500
C  25.41400 55.71200 39.65900
O  24.19300 55.68500 39.39500
C  26.29400 54.43600 39.46600
C  25.81200 53.38300 40.39900
O  26.28700 53.07200 41.49400
O  24.74800 52.75800 39.84100
C  23.95500 51.83900 40.69600
H  33.20600 53.43600 39.73000
H  33.94000 59.76600 40.84400
H  27.63300 60.49400 41.18700
H  28.49500 52.32400 40.28700
H  31.11300 51.97900 38.96100
H  30.03900 51.63900 41.57100
H  31.47800 52.63500 41.87300
H  31.64800 51.12400 41.03000
H  27.63200 52.01500 38.19100
H  29.22000 51.19400 38.15900
H  29.88600 52.11200 36.35700
H  29.65100 53.66900 37.06000
H  36.58400 54.76800 40.12900
H  36.00800 55.31200 38.53800
H  35.24000 53.90900 39.34200
H  35.98500 59.75200 41.55000
H  35.56200 59.93800 39.83600
H  37.18500 59.91200 40.27500
H  32.10900 61.89900 40.54700
H  30.01500 61.26100 42.50300
H  33.28200 61.03200 42.86700
H  31.88800 61.92800 43.43600
H  33.12600 62.57600 42.33200
H  28.50000 62.21600 40.53600
H  29.93000 62.85500 39.74300
H  30.30700 63.75500 42.42700
H  28.57300 63.65600 42.37500
H  29.42400 64.58800 41.17300
H  25.35800 60.07800 41.03100
H  24.10400 58.82300 40.99400
H  24.75800 59.33300 39.56100
H  26.14600 54.12700 38.43100
H  24.61800 50.99400 40.88000
H  23.22900 51.43900 39.98800
H  23.53700 52.28600 41.59700

