158

Mg -3.35900 16.96400 26.79100
C  -3.38800 14.96800 29.59000
C  -3.72000 19.83400 28.62500
C  -3.30900 18.73500 23.91000
C  -3.57400 13.94900 24.86300
N  -3.46900 17.26800 28.84300
C  -3.51300 16.34300 29.90200
C  -3.48300 16.99100 31.29600
C  -3.63200 18.49600 30.87100
C  -3.66300 18.56500 29.34700
C  -4.59100 19.37000 31.69700
C  -2.28300 16.59000 32.22600
C  -1.67700 17.45100 33.32700
H  -1.41400 16.87600 34.72000
N  -3.35200 19.02000 26.35900
C  -3.48300 20.05900 27.29600
C  -3.35400 21.37000 26.63400
C  -3.12300 21.05200 25.22200
C  -3.26200 19.57300 25.12100
C  -3.52500 22.75600 27.32300
C  -2.93400 22.02800 24.06500
O  -3.07000 21.61600 22.89200
C  -2.68300 23.43100 24.35700
N  -3.54300 16.35500 24.65000
C  -3.41900 17.36600 23.72600
C  -3.43200 16.78000 22.30400
C  -3.33300 15.21800 22.59700
C  -3.50600 15.10400 24.09500
C  -4.76400 17.30600 21.73300
C  -1.90400 14.84100 21.99400
C  -0.77000 15.33000 22.93000
N  -3.53100 14.93800 27.05200
C  -3.54700 13.83000 26.20800
C  -3.46600 12.52700 26.95800
C  -3.47400 12.97700 28.29200
C  -3.46500 14.39600 28.29000
C  -3.49000 11.14500 26.43400
C  -3.38300 12.56100 29.69100
O  -3.32000 11.45600 30.14000
C  -3.30900 13.75600 30.48400
C  -2.02500 13.60300 31.21400
O  -0.89300 14.05700 30.87500
O  -2.30700 13.11400 32.45200
C  -1.15000 12.96900 33.34500
H  -3.79300 20.67600 29.31700
H  -3.30000 19.22900 22.93600
H  -3.53000 13.06400 24.22300
H  -4.41700 16.71400 31.78500
H  -2.66700 18.94300 31.11100
H  -5.36200 19.90900 31.14600
H  -4.06600 20.21700 32.13700
H  -5.05900 18.84900 32.53300
H  -1.49100 16.44300 31.49100
H  -2.64700 15.68800 32.71800
H  -2.09500 18.45700 33.37200
H  -0.68100 17.69300 32.95900
H  -2.63900 23.36800 27.15100
H  -3.56800 22.56900 28.39600
H  -4.36700 23.31900 26.91800
H  -3.58100 23.86900 24.79000
H  -2.43800 23.95200 23.43100
H  -1.84500 23.57800 25.03800
H  -2.65800 17.20200 21.66300
H  -4.15200 14.66300 22.14000
H  -5.41400 16.49000 21.41600
H  -4.42100 17.83700 20.84400
H  -5.19700 18.07500 22.37200
H  -1.73000 15.37700 21.06100
H  -1.86600 13.77700 21.76000
H  -0.06000 14.51900 23.09300
H  -1.01200 15.60000 23.95800
H  -0.25500 16.17100 22.46700
H  -3.56800 11.08200 25.34800
H  -4.29500 10.55300 26.86900
H  -2.56000 10.59500 26.57900
H  -4.09300 13.67600 31.23600
H  -0.99400 13.81600 34.01300
H  -0.22800 12.73700 32.81200
H  -1.54100 12.15800 33.96000
Mg 47.49700 17.34500 29.01800
C  45.56300 16.73700 31.82600
C  50.09500 18.42600 31.13200
C  49.56700 17.64800 26.33100
C  45.07600 15.82000 27.02900
N  47.65400 17.78600 31.15500
C  46.78100 17.37100 32.13900
C  47.38800 17.56200 33.55700
C  48.68100 18.35000 33.38200
C  48.85800 18.18500 31.80600
C  48.78200 19.81300 33.89000
C  47.44500 16.19800 34.38500
C  47.19900 16.25600 35.93100
H  47.11000 17.66900 36.63000
N  49.54800 17.94700 28.76900
C  50.43200 18.39100 29.72600
C  51.67900 18.84900 29.16900
C  51.63200 18.53400 27.77300
C  50.18900 18.01100 27.50100
C  52.83100 19.47600 29.97800
C  52.68300 18.67000 26.66100
O  52.40500 18.46000 25.50700
C  54.15400 19.07200 27.01900
N  47.30700 16.83100 26.98300
C  48.28700 17.17200 26.03500
C  47.90500 16.66200 24.63200
C  46.51900 15.86500 24.94300
C  46.23800 16.19700 26.37400
C  47.75100 17.72200 23.56600
C  46.65700 14.32200 24.76100
C  46.22400 13.84600 23.38900
N  45.63900 16.56400 29.21000
C  44.71600 16.04900 28.34900
C  43.49900 15.66100 29.00600
C  43.83800 15.92500 30.36500
C  45.13700 16.52300 30.44200
C  42.18600 15.09500 28.42500
C  43.27400 15.85900 31.76500
O  42.12500 15.38700 32.00700
C  44.35200 16.29300 32.71300
C  43.91200 17.42600 33.48500
O  43.91900 18.55900 33.05300
O  43.51300 17.14200 34.71700
C  43.16100 18.14300 35.75300
H  50.92700 18.63500 31.80600
H  50.25000 17.56300 25.48300
H  44.33400 15.24200 26.47400
H  46.79700 18.24400 34.16800
H  49.47200 17.83200 33.92500
H  49.08500 20.41500 33.03400
H  49.55100 19.88700 34.65900
H  47.85800 20.16700 34.34800
H  48.45700 15.82200 34.23500
H  46.83700 15.47700 33.83800
H  47.93800 15.60900 36.40300
H  46.24800 15.75300 36.11200
H  53.58000 18.73500 30.25600
H  52.43900 19.91400 30.89600
H  53.30800 20.25000 29.37600
H  54.12100 20.14100 27.23100
H  54.69500 18.76600 26.12400
H  54.51900 18.37400 27.77300
H  48.65900 15.93100 24.34200
H  45.71800 16.30300 24.34900
H  48.44900 17.52700 22.75200
H  47.96400 18.68700 24.02500
H  46.77800 17.68900 23.07600
H  46.14300 13.74600 25.53000
H  47.71200 14.06100 24.85500
H  46.91500 13.14400 22.92200
H  46.04800 14.69500 22.72900
H  45.22700 13.41100 23.44300
H  42.25100 14.06000 28.76000
H  42.15500 15.25700 27.34800
H  41.37900 15.67700 28.87200
H  44.60100 15.45300 33.36100
H  42.20500 18.66100 35.67000
H  43.91800 18.92600 35.79200
H  43.13200 17.63300 36.71600

