158

Mg 35.45100 2.17500 29.17800
C  33.56500 3.40000 31.96400
C  38.10100 1.83100 31.28400
C  37.26700 1.20700 26.61900
C  32.85400 3.22000 27.09000
N  35.76800 2.56600 31.39200
C  34.87300 3.06500 32.30100
C  35.51100 3.03100 33.69200
C  37.05300 2.99800 33.27300
C  36.99900 2.46700 31.88200
C  37.62000 4.40400 33.34900
C  35.10600 1.79600 34.61800
C  34.66000 2.09500 36.07400
H  35.22400 3.34500 36.69900
N  37.37100 1.38300 28.96800
C  38.25900 1.34000 30.01300
C  39.52100 0.73100 29.48200
C  39.35100 0.58300 28.07900
C  37.96000 1.04500 27.78500
C  40.74700 0.42000 30.36600
C  40.28400 -0.07200 27.13000
O  39.92900 -0.31800 25.96800
C  41.62600 -0.63900 27.47000
N  35.08400 2.22800 27.14000
C  35.97600 1.66500 26.26000
C  35.54700 1.76000 24.81100
C  34.02200 2.21500 24.99000
C  33.93300 2.48800 26.51000
C  36.44300 2.51600 23.77200
C  32.90700 1.36500 24.43300
C  32.69300 -0.12700 24.88500
N  33.64500 3.05900 29.42900
C  32.69300 3.43900 28.44700
C  31.51500 3.94200 29.09400
C  31.74100 3.95000 30.45600
C  33.09000 3.44300 30.60700
C  30.20700 4.36700 28.58400
C  31.26200 4.17600 31.79600
O  30.18100 4.57800 32.19000
C  32.45800 3.92800 32.85600
C  32.78900 5.23700 33.56200
O  33.64000 5.98600 33.17900
O  31.86900 5.44000 34.59800
C  31.98200 6.74100 35.21200
H  38.91000 1.85100 32.01800
H  37.86800 0.87800 25.76900
H  32.00800 3.44200 26.43700
H  35.14200 3.88800 34.25500
H  37.57600 2.42200 34.03700
H  38.15000 4.65000 32.42900
H  38.34800 4.44400 34.15900
H  36.86000 5.14700 33.59000
H  35.86800 1.02200 34.70900
H  34.19000 1.38400 34.19700
H  35.14700 1.27200 36.59600
H  33.57300 2.10100 36.15500
H  40.81100 0.84200 31.36900
H  41.64300 0.75100 29.84100
H  40.92100 -0.65200 30.45300
H  41.61700 -1.45000 28.19800
H  42.11600 0.26800 27.82500
H  42.13000 -1.01300 26.57900
H  35.44300 0.75700 24.39500
H  33.90500 3.25100 24.67100
H  37.40300 2.82200 24.18800
H  35.95400 3.43700 23.45700
H  36.63200 1.91000 22.88600
H  32.87000 1.44300 23.34600
H  31.94500 1.76900 24.74600
H  32.46900 -0.70300 23.98700
H  31.82400 -0.18800 25.54000
H  33.64500 -0.46200 25.29600
H  29.97800 5.43000 28.51100
H  29.40100 3.83400 29.08800
H  30.13600 4.03500 27.54800
H  32.08500 3.12600 33.49400
H  31.76800 7.39200 34.36400
H  32.97200 6.85200 35.65200
H  31.17900 6.88700 35.93500
Mg 26.81100 50.50300 25.67800
C  24.98500 51.39600 28.53500
C  29.27000 49.18400 27.88900
C  29.00300 50.03900 23.13700
C  24.56200 51.91600 23.64400
N  27.08700 50.31900 27.98900
C  26.18100 50.80900 28.93600
C  26.61200 50.47400 30.35700
C  28.04700 49.78400 30.04300
C  28.11600 49.73100 28.56900
C  29.25900 50.57100 30.64600
C  25.62600 49.55200 31.06400
C  25.20700 50.10600 32.39500
H  25.19400 49.10600 33.59900
N  28.86900 49.70400 25.48700
C  29.67400 49.16900 26.54600
C  30.95200 48.76600 25.98200
C  30.92100 49.04900 24.61000
C  29.55800 49.67900 24.33100
C  32.04100 48.17200 26.81300
C  31.86400 48.83000 23.51500
O  31.76600 49.35000 22.39100
C  33.09100 48.01700 23.80800
N  26.77200 51.02800 23.64600
C  27.76700 50.72100 22.81000
C  27.22700 50.82300 21.42300
C  25.95100 51.61300 21.59300
C  25.65900 51.41100 23.07600
C  28.18400 51.53100 20.48400
C  24.73000 51.25100 20.64100
C  24.06900 49.95900 20.91900
N  25.08200 51.48200 25.99200
C  24.26800 52.07200 25.05800
C  23.14000 52.73900 25.67200
C  23.37000 52.49000 27.06200
C  24.56100 51.69800 27.20400
C  22.04900 53.39100 24.89300
C  22.88500 52.73800 28.40700
O  21.91500 53.35600 28.70600
C  23.90500 52.04000 29.38400
C  24.42900 52.99300 30.41000
O  25.44700 53.58000 30.29400
O  23.63500 52.99200 31.50700
C  24.10000 53.83300 32.62000
H  30.07100 48.83600 28.54400
H  29.53200 49.71200 22.24000
H  23.83400 52.39500 22.98600
H  26.85700 51.38500 30.90200
H  28.00900 48.76900 30.44000
H  29.04100 51.00600 31.62100
H  29.70000 51.30700 29.97400
H  30.01300 49.78300 30.65300
H  26.13600 48.62300 31.32000
H  24.79100 49.36300 30.39000
H  24.20400 50.52400 32.31000
H  25.87600 50.91700 32.68500
H  31.79300 47.98600 27.85800
H  32.87400 48.87200 26.88000
H  32.40300 47.24000 26.37900
H  33.79800 48.65900 24.33200
H  33.44100 47.54800 22.88800
H  32.94000 47.18400 24.49600
H  27.02500 49.81000 21.07400
H  26.24200 52.65600 21.47000
H  27.75000 52.37000 19.94100
H  28.39100 50.90900 19.61300
H  29.11000 51.70900 21.03100
H  25.05600 51.29600 19.60200
H  24.01900 52.04600 20.87000
H  23.00400 50.15500 21.03800
H  24.41300 49.40800 21.79400
H  24.16900 49.29400 20.06100
H  22.55100 54.31500 24.60800
H  21.18600 53.51800 25.54700
H  21.84000 52.85200 23.96900
H  23.42100 51.35100 30.07500
H  24.32100 54.86000 32.32900
H  25.02800 53.36000 32.94200
H  23.38000 53.90800 33.43400

