158

Mg 24.45500 -6.77500 47.95500
C  26.87700 -4.30300 47.12200
C  22.43800 -5.55800 45.33900
C  22.41400 -9.30500 48.60100
C  27.05400 -8.47300 49.79300
N  24.73600 -5.21700 46.28600
C  25.75700 -4.29600 46.26900
C  25.45600 -3.32700 45.16600
C  23.93200 -3.59200 44.73200
C  23.70900 -4.91700 45.48000
C  22.97100 -2.48900 45.06300
C  26.48200 -3.50400 44.00500
C  27.20600 -2.24600 43.50000
H  26.86400 -1.71600 42.11300
N  22.65900 -7.33300 47.22700
C  22.00100 -6.70900 46.12200
C  20.71500 -7.34500 46.08400
C  20.61500 -8.43800 46.97700
C  21.88500 -8.38200 47.70800
C  19.65700 -6.88200 45.07400
C  19.39800 -9.39400 47.13300
O  18.38500 -9.18200 46.45700
C  19.46800 -10.66300 47.99000
N  24.84200 -8.81600 48.77800
C  23.69900 -9.48600 49.15000
C  23.98100 -10.57200 50.21400
C  25.50300 -10.49100 50.38800
C  25.85500 -9.19600 49.62500
C  23.18000 -10.24100 51.49600
C  26.27300 -11.67700 49.88200
C  26.96800 -12.60900 50.88600
N  26.50400 -6.45900 48.49800
C  27.40600 -7.24300 49.28600
C  28.65100 -6.49700 49.40400
C  28.46800 -5.34600 48.66000
C  27.13600 -5.35300 48.10900
C  29.88700 -6.77400 50.26600
C  29.05800 -3.97600 48.28200
O  30.06800 -3.35500 48.63600
C  28.04000 -3.35800 47.24700
C  27.59600 -1.98700 47.75900
O  27.32100 -1.77200 48.94300
O  27.51800 -1.03000 46.76400
C  27.08600 0.24500 47.32000
H  21.72700 -5.24900 44.57000
H  21.69900 -10.03700 48.98200
H  27.88300 -8.85700 50.39300
H  25.59900 -2.32200 45.56400
H  23.81300 -3.68000 43.65200
H  23.38300 -1.59300 45.52800
H  22.15100 -2.90300 45.64800
H  22.60200 -2.07100 44.12600
H  25.95700 -3.92600 43.14900
H  27.22900 -4.28300 44.15800
H  28.28600 -2.39500 43.50100
H  27.01200 -1.35800 44.10200
H  19.82000 -5.82500 44.86500
H  18.69600 -7.03200 45.56600
H  19.67600 -7.41200 44.12200
H  20.42400 -11.11500 47.72500
H  18.59800 -11.28500 47.78100
H  19.55500 -10.38200 49.04000
H  23.71100 -11.53100 49.77200
H  25.63600 -10.24800 51.44300
H  22.52100 -9.38800 51.33600
H  23.75500 -10.23100 52.42300
H  22.48400 -11.07700 51.56000
H  27.01800 -11.23000 49.22400
H  25.69000 -12.42400 49.34300
H  26.24000 -13.38600 51.12100
H  27.16300 -12.05900 51.80700
H  27.85900 -13.15500 50.57800
H  30.78200 -6.68000 49.65100
H  29.99300 -7.79300 50.63900
H  30.04800 -6.08800 51.09800
H  28.40400 -3.28700 46.22200
H  26.56500 0.30800 48.27500
H  26.39900 0.62300 46.56300
H  27.90800 0.95400 47.41700
Mg 36.31400 49.49300 24.61900
C  36.26100 47.61200 27.65900
C  35.41200 52.28000 26.40300
C  36.20400 51.16500 21.65400
C  36.92000 46.53200 22.97000
N  35.78700 49.88200 26.82300
C  35.96800 48.99700 27.86900
C  35.67300 49.67900 29.21100
C  35.26900 51.12600 28.71800
C  35.47600 51.12000 27.17100
C  33.85500 51.68300 29.14300
C  36.96300 49.67300 30.10000
C  36.61500 49.38400 31.63600
H  35.19800 49.57100 32.22000
N  35.97000 51.45900 24.13300
C  35.68700 52.44600 25.01400
C  35.46400 53.64900 24.27800
C  35.76800 53.40300 22.89300
C  35.96300 51.91200 22.86600
C  35.08900 55.00700 24.86100
C  35.85300 54.39300 21.71000
O  36.13200 53.99900 20.58100
C  35.57500 55.88500 21.83800
N  36.44700 48.91200 22.67300
C  36.39800 49.79200 21.60700
C  36.64100 49.01900 20.20100
C  37.19100 47.69900 20.75000
C  36.79600 47.69300 22.20600
C  35.46800 48.99900 19.25800
C  38.73000 47.45200 20.46100
C  39.70600 48.34300 21.30400
N  36.49300 47.47200 25.18900
C  36.72500 46.35500 24.41100
C  36.75800 45.14400 25.21400
C  36.64700 45.62800 26.50900
C  36.45000 47.01300 26.48500
C  36.84600 43.69800 24.56700
C  36.51400 45.19300 27.91000
O  36.50900 44.07800 28.36500
C  36.36000 46.47900 28.73600
C  35.09800 46.36400 29.65900
O  33.92900 46.51400 29.40000
O  35.57800 45.78700 30.78100
C  34.45300 45.24800 31.64700
H  34.95100 53.18800 26.79800
H  36.13800 51.71800 20.71400
H  37.06200 45.66300 22.32500
H  34.83400 49.22800 29.74200
H  36.04900 51.84800 28.96300
H  33.38400 51.32200 30.05800
H  33.11300 51.73100 28.34600
H  33.99100 52.74000 29.37300
H  37.41600 50.65700 29.98400
H  37.68200 48.94700 29.71900
H  37.33300 50.05900 32.10300
H  36.89500 48.34200 31.78900
H  35.82300 55.70400 24.45700
H  35.28700 54.97900 25.93300
H  34.07600 55.32600 24.61400
H  36.12700 56.43400 22.60100
H  34.49400 56.01200 21.78500
H  36.01000 56.32900 20.94300
H  37.51600 49.47800 19.74100
H  36.61900 46.86300 20.34700
H  36.03400 48.93100 18.32900
H  34.91700 49.93400 19.36100
H  34.79600 48.16800 19.47300
H  38.88400 47.74700 19.42300
H  39.01100 46.40200 20.54100
H  40.45600 48.81300 20.66600
H  40.26000 47.93600 22.14900
H  39.17100 49.11700 21.85300
H  37.43100 43.64900 23.64800
H  35.83600 43.38700 24.30100
H  37.29400 43.03300 25.30600
H  37.21100 46.72400 29.37200
H  34.87500 44.56100 32.38000
H  33.74700 44.69200 31.03000
H  34.00200 46.14400 32.07500

