158

Mg 9.06900 49.01700 25.51000
C  6.80500 49.05700 28.28400
C  11.51400 49.96200 27.74800
C  11.28100 48.86700 23.03600
C  6.46700 48.52800 23.46800
N  9.00800 49.61100 27.80000
C  8.11200 49.28600 28.75900
C  8.70800 49.34600 30.12300
C  9.97400 50.24800 29.82900
C  10.26700 49.88400 28.34500
C  9.75900 51.74600 29.93900
C  9.00900 47.93400 30.74100
C  9.61600 47.92900 32.21500
H  8.82600 47.08600 33.19200
N  11.18500 49.20100 25.47300
C  12.00300 49.64600 26.45600
C  13.35400 49.67800 26.02600
C  13.33000 49.27700 24.66000
C  11.87800 49.09600 24.30000
C  14.48800 50.16800 26.92700
C  14.52900 49.10800 23.77600
O  14.43400 48.80000 22.59600
C  15.83200 49.11900 24.36100
N  8.90500 48.95400 23.44100
C  9.94700 48.69900 22.63600
C  9.36200 48.46600 21.19800
C  7.83300 48.28000 21.37300
C  7.73300 48.77700 22.83300
C  9.81500 49.47400 20.05400
C  7.28300 46.86200 21.00200
C  7.39300 45.84300 22.17300
N  7.06900 48.80900 25.74800
C  6.14900 48.47500 24.79900
C  4.80000 48.34100 25.34800
C  5.07900 48.59400 26.73900
C  6.43900 48.87000 26.93500
C  3.47000 48.23800 24.61800
C  4.41600 48.64000 28.03100
O  3.24400 48.61800 28.40400
C  5.53700 49.05100 29.01000
C  5.46800 48.18800 30.25300
O  5.79700 47.06600 30.39700
O  4.71100 48.86100 31.15900
C  4.50500 48.11900 32.39800
H  12.25900 50.14300 28.52700
H  11.99600 48.86500 22.21000
H  5.62200 48.25200 22.83400
H  8.05100 49.86100 30.82500
H  10.85000 49.99000 30.42400
H  8.70600 51.96300 29.76000
H  10.39100 52.21300 29.18400
H  10.17100 52.22300 30.82800
H  9.78900 47.51500 30.10500
H  8.22700 47.17700 30.67500
H  9.73500 48.92600 32.63900
H  10.60200 47.48400 32.08100
H  15.21400 50.76900 26.37900
H  15.05300 49.33200 27.34000
H  14.03700 50.71500 27.75500
H  16.45100 48.51400 23.69900
H  15.70000 48.60000 25.31100
H  16.20200 50.12800 24.54200
H  9.79700 47.47900 21.04000
H  7.11900 48.88300 20.81100
H  8.94900 49.73200 19.44500
H  10.59400 48.96000 19.49000
H  10.33800 50.34900 20.44000
H  7.86000 46.43800 20.18000
H  6.24900 46.89500 20.65800
H  6.36300 45.66200 22.47900
H  7.85900 46.20700 23.08800
H  7.87700 44.93600 21.81000
H  3.08600 47.24000 24.83300
H  3.59100 48.32300 23.53800
H  2.85700 49.06700 24.97100
H  5.38000 50.08300 29.32500
H  4.11100 48.71700 33.21900
H  5.40200 47.62400 32.77100
H  3.78700 47.30500 32.29500
Mg -4.84600 25.67800 26.27600
C  -3.80200 26.88100 29.53500
C  -6.73000 23.43300 27.69100
C  -5.00900 24.45600 23.11900
C  -2.29200 27.99200 24.97400
N  -5.08300 25.13300 28.39600
C  -4.63500 25.77000 29.53500
C  -5.42700 25.07900 30.75000
C  -6.12300 23.83100 30.14200
C  -6.02200 24.16300 28.63500
C  -5.56000 22.43300 30.66500
C  -6.27500 26.09700 31.52800
C  -5.98600 26.13200 33.06600
H  -5.67000 24.79800 33.82800
N  -5.77800 24.21200 25.51300
C  -6.62100 23.49100 26.25100
C  -7.23200 22.63100 25.30900
C  -6.61800 22.72000 23.98300
C  -5.73000 23.87300 24.17900
C  -8.38900 21.71300 25.69200
C  -6.89000 21.88100 22.69300
O  -6.34000 22.08300 21.62800
C  -7.79900 20.64000 22.85500
N  -3.80900 26.27000 24.24100
C  -4.16200 25.51600 23.11700
C  -3.53800 26.06000 21.88900
C  -2.79500 27.37100 22.44800
C  -2.93600 27.24700 23.97000
C  -2.44100 25.06800 21.33800
C  -3.36200 28.67600 21.98100
C  -3.26400 28.84500 20.41000
N  -3.46500 27.21600 27.00300
C  -2.52200 28.04800 26.33900
C  -1.93500 28.94100 27.36500
C  -2.43000 28.58200 28.62400
C  -3.28200 27.44500 28.33800
C  -1.03000 30.08800 27.12800
C  -2.37900 28.88100 30.02100
O  -1.84300 29.76000 30.64100
C  -3.23100 27.71300 30.67100
C  -2.34400 26.84300 31.61000
O  -1.73100 25.77900 31.36500
O  -2.38000 27.31300 32.90300
C  -1.55000 26.67500 33.97300
H  -7.39500 22.62700 28.00600
H  -5.34800 24.04400 22.16600
H  -1.55600 28.72900 24.64600
H  -4.66500 24.70600 31.43400
H  -7.19200 23.79500 30.35100
H  -4.71400 22.49900 31.34900
H  -5.07800 21.87200 29.86500
H  -6.27400 21.81500 31.20800
H  -7.31900 25.90400 31.28200
H  -5.91100 27.03000 31.09700
H  -6.95800 26.49700 33.40000
H  -5.16200 26.83000 33.21100
H  -9.25500 21.86200 25.04700
H  -8.76200 21.78100 26.71400
H  -8.13400 20.65700 25.59700
H  -8.16400 20.46800 21.84300
H  -8.73000 20.88800 23.36400
H  -7.25300 19.90500 23.44700
H  -4.30700 26.11800 21.11900
H  -1.71600 27.50900 22.36800
H  -1.51500 25.53200 21.00000
H  -2.93200 24.62900 20.46900
H  -2.29100 24.30600 22.10300
H  -2.86000 29.47800 22.52300
H  -4.42300 28.74400 22.22200
H  -2.56000 28.08600 20.06900
H  -3.02700 29.89600 20.24600
H  -4.18500 28.60400 19.88000
H  -1.38900 30.59300 26.23100
H  -0.05600 29.64200 26.92800
H  -1.06100 30.82800 27.92800
H  -4.00300 28.24500 31.22600
H  -1.04900 27.53400 34.41900
H  -0.72800 26.08400 33.57100
H  -2.14300 26.19700 34.75400

