158

Mg 17.10200 -1.53000 27.89500
C  15.78900 0.65000 30.43600
C  18.76400 -3.18600 30.39600
C  18.63300 -3.19700 25.41100
C  15.85700 0.76700 25.50300
N  17.36800 -1.13400 30.15500
C  16.62700 -0.34500 30.96100
C  16.98500 -0.52800 32.39300
C  17.98900 -1.70300 32.33600
C  18.09000 -2.02100 30.87500
C  19.47700 -1.42900 32.99100
C  15.72400 -0.76000 33.30900
C  15.75800 -0.09200 34.69800
H  17.09900 0.34500 35.32900
N  18.38300 -2.98500 27.92000
C  18.86700 -3.70200 29.05700
C  19.50000 -4.92400 28.60000
C  19.54100 -4.94100 27.16300
C  18.78200 -3.71000 26.75900
C  20.05200 -6.08300 29.49600
C  20.11600 -5.93000 26.19900
O  19.84100 -5.90200 25.01400
C  21.03600 -6.92400 26.67300
N  17.27300 -1.23700 25.71500
C  18.04600 -2.02800 24.97800
C  18.21200 -1.49100 23.54800
C  17.19300 -0.26300 23.57500
C  16.65100 -0.28200 25.00700
C  19.65400 -1.11900 23.23200
C  16.01000 -0.30400 22.55700
C  15.71500 1.09500 21.92000
N  16.01400 0.25400 27.88600
C  15.53300 1.05800 26.83900
C  14.70800 2.14100 27.27700
C  14.77500 1.96800 28.68900
C  15.59000 0.87600 29.00100
C  13.78700 2.90700 26.37700
C  14.32800 2.56900 29.94000
O  13.58600 3.52700 30.20600
C  15.00400 1.75500 31.08500
C  16.01700 2.75100 31.57900
O  16.86600 3.34400 30.91300
O  15.74100 3.04100 32.87500
C  16.26900 4.29700 33.44400
H  19.43400 -3.70600 31.08300
H  19.16300 -3.75500 24.63600
H  15.49300 1.49600 24.77600
H  17.36300 0.41800 32.78000
H  17.60900 -2.63700 32.75000
H  20.29400 -1.24300 32.29300
H  19.55000 -2.28000 33.66700
H  19.48600 -0.51600 33.58600
H  15.59200 -1.83600 33.42100
H  14.84800 -0.38200 32.78300
H  15.30300 -0.77600 35.41400
H  15.17500 0.82600 34.62300
H  19.80100 -7.08300 29.14400
H  19.70200 -6.06000 30.52900
H  21.12200 -5.93700 29.64400
H  21.85800 -6.41900 27.18000
H  21.60100 -7.36500 25.85200
H  20.64000 -7.72000 27.30300
H  17.86400 -2.27500 22.87500
H  17.75000 0.65800 23.40000
H  19.88800 -0.05500 23.25100
H  19.94200 -1.59500 22.29400
H  20.34200 -1.57300 23.94500
H  15.07000 -0.64500 22.99000
H  16.24500 -0.86300 21.65100
H  14.69000 1.35900 22.18000
H  15.86900 1.11400 20.84100
H  16.23500 1.95200 22.35100
H  13.28300 2.30300 25.62300
H  14.34400 3.68100 25.84900
H  13.12800 3.40600 27.08700
H  14.24600 1.70600 31.86700
H  16.07000 5.14700 32.79100
H  17.34300 4.27500 33.62800
H  15.74700 4.54000 34.36900
Mg 41.82900 40.70500 26.43900
C  40.97000 43.08300 29.05700
C  42.83700 38.64600 29.01600
C  43.10300 38.70900 24.09800
C  41.25300 43.11200 24.10400
N  41.89700 40.93700 28.84200
C  41.41200 41.88800 29.69200
C  41.46100 41.49500 31.17100
C  42.42700 40.22500 31.03500
C  42.35800 39.82900 29.52700
C  43.88100 40.31300 31.52700
C  40.17300 41.34600 31.88200
C  39.96300 42.23300 33.17300
H  39.24500 41.61100 34.32700
N  42.66600 38.80900 26.47800
C  43.06800 38.21000 27.69200
C  43.59800 36.87100 27.23900
C  43.64700 36.86000 25.80100
C  43.03800 38.17100 25.40800
C  43.96100 35.78500 28.24300
C  44.22100 35.88000 24.78600
O  44.11100 35.95800 23.57400
C  44.88300 34.59000 25.30600
N  42.16800 40.93300 24.41200
C  42.69700 39.97300 23.61000
C  42.42500 40.19900 22.15500
C  41.71000 41.59200 22.16000
C  41.72500 41.96200 23.62800
C  43.63500 40.01700 21.24900
C  40.28200 41.71100 21.49800
C  39.94000 42.98700 20.67100
N  41.22300 42.71400 26.55100
C  41.00400 43.52900 25.43700
C  40.48000 44.76500 25.96000
C  40.41300 44.65300 27.34300
C  40.94600 43.41400 27.68400
C  40.01100 45.93100 25.10700
C  39.97500 45.30700 28.58800
O  39.39200 46.43000 28.74800
C  40.27000 44.19400 29.71700
C  41.13800 44.76000 30.76900
O  42.34200 44.60300 30.86200
O  40.32700 45.51000 31.59800
C  41.03800 46.02400 32.77800
H  43.05600 37.84300 29.72200
H  43.54000 38.18600 23.24500
H  40.96400 43.88100 23.38500
H  41.97200 42.29700 31.70300
H  42.02000 39.48100 31.71900
H  44.70900 40.45700 30.83300
H  44.05500 39.35900 32.02500
H  43.86500 41.09500 32.28600
H  40.04900 40.30700 32.18800
H  39.27500 41.50800 31.28600
H  39.41500 43.09000 32.78200
H  40.90400 42.63300 33.55100
H  43.64400 34.82200 27.84300
H  43.50500 35.86700 29.23000
H  45.03100 35.71000 28.43400
H  44.12600 34.00100 25.82300
H  45.84500 34.61300 25.81800
H  45.15200 34.03900 24.40500
H  41.62000 39.53000 21.85000
H  42.28800 42.34800 21.62800
H  43.29400 39.33100 20.47500
H  44.51400 39.68700 21.80300
H  43.97600 40.88800 20.68900
H  39.55400 41.58300 22.29900
H  40.16500 40.80500 20.90400
H  40.79000 43.65300 20.52600
H  39.11000 43.54300 21.10800
H  39.55700 42.54100 19.75300
H  39.79900 45.65900 24.07200
H  40.77200 46.71100 25.10100
H  39.03300 46.23900 25.47600
H  39.27700 43.96500 30.10500
H  41.27300 45.18500 33.43400
H  40.31100 46.70200 33.22500
H  41.91100 46.63100 32.53900

