158

Mg 46.68800 16.84700 28.72900
C  44.64900 16.66600 31.48900
C  48.79400 18.91500 30.56900
C  48.40300 17.52300 25.97500
C  44.19400 15.27500 26.82500
N  46.66100 17.71500 30.78800
C  45.76100 17.47800 31.72100
C  46.11800 17.91500 33.11300
C  47.41600 18.81800 32.75100
C  47.62300 18.56800 31.22100
C  47.46400 20.32000 33.12300
C  46.38800 16.77700 34.07200
C  46.55400 17.06100 35.54000
H  46.29500 18.45300 36.02600
N  48.39300 18.02900 28.36000
C  49.08100 18.75000 29.21100
C  50.24400 19.33100 28.52500
C  50.13600 19.00000 27.15100
C  48.94300 18.12200 27.12700
C  51.35000 20.12700 29.20500
C  50.95300 19.34400 25.95200
O  50.70600 18.97600 24.78200
C  52.23300 20.10800 26.20700
N  46.36800 16.47600 26.73500
C  47.23900 16.79000 25.80800
C  46.89200 16.40000 24.43300
C  45.61100 15.49100 24.66200
C  45.36600 15.74800 26.16400
C  46.72300 17.67200 23.54300
C  45.74400 13.97500 24.21800
C  44.83400 13.63800 22.97000
N  44.75500 16.03100 29.01800
C  43.82800 15.49300 28.17200
C  42.70800 15.06300 28.87400
C  42.90900 15.52100 30.24500
C  44.23700 16.04100 30.22600
C  41.54500 14.40800 28.32600
C  42.43700 15.66200 31.54600
O  41.32600 15.48400 31.97000
C  43.52000 16.31900 32.47100
C  42.86000 17.47000 33.21800
O  42.64600 18.59500 32.76800
O  42.45000 17.07800 34.46500
C  42.02300 18.04900 35.42600
H  49.53100 19.41600 31.20100
H  49.01800 17.58000 25.07400
H  43.38900 14.77400 26.28300
H  45.21600 18.46500 33.38200
H  48.28900 18.41900 33.26800
H  47.44800 20.89300 32.19600
H  48.37300 20.31500 33.72400
H  46.56200 20.48900 33.71200
H  47.29900 16.28600 33.72900
H  45.59100 16.03400 34.07800
H  47.48500 16.62900 35.90600
H  45.79000 16.53900 36.11600
H  51.23000 21.14300 28.82900
H  52.28000 19.57000 29.08700
H  51.17600 20.20800 30.27800
H  51.95500 21.12500 26.48500
H  52.78700 20.03400 25.27200
H  52.76400 19.61700 27.02200
H  47.71500 15.75300 24.12700
H  44.76500 16.00000 24.20100
H  46.78800 18.44900 24.30500
H  45.71400 17.79400 23.14900
H  47.38400 17.73200 22.67900
H  45.27900 13.38300 25.00600
H  46.76200 13.73200 23.91400
H  45.45100 13.01100 22.32700
H  44.43300 14.49100 22.42200
H  44.04400 12.95300 23.27700
H  41.71400 13.33200 28.29700
H  41.38600 14.79100 27.31800
H  40.58400 14.59300 28.80500
H  43.73800 15.54500 33.20600
H  41.11300 18.49600 35.02600
H  42.79400 18.78500 35.65400
H  41.61400 17.75500 36.39300
Mg -5.84500 24.37000 25.51200
C  -4.35400 25.77000 28.47100
C  -7.64900 22.32700 27.58900
C  -6.76500 22.79700 22.80800
C  -3.72400 26.55300 23.60700
N  -6.10000 24.30500 27.76800
C  -5.42400 24.93400 28.70500
C  -5.84700 24.50800 30.17000
C  -6.76100 23.27900 29.90500
C  -6.87400 23.26800 28.31800
C  -6.30900 21.87800 30.41000
C  -6.49900 25.65500 30.93400
C  -6.10400 25.69700 32.40500
H  -5.57600 24.39600 33.02600
N  -7.05500 22.83700 25.21300
C  -7.78900 22.13900 26.18800
C  -8.71100 21.25200 25.50300
C  -8.27000 21.21100 24.14700
C  -7.32900 22.31500 24.02500
C  -9.78500 20.46800 26.29900
C  -8.90000 20.46200 23.00300
O  -8.53500 20.52200 21.83400
C  -10.00500 19.49700 23.26500
N  -5.39100 24.73700 23.54500
C  -5.89000 23.81300 22.62500
C  -5.21500 24.05900 21.26800
C  -4.36300 25.40200 21.37300
C  -4.49600 25.61300 22.94400
C  -4.50800 22.96600 20.45200
C  -4.91700 26.68600 20.58700
C  -4.03200 27.47000 19.56100
N  -4.44000 25.93900 25.89600
C  -3.60700 26.70600 25.01500
C  -2.63100 27.46000 25.73900
C  -2.85400 27.11600 27.09600
C  -4.00700 26.27400 27.14800
C  -1.60900 28.28300 25.20100
C  -2.24800 27.23000 28.39000
O  -1.20900 27.79200 28.71400
C  -3.32700 26.47800 29.40300
C  -2.48600 25.67200 30.38400
O  -1.84500 24.69100 30.03100
O  -2.58100 26.11100 31.67200
C  -1.61400 25.47400 32.57100
H  -8.21700 21.74800 28.32100
H  -6.97400 22.22100 21.90400
H  -3.09400 27.19600 22.98900
H  -4.97500 24.04400 30.63200
H  -7.79000 23.53600 30.15800
H  -5.47000 22.05100 31.08400
H  -6.00500 21.22800 29.59000
H  -7.10200 21.46300 31.03200
H  -7.58600 25.58200 30.92300
H  -6.18800 26.51400 30.34000
H  -6.90100 26.20800 32.94600
H  -5.22800 26.34500 32.40700
H  -9.33500 19.59800 26.77800
H  -10.60600 20.04400 25.72200
H  -10.17300 21.09600 27.10100
H  -9.68400 18.86900 24.09700
H  -10.27200 18.90600 22.38900
H  -10.79700 20.15100 23.63100
H  -6.08000 24.36700 20.68000
H  -3.31200 25.25900 21.12100
H  -4.30100 22.13000 21.12000
H  -3.51300 23.23400 20.09500
H  -5.13200 22.70100 19.59900
H  -5.34600 27.40100 21.28900
H  -5.79200 26.37600 20.01700
H  -4.31900 27.29500 18.52400
H  -2.99600 27.15700 19.69000
H  -4.04000 28.55500 19.66600
H  -0.82200 28.43200 25.94100
H  -1.99800 29.28700 25.02900
H  -1.23600 27.94400 24.23500
H  -3.94200 27.11800 30.03600
H  -1.60500 24.38500 32.51600
H  -1.91600 25.73600 33.58500
H  -0.60800 25.76600 32.26900

