158

Mg 54.95600 24.36300 44.17300
C  52.27000 26.27100 43.22300
C  53.37700 21.50100 43.27900
C  58.05700 22.68600 44.13900
C  56.90700 27.38000 44.50400
N  53.06200 24.00600 43.25400
C  52.03900 24.90800 43.01000
C  50.75800 24.18600 42.53200
C  51.11300 22.74000 43.08900
C  52.61700 22.71400 43.22800
C  50.34000 22.54700 44.44000
C  50.63200 24.12600 41.00600
C  49.24200 24.01500 40.44600
H  49.04100 23.73100 38.94300
N  55.58800 22.32600 43.79900
C  54.75500 21.30400 43.45700
C  55.44300 20.09900 43.51900
C  56.82100 20.40500 43.80300
C  56.86100 21.87800 43.96500
C  54.73700 18.86700 43.09000
C  57.86400 19.37500 43.90100
O  57.53800 18.23900 43.69500
C  59.27800 19.65200 44.35900
N  57.15900 24.92800 44.17900
C  58.16200 24.04600 44.23200
C  59.53300 24.71500 44.44900
C  59.21900 26.21000 44.57800
C  57.61600 26.17400 44.35000
C  60.38700 24.12800 45.55600
C  59.97800 27.05300 43.54100
C  60.69100 28.23800 44.10100
N  54.66200 26.45500 43.92000
C  55.48700 27.54100 44.23800
C  54.61500 28.68200 44.42000
C  53.31900 28.22400 43.98900
C  53.49000 26.86700 43.67000
C  54.98800 30.02900 44.90900
C  51.93700 28.63100 43.94400
O  51.36300 29.60600 44.30200
C  51.17200 27.39400 43.34400
C  50.69300 27.86700 42.03100
O  51.46000 28.27600 41.12100
O  49.32500 27.79000 41.84300
C  48.70200 28.24700 40.58200
H  52.85200 20.55200 43.40700
H  58.96600 22.08100 44.12600
H  57.50100 28.25000 44.79300
H  49.83900 24.62500 42.92000
H  50.77700 21.97800 42.38600
H  51.02200 22.24800 45.23500
H  49.63900 21.74100 44.22200
H  49.84200 23.44600 44.80200
H  51.16500 23.21700 40.72800
H  51.18900 24.93000 40.52400
H  48.73000 24.97600 40.48500
H  48.70200 23.30300 41.07100
H  54.34700 19.04700 42.08800
H  53.83500 18.82400 43.70100
H  55.25100 17.91700 43.23100
H  59.83400 20.23500 43.62500
H  59.74700 18.73600 44.72000
H  59.29600 20.18300 45.31100
H  60.09500 24.54800 43.53000
H  59.46300 26.61700 45.55900
H  60.60400 24.89400 46.30100
H  61.24600 23.57800 45.17300
H  59.67000 23.42500 45.98000
H  59.30400 27.42000 42.76800
H  60.78400 26.58300 42.97700
H  61.65800 28.34900 43.60900
H  60.86700 28.18600 45.17500
H  60.11400 29.15200 43.95700
H  55.57700 29.88100 45.81400
H  54.13400 30.69600 45.01900
H  55.58000 30.49700 44.12200
H  50.33900 27.12000 43.99100
H  48.76100 27.53100 39.76200
H  49.34900 29.08100 40.30900
H  47.66300 28.57500 40.58100
Mg 46.79300 24.24900 28.18300
C  47.64700 26.63900 30.67900
C  46.02500 22.10300 30.88300
C  46.13100 21.74600 25.95100
C  47.79600 26.33800 25.75900
N  46.57700 24.48000 30.53600
C  47.07300 25.50300 31.28500
C  46.95000 25.33100 32.79400
C  46.68700 23.75200 32.83600
C  46.38200 23.42300 31.29300
C  47.79200 22.84200 33.30000
C  45.90300 26.25600 33.49700
C  46.42700 27.34900 34.40400
H  45.58800 27.44200 35.67500
N  46.09500 22.21600 28.37100
C  45.83300 21.54700 29.50700
C  45.35000 20.25700 29.18000
C  45.12800 20.24200 27.76500
C  45.83700 21.41100 27.31400
C  44.98900 19.23100 30.20900
C  44.41300 19.23000 26.88700
O  44.33200 19.34400 25.67800
C  43.67200 18.10300 27.48200
N  47.13000 23.97200 26.14500
C  46.68500 22.92000 25.41700
C  46.75400 23.24100 23.94400
C  47.23300 24.75300 23.82100
C  47.32200 25.09100 25.32700
C  47.65100 22.25300 23.11200
C  46.17400 25.70000 23.04900
C  46.66900 26.24900 21.69800
N  47.57600 26.06300 28.15400
C  48.00300 26.81000 27.07900
C  48.51800 28.10900 27.49700
C  48.30200 28.07800 28.95100
C  47.84300 26.79800 29.29400
C  49.05400 29.16000 26.69200
C  48.59400 28.86200 30.14700
O  49.03200 29.97800 30.38400
C  48.13600 27.94200 31.38800
C  49.38800 27.65600 32.18300
O  50.21100 26.86600 31.93300
O  49.38700 28.36500 33.36000
C  50.58400 28.31200 34.26600
H  45.69300 21.44800 31.69100
H  45.76900 21.06100 25.18200
H  48.01200 27.01600 24.93100
H  47.93300 25.55800 33.20600
H  45.80700 23.46800 33.41400
H  48.31700 23.37600 34.09200
H  48.53200 22.57900 32.54400
H  47.44800 21.91400 33.75600
H  45.20400 25.67100 34.09400
H  45.40800 26.63900 32.60400
H  46.48700 28.32600 33.92500
H  47.40100 26.92500 34.64600
H  44.76100 18.24100 29.81500
H  44.17200 19.57500 30.84400
H  45.82000 19.12000 30.90600
H  43.08300 18.42000 28.34300
H  44.45700 17.40600 27.77700
H  43.02800 17.55600 26.79400
H  45.72800 23.18600 23.58100
H  48.16500 24.82500 23.26200
H  48.02700 22.73000 22.20600
H  46.95800 21.54200 22.66200
H  48.32500 21.64200 23.71200
H  46.05500 26.66300 23.54500
H  45.16900 25.29000 22.95000
H  45.75500 26.23700 21.10400
H  47.50000 25.66900 21.29700
H  46.91000 27.30800 21.78000
H  48.73600 30.03100 27.26500
H  48.47700 29.21200 25.76800
H  50.13300 29.19500 26.54400
H  47.27700 28.38000 31.89800
H  50.97200 29.33000 34.30200
H  51.22900 27.47300 34.00400
H  50.38200 28.06600 35.30800

