158

Mg 40.69700 9.82000 29.43400
C  42.28100 10.72000 32.48700
C  38.06900 8.43800 31.31500
C  39.15500 8.81200 26.56800
C  43.46600 10.84000 27.65800
N  40.26600 9.55300 31.73500
C  41.00700 10.04100 32.78100
C  40.17500 9.90500 34.07500
C  38.93200 9.10900 33.61100
C  39.09300 8.95600 32.11200
C  38.78400 7.72700 34.29100
C  39.77500 11.34600 34.59900
C  39.35200 11.52200 36.04100
H  40.36500 11.40300 37.20900
N  38.88200 8.77300 29.01300
C  37.92600 8.35700 29.93600
C  36.81200 7.70300 29.27000
C  37.01900 7.91700 27.86100
C  38.34600 8.51700 27.74500
C  35.80600 6.94200 30.00800
C  36.15200 7.54600 26.66100
O  36.44300 7.86500 25.52900
C  34.78900 6.88900 26.93500
N  41.22000 9.82700 27.40400
C  40.49000 9.29300 26.41800
C  41.13800 9.54700 25.06700
C  42.46900 10.20200 25.41000
C  42.37300 10.31700 26.91200
C  41.23000 8.41800 24.00300
C  42.81000 11.63400 24.80300
C  41.78000 12.78600 24.89200
N  42.45800 10.51000 29.92400
C  43.47100 10.89100 29.09800
C  44.61000 11.31200 29.90100
C  44.17500 11.33300 31.22200
C  42.86500 10.80500 31.20800
C  45.91300 11.86000 29.29600
C  44.55200 11.70600 32.58600
O  45.60000 12.19700 32.95000
C  43.25000 11.39400 33.46300
C  43.72400 10.48400 34.62800
O  44.07400 9.30000 34.57400
O  43.80300 11.23900 35.74300
C  44.57300 10.64900 36.85700
H  37.19700 8.18400 31.92100
H  38.72700 8.56300 25.59500
H  44.42200 10.99800 27.15400
H  40.80000 9.46700 34.85400
H  37.96100 9.55100 33.83500
H  38.11200 7.87600 35.13700
H  39.73300 7.32800 34.64900
H  38.46400 6.96000 33.58600
H  38.93700 11.72900 34.01700
H  40.53200 12.12000 34.47200
H  38.49600 10.88000 36.25100
H  38.96100 12.53400 36.14500
H  36.32600 6.40600 30.80200
H  35.58100 6.12900 29.31700
H  35.04400 7.62700 30.38000
H  34.21900 7.50000 27.63500
H  34.97600 5.90800 27.37200
H  34.33900 6.75800 25.95200
H  40.45900 10.29500 24.65800
H  43.34000 9.60100 25.14600
H  40.30000 8.46700 23.43600
H  41.36100 7.41400 24.40500
H  41.97100 8.60400 23.22500
H  42.99700 11.43700 23.74800
H  43.72500 11.94800 25.30600
H  41.30100 13.05200 23.95000
H  42.31500 13.68900 25.18600
H  41.08300 12.58900 25.70700
H  46.57600 12.12800 30.11800
H  45.67000 12.79200 28.78700
H  46.36400 11.18300 28.57000
H  42.71400 12.30200 33.74000
H  43.79100 10.12400 37.40700
H  45.09300 11.30200 37.55800
H  45.26100 9.82400 36.67500
Mg -11.40500 38.79200 41.19200
C  -9.23600 36.20000 40.37100
C  -9.51200 41.00500 39.44100
C  -13.81600 41.15800 41.67500
C  -13.65500 36.25600 42.53100
N  -9.58400 38.61800 40.03700
C  -8.91700 37.43500 39.74800
C  -7.62700 37.67700 38.82200
C  -7.81500 39.23700 38.51400
C  -8.95300 39.68000 39.38900
C  -6.58100 40.01600 38.79700
C  -7.66500 36.69600 37.67100
C  -6.39600 35.80500 37.64000
H  -5.29500 36.21000 36.62500
N  -11.56500 40.79800 40.72300
C  -10.57900 41.57400 40.12000
C  -11.01300 42.97300 40.07800
C  -12.35000 42.96100 40.52900
C  -12.60500 41.60000 41.07300
C  -10.14000 44.07300 39.42900
C  -13.19300 44.22400 40.55100
O  -12.74700 45.29800 40.17000
C  -14.53400 44.23900 41.19500
N  -13.57700 38.64200 41.72700
C  -14.26600 39.77800 41.94500
C  -15.70400 39.47600 42.61400
C  -15.62900 37.97300 42.89300
C  -14.15500 37.55700 42.38000
C  -15.92100 40.33700 43.87000
C  -16.72900 37.07600 42.22900
C  -16.66800 36.96900 40.73600
N  -11.44700 36.69400 41.52600
C  -12.36000 35.86500 42.11200
C  -11.78500 34.57300 42.28100
C  -10.60800 34.57200 41.50700
C  -10.44400 35.96800 41.10000
C  -12.37500 33.34100 43.02000
C  -9.50600 33.81700 41.05100
O  -9.26900 32.59200 41.26500
C  -8.50000 34.85800 40.29900
C  -7.29800 34.73800 41.09700
O  -6.63000 33.66800 41.25700
O  -7.00500 35.96600 41.64200
C  -5.83400 35.97000 42.53600
H  -8.98300 41.68400 38.76900
H  -14.62500 41.85500 41.90200
H  -14.33100 35.63600 43.12500
H  -6.72900 37.49900 39.41300
H  -8.19500 39.50500 37.52800
H  -5.95600 39.92700 37.90800
H  -5.99700 39.68900 39.65800
H  -6.81100 41.06400 38.99400
H  -7.62500 37.32600 36.78200
H  -8.58800 36.11900 37.62000
H  -6.66800 34.79200 37.34200
H  -5.87800 35.78600 38.59900
H  -10.51400 44.32500 38.43700
H  -9.08800 43.80100 39.52000
H  -10.44500 44.89500 40.07700
H  -15.17300 43.43500 40.82900
H  -15.05500 45.16500 40.95000
H  -14.40400 44.27800 42.27600
H  -16.59700 39.73300 42.04300
H  -15.71300 37.89500 43.97700
H  -15.01000 40.36700 44.46700
H  -16.78500 39.92700 44.39300
H  -16.25500 41.32300 43.54700
H  -17.70200 37.52100 42.43500
H  -16.62100 36.08700 42.67500
H  -17.40300 37.54100 40.17100
H  -16.59200 35.92600 40.42900
H  -15.75600 37.45300 40.38800
H  -13.36700 33.16400 42.60400
H  -12.34900 33.46800 44.10200
H  -11.84000 32.44700 42.69900
H  -8.24500 34.56800 39.27900
H  -4.96400 35.52200 42.05800
H  -6.07400 35.47100 43.47600
H  -5.47300 36.94100 42.87600

