158

Mg 53.79300 24.32000 44.44800
C  51.20500 26.78800 43.71000
C  51.60300 21.88900 43.37100
C  56.44200 22.44000 44.17400
C  55.85300 27.16400 45.33700
N  51.64500 24.36300 43.53400
C  50.79600 25.44800 43.44100
C  49.44300 24.92900 43.02300
C  49.51200 23.40700 43.41200
C  50.98300 23.14400 43.46800
C  48.79600 22.95800 44.74900
C  49.23400 25.17300 41.56400
C  47.81800 25.53300 41.27800
H  47.39800 25.36700 39.85300
N  53.99100 22.48900 43.93300
C  53.00200 21.60400 43.57400
C  53.59500 20.27600 43.38700
C  54.96300 20.42200 43.77400
C  55.18700 21.87200 43.94500
C  52.93700 19.09100 42.79600
C  55.91700 19.28300 43.85400
O  55.66500 18.11000 43.50800
C  57.23600 19.43700 44.52700
N  55.95600 24.82600 44.74700
C  56.82500 23.77000 44.60500
C  58.24000 24.25400 44.77400
C  58.05900 25.71200 45.38300
C  56.54700 25.94800 45.15000
C  58.99200 23.28000 45.70200
C  58.91500 26.82100 44.66900
C  59.40100 27.84900 45.73300
N  53.55900 26.44600 44.67500
C  54.47300 27.45700 45.06300
C  53.82700 28.74200 45.10300
C  52.57000 28.50900 44.53700
C  52.49000 27.11600 44.24400
C  54.35700 30.09500 45.52700
C  51.38800 29.14400 44.13000
O  51.02000 30.33000 44.24700
C  50.48600 28.11100 43.53400
C  50.26300 28.34200 42.04300
O  51.13600 28.41900 41.19900
O  48.95100 28.78800 41.87000
C  48.54600 28.99900 40.57800
H  50.89300 21.08500 43.16500
H  57.29000 21.75900 44.07700
H  56.43600 28.05900 45.56500
H  48.65800 25.30900 43.67600
H  49.12900 22.77100 42.61400
H  49.57600 22.81800 45.49800
H  48.30000 21.99300 44.64200
H  48.04300 23.68300 45.05800
H  49.43300 24.22700 41.06000
H  49.91200 25.89300 41.10500
H  47.69800 26.58300 41.54500
H  47.12200 25.00300 41.92800
H  53.31700 18.95100 41.78400
H  51.88500 19.35300 42.68400
H  53.10800 18.11700 43.25500
H  58.02300 19.85600 43.89900
H  57.49300 18.45400 44.92000
H  57.05400 20.09600 45.37600
H  58.87900 24.24200 43.89100
H  58.18700 25.58400 46.45800
H  59.60700 23.63100 46.53000
H  59.74700 22.79000 45.08700
H  58.28600 22.53000 46.05800
H  58.26100 27.32400 43.95700
H  59.70200 26.35800 44.07300
H  59.01400 28.81900 45.42200
H  60.48300 27.95500 45.81500
H  59.07000 27.62300 46.74700
H  53.56600 30.74600 45.89700
H  54.73600 30.63800 44.66100
H  55.16700 29.98000 46.24800
H  49.56500 28.11200 44.11600
H  49.19800 28.64600 39.77900
H  48.28200 30.04700 40.43000
H  47.62900 28.45000 40.36800
Mg -12.41400 16.80100 41.06600
C  -9.39600 15.23000 40.49500
C  -10.97400 19.78500 40.36400
C  -15.54900 18.19900 40.61100
C  -13.91800 13.66100 41.18400
N  -10.43900 17.38500 40.42900
C  -9.31800 16.64900 40.31900
C  -8.07500 17.46400 39.94800
C  -8.59500 18.91200 40.01800
C  -10.07700 18.67100 40.35700
C  -7.89100 19.78200 41.10600
C  -7.42300 16.98400 38.57900
C  -5.93000 17.32900 38.43500
H  -5.39100 17.59700 37.04600
N  -13.12100 18.70500 40.74100
C  -12.33500 19.80500 40.45200
C  -13.22000 20.97000 40.44000
C  -14.51600 20.52800 40.39900
C  -14.45500 19.06400 40.64500
C  -12.75300 22.40300 40.22200
C  -15.76300 21.48100 40.29500
O  -15.77600 22.63300 39.98600
C  -17.04800 20.97300 40.69000
N  -14.41300 16.01200 40.87800
C  -15.54800 16.81300 40.68100
C  -16.83300 15.94800 40.55400
C  -16.33700 14.54200 40.85400
C  -14.78600 14.67300 40.98700
C  -18.01700 16.39500 41.43400
C  -16.81300 13.38000 39.87700
C  -18.06400 12.51300 40.24900
N  -11.80300 14.86500 41.03800
C  -12.49200 13.67000 41.06300
C  -11.57800 12.49700 41.16700
C  -10.36900 13.14700 40.90600
C  -10.56100 14.54800 40.72500
C  -11.89500 11.07600 41.44300
C  -8.93200 12.83700 40.91100
O  -8.33300 11.82100 41.21900
C  -8.29400 14.19700 40.47500
C  -7.12000 14.40300 41.42600
O  -7.23700 14.94000 42.50800
O  -6.00000 13.99400 40.83600
C  -4.87000 14.06300 41.68200
H  -10.41100 20.70500 40.19200
H  -16.47400 18.68300 40.29000
H  -14.25000 12.63400 41.35500
H  -7.33100 17.25400 40.71600
H  -8.73200 19.31700 39.01600
H  -6.97300 19.32000 41.46900
H  -8.54600 19.85700 41.97400
H  -7.73100 20.77400 40.68300
H  -7.85900 17.42500 37.68200
H  -7.63500 15.91600 38.54100
H  -5.14100 16.66200 38.78200
H  -5.81600 18.26500 38.98200
H  -12.88100 22.59300 39.15700
H  -11.72500 22.58000 40.53800
H  -13.41600 22.99200 40.85700
H  -17.49000 20.25700 39.99800
H  -17.67500 21.85700 40.81000
H  -16.85900 20.52900 41.66800
H  -17.18700 16.00500 39.52400
H  -16.48400 14.43300 41.92800
H  -18.05700 15.90400 42.40700
H  -18.98000 16.22800 40.95100
H  -18.03100 17.48000 41.52800
H  -15.93400 12.73900 39.81000
H  -17.03300 13.82000 38.90400
H  -18.27700 12.63500 41.31100
H  -17.84700 11.53100 39.82900
H  -18.88600 12.83200 39.60900
H  -10.99400 10.59600 41.82300
H  -11.95500 10.69800 40.42300
H  -12.90500 10.88800 41.80800
H  -7.88500 14.01500 39.48100
H  -4.75800 15.03800 42.15800
H  -3.98300 13.88600 41.07400
H  -4.65500 13.24300 42.36700

