158

Mg -2.46700 17.47500 27.46500
C  -3.04900 15.25800 30.25600
C  -2.76100 20.05400 29.48500
C  -2.37400 19.32400 24.68400
C  -2.75600 14.61400 25.47700
N  -2.72600 17.56500 29.68000
C  -3.05300 16.59400 30.60400
C  -3.15000 17.26300 32.06300
C  -3.09400 18.77700 31.76300
C  -2.89900 18.83400 30.20100
C  -4.32800 19.52800 32.37900
C  -1.97300 16.75100 32.99000
C  -1.55800 17.72500 34.09000
H  -1.25800 17.05800 35.42400
N  -2.44300 19.41600 27.14400
C  -2.60000 20.35200 28.12700
C  -2.42100 21.65300 27.52000
C  -2.24100 21.43400 26.08500
C  -2.37800 20.02900 25.89300
C  -2.31600 22.87700 28.41600
C  -2.02000 22.52600 25.00900
O  -1.90100 22.22500 23.78500
C  -1.93000 23.96000 25.37100
N  -2.69400 17.03700 25.33500
C  -2.47000 18.00500 24.38800
C  -2.25200 17.46100 22.94300
C  -2.32600 15.87000 23.23600
C  -2.66900 15.79200 24.76900
C  -3.25400 18.09600 21.89400
C  -1.11400 15.09300 22.88600
C  -0.01600 15.33500 23.87700
N  -2.71400 15.42600 27.76800
C  -2.82700 14.40600 26.82900
C  -3.04900 13.08900 27.42100
C  -3.04400 13.43400 28.76400
C  -2.91600 14.83100 28.93500
C  -3.15500 11.77900 26.69700
C  -3.12300 12.84800 30.10300
O  -3.15500 11.70500 30.50600
C  -3.17400 14.00100 31.11100
C  -1.92300 13.73500 31.90800
O  -0.80100 14.19800 31.73700
O  -2.32100 13.00600 33.01300
C  -1.48600 12.75600 34.18100
H  -2.80300 20.91300 30.15800
H  -2.15600 19.95300 23.81800
H  -2.76100 13.76500 24.79000
H  -4.09300 16.89600 32.46800
H  -2.14100 19.13400 32.15400
H  -3.94100 20.26400 33.08400
H  -4.98700 18.82100 32.88400
H  -5.06300 19.93000 31.68200
H  -1.13900 16.70600 32.29000
H  -2.30200 15.75200 33.27800
H  -2.15500 18.60000 34.34700
H  -0.54800 18.00100 33.78800
H  -1.39400 23.44900 28.30900
H  -2.48900 22.72800 29.48200
H  -3.18600 23.47800 28.15200
H  -1.95600 24.60100 24.49000
H  -1.01000 24.02800 25.95200
H  -2.82900 24.16300 25.95300
H  -1.21600 17.66800 22.67400
H  -3.05100 15.45400 22.53700
H  -4.01400 17.34300 21.68700
H  -2.70500 18.49700 21.04200
H  -3.70800 19.00200 22.29400
H  -0.80700 15.44100 21.89900
H  -1.40800 14.04500 22.82800
H  0.18600 16.39800 24.00800
H  0.88100 14.82000 23.53300
H  -0.14100 14.89300 24.86600
H  -2.58600 11.13600 27.36700
H  -2.63900 11.76600 25.73600
H  -4.20400 11.48400 26.67100
H  -4.08700 13.87200 31.69100
H  -1.30600 11.68100 34.18300
H  -2.08600 13.07200 35.03400
H  -0.57300 13.34000 34.29600
Mg 15.98800 -2.08400 28.68400
C  14.84500 0.06200 31.20900
C  18.08700 -3.52300 31.16700
C  17.81500 -3.60700 26.33200
C  14.20400 -0.25300 26.32000
N  16.43000 -1.69900 30.79500
C  15.81800 -0.82100 31.63300
C  16.23600 -1.01900 33.07100
C  17.38800 -1.94500 32.98400
C  17.29100 -2.46400 31.57400
C  18.85600 -1.37400 33.41000
C  15.08800 -1.37800 33.99400
C  15.06900 -0.81800 35.46100
H  16.34600 -0.12700 36.00300
N  17.65500 -3.48500 28.78100
C  18.33900 -3.94400 29.81400
C  19.33000 -4.97000 29.46000
C  19.15600 -5.12100 28.00000
C  18.21200 -4.05000 27.65000
C  20.17400 -5.71500 30.43600
C  19.88000 -6.13900 27.07000
O  19.60700 -6.02900 25.91500
C  20.92700 -7.10200 27.54400
N  15.96000 -1.98900 26.71000
C  16.83400 -2.72100 25.90200
C  16.63300 -2.36500 24.36000
C  15.40000 -1.40600 24.38900
C  15.14700 -1.23800 25.93000
C  17.90600 -1.81400 23.68900
C  14.18800 -1.98100 23.58700
C  13.49800 -0.93400 22.68600
N  14.62100 -0.51100 28.66200
C  13.95300 0.13700 27.66400
C  13.19600 1.24800 28.20800
C  13.44800 1.20400 29.60800
C  14.37100 0.18200 29.83900
C  12.39900 2.20300 27.41000
C  13.13200 1.85800 30.93400
O  12.36300 2.77700 31.17200
C  14.05400 1.13700 32.03400
C  14.86400 2.18000 32.78600
O  16.03200 2.42500 32.61200
O  14.04800 2.76400 33.72100
C  14.68300 3.86900 34.51700
H  18.69700 -3.94100 31.97100
H  18.28700 -4.10700 25.48300
H  13.72800 0.32200 25.52300
H  16.55700 -0.03300 33.40900
H  17.31600 -2.80000 33.65500
H  19.05500 -1.90500 34.34100
H  18.71300 -0.32500 33.67000
H  19.60700 -1.45600 32.62500
H  14.89200 -2.45000 33.97300
H  14.15000 -0.97600 33.61200
H  14.88700 -1.62600 36.16900
H  14.16900 -0.23000 35.64000
H  21.11500 -6.00700 29.96900
H  19.65100 -6.63100 30.70800
H  20.41000 -5.12500 31.32100
H  20.52500 -7.86000 28.21500
H  21.74600 -6.58000 28.03900
H  21.34000 -7.64800 26.69600
H  16.32900 -3.30700 23.90400
H  15.78400 -0.44000 24.06100
H  18.63100 -1.49300 24.43600
H  17.59900 -1.07000 22.95300
H  18.34300 -2.65600 23.15200
H  13.42100 -2.43400 24.21600
H  14.44200 -2.87600 23.01900
H  13.41300 -1.44000 21.72500
H  14.18700 -0.09100 22.62700
H  12.57300 -0.58600 23.14700
H  11.66500 1.74500 26.74800
H  13.00500 2.79700 26.72600
H  11.86600 2.72300 28.20600
H  13.29200 0.79200 32.73300
H  15.19200 4.55900 33.84500
H  15.35800 3.50600 35.29200
H  13.88200 4.35500 35.07500

