158

Mg 53.96100 24.56600 43.44200
C  51.36300 26.75800 42.86200
C  52.08100 22.11900 41.87400
C  56.89600 22.73600 42.69000
C  55.89600 27.20700 44.33800
N  52.02500 24.55100 42.37300
C  51.11200 25.48800 42.39000
C  49.77200 25.05600 41.83100
C  49.91500 23.56400 41.94500
C  51.42900 23.36200 42.06900
C  49.19800 23.07800 43.25200
C  49.46800 25.46100 40.30700
C  50.49700 24.98000 39.24600
H  50.85600 25.80100 37.98700
N  54.42600 22.59400 42.61100
C  53.46500 21.76400 42.04700
C  54.06900 20.56200 41.69000
C  55.46000 20.67900 42.00800
C  55.68000 22.04700 42.45200
C  53.33900 19.40400 41.10000
C  56.50300 19.55800 41.82000
O  56.14800 18.48700 41.33000
C  58.00400 19.59700 42.19800
N  56.13600 24.98000 43.35200
C  57.09800 24.04500 43.15600
C  58.51500 24.64600 43.33500
C  58.17700 26.07900 43.84200
C  56.65400 26.10100 43.87000
C  59.31000 23.76800 44.39600
C  58.86300 27.24300 43.07500
C  59.84400 28.33300 43.66700
N  53.66000 26.51600 43.82700
C  54.51800 27.50000 44.27700
C  53.80800 28.72500 44.49400
C  52.54800 28.44900 44.00300
C  52.55900 27.10700 43.48200
C  54.23100 30.01000 45.07600
C  51.26000 29.03500 43.68700
O  50.74100 30.15200 43.99800
C  50.47100 27.99500 42.92200
C  50.24000 28.50700 41.51600
O  51.10800 28.64700 40.64500
O  48.84900 28.72100 41.25800
C  48.42500 28.86800 39.89400
H  51.36000 21.32300 41.67700
H  57.80600 22.15300 42.53200
H  56.35100 28.12400 44.71700
H  48.95200 25.47500 42.41500
H  49.59900 23.08800 41.01600
H  48.96100 22.01500 43.21100
H  48.28400 23.64000 43.44400
H  49.90300 23.10000 44.08300
H  49.37700 26.54700 40.29900
H  48.50300 25.10500 39.94500
H  50.02000 24.11300 38.78900
H  51.50500 24.88700 39.65000
H  53.71200 18.52700 41.62900
H  53.58600 19.20700 40.05600
H  52.29700 19.32300 41.40900
H  58.03300 20.08900 43.17000
H  58.46700 20.29200 41.49800
H  58.44600 18.60100 42.19000
H  58.91100 24.57100 42.32200
H  58.51300 26.23400 44.86700
H  59.67700 22.80000 44.05200
H  58.71900 23.84100 45.30800
H  60.23600 24.27000 44.67700
H  58.06300 27.74200 42.52800
H  59.35800 26.67700 42.28600
H  60.51900 27.92500 44.42000
H  59.21400 29.12000 44.08000
H  60.48100 28.82000 42.92900
H  53.91900 30.17500 46.10700
H  53.74900 30.75900 44.44800
H  55.28100 30.29500 45.01200
H  49.53300 27.84400 43.45700
H  48.04600 29.87900 39.74400
H  47.69000 28.07900 39.73600
H  49.21500 28.73100 39.15600
Mg 27.12500 49.92800 26.86100
C  25.09900 51.07000 29.49200
C  29.50400 49.12700 29.19000
C  29.03800 49.25500 24.27100
C  24.72900 51.45000 24.67400
N  27.13800 49.98500 29.12100
C  26.27900 50.54100 29.98700
C  26.77400 50.31200 31.51000
C  28.19900 49.75300 31.35000
C  28.31000 49.66300 29.75800
C  29.40500 50.54000 32.03500
C  25.80100 49.43200 32.32900
C  25.59200 49.86100 33.78900
H  24.94300 48.75000 34.70400
N  28.99700 49.27400 26.77100
C  29.87200 48.98600 27.79800
C  31.08600 48.49200 27.22600
C  31.03200 48.76100 25.87200
C  29.62500 49.10000 25.56200
C  32.18200 48.12500 28.12000
C  32.14500 48.61900 24.83500
O  31.99900 48.87600 23.66600
C  33.46900 48.10700 25.28300
N  26.98800 50.42800 24.76300
C  27.83300 49.87100 23.90400
C  27.42000 50.09300 22.48300
C  26.01100 50.60500 22.60200
C  25.91300 50.87800 24.09900
C  28.39000 51.03900 21.66800
C  24.82600 49.61600 22.02900
C  24.59600 48.27000 22.85100
N  25.29900 51.04200 27.00500
C  24.43300 51.53100 26.02300
C  23.32200 52.27400 26.67000
C  23.56000 52.08300 28.00900
C  24.75900 51.30200 28.15700
C  22.24000 53.12400 26.12200
C  23.01000 52.38600 29.28300
O  21.92900 53.01500 29.52600
C  23.93300 51.79800 30.31400
C  24.47000 52.96300 31.08800
O  25.56500 53.47600 30.96900
O  23.57300 53.31200 32.08400
C  24.03200 53.90400 33.31300
H  30.14100 48.69500 29.96500
H  29.71400 48.96400 23.46400
H  24.03200 51.97200 24.01500
H  26.91800 51.29700 31.95400
H  28.33900 48.77100 31.80200
H  29.00700 51.47500 32.43100
H  30.14300 50.67000 31.24400
H  29.89600 49.94500 32.80500
H  26.04600 48.37400 32.23600
H  24.85800 49.49000 31.78600
H  24.92000 50.71900 33.80500
H  26.57600 50.12000 34.18100
H  31.85700 47.85800 29.12500
H  32.76600 49.02900 28.29100
H  32.83300 47.32200 27.77400
H  34.20300 48.49400 24.57600
H  33.58800 47.02700 25.37200
H  33.73600 48.50000 26.26400
H  27.40900 49.11800 21.99600
H  25.84800 51.62700 22.26300
H  27.95600 52.03800 21.62300
H  28.59500 50.57200 20.70500
H  29.30200 50.97700 22.26100
H  24.99500 49.42600 20.96900
H  23.89500 50.18200 22.05400
H  24.96300 48.40700 23.86800
H  25.04900 47.34500 22.49500
H  23.52800 48.06600 22.91900
H  22.48000 53.31400 25.07500
H  22.15000 54.03700 26.71100
H  21.35800 52.50000 26.26400
H  23.32800 51.15700 30.95500
H  25.08700 53.68200 33.47500
H  23.42700 53.56600 34.15400
H  23.82600 54.97200 33.36500

