158

Mg -11.56500 38.45300 41.15700
C  -9.76500 35.57600 40.25800
C  -9.10400 40.41900 39.71800
C  -13.73700 40.97700 41.17100
C  -13.93500 36.31300 42.57900
N  -9.65400 37.96900 39.98000
C  -9.12600 36.77100 39.82800
C  -7.70800 36.82100 39.20600
C  -7.49600 38.42100 39.11600
C  -8.77900 39.01300 39.74300
C  -6.37000 38.88600 40.11100
C  -7.55300 36.10400 37.87100
C  -6.31300 35.18600 37.67500
H  -5.16000 35.60500 36.78700
N  -11.43300 40.44700 40.51200
C  -10.33100 41.06800 40.00300
C  -10.58600 42.49100 39.75400
C  -11.95600 42.68600 40.02700
C  -12.45300 41.37000 40.64300
C  -9.57200 43.30300 38.99400
C  -12.75400 43.93800 39.69600
O  -12.25500 44.84600 39.14400
C  -14.18600 43.95700 39.85800
N  -13.57800 38.56600 41.67100
C  -14.20400 39.74900 41.67300
C  -15.59700 39.64500 42.26300
C  -15.58900 38.23600 42.88200
C  -14.26900 37.62500 42.33400
C  -16.08600 40.70000 43.35000
C  -16.85800 37.39500 42.47000
C  -16.66400 36.47500 41.21100
N  -11.83400 36.33800 41.46000
C  -12.79500 35.62000 42.12500
C  -12.43900 34.21900 42.07100
C  -11.30200 34.16800 41.29100
C  -10.98300 35.46800 40.95600
C  -13.25100 33.15900 42.70000
C  -10.33600 33.31400 40.66000
O  -10.25000 32.12100 40.58900
C  -9.22900 34.18400 40.03200
C  -7.91800 33.81600 40.74900
O  -7.26600 32.86400 40.44000
O  -7.68800 34.69700 41.79300
C  -6.47800 34.40400 42.55400
H  -8.16700 40.86100 39.37100
H  -14.53900 41.71200 41.27100
H  -14.64100 35.65300 43.08700
H  -7.01500 36.27300 39.84500
H  -7.35700 38.74700 38.08500
H  -5.54900 38.19000 39.94100
H  -6.74900 38.96400 41.13000
H  -5.95600 39.86700 39.87600
H  -7.57800 36.86600 37.09200
H  -8.44100 35.53800 37.59200
H  -6.68900 34.21300 37.36000
H  -5.83600 35.00500 38.63800
H  -9.98800 43.59200 38.02900
H  -8.68500 42.69000 38.83500
H  -9.24500 44.19600 39.52800
H  -14.67500 43.26500 39.17300
H  -14.55100 44.88900 39.42600
H  -14.44400 43.83900 40.91000
H  -16.24100 39.63900 41.38400
H  -15.39900 38.15200 43.95200
H  -17.03000 41.15600 43.05300
H  -15.32400 41.47800 43.39500
H  -16.21200 40.28800 44.35100
H  -17.70800 38.06300 42.33000
H  -17.15100 36.75400 43.30100
H  -15.91100 36.77100 40.48100
H  -17.62800 36.22400 40.77000
H  -16.33900 35.52400 41.63300
H  -12.71800 32.21400 42.80100
H  -14.22600 32.97500 42.25000
H  -13.55200 33.51900 43.68300
H  -9.06500 34.01100 38.96800
H  -6.80100 33.69600 43.31800
H  -6.13700 35.35100 42.97200
H  -5.63500 33.98800 42.00200
Mg -5.44800 25.36900 26.06600
C  -4.41100 26.78500 29.07200
C  -7.63300 23.28400 28.08700
C  -6.14400 23.45800 23.31900
C  -3.08100 27.01700 24.25300
N  -5.78600 24.99500 28.32900
C  -5.34600 25.82900 29.32800
C  -5.91900 25.34000 30.70300
C  -6.82600 24.16900 30.38700
C  -6.82800 24.20800 28.81200
C  -6.22900 22.82000 30.82000
C  -6.61700 26.59900 31.30500
C  -6.74400 26.54900 32.83300
H  -6.07100 25.37200 33.62800
N  -6.76200 23.61400 25.72500
C  -7.48600 22.88800 26.70600
C  -8.28300 21.85400 25.98200
C  -7.88700 22.00500 24.61200
C  -6.98300 23.09500 24.50200
C  -9.34700 20.97300 26.60700
C  -8.42500 21.20700 23.44400
O  -8.17100 21.50900 22.30300
C  -9.28200 20.05000 23.69600
N  -4.74200 25.33400 24.01800
C  -5.18400 24.44200 23.11500
C  -4.36500 24.50100 21.80800
C  -3.54700 25.86000 21.93800
C  -3.82400 26.16700 23.49100
C  -3.54100 23.33000 21.29500
C  -4.03700 27.10900 21.11500
C  -3.03700 27.67000 19.99000
N  -4.04300 26.72900 26.47800
C  -3.11600 27.36200 25.60800
C  -2.22700 28.24400 26.43600
C  -2.69100 28.05700 27.78300
C  -3.80500 27.10500 27.74300
C  -1.05400 29.06800 26.07200
C  -2.52600 28.43000 29.25800
O  -1.74400 29.22000 29.67800
C  -3.55900 27.57800 30.11900
C  -2.74900 26.68000 31.01400
O  -2.07000 25.69300 30.70100
O  -2.71200 27.31800 32.23800
C  -1.64000 26.80700 33.05900
H  -8.29500 22.57100 28.58400
H  -6.28500 22.76600 22.48600
H  -2.39900 27.62700 23.65800
H  -5.02500 25.25900 31.32100
H  -7.84400 24.34100 30.73500
H  -6.15200 22.07400 30.02900
H  -6.83000 22.47800 31.66300
H  -5.16900 22.91000 31.05800
H  -7.61500 26.57200 30.86800
H  -6.09400 27.50100 30.98800
H  -7.80200 26.63600 33.08100
H  -6.22200 27.42800 33.21200
H  -9.07400 19.93600 26.41500
H  -10.36100 21.22800 26.29800
H  -9.25900 21.04700 27.69000
H  -8.85600 19.20100 24.23000
H  -9.67000 19.64700 22.76100
H  -10.13600 20.46900 24.22800
H  -5.07600 24.73500 21.01600
H  -2.46600 25.77500 21.82400
H  -2.54800 23.75100 21.13300
H  -4.02400 22.88100 20.42700
H  -3.51200 22.52000 22.02400
H  -4.31700 27.90800 21.80200
H  -5.01100 26.83700 20.70700
H  -2.81200 28.71200 20.21700
H  -3.57100 27.78300 19.04600
H  -2.03300 27.26200 20.10100
H  -1.32200 30.09100 25.80900
H  -0.47900 28.59500 25.27600
H  -0.35300 29.01100 26.90500
H  -4.18800 28.18700 30.76800
H  -1.68100 27.19800 34.07500
H  -0.67800 26.87600 32.55100
H  -1.79600 25.73900 33.21100

