158

Mg 2.89400 -2.75800 43.71000
C  6.06100 -1.10800 43.17700
C  1.44600 -0.27900 42.04800
C  0.18800 -4.59600 43.63100
C  4.82700 -5.48400 45.05800
N  3.70300 -1.07900 42.67500
C  4.93000 -0.56300 42.49600
C  5.03000 0.76100 41.80800
C  3.52900 1.12800 41.72500
C  2.82900 -0.09800 42.23800
C  3.18900 2.45200 42.44400
C  5.86200 0.61200 40.43600
C  6.89200 1.78500 40.12400
H  6.49400 2.86000 39.11900
N  1.04500 -2.46300 42.89000
C  0.58800 -1.31700 42.31500
C  -0.77800 -1.46700 41.98600
C  -1.20100 -2.73000 42.47500
C  0.02000 -3.26700 43.08800
C  -1.56300 -0.42300 41.28100
C  -2.63200 -3.30800 42.39700
O  -3.51800 -2.67500 41.78400
C  -3.00000 -4.65100 43.08500
N  2.60900 -4.81700 44.23000
C  1.30000 -5.26100 44.13800
C  1.21600 -6.74900 44.66900
C  2.74300 -7.03100 45.02700
C  3.44200 -5.69700 44.77100
C  0.21300 -6.92000 45.81800
C  3.34000 -8.21000 44.23300
C  4.07400 -9.29900 45.02600
N  5.03400 -3.17100 44.23600
C  5.60400 -4.31200 44.70800
C  7.03900 -3.97900 44.97000
C  7.23600 -2.74300 44.40800
C  6.00100 -2.27000 43.94800
C  7.94300 -4.87900 45.77100
C  8.22200 -1.73900 44.17400
O  9.44300 -1.76000 44.36000
C  7.49300 -0.67500 43.26900
C  7.69300 0.59600 44.01600
O  7.21800 0.83500 45.15000
O  8.34400 1.55900 43.22200
C  8.26000 2.95900 43.77800
H  0.89900 0.58300 41.66000
H  -0.71500 -5.21000 43.62900
H  5.34100 -6.40800 45.33200
H  5.45100 1.53900 42.44500
H  3.04000 1.26200 40.76000
H  3.89300 3.24400 42.19000
H  3.19300 2.38400 43.53200
H  2.20000 2.73100 42.07900
H  5.20300 0.66300 39.56900
H  6.21900 -0.40300 40.26500
H  7.85600 1.38400 39.81100
H  6.98600 2.32800 41.06500
H  -0.85700 0.22800 40.76600
H  -2.28700 0.04800 41.94500
H  -2.19900 -0.95100 40.57000
H  -2.59900 -5.46900 42.48700
H  -4.08700 -4.71500 43.11500
H  -2.77900 -4.78000 44.14500
H  0.93400 -7.25000 43.74300
H  2.82100 -7.20900 46.10000
H  -0.29100 -7.88300 45.90400
H  -0.47200 -6.07600 45.73900
H  0.62500 -6.73800 46.81100
H  4.09900 -7.83100 43.54900
H  2.54100 -8.71300 43.68900
H  4.01500 -9.09000 46.09400
H  5.13800 -9.29100 44.78900
H  3.62600 -10.27900 44.86100
H  7.93900 -5.91100 45.41900
H  7.68700 -4.89500 46.83100
H  8.98300 -4.55900 45.71100
H  7.90900 -0.69300 42.26200
H  9.25400 3.36700 43.59600
H  8.14700 3.07800 44.85500
H  7.36900 3.42200 43.35200
Mg 48.17300 16.72500 28.92000
C  46.23100 16.39900 31.93400
C  50.29000 18.52800 30.63800
C  49.48500 17.48700 26.08500
C  45.41400 15.27300 27.19800
N  48.24200 17.38900 31.00700
C  47.45400 17.03500 32.07700
C  48.01200 17.56000 33.44800
C  49.11300 18.56700 32.84900
C  49.19800 18.16700 31.40000
C  48.83600 20.07200 32.97600
C  48.62700 16.47300 34.38000
C  48.16200 16.48600 35.89800
H  47.76000 17.84700 36.54200
N  49.73900 17.71800 28.44600
C  50.59400 18.32000 29.29500
C  51.77200 18.75900 28.63300
C  51.56900 18.49900 27.30000
C  50.22200 17.86300 27.22600
C  53.07400 19.11400 29.35400
C  52.49900 18.84100 26.12400
O  52.25400 18.51400 25.00800
C  53.81700 19.44600 26.26400
N  47.48200 16.53700 26.90400
C  48.27500 16.86100 25.86500
C  47.72600 16.46800 24.46000
C  46.47500 15.60800 24.92200
C  46.46800 15.80300 26.42900
C  47.34900 17.62900 23.70000
C  46.47200 14.10500 24.51500
C  45.85800 13.66600 23.13200
N  46.20200 15.91500 29.41900
C  45.20700 15.42300 28.56800
C  44.08300 15.01300 29.42700
C  44.46800 15.29400 30.70400
C  45.73100 15.82300 30.68800
C  42.70900 14.53400 28.97600
C  44.05100 15.27100 32.12600
O  43.03700 14.88400 32.64300
C  45.14600 15.97100 32.92300
C  44.49100 17.04500 33.69300
O  44.24200 18.11200 33.19000
O  44.01000 16.56600 34.95600
C  43.16200 17.53600 35.73800
H  51.00700 19.12500 31.20600
H  50.04200 17.73100 25.17700
H  44.56500 14.72000 26.79000
H  47.22700 18.16400 33.90200
H  50.09100 18.50700 33.32600
H  49.59200 20.58800 33.56900
H  47.87800 20.20900 33.47700
H  48.85700 20.46500 31.96000
H  49.71200 16.57500 34.35700
H  48.38300 15.52200 33.90700
H  48.91500 16.02300 36.53700
H  47.27400 15.85800 35.96800
H  53.87200 18.43200 29.06000
H  52.98800 19.01900 30.43600
H  53.37700 20.14100 29.14500
H  53.71700 20.25500 26.98700
H  54.20000 19.67100 25.26800
H  54.61400 18.77600 26.58700
H  48.60800 15.97300 24.05400
H  45.56000 16.06700 24.54800
H  46.34100 17.56900 23.29100
H  48.03600 17.67800 22.85400
H  47.47900 18.55300 24.26400
H  46.16900 13.59500 25.42900
H  47.54500 13.94400 24.41800
H  46.50700 13.08300 22.47900
H  45.35100 14.51000 22.66600
H  45.06400 12.93400 23.28000
H  42.25700 15.21100 28.25100
H  42.06500 14.40700 29.84700
H  42.75400 13.54000 28.53200
H  45.81600 15.34300 33.51100
H  42.12400 17.37400 35.44600
H  43.45700 18.56900 35.55500
H  43.14700 17.28500 36.79900

