158

Mg 44.16200 4.78000 46.53500
C  42.37600 7.81300 46.46200
C  41.17100 3.24900 45.47900
C  45.89500 2.01100 45.52300
C  47.09100 6.56400 46.64400
N  42.05400 5.46200 46.14500
C  41.61400 6.72800 46.11000
C  40.26300 6.83100 45.42400
C  39.75700 5.35700 45.65400
C  41.06700 4.60600 45.81200
C  38.51700 5.01400 46.68200
C  40.32200 7.47000 43.90800
C  39.39700 6.90300 42.84000
H  39.03700 7.83700 41.62800
N  43.62300 2.87800 45.73500
C  42.35600 2.41600 45.42400
C  42.48500 1.01900 45.02200
C  43.82800 0.66600 45.06200
C  44.54500 1.84300 45.45800
C  41.26500 0.20800 44.59000
C  44.38500 -0.74400 44.76400
O  43.52800 -1.62600 44.50500
C  45.78200 -1.11600 44.60600
N  46.18400 4.33800 46.04500
C  46.67700 3.09100 45.90000
C  48.20500 3.00400 45.80400
C  48.56500 4.48100 46.12000
C  47.23500 5.19500 46.31600
C  48.75200 1.91100 46.71400
C  49.43500 5.14900 45.06600
C  50.89700 5.32400 45.49600
N  44.68200 6.70900 46.82500
C  45.88400 7.29800 46.81700
C  45.67500 8.73300 47.15100
C  44.33000 8.90600 47.05800
C  43.76000 7.69000 46.75100
C  46.68500 9.81100 47.11400
C  43.35500 9.97100 46.94100
O  43.47300 11.21800 47.10800
C  42.03100 9.32200 46.58900
C  41.07700 9.53100 47.76500
O  40.67600 8.62700 48.49600
O  40.68500 10.82900 47.75900
C  39.33300 11.07200 48.28500
H  40.20300 2.81300 45.22400
H  46.56800 1.16500 45.37100
H  48.03000 7.11100 46.75200
H  39.55600 7.38600 46.04200
H  39.38400 4.95400 44.71300
H  37.66000 4.75000 46.06200
H  38.36600 5.95400 47.21300
H  38.69900 4.14000 47.30700
H  41.36300 7.35500 43.60500
H  40.01400 8.51600 43.88100
H  38.54200 6.36700 43.25300
H  39.89800 6.12200 42.26800
H  41.39900 -0.04600 43.53900
H  40.29900 0.70300 44.68600
H  41.21600 -0.66600 45.24000
H  45.73400 -2.14000 44.23500
H  46.30600 -1.09500 45.56200
H  46.15800 -0.43700 43.84100
H  48.50400 2.77200 44.78100
H  49.14300 4.44700 47.04400
H  48.96300 2.26700 47.72200
H  49.58800 1.39200 46.24600
H  47.96300 1.20300 46.96800
H  49.02100 6.13700 44.86700
H  49.40700 4.51500 44.17900
H  51.13600 4.83200 46.43900
H  50.98700 6.40900 45.55300
H  51.64200 5.01900 44.76100
H  47.70500 9.42900 47.09200
H  46.51600 10.55600 47.89100
H  46.56900 10.28300 46.13900
H  41.47300 9.74400 45.75300
H  39.19000 12.09300 48.63700
H  39.17400 10.44600 49.16300
H  38.67900 10.66500 47.51400
Mg 36.48900 50.03400 24.67100
C  36.61600 48.21100 27.75900
C  34.55600 52.44900 26.45500
C  35.62300 51.45900 21.77900
C  37.87400 47.27500 23.05600
N  35.64500 50.21400 26.91700
C  35.89100 49.43800 27.97200
C  35.44300 49.92100 29.30500
C  34.56900 51.23200 28.87800
C  34.89900 51.31200 27.30800
C  33.07700 51.46000 29.16100
C  36.59500 50.28600 30.33400
C  36.65100 49.65600 31.70900
H  35.25500 49.45100 32.26900
N  35.37400 51.77500 24.21400
C  34.67200 52.63300 25.07300
C  34.23900 53.75900 24.26400
C  34.52900 53.52900 22.86800
C  35.14500 52.16500 22.87400
C  33.65600 54.90800 24.94800
C  34.25800 54.38300 21.62300
O  34.59400 54.06900 20.46600
C  33.60500 55.81800 21.74800
N  36.76200 49.46000 22.68300
C  36.44100 50.31100 21.67200
C  36.98400 49.66900 20.34200
C  37.93200 48.49200 20.79500
C  37.56800 48.36800 22.26500
C  35.73800 49.32200 19.44300
C  39.47200 48.58600 20.28200
C  40.50800 49.03300 21.38000
N  37.18100 48.12400 25.24100
C  37.70400 47.14200 24.46600
C  38.10000 46.03600 25.23000
C  37.72000 46.38800 26.54900
C  37.13000 47.69200 26.50200
C  38.67700 44.71600 24.78700
C  37.72000 45.85700 27.91200
O  38.09700 44.76200 28.40000
C  37.05300 47.08200 28.78900
C  36.02100 46.65800 29.73900
O  34.83000 46.72300 29.56000
O  36.63400 45.92500 30.74500
C  35.75300 45.31900 31.80000
H  34.13200 53.25900 27.05300
H  35.42200 51.91300 20.80600
H  38.40700 46.43100 22.61400
H  34.70700 49.22800 29.71200
H  35.03200 52.04700 29.43500
H  32.79300 50.54300 29.67600
H  32.50200 51.54200 28.23900
H  32.91300 52.29600 29.84100
H  36.60000 51.35900 30.52600
H  37.56000 50.09800 29.86400
H  37.28800 50.14200 32.44800
H  37.12500 48.67400 31.68200
H  34.09300 55.86500 24.66300
H  33.98800 54.92800 25.98600
H  32.57200 54.84800 24.85700
H  34.26400 56.42700 22.36700
H  32.61600 55.74600 22.19900
H  33.49900 56.28200 20.76700
H  37.62900 50.37100 19.81400
H  37.43100 47.57600 20.48200
H  34.78000 49.38000 19.96100
H  35.80800 48.26700 19.18000
H  35.66600 49.87700 18.50800
H  39.57400 49.38700 19.54900
H  39.80100 47.65600 19.81900
H  41.40000 48.47000 21.10300
H  40.20100 48.86600 22.41200
H  40.73500 50.09100 21.24800
H  38.41200 43.88400 25.44000
H  39.74300 44.86500 24.61600
H  38.31900 44.32700 23.83400
H  37.88700 47.37300 29.42700
H  35.46700 44.33000 31.44200
H  34.87700 45.92400 32.03600
H  36.41300 45.33200 32.66800

