158

Mg 9.03400 3.68300 27.15000
C  10.52000 2.19700 30.13100
C  7.00600 5.44000 29.16800
C  7.63500 4.83300 24.36800
C  10.75300 1.21600 25.25900
N  8.68200 3.65900 29.40900
C  9.47400 3.11600 30.42000
C  9.06800 3.61800 31.78600
C  7.86800 4.55400 31.42600
C  7.80300 4.53200 29.88000
C  6.47200 4.25500 32.09900
C  10.19500 4.42000 32.44800
C  9.92000 4.69000 33.90500
H  10.98000 4.30100 35.00500
N  7.56400 4.97500 26.78300
C  6.78100 5.61300 27.82000
C  5.95800 6.57900 27.10600
C  6.13400 6.48000 25.73700
C  7.11600 5.35900 25.56800
C  4.93700 7.45200 27.88900
C  5.51800 7.28800 24.66300
O  5.77600 7.14100 23.46300
C  4.48300 8.33500 25.07000
N  9.26900 3.17700 25.05000
C  8.57500 3.82600 24.13300
C  8.96300 3.31600 22.75200
C  10.08400 2.20500 23.02400
C  10.12000 2.20600 24.49000
C  7.66800 2.70800 22.03000
C  11.47500 2.41100 22.37000
C  12.63400 3.02300 23.10500
N  10.29800 2.09800 27.58100
C  10.89900 1.16500 26.67800
C  11.67100 0.19500 27.44600
C  11.58800 0.61600 28.75900
C  10.72900 1.72000 28.79500
C  12.27200 -1.06500 26.83100
C  12.04300 0.36100 30.06100
O  12.84300 -0.51400 30.43600
C  11.34900 1.37500 30.99100
C  10.68700 0.68000 32.11000
O  9.67100 -0.03400 31.97400
O  11.18500 1.14300 33.27300
C  10.68300 0.49600 34.51000
H  6.45400 6.05500 29.88200
H  7.27000 5.07500 23.36800
H  11.29800 0.46200 24.68800
H  8.87100 2.79700 32.47500
H  8.12300 5.56300 31.74800
H  6.70700 3.92700 33.11200
H  5.91700 3.43100 31.65200
H  5.69500 5.02000 32.10600
H  10.31600 5.36700 31.92300
H  11.11300 3.83300 32.46800
H  8.98000 4.18800 34.13400
H  9.68000 5.75300 33.91000
H  5.26200 8.48800 27.79000
H  4.99800 7.18700 28.94500
H  3.90500 7.26400 27.59100
H  3.52800 7.86600 25.30800
H  4.38700 8.99800 24.21000
H  4.96800 8.98500 25.79900
H  9.36300 4.18500 22.22900
H  9.68600 1.28600 22.59400
H  6.86400 2.77600 22.76300
H  7.68800 1.63400 21.84400
H  7.43800 3.19200 21.08100
H  11.37600 3.18000 21.60400
H  11.80600 1.45600 21.96200
H  13.59100 2.78500 22.64000
H  12.62200 2.57200 24.09700
H  12.47600 4.10100 23.13000
H  13.33600 -0.92800 26.63600
H  11.72200 -1.50200 25.99700
H  12.18500 -1.86400 27.56800
H  12.16300 1.93800 31.44800
H  9.84300 -0.19100 34.40200
H  10.65900 1.30700 35.23700
H  11.49800 -0.15300 34.83000
Mg 9.17200 49.36600 24.79500
C  7.16100 49.51200 27.54100
C  12.02200 50.07300 26.73200
C  11.25600 48.87200 22.07400
C  6.45500 48.82600 22.70500
N  9.49500 49.94200 26.84700
C  8.54000 49.75700 27.86700
C  9.19500 49.94500 29.18300
C  10.52800 50.57900 28.79100
C  10.74200 50.12900 27.30700
C  10.68600 52.10600 29.10700
C  9.32600 48.68800 30.08700
C  8.74100 48.97200 31.47200
H  8.60300 47.78300 32.44800
N  11.31900 49.51400 24.43300
C  12.32100 49.67100 25.40300
C  13.65800 49.71000 24.68900
C  13.41600 49.47900 23.34000
C  11.94500 49.32800 23.23100
C  14.96600 49.92400 25.43200
C  14.35800 49.41300 22.26300
O  14.01700 49.35900 21.12600
C  15.80700 49.52900 22.47100
N  8.94900 49.20000 22.59900
C  9.92300 48.84000 21.74000
C  9.41000 48.35300 20.40900
C  7.83400 48.27100 20.63700
C  7.72600 48.73400 22.13100
C  9.82300 49.21100 19.19300
C  7.21800 46.95200 20.29200
C  7.53100 45.71700 21.09600
N  7.19400 49.19300 25.01500
C  6.20200 48.98900 24.11300
C  4.87000 48.80300 24.82400
C  5.18600 49.12900 26.19300
C  6.61000 49.29600 26.24200
C  3.60200 48.42000 24.17300
C  4.61600 49.30200 27.54100
O  3.46300 49.20900 27.98400
C  5.88100 49.43300 28.43100
C  5.82900 48.27400 29.42300
O  6.13500 47.10600 29.16500
O  5.06600 48.68500 30.53900
C  4.67300 47.61300 31.44700
H  12.89800 50.28500 27.35000
H  11.83900 48.52000 21.22000
H  5.62100 48.52900 22.06600
H  8.71600 50.72200 29.77800
H  11.37100 50.03900 29.22300
H  11.52000 52.25000 29.79300
H  9.75600 52.45500 29.55800
H  10.95900 52.51800 28.13600
H  10.37700 48.55400 30.34600
H  8.98000 47.75800 29.63600
H  7.73500 49.38100 31.37600
H  9.31800 49.72800 32.00400
H  15.59600 49.03900 25.35600
H  14.79000 49.98800 26.50500
H  15.55200 50.77900 25.09200
H  16.05200 50.46400 22.97400
H  16.25000 49.71200 21.49200
H  16.16100 48.69700 23.07900
H  9.77300 47.35700 20.15500
H  7.37400 49.07500 20.06100
H  10.55300 49.83400 19.71000
H  9.04100 49.64700 18.57100
H  10.40500 48.64000 18.47000
H  7.59000 46.72000 19.29400
H  6.13600 46.99100 20.16700
H  6.64300 45.08500 21.10200
H  8.04900 45.99100 22.01600
H  8.26700 45.13900 20.53700
H  3.66400 47.37200 23.88300
H  3.55400 49.03600 23.27400
H  2.79000 48.64700 24.86500
H  5.79100 50.34300 29.02300
H  4.98700 46.57000 31.40800
H  3.59100 47.54600 31.33300
H  4.90400 47.98000 32.44700

