158

Mg 25.24800 0.69300 30.05000
C  27.27000 0.82100 32.97000
C  22.47300 1.19100 31.99300
C  23.41500 0.78100 27.24400
C  28.11600 0.56200 28.12900
N  24.92900 0.69200 32.22800
C  25.85300 0.86100 33.19600
C  25.21100 1.09100 34.53600
C  23.70700 0.91700 34.19600
C  23.66800 0.85500 32.70000
C  22.97100 -0.22600 34.99900
C  25.49800 2.53900 35.08300
C  26.12300 2.63700 36.51500
H  25.43600 3.58200 37.61200
N  23.22100 0.84500 29.69900
C  22.24900 1.06800 30.60900
C  20.97900 1.15100 29.92000
C  21.23900 0.76800 28.53000
C  22.68300 0.80200 28.44500
C  19.67100 1.45800 30.64300
C  20.36000 0.50800 27.31500
O  20.73300 0.08200 26.23900
C  18.93900 0.67000 27.54100
N  25.65300 0.41900 28.04200
C  24.73500 0.52300 27.00100
C  25.34400 0.69800 25.64900
C  26.84100 0.56500 25.95100
C  26.86400 0.63100 27.48400
C  24.84200 -0.23900 24.49500
C  27.67800 1.71100 25.21800
C  28.04000 2.95800 25.90800
N  27.28100 0.45400 30.40400
C  28.31400 0.51300 29.56000
C  29.55600 0.51000 30.26600
C  29.25700 0.54900 31.60400
C  27.82600 0.60300 31.63200
C  30.97900 0.60100 29.73400
C  29.68800 0.79600 32.99100
O  30.80900 1.04300 33.38800
C  28.44000 0.96300 33.86900
C  28.44300 -0.09400 34.98100
O  28.40100 -1.31100 34.86500
O  28.68600 0.55500 36.14500
C  28.75500 -0.39200 37.28700
H  21.61000 1.47500 32.59800
H  22.90800 1.04700 26.31400
H  28.93900 0.68700 27.42200
H  25.59700 0.39700 35.28300
H  23.06100 1.76900 34.40700
H  22.30600 0.20600 35.74600
H  23.70400 -0.77900 35.58700
H  22.42400 -0.94000 34.38300
H  24.65400 3.22100 34.98400
H  26.13400 3.08300 34.38600
H  27.15500 2.94800 36.35100
H  26.13600 1.62500 36.91700
H  19.02800 2.09500 30.03600
H  19.76700 1.81900 31.66700
H  19.24600 0.45500 30.67800
H  18.33900 0.42600 26.66400
H  18.62400 1.68200 27.79600
H  18.56800 0.02400 28.33600
H  25.02500 1.71000 25.40200
H  27.17600 -0.45000 25.74000
H  24.13200 -0.95700 24.90500
H  25.61600 -0.82300 23.99500
H  24.41800 0.42500 23.74200
H  26.94900 2.04700 24.48000
H  28.58500 1.23000 24.85100
H  27.81300 3.81000 25.26800
H  29.11300 3.01100 26.09200
H  27.56300 3.12600 26.87400
H  31.06000 1.63100 29.38800
H  30.97500 -0.07800 28.88100
H  31.70500 0.20000 30.44000
H  28.57500 1.96200 34.28200
H  27.75700 -0.37700 37.72500
H  29.26000 0.02200 38.15900
H  29.21100 -1.36500 37.10400
Mg 44.76600 4.34500 47.06500
C  43.27700 7.56000 46.32300
C  41.64200 2.99200 46.72000
C  46.24200 1.40900 46.84000
C  47.90700 5.93700 46.72700
N  42.78000 5.26500 46.59500
C  42.35600 6.48700 46.23900
C  40.93100 6.56100 45.81000
C  40.34000 5.13300 46.33900
C  41.63200 4.40800 46.74600
C  39.31300 5.05100 47.55900
C  40.98500 6.74500 44.24800
C  40.47800 8.05500 43.59400
H  39.29500 7.87600 42.65000
N  44.06200 2.44300 46.69800
C  42.75000 2.05200 46.68400
C  42.67200 0.60900 46.35300
C  44.01100 0.21000 46.21200
C  44.82100 1.31300 46.63200
C  41.47800 -0.19600 46.12200
C  44.57400 -1.13200 45.78100
O  43.77900 -1.97300 45.38100
C  46.04300 -1.55100 45.90900
N  46.77500 3.75500 46.68200
C  47.13800 2.49500 46.91400
C  48.63700 2.23800 46.89100
C  49.23200 3.73000 46.65400
C  47.87500 4.52700 46.64300
C  49.26000 1.47700 48.05200
C  49.93300 3.80500 45.32900
C  51.19800 4.74200 45.25500
N  45.48100 6.36500 46.93200
C  46.78300 6.79200 46.80700
C  46.75800 8.28900 46.71500
C  45.42900 8.62400 46.66200
C  44.65600 7.42700 46.70100
C  47.95700 9.13400 46.68900
C  44.43600 9.68800 46.46700
O  44.61200 10.86700 46.31700
C  42.95700 9.04700 46.26900
C  42.02800 9.57800 47.21700
O  41.66500 9.04300 48.29700
O  41.55700 10.84700 46.76500
C  40.83800 11.68300 47.76300
H  40.63700 2.57200 46.79700
H  46.80700 0.48600 46.98100
H  48.90600 6.37900 46.73400
H  40.49500 7.41400 46.33000
H  39.89700 4.61100 45.49000
H  39.71400 4.67800 48.50200
H  38.48900 4.39600 47.27500
H  38.82400 6.01400 47.70300
H  40.30300 6.01200 43.81700
H  41.96600 6.56600 43.80800
H  41.30500 8.41500 42.98300
H  40.21100 8.67800 44.44800
H  41.75700 -1.06000 46.72400
H  41.45100 -0.49900 45.07500
H  40.62100 0.37400 46.48000
H  46.70100 -0.81900 45.44100
H  46.17900 -2.56500 45.53300
H  46.16000 -1.58300 46.99200
H  48.81400 1.54400 46.06900
H  49.74500 4.16300 47.51200
H  48.60000 1.31400 48.90500
H  50.16400 1.99300 48.37400
H  49.42200 0.45300 47.71500
H  49.21400 4.19400 44.60800
H  50.20600 2.76900 45.13000
H  52.03400 4.23400 45.73600
H  51.01100 5.67900 45.78000
H  51.48000 4.82200 44.20500
H  47.64500 10.01900 47.24400
H  48.07800 9.46200 45.65700
H  48.89300 8.71000 47.05000
H  42.52400 9.30900 45.30400
H  39.78000 11.42300 47.77900
H  40.93900 12.76200 47.64300
H  41.36500 11.57600 48.71100

