158

Mg 23.96100 -4.69200 46.18400
C  25.81900 -2.24200 44.51800
C  21.38700 -4.07000 43.82800
C  22.40500 -7.67300 46.97400
C  26.77100 -5.65000 47.86700
N  23.73900 -3.35300 44.34900
C  24.58000 -2.38800 43.90300
C  24.15000 -1.58700 42.71200
C  22.54300 -1.91500 42.82300
C  22.49300 -3.18100 43.70700
C  21.60500 -0.80500 43.43000
C  24.79900 -2.07900 41.45300
C  25.55600 -1.04000 40.58100
H  25.01100 -0.87200 39.13300
N  22.17000 -5.65400 45.63800
C  21.26900 -5.23100 44.73400
C  20.10700 -6.03400 44.78700
C  20.26700 -7.08600 45.71600
C  21.67100 -6.85000 46.15100
C  18.89000 -5.70300 43.92200
C  19.31200 -8.14800 46.09400
O  18.23000 -8.15100 45.55500
C  19.64200 -9.22000 47.17500
N  24.53700 -6.45800 47.36900
C  23.64900 -7.47800 47.58100
C  24.38600 -8.59700 48.33400
C  25.78300 -7.98700 48.58100
C  25.70000 -6.60400 47.98000
C  23.65000 -9.12800 49.72200
C  26.99600 -8.79600 47.91400
C  28.18800 -8.96200 48.85100
N  25.88700 -3.97400 46.44100
C  26.90900 -4.43000 47.22600
C  28.02300 -3.49500 47.13200
C  27.62700 -2.64300 46.13100
C  26.27700 -2.97000 45.69100
C  29.36500 -3.65600 47.74800
C  28.01800 -1.50300 45.38800
O  29.05200 -0.86900 45.47600
C  26.87300 -1.26800 44.21500
C  26.51500 0.11600 44.21100
O  25.84100 0.63100 45.09600
O  27.09600 0.73600 43.13200
C  27.29400 2.15800 43.33700
H  20.45400 -3.89900 43.28800
H  22.03800 -8.69300 47.10700
H  27.63500 -5.94100 48.46700
H  24.25500 -0.51300 42.86500
H  22.15000 -2.07200 41.81800
H  22.30900 -0.08600 43.85000
H  21.08800 -1.27700 44.26500
H  20.97300 -0.32700 42.68100
H  24.02600 -2.42100 40.76500
H  25.49800 -2.89300 41.64600
H  26.58800 -1.38700 40.54700
H  25.58500 -0.09000 41.11300
H  19.18300 -5.39700 42.91800
H  18.46100 -4.80200 44.36000
H  18.13100 -6.48500 43.96900
H  20.39000 -9.93100 46.82300
H  18.74500 -9.82900 47.28300
H  19.77500 -8.71900 48.13400
H  24.44300 -9.43300 47.63700
H  26.01500 -7.81400 49.63200
H  23.77000 -10.21200 49.73000
H  22.62600 -8.75500 49.72700
H  24.06000 -8.87200 50.69900
H  27.47200 -8.40900 47.01200
H  26.68800 -9.80500 47.64200
H  28.02700 -9.84100 49.47500
H  28.30500 -8.04200 49.42400
H  29.13500 -8.95600 48.31200
H  29.58500 -4.66200 48.10500
H  29.48800 -2.91100 48.53300
H  30.06500 -3.38000 46.96000
H  27.29400 -1.49300 43.23500
H  28.03200 2.51100 42.61600
H  27.53800 2.43400 44.36300
H  26.39600 2.70100 43.04500
Mg 29.05000 58.68500 39.88000
C  26.52000 56.49200 38.95800
C  31.41400 56.51600 38.71700
C  31.53300 61.21600 40.18900
C  26.56100 61.14500 40.43600
N  28.94100 56.81500 38.73000
C  27.78800 56.05100 38.65000
C  28.15300 54.63200 38.07300
C  29.70500 54.62900 38.05100
C  30.05900 56.08000 38.55000
C  30.31400 53.46500 38.85200
C  27.45100 54.12600 36.75900
C  26.91100 55.21800 35.75400
H  27.72800 55.33500 34.48700
N  31.21500 58.85500 39.58700
C  31.97200 57.74200 39.14300
C  33.38600 58.12400 39.06100
C  33.44500 59.54100 39.35600
C  32.04400 59.98700 39.77900
C  34.50600 57.27600 38.48400
C  34.67900 60.48900 39.08400
O  35.64000 60.03900 38.46400
C  34.69700 61.94300 39.52000
N  29.04700 60.82000 40.21500
C  30.16800 61.54900 40.43700
C  29.82900 63.01100 40.72200
C  28.25000 63.01100 40.78200
C  27.87700 61.57800 40.47200
C  30.53100 63.52800 42.04900
C  27.66900 63.88800 39.61400
C  28.05500 65.33700 39.43200
N  26.92100 58.76700 39.90000
C  26.06500 59.80100 40.09000
C  24.74200 59.33000 39.96900
C  24.84200 57.99000 39.58600
C  26.23200 57.73400 39.49700
C  23.47200 60.13700 40.15700
C  24.08200 56.83500 39.24300
O  22.90300 56.57000 39.18200
C  25.18700 55.74800 38.89900
C  25.05500 54.46400 39.64000
O  25.71800 54.22600 40.63700
O  24.19300 53.65700 39.04100
C  24.05600 52.32600 39.65400
H  32.08200 55.74600 38.32600
H  32.33600 61.95500 40.21700
H  25.80800 61.92200 40.58100
H  27.78400 53.91800 38.81000
H  30.05400 54.54200 37.02200
H  29.66600 52.70700 39.29000
H  30.92900 53.91800 39.62900
H  30.82300 52.80700 38.14700
H  26.67000 53.37000 36.84400
H  28.20500 53.65600 36.12700
H  26.97400 56.23000 36.15300
H  25.91500 54.98200 35.37900
H  34.80300 57.55600 37.47400
H  34.16900 56.24000 38.46400
H  35.34600 57.17600 39.17100
H  34.39500 62.08200 40.55800
H  33.93200 62.44600 38.93000
H  35.60200 62.48800 39.25200
H  30.05200 63.66300 39.87700
H  27.86200 63.26500 41.76900
H  31.34600 62.87200 42.35700
H  29.89600 63.26500 42.89500
H  31.01000 64.49100 41.87100
H  26.58900 63.90000 39.76500
H  27.78700 63.44500 38.62500
H  29.03500 65.45500 39.89400
H  27.32700 66.02300 39.86400
H  28.24500 65.62600 38.39900
H  22.90700 59.70600 40.98300
H  23.03700 59.77400 39.22600
H  23.73100 61.19600 40.15800
H  25.04400 55.46300 37.85700
H  23.31000 51.73400 39.12300
H  23.62500 52.40100 40.65200
H  25.04500 51.89400 39.50200

