158

Mg -0.85900 7.93200 27.06900
C  0.13900 9.96700 29.83800
C  -1.10200 5.29300 29.17300
C  -1.44500 6.05300 24.33000
C  -0.47600 10.78800 25.09500
N  -0.37600 7.67700 29.31500
C  -0.20300 8.65500 30.28000
C  -0.48500 8.06100 31.66700
C  -0.74400 6.53100 31.41100
C  -0.79000 6.51300 29.87300
C  0.17600 5.45100 32.02700
C  -1.71800 8.77400 32.25500
C  -1.88600 8.80900 33.81200
H  -1.03200 7.93900 34.72600
N  -1.13000 5.90800 26.84300
C  -1.17900 4.93500 27.79200
C  -1.51800 3.66100 27.19800
C  -1.74900 3.89900 25.80100
C  -1.45200 5.33700 25.57700
C  -1.44400 2.40800 28.09600
C  -2.15500 2.96300 24.69600
O  -2.17300 3.18600 23.53700
C  -2.54000 1.50300 25.16800
N  -0.92800 8.34800 24.99100
C  -1.20200 7.45200 24.02700
C  -1.29000 8.07200 22.68000
C  -1.37400 9.59000 23.00000
C  -0.90300 9.61600 24.46400
C  -0.13200 7.67600 21.67700
C  -2.81700 10.25300 22.88400
C  -3.43600 10.47500 21.52500
N  -0.33900 9.96300 27.36400
C  -0.15100 10.98800 26.44200
C  0.33200 12.14400 27.07100
C  0.51000 11.81800 28.38900
C  0.12800 10.48600 28.47300
C  0.77400 13.33400 26.32600
C  0.98100 12.24400 29.63100
O  1.61400 13.25700 29.92300
C  0.57600 11.13200 30.65300
C  1.66300 10.71400 31.51300
O  2.58300 9.93900 31.29100
O  1.48300 11.49900 32.71700
C  2.63400 11.59100 33.61700
H  -1.38800 4.51900 29.88900
H  -1.81300 5.59400 23.41000
H  -0.32200 11.65000 24.44300
H  0.33900 8.31400 32.33400
H  -1.74500 6.32200 31.78600
H  -0.33300 4.62900 32.53200
H  0.81300 5.97400 32.74000
H  0.92700 5.05800 31.34100
H  -2.62400 8.24900 31.95400
H  -1.85000 9.79100 31.88700
H  -2.91900 8.53500 34.03100
H  -1.77500 9.85400 34.10000
H  -2.46200 2.12200 28.36300
H  -0.89800 2.63800 29.01000
H  -0.98800 1.61900 27.49800
H  -3.13400 1.70800 26.05800
H  -1.57800 1.05600 25.41900
H  -3.03700 0.94500 24.37400
H  -2.28100 7.81900 22.30200
H  -0.56600 10.17800 22.56300
H  -0.01500 8.42700 20.89600
H  -0.44300 6.71800 21.25900
H  0.79100 7.62600 22.25500
H  -2.52200 11.25600 23.19500
H  -3.50700 9.82200 23.60800
H  -3.22300 11.47500 21.14700
H  -4.51000 10.31400 21.43200
H  -3.01500 9.84400 20.74200
H  1.04100 12.99500 25.32500
H  1.63600 13.75100 26.84700
H  -0.04800 14.00500 26.07700
H  -0.26200 11.53600 31.22100
H  2.65100 12.58300 34.06900
H  3.53700 11.36200 33.05100
H  2.47500 10.91800 34.46000
Mg 47.68700 16.67600 27.53500
C  45.73900 16.69800 30.40500
C  49.99300 18.71500 28.95800
C  49.16100 17.00100 24.49400
C  44.90200 15.28400 25.85600
N  47.83200 17.57100 29.44800
C  47.01400 17.29800 30.49700
C  47.72600 17.74000 31.75900
C  48.97900 18.52300 31.25700
C  48.96500 18.26100 29.80800
C  49.03100 20.05200 31.48400
C  48.05700 16.63500 32.78000
C  48.35300 17.00600 34.23700
H  47.92000 18.35100 34.71800
N  49.38400 17.69600 26.86700
C  50.26600 18.41600 27.59900
C  51.36800 18.85300 26.81100
C  50.98900 18.50300 25.47000
C  49.81200 17.67000 25.56300
C  52.50200 19.67200 27.34800
C  51.62100 19.08700 24.12000
O  51.13000 18.92300 23.02700
C  52.85300 19.97800 24.06400
N  47.04500 16.32300 25.41100
C  47.95800 16.47100 24.42200
C  47.34900 15.96400 23.08400
C  45.95200 15.38400 23.51300
C  45.90000 15.68300 25.03200
C  47.18500 17.17200 22.11600
C  45.59200 13.95300 23.09600
C  44.33600 13.81900 22.25500
N  45.79000 16.07600 28.01900
C  44.71900 15.54600 27.24500
C  43.58800 15.16200 28.11900
C  43.98500 15.60600 29.37800
C  45.23500 16.21400 29.24100
C  42.35700 14.49500 27.70400
C  43.54900 15.63600 30.75600
O  42.60300 15.10400 31.26600
C  44.72900 16.44000 31.53900
C  44.13300 17.59400 32.21400
O  43.85800 18.68600 31.73800
O  43.96000 17.31500 33.57900
C  43.34500 18.35000 34.36800
H  50.62600 19.43800 29.47700
H  49.62400 16.99100 23.50400
H  44.04900 14.76400 25.41500
H  46.96500 18.44300 32.09800
H  49.87900 18.12800 31.72900
H  48.30000 20.39700 32.21600
H  48.84500 20.75000 30.66800
H  50.06700 20.32700 31.68600
H  48.89600 16.07600 32.36500
H  47.21700 15.94800 32.88200
H  49.39700 16.71600 34.35600
H  47.97200 16.23000 34.90100
H  52.19300 20.71300 27.44300
H  53.38300 19.68300 26.70600
H  52.70900 19.24700 28.33100
H  53.67400 19.46400 24.56300
H  52.61900 20.84700 24.67900
H  53.06300 20.22200 23.02200
H  48.01900 15.16400 22.77000
H  45.24900 16.07700 23.05100
H  47.28500 18.11700 22.65000
H  46.25000 17.16400 21.55600
H  47.94600 17.04000 21.34600
H  45.68500 13.35800 24.00400
H  46.30300 13.59400 22.35100
H  44.59200 13.32700 21.31700
H  43.78600 14.73100 22.02300
H  43.59200 13.15000 22.68800
H  42.52900 13.69000 26.99000
H  41.74300 15.21400 27.16100
H  41.80800 13.98000 28.49300
H  45.14200 15.71600 32.24100
H  42.27900 18.19400 34.53400
H  43.63800 19.33900 34.01500
H  43.82700 18.18800 35.33200

