158

Mg 15.91600 -2.53700 28.25500
C  15.05600 -0.43700 30.99000
C  17.88400 -4.30500 30.27500
C  17.42500 -3.96200 25.52800
C  14.34400 -0.26500 26.17300
N  16.39800 -2.31000 30.42500
C  15.93500 -1.46300 31.33700
C  16.38500 -1.83100 32.76400
C  17.34900 -3.06800 32.53400
C  17.17400 -3.23500 31.00200
C  18.90400 -2.86000 32.82200
C  15.32000 -2.11000 33.86700
C  15.29700 -1.38700 35.19900
H  16.64800 -0.75500 35.69200
N  17.40300 -4.01100 27.96200
C  18.04500 -4.56000 28.93500
C  18.87300 -5.59300 28.43200
C  18.77300 -5.55900 26.99400
C  17.84700 -4.51000 26.73500
C  19.65300 -6.57700 29.32700
C  19.47100 -6.37700 25.83800
O  19.17600 -6.25100 24.62800
C  20.45000 -7.48200 26.14400
N  15.98600 -2.11000 26.04500
C  16.56500 -2.92100 25.16700
C  16.22200 -2.49500 23.73600
C  15.03100 -1.46900 23.92600
C  15.16600 -1.19300 25.46300
C  17.53000 -1.97400 23.00800
C  13.58400 -1.98100 23.71700
C  12.55000 -0.93800 23.18000
N  14.80500 -0.77900 28.45600
C  14.12700 -0.06000 27.50200
C  13.37200 1.06200 28.20800
C  13.71500 0.96200 29.56000
C  14.62200 -0.16100 29.67500
C  12.59100 2.15100 27.44300
C  13.62900 1.60500 30.81700
O  13.18800 2.69900 31.07400
C  14.34000 0.63700 31.92500
C  15.17700 1.43400 32.90600
O  16.36500 1.74100 32.77500
O  14.30900 1.94500 33.88900
C  14.86600 3.04800 34.68100
H  18.39700 -5.04700 30.89100
H  17.89400 -4.41400 24.65100
H  13.74900 0.42800 25.57500
H  16.88600 -0.93500 33.12900
H  16.97100 -3.96200 33.03000
H  19.47700 -2.71500 31.90600
H  19.24500 -3.75600 33.34100
H  19.31900 -2.04500 33.41500
H  15.24400 -3.16700 34.12200
H  14.37200 -1.77900 33.44300
H  14.90000 -1.97400 36.02700
H  14.63400 -0.52600 35.10700
H  19.68100 -7.44800 28.67300
H  19.13700 -6.87600 30.23900
H  20.67700 -6.20800 29.39100
H  19.91100 -8.34000 26.54600
H  21.14900 -7.07400 26.87500
H  20.84300 -7.85300 25.19800
H  15.92200 -3.35500 23.13700
H  15.20800 -0.66200 23.21500
H  17.49400 -0.88500 22.98600
H  17.63500 -2.43800 22.02700
H  18.45300 -2.21600 23.53600
H  13.16400 -2.37100 24.64400
H  13.68800 -2.82500 23.03600
H  12.01300 -0.67100 24.09000
H  11.88900 -1.42400 22.46200
H  13.15000 -0.11100 22.80100
H  11.62500 2.22900 27.94100
H  12.50700 1.85800 26.39700
H  13.07900 3.11600 27.58200
H  13.55700 0.15000 32.50700
H  15.77100 2.71200 35.18700
H  14.17400 3.25500 35.49700
H  14.95500 3.85000 33.94800
Mg 24.83100 1.42200 29.74500
C  27.10700 1.37400 32.38900
C  22.22700 1.18200 32.04600
C  22.62600 1.07700 27.36000
C  27.47500 0.91800 27.58300
N  24.71500 1.09100 31.93600
C  25.74400 1.45000 32.80800
C  25.22000 1.69300 34.24100
C  23.69300 1.34600 34.09100
C  23.51600 1.17600 32.63000
C  23.23000 0.13700 35.02600
C  25.60400 3.13500 34.77000
C  26.16200 3.14800 36.21100
H  25.42300 3.96900 37.26900
N  22.72500 1.24500 29.66000
C  21.82100 1.22800 30.65400
C  20.49400 1.11300 30.15700
C  20.55400 0.97200 28.79300
C  21.99000 1.10300 28.55200
C  19.27700 1.12800 31.10900
C  19.48900 0.63700 27.69600
O  19.73900 0.43900 26.53600
C  18.14600 0.38600 28.09700
N  25.07600 0.97700 27.76500
C  23.99300 1.01200 26.91100
C  24.37600 1.20100 25.43300
C  25.88000 1.26000 25.51900
C  26.20900 0.92700 26.99300
C  23.76300 0.16000 24.52700
C  26.59300 2.58500 25.01200
C  26.63700 3.71000 25.89800
N  26.88800 1.21300 29.82800
C  27.81100 0.89100 28.89800
C  29.12000 0.77600 29.56700
C  28.89500 1.00200 30.88900
C  27.52800 1.26500 30.99400
C  30.38400 0.46100 28.96000
C  29.52800 1.14200 32.16900
O  30.70600 1.13000 32.52200
C  28.34300 1.38200 33.21200
C  28.35500 0.27500 34.22700
O  28.21700 -0.94100 34.05700
O  28.58000 0.82400 35.45300
C  28.50300 0.05900 36.72200
H  21.43300 0.95300 32.75900
H  21.94500 1.03700 26.50700
H  28.30100 0.80000 26.87900
H  25.70700 1.00000 34.92700
H  23.06000 2.19600 34.34700
H  23.45600 -0.83500 34.58800
H  22.19900 0.31600 35.33100
H  23.82900 0.15100 35.93700
H  24.76900 3.83100 34.70300
H  26.36900 3.51400 34.09200
H  27.11200 3.67700 36.13900
H  26.42400 2.16100 36.59000
H  19.48600 1.59000 32.07400
H  19.02100 0.08100 31.27400
H  18.53000 1.73600 30.60000
H  17.71900 1.31700 28.47000
H  18.20400 -0.42300 28.82500
H  17.70400 0.12800 27.13500
H  23.99200 2.20100 25.23100
H  26.34400 0.47200 24.92700
H  23.48600 -0.71400 25.11700
H  24.34200 -0.12200 23.64800
H  22.81100 0.51400 24.13200
H  26.16600 2.86100 24.04700
H  27.59900 2.30700 24.69900
H  25.82600 3.80800 26.62000
H  26.52600 4.58500 25.25700
H  27.59500 3.80600 26.40800
H  30.91600 1.38300 28.72800
H  30.33300 -0.03800 27.99200
H  30.85600 -0.21900 29.67000
H  28.53200 2.30200 33.76600
H  28.43400 -1.01500 36.55500
H  27.68200 0.35000 37.37700
H  29.39000 0.32900 37.29500

