158

Mg -1.14300 18.00700 27.55000
C  -1.85300 15.80700 30.18200
C  -2.05700 20.67900 29.67000
C  -1.14300 20.02600 24.84800
C  -0.90500 15.28100 25.40100
N  -1.80200 18.18700 29.62200
C  -2.01700 17.14400 30.51000
C  -2.44200 17.72300 31.89900
C  -2.63200 19.23700 31.57000
C  -2.13100 19.35900 30.18900
C  -4.10100 19.77500 31.85100
C  -1.44600 17.44200 33.09900
C  -2.10900 17.09800 34.49300
H  -1.06300 17.07200 35.58900
N  -1.34100 20.08900 27.30700
C  -1.68300 20.96900 28.29200
C  -1.59900 22.31200 27.67700
C  -1.29600 22.23500 26.27900
C  -1.17300 20.72600 26.06600
C  -2.05100 23.55800 28.40300
C  -1.26100 23.26500 25.23700
O  -1.12000 22.90700 24.07100
C  -1.49300 24.69700 25.55500
N  -1.19200 17.66600 25.44200
C  -1.17900 18.64400 24.56700
C  -0.95500 18.19000 23.11800
C  -0.57200 16.72200 23.40700
C  -0.97500 16.51900 24.82000
C  -2.19500 18.46800 22.11300
C  0.95700 16.31900 23.11200
C  2.07800 17.15800 23.74400
N  -1.23000 15.91600 27.74000
C  -1.13800 14.96900 26.75000
C  -1.35500 13.67800 27.37000
C  -1.60500 13.94400 28.72800
C  -1.50300 15.33600 28.90600
C  -1.51100 12.45300 26.58800
C  -1.97800 13.37100 30.05700
O  -2.26500 12.23700 30.46200
C  -1.97300 14.52100 31.05400
C  -0.70200 14.34200 31.81000
O  0.40600 14.38900 31.32200
O  -0.87400 14.19500 33.12800
C  0.28400 13.84500 33.98800
H  -2.38100 21.44600 30.37600
H  -0.81400 20.69000 24.04500
H  -0.77500 14.47400 24.67700
H  -3.36100 17.31300 32.31800
H  -2.11600 19.93300 32.23200
H  -4.76900 19.00700 32.24100
H  -4.45100 20.01700 30.84800
H  -4.06100 20.63500 32.52100
H  -0.82800 18.33500 33.19600
H  -0.75200 16.61100 32.97300
H  -2.64500 16.15900 34.36000
H  -2.89200 17.85100 34.57900
H  -1.44600 24.42200 28.13000
H  -1.97500 23.35600 29.47100
H  -3.11400 23.77300 28.29100
H  -2.46600 24.93700 25.98400
H  -1.46200 25.31500 24.65700
H  -0.66600 25.14100 26.10800
H  -0.01100 18.58500 22.74400
H  -1.24500 16.13700 22.78100
H  -2.75700 19.30300 22.53100
H  -2.76400 17.55200 21.95400
H  -1.77300 18.66900 21.12800
H  1.16900 16.29200 22.04400
H  0.99900 15.25400 23.34100
H  1.54200 17.81700 24.42700
H  2.69200 17.80000 23.11200
H  2.80600 16.54200 24.27100
H  -2.01600 12.81000 25.69000
H  -2.07300 11.70600 27.14800
H  -0.58000 11.96200 26.30500
H  -2.87000 14.49900 31.67100
H  0.30300 12.77300 34.18600
H  0.29900 14.25200 34.99900
H  1.25400 14.09100 33.55700
Mg -10.57400 17.37200 41.26700
C  -7.15500 17.39400 41.52700
C  -10.32100 20.62000 40.08700
C  -13.79400 17.38700 40.35200
C  -10.59600 13.85400 41.62800
N  -8.89700 18.67200 40.69100
C  -7.56700 18.49400 40.81100
C  -6.73400 19.66900 40.34400
C  -7.83000 20.78700 40.39700
C  -9.14800 20.01400 40.28300
C  -7.74500 21.65100 41.71200
C  -6.13100 19.46700 38.97900
C  -4.61100 19.18900 38.86300
H  -4.19200 17.99400 38.06900
N  -11.83300 18.82800 40.44500
C  -11.58700 20.07900 40.07900
C  -12.77600 20.78600 39.87800
C  -13.81600 19.90400 40.15800
C  -13.17600 18.61300 40.39100
C  -12.86300 22.24400 39.56100
C  -15.34100 20.25700 40.21100
O  -15.70500 21.37500 39.96500
C  -16.43200 19.28300 40.70700
N  -12.02000 15.81600 41.01900
C  -13.25600 16.07500 40.48200
C  -14.13800 14.81400 40.61400
C  -13.09100 13.63900 40.96600
C  -11.86000 14.44300 41.22500
C  -15.29900 15.10900 41.62000
C  -12.98200 12.61900 39.83800
C  -13.63200 11.23600 40.07500
N  -9.31600 15.92700 41.75500
C  -9.40900 14.55100 41.90100
C  -8.13700 13.94600 42.21700
C  -7.25000 15.04400 42.08300
C  -8.01900 16.22600 41.74800
C  -8.00500 12.49300 42.54100
C  -5.84900 15.45600 42.17900
O  -4.84000 14.80000 42.37400
C  -5.71900 16.96600 41.83300
C  -5.14000 17.68000 43.00800
O  -3.96300 17.48200 43.43000
O  -6.03700 18.56100 43.59600
C  -5.60100 19.01500 44.87100
H  -10.30000 21.70200 39.94000
H  -14.88100 17.38700 40.24000
H  -10.54200 12.76500 41.56700
H  -5.87500 19.88300 40.97900
H  -7.75900 21.47100 39.55200
H  -7.83000 22.67000 41.33500
H  -6.77800 21.70400 42.21200
H  -8.64100 21.46500 42.30400
H  -6.29200 20.44600 38.52700
H  -6.82100 18.79500 38.46900
H  -4.09100 19.04600 39.81100
H  -4.13100 20.05000 38.39800
H  -12.39700 22.58600 38.63700
H  -12.36600 22.74600 40.39100
H  -13.86100 22.65500 39.40800
H  -16.60700 18.55800 39.91200
H  -17.34600 19.85600 40.86600
H  -16.08100 18.80900 41.62300
H  -14.59100 14.70300 39.62900
H  -13.43400 13.09900 41.84900
H  -15.12800 16.02700 42.18200
H  -15.34700 14.31700 42.36800
H  -16.27400 15.05900 41.13600
H  -11.92300 12.49700 39.60900
H  -13.51000 13.06300 38.99400
H  -13.97500 10.97400 41.07500
H  -12.88900 10.49300 39.78300
H  -14.43900 11.14600 39.34800
H  -8.79500 12.25900 43.25500
H  -7.01400 12.19500 42.88400
H  -8.16700 11.89500 41.64400
H  -5.10500 17.02900 40.93500
H  -6.38100 19.67200 45.25500
H  -4.70500 19.63300 44.80700
H  -5.35000 18.18000 45.52500

