158

Mg 16.40900 -2.44300 27.45900
C  15.41200 -0.01800 29.82800
C  18.22000 -3.99800 29.91800
C  17.99800 -4.19200 25.05300
C  14.96400 -0.36600 24.98900
N  16.82600 -1.94400 29.54000
C  16.22100 -1.03000 30.32400
C  16.63800 -1.20400 31.88300
C  17.59000 -2.42800 31.82600
C  17.53200 -2.84500 30.33300
C  19.08800 -2.12400 32.24500
C  15.31100 -1.35900 32.67800
C  15.09300 -0.50100 33.95400
H  16.37900 0.00800 34.68500
N  17.75800 -3.97300 27.47800
C  18.34200 -4.54600 28.55200
C  19.23700 -5.60900 28.14200
C  19.20300 -5.68400 26.75000
C  18.26200 -4.62500 26.36600
C  19.93300 -6.50200 29.14700
C  19.95300 -6.58200 25.74100
O  19.72600 -6.61400 24.53500
C  20.97900 -7.57900 26.20200
N  16.47600 -2.28600 25.36500
C  17.14700 -3.16100 24.64700
C  17.12900 -2.77700 23.14200
C  16.11800 -1.62600 23.05400
C  15.81600 -1.37400 24.51600
C  18.57000 -2.53600 22.62700
C  14.84000 -1.99200 22.25000
C  13.62600 -2.47600 22.97100
N  15.30000 -0.66900 27.40600
C  14.68900 -0.03700 26.36400
C  13.85900 1.05500 26.84900
C  14.09700 1.09700 28.20100
C  14.99000 0.08600 28.48000
C  12.91900 1.86300 26.01300
C  13.76300 1.81400 29.45500
O  12.91000 2.65100 29.76500
C  14.57400 1.04400 30.56800
C  15.31500 2.09200 31.37200
O  16.37500 2.62500 31.09100
O  14.61800 2.45000 32.50700
C  15.10500 3.67900 33.25800
H  18.78000 -4.47200 30.72600
H  18.30200 -4.86600 24.24900
H  14.47100 0.27200 24.25200
H  17.23100 -0.37400 32.26600
H  17.14700 -3.21500 32.43700
H  19.72300 -2.13900 31.35900
H  19.39500 -2.86500 32.98200
H  19.28000 -1.16900 32.73400
H  15.21600 -2.39000 33.01800
H  14.40100 -1.22200 32.09400
H  14.58200 -1.17800 34.63900
H  14.56400 0.41300 33.68500
H  21.00100 -6.61900 28.96100
H  19.45000 -7.45300 28.92200
H  19.88700 -6.21700 30.19800
H  21.69000 -7.81700 25.41000
H  20.45700 -8.50600 26.44200
H  21.61900 -7.17000 26.98400
H  16.68700 -3.63600 22.63800
H  16.52000 -0.73600 22.57100
H  18.73800 -2.94400 21.63000
H  19.30800 -2.81000 23.38100
H  18.58900 -1.44700 22.58200
H  15.06400 -2.83200 21.59300
H  14.49300 -1.09100 21.74500
H  13.77900 -2.92500 23.95300
H  13.18800 -3.27500 22.37300
H  12.88800 -1.67600 22.92300
H  12.11600 2.20800 26.66400
H  12.69200 1.26100 25.13300
H  13.46600 2.76900 25.75200
H  13.84200 0.62200 31.25600
H  15.63200 4.36900 32.60000
H  15.84600 3.29400 33.95900
H  14.29500 4.12000 33.84000
Mg 30.05400 57.99300 39.48300
C  27.43000 56.09400 38.55100
C  32.27500 55.39600 38.64200
C  32.67300 60.10200 39.30800
C  27.95300 60.80300 39.39200
N  29.80000 56.04300 38.67400
C  28.63600 55.41900 38.36100
C  28.92100 54.04100 37.79200
C  30.35200 53.69000 38.28400
C  30.88300 55.12200 38.51300
C  30.34500 52.75900 39.47600
C  28.67700 54.03300 36.21100
C  27.48000 53.22800 35.71200
H  26.77200 54.03000 34.63300
N  32.16800 57.83000 39.25100
C  32.86100 56.65600 38.88900
C  34.28300 57.00700 38.69500
C  34.45800 58.38500 39.02800
C  33.08000 58.80900 39.24200
C  35.24600 55.96400 38.26400
C  35.75600 59.10500 39.10100
O  36.75100 58.47900 38.74100
C  35.92300 60.51300 39.57600
N  30.24300 60.15700 39.05700
C  31.45300 60.75700 39.26100
C  31.40000 62.31200 39.26500
C  29.86900 62.52700 39.17700
C  29.31700 61.08700 39.18000
C  31.99300 62.89400 40.58800
C  29.39600 63.31700 37.91000
C  28.40900 64.48300 38.22100
N  28.04100 58.36100 39.30800
C  27.28800 59.52900 39.37600
C  25.95200 59.15700 39.40700
C  25.90500 57.81000 39.07500
C  27.20900 57.39700 38.96100
C  24.82000 60.04900 39.62700
C  25.07200 56.66700 38.82700
O  23.83300 56.63600 38.86200
C  26.03400 55.48000 38.36500
C  25.84200 54.30200 39.27700
O  26.28200 54.21200 40.43900
O  25.16200 53.30200 38.70100
C  24.80000 52.14400 39.61000
H  32.91000 54.51400 38.53700
H  33.53900 60.76700 39.31300
H  27.32800 61.69700 39.39300
H  28.26300 53.28900 38.22800
H  30.94200 53.22700 37.49200
H  30.57800 53.23700 40.42700
H  31.01900 51.90700 39.39000
H  29.39700 52.24700 39.63800
H  29.55800 53.56100 35.77700
H  28.76400 55.03000 35.77900
H  26.74400 53.04300 36.49500
H  27.87400 52.23900 35.47700
H  36.17400 56.01100 38.83400
H  35.27400 56.03500 37.17700
H  34.82300 54.98600 38.49400
H  35.30400 60.63300 40.46600
H  35.65300 61.17900 38.75600
H  36.97200 60.61000 39.85700
H  31.95700 62.65200 38.39200
H  29.47100 63.04600 40.04800
H  32.82200 63.57600 40.39900
H  32.39200 62.03600 41.12900
H  31.29100 63.39100 41.25700
H  28.90500 62.62900 37.22100
H  30.23200 63.84700 37.45500
H  28.29900 64.68700 39.28600
H  27.45600 64.37900 37.70400
H  28.90900 65.35600 37.80100
H  24.98000 61.12300 39.72000
H  24.37400 59.83000 40.59700
H  23.98800 59.82800 38.95800
H  25.80400 55.22900 37.32900
H  25.66300 51.82500 40.19300
H  24.26400 51.33700 39.11100
H  24.20700 52.38200 40.49300

