158

Mg 35.23200 1.39600 29.38500
C  32.97600 2.26200 31.88600
C  37.85400 1.80800 31.52300
C  37.31800 0.99800 26.71500
C  32.56800 1.99500 27.09300
N  35.34500 2.05100 31.38300
C  34.29600 2.18300 32.27300
C  34.79700 2.31800 33.73100
C  36.34000 2.48900 33.46600
C  36.51100 2.03600 32.00200
C  36.91200 3.91500 33.82000
C  34.42500 1.07600 34.56400
C  34.06100 1.32000 36.06700
H  34.50500 2.62700 36.84300
N  37.28400 1.33000 29.17600
C  38.20100 1.49100 30.18000
C  39.55400 1.45300 29.66500
C  39.38100 1.34100 28.28300
C  37.94800 1.23800 27.99000
C  40.76100 1.80300 30.56500
C  40.53800 1.27400 27.22600
O  40.31800 1.16000 26.05800
C  41.99300 1.36900 27.63100
N  34.93400 1.36900 27.22200
C  36.00100 1.20700 26.31900
C  35.48100 1.29000 24.87300
C  33.98900 1.70400 25.00500
C  33.80800 1.72200 26.51000
C  36.28300 2.32900 23.95600
C  33.01400 0.75800 24.31800
C  32.98400 -0.65900 24.92700
N  33.16100 1.81200 29.43300
C  32.23100 2.02900 28.44100
C  30.93100 2.39800 29.03900
C  31.15900 2.40400 30.42400
C  32.53400 2.13800 30.59000
C  29.68300 2.90200 28.35700
C  30.57800 2.77200 31.65300
O  29.45600 3.21500 31.93200
C  31.70000 2.50100 32.71700
C  31.73700 3.83000 33.45900
O  32.07800 4.90500 32.98500
O  31.24300 3.67500 34.68800
C  31.27800 4.94200 35.44000
H  38.66800 1.99900 32.22500
H  38.08000 0.77700 25.96500
H  31.73900 2.40700 26.51400
H  34.37300 3.20200 34.20700
H  36.84000 1.74400 34.08600
H  36.05700 4.59100 33.78400
H  37.64500 4.30500 33.11400
H  37.35500 3.79600 34.80900
H  35.22600 0.33800 34.60500
H  33.49700 0.68500 34.14600
H  34.51000 0.42500 36.49800
H  32.98000 1.19900 36.13800
H  41.40800 2.28900 29.83500
H  41.26400 0.84900 30.72400
H  40.53900 2.19800 31.55600
H  42.24600 0.65300 28.41300
H  42.42100 2.34700 27.85500
H  42.56200 1.00700 26.77500
H  35.71900 0.31400 24.45100
H  33.94400 2.75000 24.70200
H  36.98100 2.00300 23.18500
H  36.94200 2.92400 24.58800
H  35.56900 2.94200 23.40700
H  33.33800 0.52600 23.30300
H  32.01500 1.19400 24.34800
H  32.85900 -1.37100 24.11100
H  31.99800 -0.81400 25.36600
H  33.79600 -0.96800 25.58500
H  29.88200 3.80200 27.77600
H  28.83800 3.16500 28.99300
H  29.42400 2.14200 27.62000
H  31.42100 1.71800 33.42200
H  30.50200 5.58000 35.01600
H  32.27000 5.39300 35.47500
H  31.04600 4.55800 36.43300
Mg 46.33000 24.89600 28.41500
C  46.85900 26.91900 31.30800
C  44.71200 22.78400 30.58900
C  46.12300 22.71700 25.91400
C  48.07100 27.20200 26.49700
N  45.79400 24.83800 30.74800
C  46.18300 25.70400 31.77100
C  45.67100 25.30500 33.14500
C  45.12800 23.88300 32.77800
C  45.22600 23.82100 31.24400
C  45.98600 22.78000 33.51000
C  44.59600 26.27600 33.69300
C  44.83600 26.77700 35.10900
H  43.69000 26.85400 36.09500
N  45.48400 23.08400 28.28500
C  44.81800 22.37000 29.28200
C  44.42100 21.10400 28.73300
C  44.90900 21.06900 27.37500
C  45.47300 22.39100 27.11100
C  43.63500 20.11200 29.54600
C  44.85600 19.86300 26.44700
O  45.20000 19.89900 25.27200
C  44.40200 18.40700 27.00600
N  46.89900 24.97300 26.46800
C  46.83400 23.89100 25.63600
C  47.69400 24.18000 24.38300
C  48.27600 25.58600 24.58300
C  47.70100 25.99800 25.94400
C  48.78800 23.14800 24.15300
C  47.99200 26.55700 23.44000
C  46.86400 27.54000 23.54700
N  47.21100 26.63800 28.78600
C  47.89700 27.49800 27.95800
C  48.27200 28.73400 28.60400
C  47.82600 28.51800 29.91400
C  47.25600 27.21000 30.00000
C  48.88500 29.97500 28.00400
C  47.84100 29.14900 31.23900
O  48.22400 30.20400 31.65900
C  47.26700 28.14300 32.22100
C  48.25500 27.65600 33.22200
O  49.45600 27.53000 32.91900
O  47.73700 27.57000 34.50300
C  48.56400 27.22700 35.71700
H  44.14400 22.14800 31.27100
H  46.09700 22.01300 25.07900
H  48.57300 27.96100 25.89300
H  46.51100 25.14000 33.82000
H  44.10700 23.72100 33.12200
H  46.69500 22.18300 32.93600
H  45.27700 22.07000 33.93500
H  46.62000 23.19000 34.29600
H  43.61700 25.79800 33.73000
H  44.49300 27.17500 33.08600
H  45.33700 27.74000 35.00900
H  45.67000 26.17300 35.46600
H  42.87400 19.65700 28.91100
H  43.22300 20.57200 30.44400
H  44.29700 19.25200 29.64500
H  44.94400 17.95400 27.83700
H  44.68700 17.73000 26.20100
H  43.33000 18.22800 27.09100
H  47.08400 24.11000 23.48300
H  49.36300 25.60300 24.66200
H  48.43800 22.57200 23.29600
H  48.93200 22.54700 25.05100
H  49.72800 23.60100 23.83900
H  48.01800 26.06700 22.46700
H  48.87900 27.18800 23.49400
H  47.37100 28.47300 23.79500
H  46.19900 27.34600 24.38900
H  46.28300 27.68000 22.63500
H  48.09400 30.46400 27.43500
H  49.64200 29.67300 27.28000
H  49.22200 30.55400 28.86400
H  46.43600 28.60900 32.75100
H  48.11500 26.39200 36.25600
H  48.90200 28.08600 36.29500
H  49.49400 26.89400 35.25600

