158

Mg 17.68600 -1.94800 28.44000
C  16.74700 0.31300 31.08400
C  19.47900 -3.76000 30.58300
C  18.29700 -4.01400 25.90400
C  16.35200 0.39600 26.33100
N  18.24400 -1.54800 30.52700
C  17.72900 -0.64800 31.41300
C  18.20400 -1.04500 32.80500
C  19.14500 -2.24300 32.61900
C  18.85300 -2.61700 31.14700
C  20.67100 -1.88100 32.98000
C  17.04700 -1.31400 33.80400
C  17.09000 -0.72600 35.21300
H  18.35500 -0.65800 35.94800
N  18.66100 -3.76300 28.34600
C  19.38800 -4.30700 29.31500
C  19.99200 -5.55600 28.83600
C  19.72500 -5.66700 27.44500
C  18.81300 -4.49000 27.15900
C  20.56600 -6.54400 29.78900
C  20.17700 -6.75200 26.36000
O  19.79400 -6.73800 25.19200
C  21.05400 -7.88700 26.82400
N  17.44700 -1.78600 26.37900
C  17.71600 -2.79200 25.54500
C  17.50000 -2.38300 24.03900
C  16.77200 -0.97800 24.19400
C  16.92300 -0.70400 25.70400
C  18.61500 -2.48700 23.03800
C  15.31100 -0.85800 23.61600
C  15.24900 -0.19300 22.25800
N  16.73200 0.02300 28.57100
C  16.15800 0.73800 27.61100
C  15.43700 1.84500 28.13100
C  15.67500 1.78500 29.51100
C  16.48000 0.60100 29.76300
C  14.64000 2.81700 27.26200
C  15.45900 2.40900 30.79100
O  14.80600 3.38500 31.16900
C  16.11400 1.42000 31.82500
C  17.10700 2.16600 32.66400
O  18.32100 2.33800 32.41600
O  16.42700 2.79400 33.64400
C  17.33100 3.77000 34.39700
H  19.94600 -4.39500 31.33900
H  18.53600 -4.59100 25.00800
H  15.97900 1.10900 25.59300
H  18.75400 -0.13000 33.02600
H  18.77600 -3.01000 33.30100
H  20.95200 -2.02500 34.02400
H  20.90100 -0.82900 32.80700
H  21.32900 -2.50000 32.37000
H  17.11500 -2.37100 34.06300
H  16.09300 -1.13800 33.30800
H  16.43300 -1.20900 35.93600
H  16.53800 0.21400 35.19000
H  21.48000 -6.07400 30.15300
H  20.95600 -7.51100 29.47100
H  20.00300 -6.67300 30.71300
H  21.38200 -8.53400 26.01000
H  20.41900 -8.42900 27.52400
H  21.89300 -7.41000 27.32900
H  16.76300 -3.10200 23.68200
H  17.32900 -0.27100 23.57900
H  19.54700 -2.74500 23.54100
H  18.85900 -1.51300 22.61400
H  18.36400 -3.24000 22.29200
H  14.74100 -0.32100 24.37300
H  14.80000 -1.81800 23.54400
H  16.21900 -0.00400 21.79800
H  14.79400 0.79400 22.34300
H  14.72900 -0.90100 21.61300
H  15.24300 3.58800 26.78400
H  14.06400 3.33000 28.03200
H  13.95400 2.39700 26.52600
H  15.23500 1.14700 32.40900
H  16.97100 4.78200 34.21600
H  18.40300 3.74000 34.20400
H  17.16200 3.68100 35.47000
Mg 26.35700 -0.04300 29.41600
C  28.16500 -0.31500 32.41900
C  23.48200 0.23600 31.27500
C  24.71800 -0.20500 26.62400
C  29.35200 -0.45400 27.67800
N  25.88900 0.08400 31.59200
C  26.81300 0.00200 32.64100
C  26.15200 0.01400 34.05100
C  24.58200 0.08000 33.59400
C  24.64400 0.05800 32.07600
C  23.74700 -1.13900 34.15900
C  26.62400 1.30200 34.83300
C  25.84100 1.89200 36.00600
H  26.62200 2.39100 37.20800
N  24.34400 0.03200 28.92200
C  23.35500 0.35800 29.83700
C  22.13100 0.69000 29.10500
C  22.40000 0.44900 27.69400
C  23.83900 -0.04100 27.71800
C  20.82800 1.01600 29.81600
C  21.54400 0.79100 26.45700
O  22.04000 0.80500 25.31600
C  20.06900 1.15000 26.60800
N  26.98000 -0.40200 27.42800
C  26.10500 -0.37900 26.45600
C  26.84200 -0.41300 25.08400
C  28.33200 -0.08300 25.45800
C  28.19700 -0.31800 26.95500
C  26.63600 -1.79600 24.31700
C  28.65500 1.40600 25.14800
C  29.65500 1.63100 23.96700
N  28.33300 -0.29700 29.86700
C  29.43600 -0.52900 29.09300
C  30.55400 -0.87800 29.91900
C  30.12000 -0.83500 31.24500
C  28.77400 -0.42000 31.16400
C  31.90400 -1.28900 29.53200
C  30.53800 -0.89000 32.67000
O  31.66900 -1.04400 33.17200
C  29.27400 -0.44000 33.45100
C  29.05600 -1.44600 34.51700
O  28.57900 -2.56200 34.44000
O  29.41700 -0.88400 35.69900
C  29.39500 -1.75500 36.86800
H  22.59100 0.40200 31.88300
H  24.22600 -0.09000 25.65600
H  30.20600 -0.49100 26.99900
H  26.50400 -0.89100 34.54700
H  24.14200 1.00100 33.97700
H  22.84800 -0.80600 34.67800
H  24.36300 -1.70700 34.85600
H  23.50400 -1.79600 33.32400
H  26.89500 2.08100 34.12100
H  27.59500 1.05000 35.25900
H  25.05900 1.23200 36.37900
H  25.29300 2.78400 35.70300
H  20.14800 0.25500 29.43300
H  20.52700 2.02100 29.52300
H  20.79000 0.95000 30.90300
H  19.55400 1.24900 25.65300
H  19.98100 2.11000 27.11800
H  19.49800 0.45000 27.21800
H  26.32900 0.30600 24.44500
H  29.00300 -0.83500 25.04500
H  27.57000 -2.26700 24.00900
H  25.95600 -1.57000 23.49700
H  26.22400 -2.56000 24.97700
H  29.22400 1.83500 25.97300
H  27.76300 2.01300 24.99100
H  30.61700 1.80700 24.44900
H  29.31200 2.46400 23.35300
H  29.73500 0.79300 23.27500
H  32.09600 -1.34100 28.46000
H  32.01400 -2.27300 29.98700
H  32.58200 -0.61000 30.04800
H  29.40800 0.52700 33.93700
H  29.37600 -2.84200 36.78900
H  28.47900 -1.50000 37.40100
H  30.22600 -1.38700 37.47000

