158

Mg 7.03500 53.09100 41.00700
C  6.50100 49.58100 40.99500
C  10.22600 52.66600 40.03000
C  7.05100 56.37600 40.27600
C  3.51600 53.37200 41.72600
N  8.12100 51.33600 40.24100
C  7.80300 49.98600 40.49500
C  9.09100 49.14300 40.37900
C  10.21900 50.23600 40.33300
C  9.48000 51.52800 40.14800
C  11.06000 50.17700 41.63500
C  9.12900 48.00200 39.27700
C  9.26300 48.57600 37.83200
H  8.22100 47.97900 36.77900
N  8.45700 54.39700 40.23700
C  9.75800 54.06800 39.93200
C  10.47000 55.22100 39.46800
C  9.57900 56.32600 39.57200
C  8.28000 55.77700 40.03100
C  11.92100 55.13700 39.08000
C  9.92600 57.73800 39.22900
O  11.07300 58.03400 38.96900
C  8.94500 58.84100 39.13300
N  5.51400 54.52600 40.87400
C  5.80000 55.82400 40.70900
C  4.57400 56.78100 41.01200
C  3.46500 55.72900 41.34600
C  4.23600 54.42200 41.38600
C  4.93400 57.75800 42.17100
C  2.34200 55.74700 40.29200
C  0.99600 56.20900 40.79200
N  5.25100 51.79800 41.31800
C  3.96900 52.04600 41.67900
C  3.25700 50.84900 41.92300
C  4.20100 49.80500 41.79000
C  5.40100 50.42700 41.31600
C  1.80500 50.68500 42.22400
C  4.45200 48.36500 41.83900
O  3.61700 47.51800 42.08100
C  5.96500 48.20400 41.27800
C  5.85500 47.37900 39.99600
O  5.71900 47.80000 38.85000
O  6.08900 46.06600 40.27000
C  6.09400 45.06200 39.13700
H  11.29200 52.46200 39.90800
H  7.01700 57.46500 40.20400
H  2.49000 53.59200 42.02800
H  9.14100 48.58800 41.31600
H  10.80800 49.96200 39.45700
H  10.72500 49.37500 42.29300
H  10.92300 51.09800 42.20100
H  12.12900 50.13000 41.42900
H  8.20600 47.42200 39.30100
H  10.06400 47.44300 39.31900
H  10.20800 48.39800 37.31900
H  9.27100 49.65700 37.97700
H  12.24600 54.10900 38.92100
H  12.52900 55.48200 39.91600
H  12.23900 55.74300 38.23100
H  8.87200 59.42000 40.05300
H  7.96500 58.58100 38.73400
H  9.35100 59.61500 38.48200
H  4.21400 57.37900 40.17500
H  2.93400 55.81500 42.29400
H  5.90500 57.70500 42.66300
H  4.02200 57.72900 42.76700
H  5.01500 58.78000 41.80000
H  2.08700 54.74500 39.94800
H  2.49900 56.42800 39.45600
H  1.04500 56.59000 41.81200
H  0.34600 55.33400 40.78800
H  0.42000 56.93200 40.21500
H  1.40900 51.59700 42.67100
H  1.77800 49.83700 42.90900
H  1.13400 50.37800 41.42300
H  6.47000 47.52700 41.96700
H  7.14000 44.76400 39.06300
H  6.01800 45.56300 38.17200
H  5.53600 44.12800 39.07800
Mg 1.88800 41.99400 26.08400
C  3.59800 42.49000 28.96900
C  -0.86000 41.13800 27.87100
C  0.43000 40.89400 23.32300
C  4.81500 42.76900 24.25300
N  1.48900 41.79100 28.21300
C  2.25000 42.17800 29.22800
C  1.56900 42.10000 30.58100
C  0.11300 41.47300 30.10800
C  0.21100 41.46900 28.62800
C  -0.28900 40.09000 30.87900
C  1.52100 43.48000 31.41000
C  1.97600 43.41900 32.86800
H  1.75900 42.15300 33.69600
N  -0.03000 41.26400 25.65100
C  -1.03700 41.08200 26.50400
C  -2.25400 40.63800 25.83800
C  -1.89500 40.59200 24.41000
C  -0.45500 40.91800 24.43900
C  -3.58100 40.32400 26.56000
C  -2.78200 40.28300 23.20200
O  -2.46300 40.31200 22.02600
C  -4.29000 40.13700 23.58700
N  2.55300 41.76000 24.16200
C  1.78500 41.20200 23.19600
C  2.50200 40.92400 21.92100
C  3.78900 41.78600 22.07500
C  3.71900 42.19900 23.57400
C  2.58000 39.45600 21.45900
C  3.75000 43.15600 21.32600
C  5.24000 43.75700 20.95000
N  3.82100 42.55400 26.44400
C  4.87100 42.92200 25.64300
C  5.94900 43.35700 26.42900
C  5.54000 43.10000 27.74600
C  4.19100 42.69400 27.74000
C  7.29500 43.73100 25.96000
C  6.05000 42.92000 29.07000
O  7.21900 42.88100 29.52500
C  4.70800 42.65600 29.97500
C  5.03500 41.40500 30.71500
O  4.97600 40.27300 30.22200
O  5.37300 41.64800 32.06400
C  5.70700 40.45800 32.88700
H  -1.77000 41.03100 28.46500
H  -0.10900 40.58700 22.42400
H  5.67200 43.07400 23.65000
H  2.19900 41.40400 31.13500
H  -0.54400 42.25100 30.49700
H  -0.69500 39.34400 30.19600
H  -1.13300 40.35500 31.51600
H  0.55600 39.77600 31.49200
H  0.54800 43.96200 31.50700
H  2.06300 44.20900 30.80900
H  1.53900 44.29200 33.35300
H  3.06100 43.52400 32.89600
H  -4.25600 41.11500 26.23300
H  -3.49300 40.25400 27.64500
H  -3.94800 39.31500 26.37300
H  -4.51900 39.07300 23.64600
H  -4.88500 40.49600 22.74700
H  -4.70000 40.70500 24.42200
H  1.93900 41.52500 21.20700
H  4.78300 41.34000 22.03100
H  3.59400 39.07600 21.58500
H  2.22400 39.44000 20.42900
H  2.09500 38.75200 22.13500
H  3.18800 43.79300 22.00900
H  3.13700 43.27400 20.43300
H  5.37100 43.75100 19.86800
H  6.08200 43.15700 21.29700
H  5.48700 44.71800 21.40000
H  7.21000 44.11300 24.94300
H  7.96800 42.87500 26.00100
H  7.71200 44.38800 26.72300
H  4.46900 43.53800 30.57000
H  5.69500 40.89500 33.88500
H  6.68000 39.98200 32.76400
H  5.03100 39.63000 32.67200

