158

Mg 17.65800 0.03500 27.88700
C  16.27700 1.93900 30.37100
C  19.43700 -1.78400 30.07100
C  19.10500 -1.69500 25.30400
C  15.89100 2.00300 25.55000
N  17.99800 0.13300 29.89800
C  17.19600 0.90100 30.74300
C  17.62200 0.67800 32.21600
C  18.81000 -0.32900 32.14500
C  18.77800 -0.72800 30.65500
C  20.22600 0.23500 32.67000
C  16.39600 0.18000 33.06800
C  16.61000 0.14500 34.55400
H  17.85000 0.73100 35.23600
N  19.00200 -1.49100 27.71800
C  19.51200 -2.24900 28.80500
C  20.28000 -3.37200 28.40700
C  20.22700 -3.35100 26.95000
C  19.45900 -2.12100 26.57100
C  20.97600 -4.43900 29.35400
C  20.89100 -4.27500 25.95500
O  20.79900 -4.24900 24.68800
C  21.72500 -5.39900 26.54200
N  17.51100 0.14800 25.76500
C  18.29800 -0.61200 24.91500
C  18.07600 -0.21100 23.46400
C  16.89500 0.81400 23.58700
C  16.74100 0.96700 25.05100
C  19.47000 0.29700 22.88900
C  15.60500 0.55900 22.74900
C  14.32300 0.07400 23.40000
N  16.38200 1.65100 27.94000
C  15.80800 2.38400 26.91200
C  14.88000 3.32900 27.46000
C  15.06400 3.28600 28.83700
C  15.97200 2.19700 28.99900
C  14.11000 4.21200 26.70500
C  14.83300 3.84900 30.11500
O  14.13300 4.80000 30.48900
C  15.46900 2.96800 31.14600
C  16.23800 3.81800 32.05500
O  17.22600 4.37700 31.73400
O  15.72700 3.81400 33.37300
C  16.36800 4.77000 34.35400
H  20.06000 -2.38500 30.73600
H  19.48400 -2.20100 24.41400
H  15.25100 2.52900 24.83800
H  17.93500 1.62900 32.64600
H  18.54700 -1.15500 32.80600
H  20.73400 -0.49500 33.30100
H  20.09600 1.22900 33.09900
H  20.77300 0.47800 31.75900
H  16.27500 -0.84900 32.72800
H  15.51700 0.75100 32.76800
H  16.52200 -0.87800 34.92000
H  15.74400 0.62500 35.01100
H  20.85600 -4.24700 30.42000
H  22.06000 -4.51000 29.26500
H  20.64100 -5.47600 29.37000
H  22.09100 -5.96200 25.68400
H  21.04600 -5.96800 27.17700
H  22.54100 -5.13400 27.21400
H  17.88600 -1.13800 22.92300
H  17.17400 1.82400 23.28400
H  20.11400 0.55900 23.72800
H  19.39700 1.09700 22.15200
H  19.98800 -0.49100 22.34300
H  15.85200 -0.07200 21.89600
H  15.36600 1.53400 22.32300
H  13.67000 -0.38000 22.65400
H  13.85600 0.94100 23.86800
H  14.55700 -0.63400 24.19400
H  13.52100 3.47100 26.16400
H  14.76100 4.81200 26.06900
H  13.55600 4.93500 27.30400
H  14.71300 2.56600 31.82100
H  16.64900 5.68400 33.83200
H  17.18400 4.24000 34.84500
H  15.65300 4.98700 35.14800
Mg 4.96700 54.84500 40.38900
C  4.47700 51.47200 41.05100
C  7.69200 54.21000 38.55500
C  4.76100 57.99600 39.24100
C  1.67600 55.34800 41.75200
N  5.85400 53.00800 39.70700
C  5.60800 51.73900 40.25100
C  6.58600 50.73100 39.70500
C  7.84100 51.69700 39.36600
C  7.09600 53.03700 39.19000
C  8.93100 51.70000 40.46900
C  6.13700 49.86400 38.49000
C  4.83000 50.20300 37.74100
H  4.94500 49.76500 36.25800
N  6.11700 56.04400 39.08000
C  7.21200 55.56100 38.45600
C  7.82100 56.68800 37.81300
C  7.03700 57.78000 38.00100
C  5.92100 57.34200 38.80100
C  9.16800 56.52700 37.07700
C  7.35400 59.15200 37.40700
O  8.21000 59.35500 36.50000
C  6.69700 60.35900 37.94800
N  3.32500 56.35100 40.36500
C  3.61300 57.56100 39.87500
C  2.49100 58.57500 40.21100
C  1.37600 57.73600 40.74800
C  2.14700 56.40700 40.94600
C  2.90400 59.75600 41.09900
C  0.12600 57.62200 39.74900
C  -1.27600 58.04300 40.40600
N  3.46600 53.73900 41.44400
C  2.26900 54.06500 41.99300
C  1.78000 52.95900 42.81000
C  2.73600 51.94600 42.52100
C  3.64100 52.42700 41.64200
C  0.47000 52.93900 43.74600
C  3.02100 50.52900 42.81900
O  2.59100 49.75400 43.56600
C  4.14900 50.19500 41.76800
C  3.58100 49.13100 40.89200
O  2.62100 49.34100 40.13200
O  4.32200 47.95400 41.03700
C  3.87400 46.72700 40.34400
H  8.70900 54.01800 38.20600
H  4.61000 59.01600 38.88300
H  0.71100 55.51700 42.23300
H  6.72900 50.10200 40.58400
H  8.25600 51.26400 38.45500
H  8.76700 50.86500 41.15000
H  8.93400 52.64800 41.00500
H  9.90300 51.64100 39.97900
H  5.92000 48.91400 38.97800
H  6.94000 49.63600 37.79000
H  4.68000 51.28000 37.80600
H  3.99900 49.61200 38.12800
H  9.80300 57.38700 36.86300
H  9.17300 55.94700 36.15500
H  9.74100 55.94100 37.79600
H  7.29700 61.24100 37.72100
H  6.46100 60.27500 39.00900
H  5.80600 60.40100 37.32200
H  2.20200 59.04200 39.27000
H  0.99500 58.13000 41.69000
H  2.30500 59.92300 41.99400
H  2.61000 60.69100 40.62100
H  3.98000 59.67200 41.25400
H  0.03700 56.61400 39.34200
H  0.20800 58.31100 38.90900
H  -1.15500 58.66700 41.29200
H  -1.74700 57.16500 40.84800
H  -1.90600 58.57500 39.69400
H  0.68800 52.69400 44.78500
H  -0.32100 52.30400 43.34800
H  -0.01800 53.91400 43.75900
H  5.00600 49.69600 42.22200
H  3.87500 45.86800 41.01500
H  4.55500 46.41200 39.55300
H  2.89500 46.77100 39.86600

