158

Mg 26.58200 0.36000 29.15300
C  28.32100 -0.15100 32.09900
C  23.68800 0.95300 30.98000
C  24.80100 0.31100 26.19600
C  29.40200 -0.70300 27.33700
N  26.09600 0.27900 31.28200
C  27.00200 0.21000 32.30300
C  26.34300 0.34600 33.74500
C  24.79000 0.45800 33.27600
C  24.85400 0.54300 31.76100
C  23.75400 -0.56600 33.72300
C  26.90700 1.43700 34.60700
C  27.36400 1.02800 36.06300
H  27.03500 1.91400 37.17200
N  24.56000 0.78800 28.66200
C  23.52300 1.04700 29.56400
C  22.32400 1.36800 28.80800
C  22.64600 1.16300 27.42000
C  24.06200 0.70200 27.39200
C  21.07200 1.80200 29.49900
C  21.72300 1.27000 26.21800
O  22.01500 1.03400 25.05100
C  20.28600 1.50500 26.59700
N  27.04900 -0.21700 26.95300
C  26.14900 -0.05900 26.00900
C  26.74200 0.05700 24.55500
C  28.32800 -0.13800 24.97700
C  28.28300 -0.40600 26.52300
C  26.23400 -1.03000 23.50600
C  29.24600 1.00600 24.59400
C  29.57900 1.12200 23.11700
N  28.44000 -0.33700 29.52800
C  29.48500 -0.78300 28.75400
C  30.63100 -1.14700 29.55400
C  30.22400 -0.91000 30.89800
C  28.88600 -0.39900 30.83100
C  31.89600 -1.57200 28.99600
C  30.67900 -0.94300 32.30600
O  31.71500 -1.08200 32.87300
C  29.41000 -0.46800 33.10300
C  29.04100 -1.44200 34.10100
O  28.25800 -2.37600 33.89100
O  29.75200 -1.15200 35.21700
C  29.56000 -2.11500 36.36100
H  22.83700 1.24900 31.59700
H  24.19400 0.27500 25.28900
H  30.33500 -0.90100 26.80600
H  26.46300 -0.63400 34.20800
H  24.38900 1.37300 33.71200
H  24.32200 -1.30900 34.28300
H  23.21300 -1.08800 32.93400
H  23.02200 -0.10300 34.38400
H  26.11200 2.17600 34.71100
H  27.72800 1.96800 34.12600
H  28.44200 0.87000 36.09700
H  26.96100 0.05000 36.32600
H  20.79300 2.82500 29.24500
H  21.19400 1.84500 30.58100
H  20.27100 1.06800 29.41100
H  19.84800 0.71600 27.20800
H  19.73100 1.63600 25.66800
H  20.31500 2.51400 27.00900
H  26.56900 1.07200 24.19900
H  28.68800 -1.05300 24.50500
H  25.50700 -1.69900 23.96800
H  27.08900 -1.56400 23.09200
H  25.69700 -0.51400 22.71000
H  30.14500 1.05200 25.20900
H  28.68100 1.91700 24.78900
H  28.99900 1.95700 22.72400
H  29.31800 0.18500 22.62400
H  30.63500 1.37800 23.03300
H  32.12800 -1.06200 28.06100
H  31.89400 -2.61400 28.67500
H  32.73600 -1.40000 29.66900
H  29.69300 0.40400 33.69300
H  29.43200 -3.14600 36.03200
H  28.67800 -1.75100 36.88900
H  30.43800 -2.09400 37.00600
Mg -12.01000 38.44500 41.94800
C  -10.09900 35.57600 40.91700
C  -9.60600 40.48700 40.46600
C  -13.98100 41.07800 42.47400
C  -14.46500 36.15800 43.06400
N  -10.07900 38.01600 40.78500
C  -9.45400 36.84700 40.52300
C  -8.10500 37.01600 39.69200
C  -7.91800 38.55500 39.88500
C  -9.32000 39.09100 40.37500
C  -6.75300 38.89400 40.86000
C  -8.37400 36.51300 38.24500
C  -7.31500 35.61000 37.65200
H  -6.35300 36.31000 36.72100
N  -11.89300 40.53500 41.51900
C  -10.77800 41.18300 40.93800
C  -11.02400 42.56600 40.95900
C  -12.32600 42.81600 41.46100
C  -12.82500 41.47100 41.89200
C  -10.04400 43.47000 40.25100
C  -12.89400 44.13600 41.55200
O  -12.38800 45.16300 41.20200
C  -14.34900 44.31100 42.15600
N  -13.92000 38.58200 42.55700
C  -14.54000 39.82500 42.78600
C  -15.96100 39.69600 43.25900
C  -16.18300 38.09300 43.11200
C  -14.75700 37.57700 42.97000
C  -16.19400 40.12400 44.78700
C  -16.98800 37.80400 41.82000
C  -18.39800 37.43800 41.97800
N  -12.27600 36.19500 42.09500
C  -13.26000 35.46100 42.67000
C  -12.92100 34.05700 42.65700
C  -11.63700 34.02000 41.97200
C  -11.40100 35.38700 41.61600
C  -13.66100 32.89000 43.22500
C  -10.58600 33.17000 41.47100
O  -10.35300 31.96400 41.42900
C  -9.56700 34.18100 40.85200
C  -8.28900 33.90500 41.55200
O  -7.82100 34.51600 42.48600
O  -7.55900 33.24600 40.65300
C  -6.07400 33.20200 40.96200
H  -8.83900 40.96800 39.85600
H  -14.54900 41.92000 42.87600
H  -15.29900 35.52100 43.36700
H  -7.34500 36.41300 40.18700
H  -7.60000 39.04600 38.96600
H  -7.03400 39.72800 41.50300
H  -5.87800 39.26900 40.33000
H  -6.47000 38.06000 41.50200
H  -8.41800 37.40400 37.61900
H  -9.33800 36.01400 38.34300
H  -8.00100 34.89200 37.20200
H  -6.66500 35.06200 38.33500
H  -9.30800 43.84400 40.96200
H  -10.63300 44.33500 39.94600
H  -9.52600 43.03100 39.39800
H  -15.03700 43.60600 41.68800
H  -14.56700 45.36200 41.96700
H  -14.17000 44.07600 43.20500
H  -16.68000 40.28300 42.68800
H  -16.64500 37.62400 43.98100
H  -16.67600 41.09700 44.69200
H  -15.23700 40.28400 45.28300
H  -16.84100 39.41400 45.30300
H  -16.46800 37.08700 41.18500
H  -16.91500 38.76200 41.30600
H  -18.64100 36.68900 41.22400
H  -19.10000 38.26400 41.86800
H  -18.61600 36.89100 42.89600
H  -14.13900 32.41300 42.36900
H  -14.33300 33.27500 43.99200
H  -12.98100 32.15900 43.66200
H  -9.59700 33.78200 39.83800
H  -5.77400 34.05700 41.56900
H  -5.54700 33.07200 40.01700
H  -5.75000 32.29800 41.47700

