158

Mg 2.27300 -1.52500 44.70500
C  5.55200 -0.67100 44.34700
C  1.52200 0.89800 42.20100
C  -0.86300 -2.58600 44.66700
C  3.34500 -4.55100 46.26200
N  3.42500 -0.24300 43.29700
C  4.79800 -0.01200 43.36600
C  5.32000 1.02100 42.38500
C  3.97000 1.50400 41.72600
C  2.89900 0.72300 42.48400
C  3.86600 3.03900 41.76900
C  6.48100 0.43200 41.43000
C  7.78100 1.22100 41.36200
H  8.28100 1.55200 39.95300
N  0.52600 -0.75000 43.79200
C  0.43500 0.19300 42.80000
C  -0.93400 0.49700 42.52400
C  -1.67100 -0.56700 43.18100
C  -0.70100 -1.35600 43.97000
C  -1.45900 1.56500 41.64000
C  -3.32500 -0.65600 43.02000
O  -3.99600 0.18500 42.41300
C  -4.05800 -1.84800 43.72500
N  1.38200 -3.37000 45.28700
C  0.03400 -3.41900 45.31400
C  -0.43500 -4.78900 45.87500
C  0.90500 -5.34400 46.45700
C  1.97200 -4.38000 45.99700
C  -1.73100 -4.98200 46.67300
C  1.30200 -6.80900 46.25600
C  1.65200 -7.80400 47.40400
N  4.05700 -2.48000 45.33200
C  4.30300 -3.60700 46.03900
C  5.66000 -3.57600 46.40600
C  6.20100 -2.40900 45.85000
C  5.15900 -1.82700 45.16700
C  6.51200 -4.57500 47.24300
C  7.35700 -1.57800 45.74000
O  8.50000 -1.74200 46.18000
C  6.94600 -0.36000 44.71400
C  7.10500 0.90500 45.38500
O  6.43800 1.31700 46.33700
O  8.21800 1.57300 44.88500
C  8.61600 2.86400 45.42100
H  1.24700 1.68500 41.49500
H  -1.89600 -2.92200 44.77800
H  3.68400 -5.40500 46.85100
H  5.56300 1.85300 43.04700
H  4.13600 1.24800 40.67900
H  4.77200 3.58200 42.03900
H  3.12300 3.14800 42.55900
H  3.53400 3.43700 40.81100
H  6.06100 0.14700 40.46500
H  6.72100 -0.54600 41.84700
H  8.56300 0.74600 41.95400
H  7.75900 2.16400 41.90800
H  -1.82200 2.41400 42.21900
H  -2.23700 1.19400 40.97300
H  -0.77200 1.89600 40.86000
H  -5.09400 -1.88400 43.38800
H  -4.03300 -1.82500 44.81500
H  -3.57400 -2.76400 43.38800
H  -0.50300 -5.32800 44.93000
H  0.91300 -5.19700 47.53700
H  -2.29500 -4.10400 46.98800
H  -1.65600 -5.70000 47.49000
H  -2.51400 -5.34700 46.00800
H  2.08600 -6.90900 45.50400
H  0.38000 -7.23100 45.85600
H  2.62600 -8.26000 47.22000
H  0.91900 -8.60800 47.46900
H  1.56600 -7.35300 48.39200
H  5.88300 -5.27200 47.79700
H  7.19500 -3.94300 47.80900
H  7.14200 -5.09300 46.51900
H  7.57900 -0.47100 43.83400
H  9.30300 3.23000 44.65800
H  8.98200 2.76600 46.44200
H  7.80100 3.58000 45.53200
Mg 45.21100 3.75800 48.02200
C  43.50000 6.65600 47.47200
C  42.37700 2.00300 47.36700
C  47.18200 1.05400 47.77000
C  48.19100 5.69600 47.94000
N  43.24000 4.25000 47.55500
C  42.69300 5.49000 47.39400
C  41.24800 5.42700 46.89500
C  40.81600 3.99100 47.44100
C  42.23500 3.40900 47.40200
C  40.28400 3.92100 48.84700
C  41.22700 5.56900 45.34700
C  40.02100 6.37700 44.89600
H  40.13100 6.79700 43.41100
N  44.80200 1.77100 47.72400
C  43.56100 1.24300 47.39000
C  43.72500 -0.20500 47.24400
C  45.07500 -0.56000 47.45900
C  45.78900 0.75700 47.68700
C  42.48000 -1.06500 46.93100
C  45.64600 -2.03700 47.52100
O  44.92800 -3.02100 47.29200
C  47.08600 -2.30700 47.88600
N  47.37200 3.44000 47.62600
C  47.87500 2.17600 47.82300
C  49.36700 2.17100 48.01800
C  49.68900 3.68600 47.63700
C  48.34700 4.31000 47.79400
C  49.91800 1.62100 49.30700
C  50.33700 3.87700 46.26200
C  51.84300 3.98800 46.24000
N  45.78100 5.78000 47.92400
C  46.97600 6.42000 47.95100
C  46.71500 7.87200 47.94600
C  45.35300 7.99300 47.79600
C  44.84900 6.69900 47.72500
C  47.79000 8.97100 47.91900
C  44.17600 8.91500 47.55400
O  44.19900 10.12500 47.51100
C  42.98000 8.12200 47.32300
C  41.98600 8.55800 48.34000
O  41.94900 8.27800 49.48000
O  41.13700 9.42800 47.75300
C  40.13600 9.94100 48.64200
H  41.48000 1.39400 47.23300
H  47.75700 0.12500 47.76500
H  49.12000 6.26800 47.90800
H  40.65600 6.18300 47.41000
H  40.15700 3.34700 46.85800
H  40.06100 4.96600 49.06300
H  40.86300 3.46900 49.65200
H  39.26100 3.54700 48.85700
H  41.30100 4.57000 44.91600
H  42.12800 6.06600 44.98700
H  39.99700 7.22700 45.57800
H  39.15100 5.75700 45.11200
H  42.73300 -1.81200 46.17800
H  41.58400 -0.65100 46.46700
H  42.14000 -1.53800 47.85200
H  47.14600 -3.29300 48.34600
H  47.21800 -1.59500 48.70000
H  47.65800 -2.09400 46.98300
H  49.79000 1.51900 47.25300
H  50.30300 4.01300 48.47600
H  50.83800 2.12700 49.60000
H  50.21000 0.57200 49.26100
H  49.15000 1.64300 50.08000
H  49.92500 4.75400 45.76400
H  50.00800 3.07500 45.60100
H  52.30800 3.20900 45.63500
H  52.28100 3.84200 47.22800
H  52.15800 4.97200 45.89300
H  48.43700 8.93400 47.04400
H  48.37100 8.96500 48.84100
H  47.32600 9.94800 47.78400
H  42.51000 8.36600 46.37100
H  40.44400 10.98500 48.70000
H  39.85900 9.45600 49.57800
H  39.24200 9.88900 48.02100

