158

Mg 47.69600 16.96600 28.76800
C  46.08700 16.33600 31.69100
C  50.08300 18.78300 30.27200
C  49.13100 17.33500 25.67000
C  44.98800 15.42800 27.06000
N  47.99200 17.57700 30.73000
C  47.28900 17.13500 31.83900
C  47.92700 17.64700 33.11000
C  48.99300 18.62200 32.58800
C  49.04800 18.38400 31.10600
C  48.78800 20.19300 33.01300
C  48.51800 16.39900 33.96100
C  48.59600 16.53300 35.49800
H  48.20900 17.92700 36.13400
N  49.37900 17.94900 28.05700
C  50.27500 18.50700 28.87900
C  51.43600 18.95800 28.12200
C  51.09600 18.69100 26.80100
C  49.78600 17.87300 26.78800
C  52.65900 19.70100 28.68600
C  51.91400 19.00700 25.51500
O  51.46200 18.67700 24.42300
C  53.21700 19.66900 25.57200
N  47.16900 16.26900 26.60800
C  47.93300 16.57000 25.52700
C  47.35800 16.05100 24.20800
C  45.94300 15.58400 24.70800
C  45.98700 15.75500 26.19600
C  47.15700 17.17200 23.07300
C  45.69000 14.11000 24.26800
C  44.76400 14.10000 23.03700
N  45.95500 16.00400 29.21500
C  45.00900 15.40900 28.42300
C  43.94100 14.88900 29.27200
C  44.35100 15.09000 30.59400
C  45.56900 15.90900 30.45600
C  42.69000 14.19400 28.86900
C  44.08100 14.97000 31.99900
O  43.14700 14.34100 32.50100
C  45.19100 15.79100 32.76600
C  44.40800 16.79000 33.47400
O  43.67700 17.67500 32.99100
O  44.61200 16.59400 34.87100
C  43.76500 17.53200 35.62200
H  50.87200 19.38000 30.73500
H  49.53300 17.41400 24.65800
H  44.11500 15.08300 26.50000
H  47.14500 18.12900 33.69600
H  49.95400 18.24900 32.94400
H  48.37700 20.76400 32.18100
H  49.76400 20.57500 33.31200
H  48.06000 20.19700 33.82500
H  49.54700 16.24700 33.63400
H  48.10200 15.43400 33.67100
H  49.56100 16.14700 35.82500
H  47.90000 15.83000 35.95700
H  52.89600 20.60600 28.12700
H  53.45900 18.96100 28.70600
H  52.43700 19.93400 29.72800
H  53.28000 20.69100 25.94300
H  53.76400 19.54900 24.63700
H  53.86200 19.01000 26.15500
H  47.89700 15.18800 23.81700
H  45.18000 16.24700 24.29900
H  47.72300 18.09100 23.22400
H  46.12300 17.36700 22.79100
H  47.69600 16.67300 22.26800
H  45.11000 13.56400 25.01200
H  46.59000 13.49600 24.24400
H  44.71200 15.05800 22.52000
H  43.73500 14.06600 23.39400
H  44.88700 13.12800 22.55800
H  42.62900 13.41800 29.63300
H  42.68700 13.80300 27.85200
H  41.82700 14.84500 29.00900
H  45.73100 15.13200 33.44600
H  43.93700 18.54300 35.25300
H  44.11200 17.61800 36.65100
H  42.74400 17.19500 35.79700
Mg 49.11900 46.43700 42.52400
C  45.83000 46.34700 41.48500
C  49.50800 43.12900 41.07500
C  52.37600 46.47500 43.21600
C  48.85500 49.78200 43.34500
N  47.73400 44.81800 41.45200
C  46.45100 45.10800 41.02200
C  45.86600 43.93800 40.19200
C  47.07000 42.88300 40.12600
C  48.20100 43.68200 40.89500
C  46.73600 41.53500 40.81800
C  45.40700 44.43700 38.74700
C  43.92900 44.14200 38.42900
H  43.48600 43.10000 37.34900
N  50.69800 45.00300 42.25000
C  50.63300 43.73500 41.62200
C  51.92600 43.10800 41.66700
C  52.78200 43.99700 42.42100
C  51.97700 45.20200 42.62500
C  52.19300 41.78300 41.04700
C  54.19600 43.78500 42.84400
O  54.77900 42.80500 42.47000
C  54.96400 44.77600 43.74500
N  50.40000 47.89200 43.02800
C  51.75600 47.67600 43.41900
C  52.46000 48.99500 43.77000
C  51.22800 49.98700 43.70800
C  50.02900 49.13800 43.35200
C  53.32600 49.06200 45.08900
C  51.65400 51.35200 42.91700
C  51.19300 52.62400 43.70200
N  47.59600 47.84500 42.46400
C  47.64300 49.17700 42.84000
C  46.32500 49.68000 42.80900
C  45.54400 48.60000 42.29500
C  46.44600 47.51400 42.08200
C  46.00200 51.06000 43.00200
C  44.23400 48.23100 41.89700
O  43.15500 48.89600 41.77800
C  44.27700 46.72300 41.45400
C  43.51700 45.95700 42.46300
O  43.87200 45.75000 43.59600
O  42.26600 45.66800 42.02600
C  41.35500 45.09500 43.04000
H  49.42000 42.15500 40.58800
H  53.45400 46.64200 43.25300
H  48.74900 50.86100 43.47300
H  45.01600 43.56000 40.76100
H  47.50300 42.78400 39.13100
H  45.65100 41.43900 40.85400
H  47.13100 41.58200 41.83300
H  47.17500 40.62100 40.41900
H  45.99600 43.97600 37.95400
H  45.57500 45.51000 38.65500
H  43.49300 45.08500 38.09800
H  43.28100 43.89600 39.27100
H  53.16300 41.35900 41.30700
H  52.16600 42.06400 39.99400
H  51.42200 41.04900 41.28400
H  55.40600 45.59900 43.18200
H  55.71400 44.29100 44.37000
H  54.28900 45.08000 44.54500
H  53.17300 49.15200 42.96000
H  50.87100 50.17600 44.72100
H  54.33600 49.30900 44.76200
H  53.28700 48.12100 45.63800
H  52.96200 49.92500 45.64800
H  51.28900 51.22000 41.89800
H  52.73700 51.30900 42.79500
H  50.50300 52.28600 44.47600
H  50.64000 53.33800 43.09200
H  52.03700 53.14200 44.15600
H  44.91600 51.15500 43.03000
H  46.48900 51.57100 42.17200
H  46.43100 51.49300 43.90600
H  43.91700 46.57100 40.43700
H  40.36700 45.10800 42.58000
H  41.38800 45.66400 43.96900
H  41.67800 44.06900 43.21600

