158

Mg 35.46800 1.42000 29.67400
C  33.12900 2.79500 31.96300
C  37.80000 1.55900 32.31000
C  37.80400 0.90000 27.48000
C  33.14500 2.03300 27.09000
N  35.48300 2.23100 31.83800
C  34.37000 2.55700 32.59000
C  34.64200 2.55100 34.08300
C  36.17000 2.37500 34.07800
C  36.49300 2.02400 32.68600
C  37.07600 3.60500 34.39800
C  33.79900 1.29900 34.69400
C  33.33400 1.41200 36.11600
H  34.05200 2.45400 37.05000
N  37.53600 1.23000 29.85700
C  38.32200 1.17300 30.93900
C  39.70700 0.83400 30.59800
C  39.68900 0.56600 29.23200
C  38.32500 0.92900 28.78100
C  40.76300 0.60700 31.63800
C  40.75700 -0.01900 28.34800
O  40.63900 -0.04100 27.11900
C  41.94700 -0.66000 28.89900
N  35.43500 1.34700 27.60000
C  36.51700 1.06100 26.94100
C  36.22200 1.00300 25.39000
C  34.64900 0.97300 25.35400
C  34.33900 1.49400 26.76800
C  36.94200 1.94400 24.41300
C  33.86900 -0.36500 24.95900
C  33.58900 -0.52300 23.44300
N  33.52600 2.02200 29.52300
C  32.71500 2.36400 28.40000
C  31.38400 2.76000 28.79700
C  31.55000 2.86100 30.22300
C  32.82900 2.54600 30.57100
C  30.23200 3.13000 27.89400
C  30.79700 3.32400 31.32300
O  29.66300 3.74900 31.40900
C  31.75600 3.22700 32.52800
C  31.61600 4.45500 33.33600
O  31.97000 5.60200 33.06900
O  31.03000 4.04900 34.49700
C  30.97800 5.06800 35.62400
H  38.51200 1.77000 33.11200
H  38.53000 0.71700 26.68400
H  32.44800 2.13500 26.25500
H  34.24900 3.47300 34.51100
H  36.41600 1.59200 34.79600
H  38.07900 3.24400 34.62400
H  36.59200 4.11900 35.22800
H  37.09900 4.29100 33.55100
H  34.53200 0.49300 34.65000
H  32.90100 1.15700 34.09400
H  33.35300 0.42800 36.58300
H  32.33100 1.83100 36.04100
H  40.86900 -0.47600 31.69800
H  40.45700 1.11900 32.55000
H  41.74300 0.99000 31.35300
H  42.51900 -1.15800 28.11600
H  41.65100 -1.42200 29.62000
H  42.61400 0.05300 29.38300
H  36.43200 -0.01400 25.05900
H  34.26800 1.73700 24.67700
H  37.93900 1.51900 24.29600
H  37.03400 2.96500 24.78400
H  36.40800 1.91700 23.46300
H  32.91800 -0.27000 25.48100
H  34.35200 -1.26700 25.33600
H  32.74700 0.10400 23.15300
H  33.13700 -1.49700 23.25400
H  34.52100 -0.28900 22.92800
H  30.63500 3.21800 26.88500
H  29.76800 4.01900 28.32200
H  29.43800 2.38400 27.90300
H  31.41300 2.32800 33.04000
H  31.18200 6.11700 35.40800
H  31.74400 4.78300 36.34600
H  30.01800 4.81000 36.07000
Mg -11.91500 39.26300 42.07700
C  -10.20600 36.31100 41.33100
C  -9.52300 41.00500 40.47200
C  -13.88300 42.06200 42.42200
C  -14.56800 37.28600 43.15400
N  -10.13700 38.64300 41.01300
C  -9.58500 37.38200 40.80100
C  -8.39500 37.40200 39.81300
C  -8.08500 39.00600 39.78500
C  -9.38200 39.61500 40.39900
C  -6.75400 39.40700 40.41500
C  -8.58100 36.76000 38.42200
C  -7.41600 35.81200 38.03100
H  -6.24100 36.41400 37.27600
N  -11.60500 41.29800 41.60700
C  -10.53900 41.84400 40.97400
C  -10.72600 43.27600 40.87400
C  -11.92200 43.58500 41.64200
C  -12.52700 42.22400 41.92700
C  -9.69900 44.16500 40.15800
C  -12.39600 44.98600 41.86100
O  -11.77200 45.94200 41.35000
C  -13.69100 45.35400 42.64600
N  -13.93300 39.62800 42.67000
C  -14.52800 40.85500 42.72100
C  -15.96400 40.72200 43.16100
C  -16.21300 39.19600 43.41800
C  -14.82800 38.63700 42.98100
C  -16.45900 41.59200 44.33600
C  -17.38900 38.50100 42.71200
C  -18.63700 37.94400 43.51800
N  -12.30500 37.26800 42.43300
C  -13.40800 36.62300 42.86000
C  -13.17200 35.15900 42.83800
C  -11.90000 35.03700 42.27100
C  -11.45000 36.27300 42.03200
C  -14.15200 34.03400 43.27700
C  -10.87700 34.04900 41.80400
O  -10.95000 32.81800 41.80200
C  -9.70100 34.92600 41.17500
C  -8.55700 34.68400 42.04000
O  -8.30400 35.22800 43.12800
O  -7.60800 33.89900 41.40700
C  -6.23000 33.81800 41.83000
H  -8.89500 41.52900 39.74700
H  -14.62200 42.84700 42.59200
H  -15.36600 36.62200 43.49400
H  -7.44800 37.06200 40.23200
H  -8.09200 39.32400 38.74200
H  -6.58600 38.86300 41.34400
H  -6.90100 40.46600 40.62400
H  -5.96200 39.13700 39.71600
H  -8.59500 37.44200 37.57100
H  -9.51800 36.20800 38.49100
H  -7.80300 34.96600 37.46200
H  -7.07500 35.48900 39.01400
H  -9.53900 45.10800 40.68100
H  -10.14000 44.23700 39.16400
H  -8.78500 43.60400 39.96600
H  -14.47600 44.99500 41.98100
H  -13.80200 46.42300 42.82700
H  -13.64300 44.77400 43.56800
H  -16.56700 40.86600 42.26500
H  -16.34500 38.94000 44.46900
H  -17.04600 42.41400 43.92500
H  -15.61300 42.09800 44.80100
H  -17.05300 41.03100 45.05600
H  -16.98100 37.65900 42.15200
H  -17.86100 39.08600 41.92200
H  -18.66000 36.85400 43.52600
H  -19.52900 38.46100 43.16500
H  -18.54900 38.07800 44.59600
H  -15.10200 34.10500 42.74900
H  -14.40700 34.20500 44.32300
H  -13.67500 33.05500 43.23500
H  -9.51700 34.62900 40.14300
H  -5.55900 34.28800 41.11100
H  -5.92000 32.77400 41.88500
H  -6.00500 34.20000 42.82500

