158

Mg 49.42200 35.86800 27.14700
C  47.37200 34.34400 29.46800
C  50.23000 38.30300 29.39600
C  51.52400 37.21200 24.76400
C  48.83500 33.35800 24.87800
N  48.79100 36.25500 29.16000
C  48.05300 35.47600 30.01300
C  48.23600 35.97900 31.49200
C  48.90100 37.40100 31.41500
C  49.35200 37.33500 29.88000
C  48.16700 38.68700 31.79000
C  49.13800 35.03000 32.34500
C  48.94700 34.89100 33.91200
H  48.06300 35.85500 34.57800
N  50.62500 37.62400 26.98100
C  50.82800 38.47700 28.05000
C  51.74300 39.48200 27.70400
C  52.27900 39.20500 26.40600
C  51.49800 37.92900 25.98400
C  52.05600 40.70100 28.65000
C  53.30800 39.91200 25.51600
O  53.63300 39.43500 24.44100
C  54.04600 41.14500 26.04400
N  49.86900 35.52800 24.97100
C  50.83500 36.14700 24.26900
C  51.06800 35.55900 22.85700
C  50.42400 34.19000 23.08500
C  49.67200 34.38800 24.37200
C  50.26900 36.42800 21.89100
C  51.38400 33.00400 23.19400
C  51.51800 32.26000 21.91400
N  48.21900 34.24800 27.09800
C  48.15600 33.32800 26.14100
C  47.34600 32.19600 26.65700
C  46.94400 32.60000 27.94000
C  47.52200 33.82700 28.19200
C  47.15500 30.88100 25.90300
C  46.21100 32.19900 29.04500
O  45.55800 31.11800 29.23300
C  46.34000 33.42600 30.01700
C  46.51600 32.79600 31.42300
O  47.42000 32.06100 31.85400
O  45.38000 33.17300 32.12300
C  45.37900 32.61900 33.51500
H  50.71200 38.92200 30.15600
H  52.42500 37.49100 24.21300
H  48.70500 32.43700 24.30700
H  47.31200 36.18200 32.03300
H  49.75700 37.41400 32.09000
H  48.63600 39.19100 32.63500
H  47.15100 38.43900 32.09700
H  48.01900 39.40400 30.98300
H  50.17500 35.21200 32.06400
H  49.02000 34.00100 32.00600
H  49.92800 34.95000 34.38400
H  48.52000 33.89400 34.02900
H  52.37900 41.59400 28.11500
H  52.84500 40.49700 29.37500
H  51.15100 41.01800 29.16700
H  53.37400 42.00100 26.10600
H  54.90300 41.53000 25.49100
H  54.44000 40.84400 27.01500
H  52.11100 35.51400 22.54500
H  49.78000 34.15100 22.20600
H  50.50500 37.39500 22.33500
H  49.19400 36.29200 22.01400
H  50.66900 36.50500 20.88000
H  51.09300 32.20200 23.87200
H  52.33700 33.46400 23.45700
H  50.54800 32.20100 21.41900
H  52.01800 31.29300 21.86400
H  52.01600 33.01900 21.31100
H  48.06200 30.47700 25.45500
H  46.39200 31.07000 25.14800
H  46.76700 30.17400 26.63600
H  45.33400 33.84200 29.96000
H  45.29700 31.53300 33.46600
H  44.51500 33.00300 34.05600
H  46.27900 32.96300 34.02600
Mg 27.46100 50.95900 26.17600
C  25.20700 52.17200 28.71100
C  29.46600 49.72500 28.65500
C  29.68700 50.30900 23.73300
C  25.19500 52.45600 23.69700
N  27.21400 50.85100 28.40500
C  26.17500 51.34800 29.23900
C  26.47500 51.00800 30.73200
C  27.98400 50.38800 30.73200
C  28.24300 50.23600 29.17300
C  29.13600 51.27600 31.42900
C  25.46900 49.99100 31.25300
C  25.13100 50.14400 32.75100
H  26.21900 50.69500 33.75500
N  29.35000 50.25100 26.21100
C  30.00200 49.75000 27.32200
C  31.27200 49.23500 26.86800
C  31.34500 49.45000 25.47800
C  30.08900 50.03800 25.06400
C  32.31300 48.62000 27.87000
C  32.52700 49.10800 24.58600
O  32.48900 49.26700 23.33500
C  33.79700 48.31500 25.09100
N  27.46600 51.39800 24.03300
C  28.48800 50.93200 23.26300
C  28.23700 51.22500 21.76700
C  26.77200 51.77500 21.75600
C  26.39700 51.84900 23.22600
C  29.35600 52.03000 21.07300
C  25.75300 50.95300 20.89300
C  24.80000 51.75000 19.96200
N  25.57700 52.09000 26.09400
C  24.82900 52.68500 25.07700
C  23.69100 53.34500 25.67400
C  23.82300 53.25600 27.06800
C  24.95600 52.42900 27.27400
C  22.71200 54.14800 24.89400
C  23.23500 53.55900 28.34700
O  22.19000 54.18100 28.63700
C  24.14300 52.81600 29.45100
C  24.58200 53.84900 30.47600
O  25.39200 54.74300 30.36400
O  24.03200 53.56600 31.69400
C  24.38600 54.35100 32.91100
H  30.02200 49.16500 29.41000
H  30.26500 49.82200 22.94400
H  24.46400 52.80500 22.96600
H  26.50100 51.97300 31.23700
H  28.06400 49.41300 31.21200
H  29.74100 51.63500 30.59600
H  29.80700 50.62700 31.99300
H  28.59900 51.99400 32.04800
H  25.91500 48.99800 31.19700
H  24.53400 49.96700 30.69400
H  24.76600 49.19800 33.15100
H  24.25400 50.79100 32.74100
H  33.22300 49.21800 27.93300
H  32.58100 47.63900 27.47800
H  31.83600 48.40700 28.82600
H  34.15000 48.53700 26.09800
H  34.60900 48.52800 24.39600
H  33.63900 47.23900 25.17200
H  28.13600 50.22300 21.34900
H  26.98000 52.74100 21.29500
H  30.34600 52.08300 21.52700
H  29.09900 53.06800 20.86200
H  29.35100 51.53400 20.10200
H  25.11500 50.43300 21.60700
H  26.30800 50.26600 20.25300
H  24.98900 52.81000 20.13200
H  23.77300 51.40300 20.06800
H  25.14300 51.49600 18.95900
H  23.18400 55.10700 24.67900
H  21.80600 54.34000 25.46900
H  22.45000 53.60200 23.98800
H  23.65000 52.01800 30.00600
H  24.68300 55.37400 32.68200
H  25.31600 53.90000 33.25800
H  23.61500 54.33200 33.68100

