158

Mg 51.01100 46.02300 42.12000
C  47.82600 46.88500 40.65800
C  50.39900 42.76400 41.06300
C  54.17500 45.36800 42.63100
C  51.63600 49.40100 42.36200
N  49.23900 45.01600 40.90100
C  48.03700 45.47300 40.62900
C  47.08400 44.43400 40.13200
C  47.94100 43.05400 40.29200
C  49.23200 43.61000 40.94900
C  47.27900 41.87600 41.04300
C  46.55800 44.61400 38.63600
C  45.05300 44.80400 38.44700
H  44.52000 43.73800 37.44200
N  52.06100 44.28800 42.04100
C  51.65700 43.07800 41.59800
C  52.73800 42.09100 41.79200
C  53.85700 42.83600 42.25300
C  53.43200 44.24500 42.33000
C  52.62500 40.58300 41.66300
C  55.18400 42.28100 42.57900
O  55.30300 41.09000 42.33000
C  56.25900 43.03300 43.19700
N  52.66300 47.21200 42.53300
C  53.85600 46.74100 42.76700
C  54.86600 47.81900 42.88900
C  54.07300 49.15400 42.81200
C  52.68300 48.56000 42.56600
C  55.76000 47.59000 44.12400
C  54.47800 50.21600 41.78800
C  54.98900 51.53000 42.30900
N  49.92300 47.81500 41.77400
C  50.34200 49.12700 41.90800
C  49.33300 50.03500 41.51400
C  48.34900 49.16000 40.98700
C  48.76700 47.81200 41.18900
C  49.24400 51.48700 41.67900
C  47.04100 49.18800 40.32200
O  46.28200 50.07100 39.91800
C  46.58800 47.70300 40.19000
C  45.44500 47.36300 41.07600
O  45.44600 46.94800 42.18600
O  44.30200 47.69400 40.41900
C  42.98900 47.62300 41.10600
H  50.32500 41.71000 40.78500
H  55.26000 45.24800 42.60300
H  51.93700 50.43900 42.51900
H  46.28500 44.33300 40.86700
H  48.28900 42.62500 39.35200
H  47.30700 41.08400 40.29400
H  46.23200 42.11700 41.22700
H  47.82600 41.67200 41.96300
H  46.86500 43.85400 37.91800
H  47.02100 45.48500 38.17200
H  44.81100 45.84500 38.23100
H  44.51800 44.58600 39.37100
H  51.55700 40.39000 41.57000
H  53.12200 40.12400 42.51800
H  53.14800 40.18800 40.79200
H  56.10600 43.57100 44.13200
H  56.69200 43.78800 42.54100
H  57.12200 42.40200 43.40600
H  55.46600 47.60300 42.00600
H  54.11000 49.61800 43.79700
H  55.39600 46.66300 44.56800
H  55.70000 48.35300 44.90000
H  56.77000 47.53500 43.71800
H  53.63200 50.49900 41.16200
H  55.26500 49.79500 41.16400
H  54.91700 51.75100 43.37400
H  54.50600 52.33000 41.74700
H  56.05200 51.67300 42.11800
H  50.20800 51.98100 41.79400
H  48.69100 51.68200 42.59800
H  48.75800 51.89800 40.79300
H  46.30000 47.49900 39.15800
H  42.73000 48.68100 41.13400
H  42.92500 47.19600 42.10600
H  42.46400 46.94000 40.43800
Mg 27.13700 51.20200 26.00900
C  25.15700 52.21100 28.77200
C  29.46400 49.89700 28.15300
C  28.76700 50.18000 23.42700
C  24.99100 53.01000 24.00500
N  27.25500 51.14100 28.18000
C  26.35000 51.53200 29.15800
C  26.93500 51.34100 30.55600
C  28.36300 50.64800 30.28700
C  28.38700 50.67800 28.75200
C  29.57400 51.29800 31.02000
C  25.93600 50.55100 31.56500
C  25.62800 51.35300 32.84500
H  26.73900 51.59800 33.91400
N  28.92900 50.19000 25.81700
C  29.75000 49.69200 26.79100
C  30.83500 49.00300 26.15800
C  30.56900 48.89700 24.79100
C  29.39500 49.78100 24.65500
C  31.91500 48.43300 26.98500
C  31.29400 48.21900 23.61500
O  30.90100 48.09800 22.48600
C  32.48900 47.39500 24.07500
N  27.10800 51.73900 23.98000
C  27.81300 51.00200 23.08900
C  27.25800 51.20300 21.63900
C  26.13800 52.20600 21.82300
C  26.05400 52.31500 23.37800
C  28.37400 51.63100 20.63400
C  24.84100 51.72600 21.01000
C  24.09400 50.54100 21.49800
N  25.36900 52.43000 26.26200
C  24.53400 53.04500 25.33300
C  23.25400 53.43300 25.94200
C  23.52100 53.22400 27.29500
C  24.78400 52.57100 27.43800
C  22.11100 54.10700 25.25600
C  22.93800 53.35100 28.66100
O  21.83600 53.74900 28.97000
C  24.07500 52.86000 29.67100
C  24.79900 54.00300 30.25100
O  25.57400 54.68700 29.65700
O  24.28800 54.27400 31.49700
C  24.73700 55.51400 32.15400
H  30.16600 49.45500 28.86200
H  29.10400 49.53500 22.61200
H  24.34600 53.61500 23.36500
H  27.06500 52.28700 31.08200
H  28.24300 49.64300 30.69200
H  30.34500 50.55000 31.20900
H  29.17300 51.79300 31.90400
H  29.86600 52.12100 30.36700
H  26.39000 49.58400 31.78000
H  25.00800 50.27500 31.06400
H  24.73900 51.04700 33.39700
H  25.44900 52.37600 32.51100
H  31.93500 48.97400 27.93100
H  32.90000 48.54800 26.53400
H  31.74300 47.36000 27.07900
H  33.16700 48.06100 24.60900
H  32.90000 46.81900 23.24700
H  32.15600 46.65600 24.80300
H  26.77200 50.36100 21.14600
H  26.45900 53.19800 21.50400
H  28.20500 52.64500 20.27100
H  28.26800 50.94500 19.79400
H  29.37200 51.69300 21.06900
H  25.22300 51.54100 20.00600
H  24.05000 52.47500 20.96700
H  24.08600 49.95900 20.57700
H  23.09400 50.79900 21.84700
H  24.77400 50.05900 22.20100
H  22.33900 55.13400 24.97200
H  21.35800 54.16000 26.04200
H  21.73200 53.59600 24.37100
H  23.77000 52.15100 30.44100
H  24.27800 55.75700 33.11300
H  24.59300 56.42000 31.56600
H  25.82600 55.49500 32.14100

