158

Mg 25.05200 1.87300 29.34800
C  27.18300 1.45700 32.09900
C  22.42400 1.72000 31.56800
C  22.95600 1.95700 26.67700
C  27.75900 1.10400 27.27600
N  24.86300 1.92400 31.56900
C  25.89300 1.75200 32.52600
C  25.36400 1.81900 33.97900
C  23.81800 1.71100 33.78500
C  23.67900 1.66600 32.17000
C  23.08500 0.59000 34.50500
C  25.79700 3.13900 34.72400
C  26.44100 2.96400 36.00700
H  26.04200 3.93800 37.12800
N  22.90900 1.90500 29.12300
C  22.03900 1.76100 30.18500
C  20.65800 1.84000 29.55000
C  20.74500 1.86300 28.14800
C  22.25300 2.00000 27.90400
C  19.39600 1.97400 30.43400
C  19.63900 1.79700 27.07600
O  19.84300 1.89200 25.86800
C  18.28300 1.45800 27.53800
N  25.34800 1.75700 27.31800
C  24.32600 1.88100 26.37600
C  24.89800 1.64800 24.96000
C  26.48600 1.54400 25.17300
C  26.54100 1.41000 26.66300
C  24.32800 0.51900 24.13400
C  27.20200 2.82200 24.64600
C  26.69700 4.23600 25.28600
N  27.05400 1.45200 29.60900
C  28.04700 1.14600 28.68000
C  29.27400 0.76700 29.29800
C  29.01600 0.94000 30.65400
C  27.64300 1.32900 30.77000
C  30.50000 0.13200 28.63500
C  29.59300 0.78500 31.93400
O  30.69500 0.31500 32.31000
C  28.49400 1.24800 32.93700
C  28.34400 0.15700 34.00200
O  27.67900 -0.83100 33.86900
O  28.99800 0.51200 35.15600
C  28.65900 -0.27500 36.38700
H  21.61900 1.89100 32.28500
H  22.30500 2.13100 25.81800
H  28.56000 0.95500 26.54900
H  25.74200 0.90500 34.43700
H  23.29800 2.63000 34.05700
H  23.11500 -0.15300 33.70800
H  22.11600 1.03900 34.72200
H  23.51200 0.21600 35.43600
H  24.90500 3.71600 34.96500
H  26.42400 3.79400 34.11900
H  27.50500 3.16400 35.88300
H  26.28200 1.99200 36.47300
H  18.77600 2.77500 30.03200
H  19.58200 2.14700 31.49400
H  18.79900 1.06400 30.38200
H  18.35500 0.63100 28.24300
H  17.71600 1.04600 26.70300
H  17.73500 2.33000 27.89700
H  24.63500 2.58500 24.47100
H  26.98500 0.73600 24.63900
H  25.07100 0.15400 23.42500
H  23.51500 0.84700 23.48600
H  23.87200 -0.27800 24.72100
H  26.96900 2.83800 23.58100
H  28.27400 2.70000 24.80300
H  26.36000 4.85600 24.45600
H  27.54700 4.65100 25.82900
H  25.87900 4.17000 26.00400
H  31.35100 0.15000 29.31700
H  30.85600 0.66100 27.75100
H  30.18900 -0.89600 28.44700
H  28.75000 2.19100 33.41800
H  29.23600 0.06800 37.24500
H  28.95500 -1.31900 36.29100
H  27.57900 -0.15400 36.47900
Mg 40.62900 9.69000 29.71000
C  42.39200 11.10000 32.34400
C  38.40500 8.45000 31.96800
C  38.89000 8.30000 27.08600
C  42.99200 10.99400 27.44500
N  40.48800 9.76700 31.99200
C  41.23000 10.45400 32.83200
C  40.60400 10.38700 34.24000
C  39.48300 9.34000 34.17000
C  39.45900 9.15400 32.60000
C  39.66200 8.11000 35.01100
C  40.16400 11.76500 34.80700
C  39.89700 11.83400 36.36800
H  40.73100 12.70300 37.28000
N  38.91500 8.63900 29.52400
C  38.17000 8.19900 30.61400
C  37.00100 7.42200 30.17500
C  37.04200 7.55600 28.75100
C  38.32800 8.12000 28.40500
C  35.96800 6.80100 31.09200
C  36.00700 7.16800 27.65500
O  36.18000 7.31800 26.42000
C  34.67000 6.72300 28.16200
N  40.96700 9.57300 27.62900
C  39.99200 9.08100 26.77200
C  40.38200 9.33500 25.28200
C  41.70800 10.18700 25.39200
C  41.87100 10.29600 26.90900
C  40.41900 8.15100 24.32000
C  41.69300 11.55800 24.72400
C  40.57200 12.63100 25.10900
N  42.36500 10.62100 29.81000
C  43.18600 11.16600 28.85400
C  44.28200 11.89400 29.43300
C  43.97200 11.91800 30.77100
C  42.79700 11.16200 30.96500
C  45.42100 12.47100 28.64100
C  44.44300 12.38300 32.02600
O  45.37100 13.03600 32.35200
C  43.44500 11.83500 33.08400
C  44.03300 10.82000 34.01700
O  44.35700 9.68300 33.68600
O  44.14900 11.30500 35.33200
C  44.31700 10.33400 36.41300
H  37.64400 8.18500 32.70600
H  38.34900 7.89700 26.22700
H  43.64600 11.51300 26.74100
H  41.42600 10.07700 34.88600
H  38.56100 9.79900 34.52400
H  39.47200 7.20900 34.42700
H  38.97000 8.21800 35.84700
H  40.66400 8.06800 35.43800
H  39.24000 12.01400 34.28700
H  40.94700 12.48800 34.57700
H  39.93200 10.80600 36.73000
H  38.85500 12.09400 36.55500
H  35.22800 7.57500 31.29400
H  36.45700 6.39400 31.97700
H  35.52200 5.89700 30.67500
H  34.68000 5.63600 28.24000
H  34.06500 6.98300 27.29300
H  34.30500 7.15200 29.09500
H  39.65300 10.07600 24.95200
H  42.54200 9.63700 24.95500
H  40.31800 7.27200 24.95700
H  41.37600 8.07800 23.80400
H  39.66800 8.24100 23.53500
H  41.51400 11.23900 23.69700
H  42.68000 12.01900 24.75200
H  40.01100 12.24100 25.95900
H  39.86900 12.69600 24.27800
H  40.93700 13.60600 25.43200
H  45.44000 13.49600 29.01300
H  45.32500 12.43200 27.55600
H  46.29000 11.93200 29.01800
H  43.21600 12.74700 33.63500
H  45.37000 10.05300 36.41200
H  43.79800 9.37800 36.34000
H  43.82800 10.78200 37.27800

