158

Mg 17.12700 -2.60700 27.30200
C  16.03100 -0.51500 29.91000
C  18.83400 -4.59000 29.48400
C  18.52200 -4.02100 24.62900
C  15.43000 -0.38400 25.07900
N  17.37700 -2.53800 29.52700
C  16.85500 -1.56800 30.34500
C  17.43500 -1.87300 31.76800
C  18.22900 -3.19800 31.65200
C  18.17600 -3.47200 30.10500
C  19.66300 -3.09800 32.23600
C  16.28200 -1.96100 32.79600
C  16.44100 -1.09600 34.06200
H  17.78500 -0.43200 34.45800
N  18.39200 -4.12000 27.03800
C  18.91400 -4.96500 28.03700
C  19.49600 -6.19500 27.48500
C  19.44300 -5.99800 26.08400
C  18.82300 -4.62900 25.86400
C  19.92900 -7.35300 28.37400
C  19.85700 -6.89400 24.96700
O  19.79700 -6.63500 23.76800
C  20.46000 -8.27000 25.32800
N  17.06600 -2.15800 25.16200
C  17.74000 -2.89200 24.25200
C  17.62500 -2.33500 22.80400
C  16.51800 -1.24900 22.98800
C  16.38500 -1.22100 24.46500
C  18.93600 -1.70600 22.31300
C  15.19700 -1.39800 22.15400
C  14.64000 -0.13400 21.34600
N  15.88500 -0.94100 27.36400
C  15.27300 -0.12800 26.43300
C  14.51300 0.93400 26.97500
C  14.83300 0.89400 28.30400
C  15.57400 -0.30300 28.53200
C  13.68500 1.97500 26.25700
C  14.68500 1.53800 29.54500
O  14.15700 2.59200 29.90900
C  15.49800 0.71000 30.62000
C  16.55400 1.57700 31.26800
O  17.75200 1.59300 30.95100
O  16.02600 2.28900 32.30400
C  16.87600 3.18600 33.14700
H  19.35600 -5.21400 30.21200
H  19.14600 -4.46800 23.85300
H  14.80600 0.31800 24.52200
H  18.09900 -1.03900 31.99500
H  17.82400 -3.98300 32.29100
H  19.76600 -2.43100 33.09200
H  20.40300 -2.78000 31.50100
H  19.92700 -4.07300 32.64700
H  16.11300 -2.96700 33.18000
H  15.37700 -1.67300 32.26100
H  16.20600 -1.77600 34.88100
H  15.68400 -0.32100 34.18700
H  19.83800 -8.34000 27.91900
H  19.33400 -7.31900 29.28600
H  20.96500 -7.16100 28.65300
H  21.39400 -8.09900 25.86300
H  20.75500 -8.80100 24.42300
H  19.71800 -8.90700 25.80800
H  17.27500 -3.19900 22.23900
H  16.87600 -0.28200 22.63500
H  19.02200 -2.15500 21.32300
H  19.71400 -1.94200 23.03900
H  19.01500 -0.64500 22.07600
H  14.40400 -1.85900 22.74200
H  15.45200 -2.13100 21.38800
H  13.59700 0.08100 21.57700
H  14.81000 -0.27500 20.27800
H  15.17700 0.75800 21.66900
H  13.06600 1.52700 25.48000
H  14.41100 2.59100 25.72600
H  13.12700 2.56200 26.98600
H  14.80100 0.36100 31.38200
H  16.78100 2.94800 34.20600
H  16.32000 4.12200 33.09700
H  17.94100 3.28400 32.93700
Mg 54.00800 23.91300 45.16200
C  51.70000 26.17800 44.19300
C  52.31200 21.40500 43.65100
C  56.77800 21.99800 45.27400
C  55.96900 26.64800 46.35400
N  52.31700 23.81800 44.03100
C  51.53600 24.89300 43.63600
C  50.58400 24.43800 42.58900
C  50.42500 22.95100 42.96800
C  51.74200 22.68900 43.60900
C  49.24600 22.61100 43.96400
C  51.07300 24.75300 41.10900
C  49.91000 24.93600 40.20300
H  50.25500 25.26200 38.73800
N  54.46300 21.89700 44.68700
C  53.59200 21.01900 44.08500
C  54.14600 19.69900 43.99300
C  55.50900 19.91800 44.46100
C  55.62300 21.33600 44.86500
C  53.42600 18.45200 43.49700
C  56.55200 18.80300 44.63700
O  56.26000 17.62000 44.26000
C  57.88300 18.92100 45.23200
N  56.15900 24.31800 45.52600
C  57.02700 23.30000 45.58500
C  58.37400 23.87500 45.95400
C  58.13100 25.28400 46.50100
C  56.64100 25.45800 46.16200
C  59.26700 23.05400 46.90000
C  59.13500 26.42100 46.10700
C  59.78800 27.20000 47.19600
N  53.77300 25.95500 45.53600
C  54.61600 26.91000 46.03200
C  53.92900 28.16900 46.13800
C  52.74000 27.91600 45.40900
C  52.71600 26.55600 45.06400
C  54.41100 29.42100 46.73600
C  51.55600 28.52600 44.90100
O  51.11600 29.68700 44.96300
C  50.78600 27.36700 44.11000
C  50.57000 27.76100 42.71400
O  51.41300 28.29800 41.97300
O  49.22400 27.70500 42.42400
C  48.81300 28.47500 41.25800
H  51.72000 20.71200 43.05000
H  57.62100 21.30900 45.36000
H  56.36900 27.49400 46.91700
H  49.66200 24.99800 42.74300
H  50.30800 22.30500 42.09700
H  49.69800 22.53200 44.95200
H  48.84400 21.63000 43.70900
H  48.49900 23.40200 44.02500
H  51.57000 23.89500 40.65800
H  51.72100 25.63000 41.13500
H  49.36700 25.79700 40.59200
H  49.32400 24.02300 40.30700
H  54.00700 17.62300 43.09200
H  52.70500 18.66500 42.70900
H  52.84500 17.98300 44.29100
H  57.79800 19.19400 46.28400
H  58.52700 19.59600 44.66800
H  58.43200 17.98400 45.14100
H  58.98300 23.92100 45.05100
H  58.20000 25.30700 47.58900
H  59.43900 23.60900 47.82200
H  60.21900 22.80000 46.43300
H  58.91500 22.11800 47.33400
H  58.64500 27.17600 45.49200
H  59.91300 26.03700 45.44700
H  59.76000 28.26100 46.94600
H  60.79800 26.82800 47.36700
H  59.26400 27.22700 48.15100
H  54.34200 30.17600 45.95200
H  55.45500 29.38800 47.04800
H  53.70400 29.63000 47.53900
H  49.80900 27.22400 44.57200
H  47.91300 28.98800 41.59800
H  48.55600 27.97600 40.32400
H  49.55800 29.24700 41.06500

