158

Mg 23.90200 -4.85200 45.42000
C  26.25500 -2.66000 43.86000
C  21.43900 -3.66300 43.33900
C  22.10100 -7.51300 46.25700
C  26.81400 -6.37600 46.99600
N  23.81400 -3.21500 43.82400
C  24.93800 -2.58100 43.31900
C  24.44800 -1.85200 41.99000
C  22.91400 -1.95200 42.02000
C  22.64900 -2.94400 43.17900
C  22.32800 -0.59500 42.40600
C  25.09900 -2.52800 40.76200
C  25.75200 -1.50600 39.67000
H  25.49700 -1.83900 38.18400
N  21.94100 -5.42900 45.14300
C  21.04800 -4.78100 44.23700
C  19.76000 -5.47300 44.29300
C  19.96600 -6.55100 45.24300
C  21.36000 -6.55600 45.54800
C  18.56000 -5.10300 43.48000
C  18.87400 -7.42400 45.74100
O  17.75700 -7.34800 45.17000
C  19.04700 -8.45600 46.84100
N  24.31300 -6.67400 46.55400
C  23.40800 -7.63700 46.64900
C  23.88000 -8.82800 47.55800
C  25.41200 -8.39700 47.77200
C  25.52700 -7.06300 47.03100
C  23.02200 -8.86000 48.93300
C  26.41800 -9.48800 47.27900
C  27.46000 -10.05000 48.26000
N  26.08000 -4.46000 45.61000
C  27.07200 -5.20100 46.28100
C  28.32600 -4.49300 46.13600
C  28.05600 -3.51200 45.15000
C  26.72800 -3.45400 44.90900
C  29.58600 -4.75900 46.84400
C  28.67300 -2.42200 44.31200
O  29.85800 -2.01500 44.26300
C  27.54400 -1.94600 43.35200
C  27.48600 -0.39900 43.30900
O  27.41200 0.36800 42.36900
O  27.53700 0.07300 44.59900
C  27.24200 1.52400 44.72300
H  20.71500 -3.25600 42.63000
H  21.54000 -8.42500 46.47100
H  27.58900 -6.88000 47.57600
H  24.82200 -0.83600 42.11800
H  22.40400 -2.10100 41.06800
H  21.98200 -0.00600 41.55700
H  23.11800 0.05400 42.78500
H  21.46200 -0.61900 43.06700
H  24.38500 -3.20800 40.29800
H  25.95000 -3.10500 41.12500
H  26.78200 -1.54400 40.02600
H  25.40100 -0.50100 39.90500
H  18.72200 -4.19300 42.90300
H  17.76800 -4.84800 44.18400
H  18.19700 -5.83700 42.76000
H  19.72800 -9.22300 46.47400
H  18.03800 -8.81700 47.04300
H  19.43600 -7.93900 47.71900
H  23.75700 -9.78100 47.04300
H  25.47600 -8.13100 48.82700
H  22.09600 -8.28800 48.90200
H  23.63500 -8.51700 49.76700
H  22.81300 -9.89600 49.20100
H  26.94700 -9.10100 46.40800
H  25.77000 -10.29000 46.92500
H  28.44800 -9.67300 47.99300
H  27.37800 -11.13700 48.24600
H  27.36600 -9.62100 49.25800
H  30.35700 -4.01700 46.63600
H  29.83800 -5.72900 46.41700
H  29.32500 -4.93800 47.88700
H  27.88000 -2.42900 42.43400
H  27.09000 1.81600 45.76200
H  26.30000 1.77200 44.23400
H  28.04100 2.20400 44.42700
Mg 55.01500 25.01300 45.59000
C  52.23000 26.81300 44.50400
C  53.99600 22.36400 43.71100
C  58.02800 23.50500 46.14200
C  56.27200 27.92700 46.99000
N  53.45300 24.73400 44.02900
C  52.34900 25.57500 43.74500
C  51.53500 24.87200 42.59800
C  51.84900 23.36600 42.75700
C  53.21600 23.46700 43.51300
C  50.87800 22.56200 43.66400
C  51.85900 25.45900 41.19800
C  50.68100 25.82100 40.33500
H  51.13200 26.28000 38.93400
N  55.86300 23.15400 45.00300
C  55.22700 22.18800 44.35100
C  56.05900 21.04600 44.17900
C  57.21900 21.26500 45.00300
C  57.07800 22.69500 45.43600
C  55.64300 19.69100 43.51400
C  58.21900 20.16500 45.35700
O  58.25200 19.01900 44.88200
C  59.21600 20.47100 46.39900
N  56.95800 25.62900 46.20000
C  57.98500 24.79600 46.48600
C  59.06200 25.49000 47.24700
C  58.64300 27.01600 47.22500
C  57.16300 26.82800 46.84300
C  59.29900 24.98400 48.71600
C  59.28800 28.00400 46.14500
C  59.62500 29.47800 46.56800
N  54.36500 26.97900 45.83400
C  54.94500 28.00700 46.52800
C  53.98500 29.08600 46.62600
C  52.88900 28.62300 45.87100
C  53.17700 27.36900 45.37400
C  54.14300 30.22000 47.53600
C  51.54000 28.94700 45.38600
O  50.89000 29.95200 45.54000
C  50.99600 27.75300 44.52600
C  50.39900 28.21500 43.25400
O  50.98900 28.57900 42.25500
O  49.01600 28.01200 43.37600
C  48.16500 28.45000 42.29400
H  53.55000 21.45700 43.29700
H  59.03100 23.12100 46.33800
H  56.78300 28.79200 47.41600
H  50.46900 25.02700 42.76200
H  51.97100 22.81900 41.82200
H  49.90900 22.96900 43.95100
H  51.33300 22.09900 44.54000
H  50.63300 21.66600 43.09300
H  52.49400 24.75000 40.66700
H  52.41900 26.39400 41.20100
H  50.19300 26.69400 40.76900
H  50.08500 24.90900 40.30000
H  54.71800 19.64100 42.94000
H  55.48800 19.03200 44.36900
H  56.57400 19.34000 43.06900
H  58.74900 20.90500 47.28300
H  59.86900 21.17600 45.88400
H  59.82200 19.62400 46.72100
H  59.97000 25.29600 46.67600
H  58.75500 27.47200 48.20900
H  60.16600 24.32600 48.65800
H  58.45300 24.34700 48.97200
H  59.50400 25.73300 49.48100
H  58.63400 28.07700 45.27600
H  60.22200 27.57900 45.77800
H  60.71100 29.53600 46.64500
H  59.26800 29.71300 47.57100
H  59.34300 30.08700 45.70900
H  54.50800 31.04500 46.92500
H  54.87000 30.06600 48.33400
H  53.17100 30.49500 47.94600
H  50.34800 27.05000 45.04900
H  47.14500 28.55400 42.66300
H  48.31400 27.76300 41.46100
H  48.38500 29.47400 41.99200

