158

Mg 9.05700 3.61200 27.74500
C  10.36100 1.95600 30.66400
C  7.14700 5.49100 29.81900
C  7.50700 4.68600 24.97100
C  10.57500 1.02400 25.79500
N  8.79600 3.74000 30.08300
C  9.52600 3.00100 31.04600
C  9.19000 3.51700 32.41900
C  8.05900 4.62700 32.18400
C  7.99100 4.64400 30.59000
C  6.65700 4.37900 32.89700
C  10.42400 3.92900 33.27500
C  10.09000 4.97700 34.33500
H  10.59300 4.84700 35.74500
N  7.63400 5.01000 27.37900
C  6.98400 5.73700 28.37200
C  6.17500 6.73400 27.81500
C  6.40700 6.70500 26.36800
C  7.20100 5.41400 26.15100
C  5.28400 7.75600 28.45800
C  6.01700 7.66000 25.21600
O  6.18200 7.37200 24.01800
C  5.36500 8.99400 25.53900
N  8.86900 2.76200 25.70000
C  8.24700 3.51800 24.68200
C  8.66900 3.10200 23.31200
C  9.45700 1.78400 23.62400
C  9.67300 1.87700 25.11900
C  7.54600 2.94100 22.19800
C  10.80700 1.69800 22.83700
C  11.09200 0.27000 22.18100
N  10.20200 1.96400 28.02200
C  10.78400 1.02700 27.13000
C  11.61500 0.13400 27.84100
C  11.51300 0.52000 29.18300
C  10.63100 1.56600 29.27800
C  12.35900 -1.03800 27.22000
C  11.91500 0.11900 30.50500
O  12.71500 -0.72300 30.82000
C  11.28600 1.10300 31.47000
C  10.50800 0.29700 32.49100
O  9.60100 -0.48100 32.20100
O  11.03800 0.43800 33.71900
C  10.47900 -0.46000 34.70400
H  6.75000 6.27400 30.46900
H  7.12300 5.16700 24.06900
H  11.25300 0.40300 25.20600
H  8.83700 2.69400 33.03900
H  8.38600 5.65800 32.32200
H  5.80400 4.49300 32.22800
H  6.55300 5.23600 33.56200
H  6.70500 3.48200 33.51400
H  11.18200 4.23000 32.55200
H  10.79500 3.01400 33.73600
H  9.00200 5.00700 34.39800
H  10.52500 5.92600 34.02300
H  5.49500 8.81400 28.29800
H  5.29900 7.57100 29.53200
H  4.26200 7.56100 28.13200
H  6.09300 9.54500 26.13600
H  4.39300 8.80700 25.99500
H  5.08700 9.53400 24.63400
H  9.27800 3.94100 22.97500
H  8.81100 0.90800 23.57300
H  7.84400 3.60800 21.39000
H  6.53400 3.24300 22.46700
H  7.43100 1.90600 21.87500
H  11.69300 2.01600 23.38500
H  10.83200 2.40500 22.00800
H  11.30200 0.41000 21.12100
H  10.37700 -0.54600 22.28500
H  12.02400 0.01800 22.68700
H  12.89000 -0.64600 26.35300
H  11.58500 -1.77500 27.00700
H  13.00800 -1.34600 28.04000
H  12.10900 1.60700 31.97800
H  11.32900 -1.05500 35.03800
H  9.66300 -1.11500 34.39600
H  10.00400 0.15000 35.47200
Mg -4.80400 25.60100 26.12300
C  -3.31500 27.01100 28.87900
C  -6.51000 23.34000 28.27400
C  -6.00700 23.99000 23.53300
C  -2.76900 27.63600 24.02400
N  -4.94100 25.28900 28.29200
C  -4.24700 26.04200 29.25000
C  -4.71900 25.69800 30.72500
C  -5.68200 24.42700 30.39200
C  -5.70500 24.36200 28.87900
C  -5.06300 23.15900 31.03400
C  -5.46400 26.95000 31.28500
C  -5.25400 27.17300 32.73100
H  -5.18500 25.99200 33.68300
N  -6.14500 23.90100 25.95800
C  -6.74000 23.14900 26.95200
C  -7.68500 22.28700 26.34100
C  -7.65200 22.51700 24.92100
C  -6.62100 23.52000 24.72100
C  -8.49400 21.33200 27.23600
C  -8.47200 21.91200 23.88500
O  -8.50700 22.34800 22.72600
C  -9.56200 20.89400 24.24800
N  -4.48400 25.85400 24.12200
C  -5.12000 25.00600 23.29300
C  -4.94000 25.45500 21.77400
C  -3.89600 26.63400 21.95100
C  -3.65400 26.67100 23.42800
C  -4.40500 24.36100 20.79100
C  -4.27400 28.01900 21.33400
C  -3.09000 28.73000 20.70200
N  -3.16700 26.86100 26.31400
C  -2.54400 27.72900 25.43000
C  -1.53800 28.54100 26.19200
C  -1.79000 28.32700 27.54800
C  -2.81600 27.28800 27.57000
C  -0.49000 29.50400 25.61400
C  -1.37600 28.68700 28.86500
O  -0.50800 29.48400 29.25800
C  -2.34100 27.84300 29.80000
C  -1.47300 27.05500 30.71500
O  -1.14200 25.89700 30.61600
O  -1.20600 27.92900 31.73200
C  -0.75000 27.39000 32.93400
H  -6.93800 22.63200 28.98700
H  -6.40100 23.65200 22.57200
H  -2.20400 28.33200 23.40000
H  -3.83200 25.48100 31.32100
H  -6.72300 24.53300 30.70000
H  -3.97600 23.16800 30.95000
H  -5.60400 22.28600 30.67100
H  -5.25700 23.22300 32.10500
H  -6.53700 26.83600 31.12600
H  -5.08600 27.81200 30.73600
H  -5.97100 27.86200 33.17700
H  -4.26100 27.59300 32.88800
H  -8.13600 20.30400 27.18900
H  -9.55900 21.20600 27.04600
H  -8.32100 21.63600 28.26900
H  -10.21500 20.51800 23.46100
H  -10.20800 21.43100 24.94200
H  -9.08600 20.01300 24.67700
H  -5.94800 25.71900 21.45400
H  -3.01400 26.39400 21.35600
H  -4.00200 23.50100 21.32600
H  -3.61000 24.70000 20.12800
H  -5.12600 24.09700 20.01600
H  -4.73000 28.69200 22.06000
H  -5.08600 27.81900 20.63500
H  -3.39800 29.05200 19.70700
H  -2.21700 28.09000 20.57600
H  -2.98400 29.64700 21.28100
H  0.08300 30.01600 26.38700
H  -1.18400 30.24400 25.21600
H  0.27000 29.18400 24.90100
H  -2.89900 28.65200 30.27100
H  0.33600 27.37500 33.03100
H  -1.16200 26.39600 33.10800
H  -1.10300 27.94600 33.80200

