158

Mg 0.20700 7.79300 26.34700
C  1.24500 9.51600 29.16700
C  0.13100 4.87900 28.03100
C  -0.16000 6.16800 23.40800
C  0.31000 10.85500 24.55300
N  0.73100 7.27800 28.32700
C  1.05200 8.13400 29.39800
C  0.99400 7.37600 30.66500
C  0.79200 5.83200 30.26800
C  0.47300 5.98800 28.77700
C  2.07600 4.96700 30.51500
C  -0.15900 7.99800 31.52900
C  0.19100 8.38600 32.98400
H  1.27200 7.58400 33.80500
N  0.08300 5.75700 25.79800
C  0.01100 4.74700 26.61700
C  -0.24200 3.51000 25.94100
C  -0.18300 3.84600 24.60000
C  -0.18100 5.31200 24.52500
C  -0.45100 2.19900 26.65800
C  -0.34900 2.94300 23.32600
O  -0.38700 3.36800 22.15400
C  -0.38600 1.50900 23.45600
N  0.02900 8.43300 24.37000
C  -0.08600 7.52000 23.35800
C  -0.12000 8.14800 22.03600
C  -0.36900 9.68400 22.38300
C  0.04100 9.67600 23.84800
C  1.09100 7.92300 21.08700
C  -1.82400 10.22400 22.18700
C  -2.03000 11.48100 21.28000
N  0.60300 9.83100 26.81600
C  0.70500 10.90000 25.88200
C  1.19100 12.06400 26.64100
C  1.50100 11.62100 27.94300
C  1.03500 10.22600 27.95300
C  1.57600 13.43300 26.03700
C  2.00400 11.94200 29.27000
O  2.47800 13.03400 29.69600
C  1.67000 10.61600 30.09100
C  2.78000 10.21800 30.97100
O  3.84700 9.69900 30.62900
O  2.54100 10.74000 32.25100
C  3.68500 10.78000 33.13600
H  -0.09100 4.01700 28.66300
H  -0.33100 5.55600 22.52000
H  0.25000 11.74900 23.92900
H  1.95100 7.42000 31.18400
H  -0.05500 5.35500 30.76100
H  2.75300 5.43700 31.22800
H  2.58900 4.73800 29.58100
H  1.63300 4.08800 30.98300
H  -0.99000 7.29800 31.44700
H  -0.42100 8.88300 30.95000
H  -0.74900 8.28800 33.52700
H  0.49100 9.43000 32.89500
H  -0.93500 1.52200 25.95500
H  -1.07000 2.38000 27.53600
H  0.48500 1.81300 27.06200
H  -1.35400 1.27300 23.89900
H  0.45100 1.14200 24.05000
H  -0.47200 1.20500 22.41300
H  -0.97800 7.68300 21.55000
H  0.26600 10.36000 21.81100
H  1.23000 6.87900 20.80800
H  2.00200 8.29300 21.55700
H  0.76500 8.43200 20.18000
H  -2.29800 10.25200 23.16800
H  -2.36100 9.40100 21.71600
H  -2.68100 11.20100 20.45200
H  -1.10500 11.82300 20.81700
H  -2.47900 12.35000 21.76000
H  2.47600 13.88400 26.45600
H  0.77500 14.09500 26.36400
H  1.51900 13.31900 24.95400
H  0.85100 10.87000 30.76400
H  4.67800 10.51500 32.77200
H  3.41000 10.08700 33.93000
H  3.80700 11.78900 33.53000
Mg 29.99900 58.32100 39.39300
C  27.10300 56.43200 38.70100
C  31.83700 55.57600 38.67600
C  32.66500 60.29800 39.40400
C  27.86200 61.05000 40.07000
N  29.52600 56.24400 38.73700
C  28.26700 55.71700 38.56100
C  28.38800 54.17200 38.24200
C  29.85200 53.84600 38.57800
C  30.45600 55.26100 38.72700
C  30.17900 52.98500 39.81400
C  27.97800 53.66100 36.86000
C  28.69300 54.17900 35.63300
H  27.79500 54.63400 34.52600
N  32.05900 58.01300 39.09300
C  32.64300 56.76400 38.81500
C  34.08600 56.91200 38.66300
C  34.29600 58.34200 38.66800
C  32.99100 58.95700 39.04100
C  34.99100 55.78600 38.36000
C  35.55000 59.07900 38.35600
O  36.57500 58.46700 38.14800
C  35.50800 60.55600 38.31100
N  30.18000 60.37900 39.67600
C  31.43900 60.90600 39.66300
C  31.36900 62.45600 40.06800
C  29.87300 62.65100 40.42700
C  29.23100 61.31000 40.05600
C  32.44900 62.94400 41.09900
C  29.20100 63.86200 39.80200
C  28.22900 64.69300 40.67700
N  27.89200 58.66800 39.45500
C  27.16600 59.84900 39.69000
C  25.78700 59.62700 39.60400
C  25.62700 58.24200 39.22300
C  26.98800 57.72300 39.16200
C  24.71900 60.51200 39.95200
C  24.70400 57.12200 38.88300
O  23.49400 56.97700 38.79300
C  25.72100 55.87800 38.62100
C  25.54700 54.91000 39.76800
O  25.83400 55.04400 40.88700
O  24.98900 53.67100 39.29200
C  24.74500 52.68600 40.31700
H  32.46100 54.68400 38.59700
H  33.50800 60.99200 39.39700
H  27.22000 61.84300 40.45900
H  27.80200 53.70900 39.03700
H  30.36200 53.29000 37.79200
H  30.84300 53.45400 40.54000
H  30.70800 52.11500 39.42400
H  29.25200 52.54400 40.18000
H  26.89600 53.74300 36.76200
H  28.23900 52.60300 36.82200
H  29.26900 53.40300 35.12900
H  29.47000 54.92200 35.80900
H  35.99600 56.18500 38.50200
H  34.84700 55.47900 37.32500
H  34.93900 54.89800 38.99000
H  35.45500 61.10700 39.25000
H  34.71800 60.67500 37.56900
H  36.44800 60.76600 37.80100
H  31.47800 63.00700 39.13400
H  29.80800 62.83800 41.49900
H  33.16000 62.14200 41.30100
H  31.91200 63.11800 42.03100
H  32.74600 63.90200 40.67100
H  28.62200 63.57100 38.92500
H  29.98700 64.56200 39.51800
H  27.38800 64.96900 40.04100
H  28.77000 65.60400 40.93400
H  27.88000 64.10800 41.52800
H  23.86000 60.16500 39.37900
H  25.02100 61.52800 39.70000
H  24.34300 60.54500 40.97500
H  25.45100 55.44400 37.65800
H  23.75100 52.31000 40.07500
H  24.91800 52.95000 41.36000
H  25.42100 51.83200 40.28000

