158

Mg 8.00400 3.02100 27.59500
C  9.17700 1.57800 30.47600
C  5.94500 5.12400 29.63500
C  6.26700 4.05000 24.87000
C  9.52700 0.58100 25.72600
N  7.62600 3.30500 29.76400
C  8.42200 2.70600 30.74700
C  8.28200 3.41400 32.13900
C  7.09700 4.42500 31.77200
C  6.91500 4.32300 30.28500
C  5.82800 4.23400 32.60200
C  9.52200 3.95800 32.81200
C  9.90700 3.33000 34.09700
H  10.15400 4.23000 35.27900
N  6.36400 4.43900 27.32500
C  5.70600 5.24600 28.27700
C  4.90200 6.22600 27.56200
C  5.06300 6.01600 26.16200
C  5.87700 4.77400 26.04700
C  4.32400 7.47800 28.27900
C  4.46700 6.79700 25.06700
O  4.68900 6.54100 23.84800
C  3.56300 7.96600 25.33900
N  7.95600 2.44600 25.61600
C  7.12400 2.99400 24.71000
C  7.16700 2.23800 23.39600
C  8.38800 1.37000 23.56500
C  8.68600 1.45700 25.04700
C  5.84000 1.59600 22.86700
C  9.68200 1.77000 22.72900
C  10.46700 0.67400 21.96000
N  9.22000 1.36400 27.96200
C  9.75800 0.49300 27.13300
C  10.64400 -0.39700 27.89900
C  10.45200 -0.04100 29.23700
C  9.54700 1.03700 29.24600
C  11.37500 -1.63700 27.39500
C  10.82500 -0.36800 30.59000
O  11.51800 -1.23500 31.06900
C  10.01700 0.69800 31.42100
C  9.11500 0.03500 32.38200
O  7.90700 -0.02900 32.39900
O  9.90900 -0.31900 33.49000
C  9.15400 -0.73500 34.71500
H  5.55600 5.89100 30.30900
H  5.82800 4.29500 23.90100
H  10.09100 -0.15300 25.14700
H  7.87800 2.65200 32.80500
H  7.54000 5.41200 31.90000
H  5.97800 3.36900 33.24700
H  4.94200 4.21200 31.96600
H  5.70100 5.05100 33.31200
H  9.33600 5.02100 32.96400
H  10.30700 3.88900 32.05900
H  10.86100 2.89400 33.80200
H  9.29400 2.48300 34.40500
H  4.70700 8.38500 27.81200
H  4.54100 7.46600 29.34700
H  3.24900 7.41800 28.10900
H  2.70100 7.48300 25.79900
H  3.20100 8.26000 24.35400
H  4.02100 8.82200 25.83500
H  7.46100 3.03600 22.71400
H  8.02600 0.37500 23.30600
H  5.12400 1.68100 23.68400
H  5.93500 0.55500 22.55700
H  5.55500 2.23700 22.03300
H  10.36600 2.21400 23.45200
H  9.45600 2.52200 21.97300
H  11.46200 0.73600 22.40000
H  10.49200 0.76000 20.87300
H  10.15700 -0.31800 22.28800
H  11.24400 -2.39300 28.16800
H  12.43900 -1.45400 27.24900
H  10.85300 -2.09700 26.55600
H  10.76400 1.26200 31.97800
H  8.74100 -1.72000 34.49800
H  8.30500 -0.05500 34.78100
H  9.66700 -0.70700 35.67700
Mg 49.20000 35.36400 27.63800
C  46.84700 34.08000 30.09100
C  49.78100 38.03500 29.74200
C  51.16100 36.71000 25.30000
C  48.22400 32.85000 25.52800
N  48.45300 35.91900 29.70900
C  47.48400 35.26900 30.47300
C  47.28200 36.07400 31.80400
C  48.05300 37.44200 31.51100
C  48.80100 37.17600 30.15400
C  47.23200 38.76900 31.56500
C  47.64300 35.47400 33.18800
C  48.85300 34.56700 33.26000
H  50.15400 35.22700 33.80500
N  50.30700 37.08300 27.54300
C  50.50600 38.06100 28.56200
C  51.24300 39.16100 28.05700
C  51.80800 38.77500 26.76700
C  51.10400 37.52400 26.49600
C  51.40700 40.49400 28.80700
C  52.87900 39.39100 26.04300
O  53.28900 38.88400 25.04500
C  53.39300 40.74400 26.43400
N  49.65800 34.85700 25.76000
C  50.45900 35.56300 24.94900
C  50.87900 34.86100 23.73700
C  49.76100 33.73600 23.76100
C  49.21200 33.72600 25.12900
C  50.74200 35.67900 22.39600
C  50.34100 32.37500 23.41000
C  49.58900 31.58700 22.24000
N  48.00600 33.65900 27.82000
C  47.63000 32.83900 26.82600
C  46.69800 31.80000 27.39800
C  46.38900 32.28200 28.68000
C  47.17800 33.38600 28.87000
C  46.03100 30.62500 26.65900
C  45.60200 31.98500 29.83000
O  44.85600 31.02100 30.05200
C  45.77600 33.20900 30.82900
C  45.95400 32.67200 32.23900
O  46.98800 32.10300 32.62300
O  44.87300 32.91000 33.04300
C  44.76300 32.41400 34.40900
H  49.88600 38.87800 30.42900
H  51.80200 37.08200 24.49700
H  47.94000 32.09100 24.79600
H  46.22100 36.32200 31.77300
H  48.77900 37.67000 32.29100
H  47.59800 39.43500 32.34600
H  46.17700 38.60800 31.78300
H  47.26600 39.22500 30.57600
H  46.78600 35.00700 33.67300
H  47.78600 36.32400 33.85400
H  49.06400 34.09200 32.30200
H  48.71900 33.73500 33.95200
H  50.68800 40.66300 29.60800
H  51.22600 41.26900 28.06200
H  52.43600 40.51800 29.16500
H  54.02800 40.74400 27.31900
H  52.59400 41.48500 26.39500
H  54.09200 41.14800 25.70100
H  51.88000 34.43300 23.78600
H  48.97600 34.07800 23.08700
H  51.54100 36.41000 22.27300
H  49.79100 36.21000 22.41200
H  50.91500 34.95900 21.59500
H  50.20700 31.71100 24.26400
H  51.38200 32.46400 23.09900
H  48.92700 30.85000 22.69500
H  50.29900 31.02200 21.63500
H  49.00500 32.23900 21.59000
H  46.84500 29.92400 26.47300
H  45.62100 31.08900 25.76200
H  45.18700 30.25700 27.24400
H  44.88900 33.83700 30.74500
H  44.14300 31.52400 34.52100
H  44.39200 33.20200 35.06500
H  45.78500 32.15000 34.68100

