158

Mg 35.08400 3.02500 29.64700
C  32.80100 4.02100 32.21500
C  37.52200 3.34200 31.82300
C  37.13300 2.58100 27.02500
C  32.38700 3.58300 27.35000
N  35.13300 3.55900 31.80500
C  34.13400 3.77700 32.65300
C  34.59800 3.82900 34.15200
C  36.19300 3.72600 33.92800
C  36.32600 3.57100 32.44400
C  37.00700 4.95900 34.52700
C  34.01900 2.60000 34.94600
C  33.93000 2.79800 36.51200
H  34.56700 3.98000 37.19500
N  36.98000 2.80400 29.48500
C  37.89600 2.93700 30.52300
C  39.23000 2.58700 30.05000
C  39.10800 2.30500 28.70000
C  37.69700 2.59700 28.32400
C  40.44500 2.30500 31.00800
C  40.15700 1.76500 27.76400
O  39.88700 1.43600 26.61900
C  41.57700 1.68500 28.21700
N  34.76200 3.01000 27.46800
C  35.78600 2.72400 26.64400
C  35.34500 2.62900 25.19900
C  33.86600 3.05600 25.30200
C  33.61600 3.24700 26.79300
C  36.16000 3.41200 24.14500
C  32.83200 2.05500 24.67700
C  32.52300 0.80800 25.56200
N  33.05800 3.63000 29.68300
C  32.14100 3.81000 28.71500
C  30.80900 4.11900 29.28600
C  31.03800 4.15500 30.67800
C  32.41900 3.95200 30.85800
C  29.50600 4.19400 28.53800
C  30.41300 4.45900 31.96900
O  29.29200 4.90100 32.17300
C  31.57100 4.37300 33.00300
C  31.61500 5.59400 33.79000
O  32.26100 6.56500 33.44500
O  31.10500 5.33100 35.06700
C  31.40300 6.44100 36.01300
H  38.32500 3.40300 32.56100
H  37.84200 2.47200 26.20200
H  31.53100 3.77400 26.69900
H  34.20500 4.74300 34.59700
H  36.46800 2.80700 34.44600
H  37.52700 5.52900 33.75700
H  37.70000 4.64300 35.30700
H  36.24200 5.60500 34.95800
H  34.49400 1.63700 34.75600
H  33.01200 2.51900 34.53900
H  34.34300 1.94700 37.05400
H  32.87300 2.84000 36.77600
H  40.46400 1.24200 31.24900
H  40.43800 2.90000 31.92100
H  41.41700 2.59700 30.61000
H  41.72600 0.90300 28.96200
H  41.99200 2.67000 28.42900
H  42.19200 1.43400 27.35300
H  35.49000 1.57200 24.97400
H  33.76400 4.04800 24.86400
H  36.47500 2.70000 23.38200
H  37.04500 3.85300 24.60300
H  35.57100 4.22700 23.72500
H  33.31200 1.78600 23.73600
H  31.94100 2.56700 24.31300
H  32.70800 1.05600 26.60700
H  33.22100 0.01800 25.28600
H  31.46600 0.64000 25.35300
H  28.78600 4.28000 29.35200
H  29.17600 3.35800 27.92000
H  29.40000 5.15300 28.03200
H  31.28200 3.63600 33.75200
H  30.72000 7.28400 35.90600
H  32.46500 6.68300 36.04200
H  31.21200 6.17200 37.05200
Mg 49.87900 45.98600 43.67700
C  46.64700 46.77600 42.55000
C  49.34500 42.71800 42.46400
C  53.19500 45.42800 44.08800
C  50.33100 49.31000 44.60000
N  48.24300 44.93600 42.53600
C  47.01500 45.45400 42.21700
C  46.14800 44.38700 41.52600
C  46.94400 43.06400 41.72900
C  48.25300 43.57400 42.31400
C  46.35300 41.85300 42.50400
C  45.85500 44.66300 40.00300
C  44.44200 44.18200 39.67400
H  43.83000 44.85600 38.41700
N  51.07400 44.26100 43.49800
C  50.65000 43.06300 42.98200
C  51.82800 42.27500 42.85100
C  52.98900 43.04200 43.33000
C  52.44800 44.31500 43.69400
C  51.70400 40.82500 42.27300
C  54.43600 42.51800 43.27400
O  54.73500 41.41700 42.80900
C  55.62300 43.30600 43.82800
N  51.56400 47.22200 44.26600
C  52.82700 46.77900 44.39000
C  53.79600 47.83400 45.06700
C  52.76400 48.92000 45.47400
C  51.46500 48.51800 44.75900
C  54.63900 47.33900 46.29000
C  53.33500 50.30100 45.15200
C  53.63900 50.70100 43.64800
N  48.73700 47.75800 43.56400
C  49.05600 48.99300 44.04200
C  47.90700 49.91700 43.78900
C  46.92100 49.06300 43.29100
C  47.50500 47.80900 43.12200
C  47.84300 51.36100 44.20500
C  45.49400 48.90100 42.85400
O  44.57400 49.67800 42.88700
C  45.38400 47.55400 42.25100
C  44.22300 46.86500 42.85200
O  44.01800 46.55600 43.99900
O  43.35700 46.54700 41.82800
C  42.17600 45.88200 42.27500
H  49.21700 41.71000 42.06500
H  54.23600 45.32800 44.40000
H  50.43300 50.34000 44.94800
H  45.20900 44.14500 42.02600
H  47.12900 42.71000 40.71500
H  45.51600 42.07000 43.16700
H  47.10400 41.45700 43.18800
H  45.92300 41.12200 41.82000
H  46.54700 44.12900 39.35100
H  45.97600 45.70300 39.70300
H  43.75800 44.20400 40.52300
H  44.51500 43.10600 39.51300
H  52.05000 40.77000 41.24100
H  50.72400 40.35400 42.35500
H  52.31200 40.15800 42.88400
H  55.38100 43.64300 44.83700
H  55.74300 44.26500 43.32400
H  56.55900 42.79600 43.60100
H  54.51000 48.18500 44.32100
H  52.53400 48.88500 46.53900
H  54.26200 47.75500 47.22400
H  55.69600 47.60100 46.24100
H  54.55600 46.25300 46.32100
H  54.33200 50.27600 45.59100
H  52.70200 51.04600 45.63300
H  54.71500 50.79100 43.49900
H  53.23900 51.71300 43.58000
H  53.16800 50.11700 42.85700
H  46.89800 51.85400 43.97800
H  48.69500 52.00000 43.97000
H  47.85100 51.27700 45.29100
H  45.34800 47.62900 41.16500
H  41.42400 46.51300 42.75000
H  42.39300 45.01700 42.90200
H  41.72300 45.47500 41.37100

