158

Mg 24.02900 -6.86500 45.47500
C  26.15900 -4.66400 43.86400
C  21.41400 -5.47800 43.41600
C  22.23200 -9.73500 45.82400
C  26.77800 -8.62700 46.80600
N  23.86600 -5.18000 43.81400
C  24.90700 -4.30100 43.48400
C  24.47200 -3.19500 42.47600
C  22.82200 -3.32000 42.69200
C  22.65600 -4.75600 43.28700
C  22.25400 -2.16700 43.57500
C  24.94500 -3.45300 40.98200
C  25.49900 -2.21600 40.18400
H  24.94500 -1.89300 38.79100
N  22.01100 -7.41500 44.89800
C  21.04900 -6.68900 44.10300
C  19.83300 -7.44800 44.03700
C  20.07400 -8.68500 44.71400
C  21.49700 -8.69100 45.15900
C  18.58800 -6.96900 43.37800
C  18.92700 -9.67700 44.86900
O  17.80200 -9.41400 44.44400
C  19.01600 -10.95700 45.74000
N  24.48100 -9.03600 46.00200
C  23.51900 -9.87800 46.31400
C  24.07300 -11.17200 46.91600
C  25.60100 -10.81500 47.35800
C  25.64300 -9.45700 46.59800
C  23.23900 -11.91600 48.02900
C  26.67200 -11.80100 46.85600
C  27.45400 -12.62100 47.93600
N  26.01400 -6.62600 45.54500
C  27.01500 -7.35600 46.12200
C  28.23500 -6.64200 45.93900
C  28.00800 -5.65600 44.99900
C  26.59900 -5.71800 44.71700
C  29.58000 -6.90100 46.61500
C  28.61000 -4.55500 44.26400
O  29.76900 -4.19500 44.32400
C  27.43200 -3.99300 43.29300
C  27.38700 -2.55500 43.41200
O  27.62000 -1.77400 42.46400
O  26.88100 -2.14900 44.63900
C  26.89100 -0.67700 44.83300
H  20.70600 -4.85100 42.86900
H  21.69300 -10.68000 45.91100
H  27.63900 -9.01000 47.35800
H  24.79800 -2.26400 42.93900
H  22.34300 -3.17100 41.72400
H  21.53800 -1.56900 43.01100
H  22.98400 -1.51900 44.06000
H  21.68800 -2.45000 44.46200
H  24.03700 -3.81300 40.49800
H  25.73200 -4.20300 40.89900
H  26.57800 -2.33500 40.08200
H  25.43900 -1.38400 40.88500
H  18.21700 -7.56100 42.54100
H  18.76400 -5.97000 42.97700
H  17.70700 -6.88200 44.01400
H  19.33600 -10.56900 46.70700
H  19.63400 -11.68800 45.21800
H  18.03800 -11.41400 45.89300
H  24.02100 -11.88200 46.09000
H  25.50500 -10.57500 48.41700
H  22.35100 -11.31000 48.21300
H  23.77300 -11.84500 48.97700
H  22.98900 -12.95700 47.82500
H  27.45100 -11.23000 46.35200
H  26.16200 -12.40100 46.10200
H  27.00200 -12.45400 48.91400
H  28.52900 -12.46000 47.84900
H  27.26900 -13.69200 47.85600
H  29.41000 -7.19700 47.65000
H  30.15900 -5.98500 46.73000
H  30.16500 -7.66300 46.09800
H  27.53700 -4.26600 42.24300
H  27.90000 -0.28200 44.70900
H  26.61400 -0.48300 45.87000
H  26.27600 -0.16300 44.09400
Mg 7.14300 56.76400 41.18600
C  6.59700 53.41100 40.59500
C  10.48400 56.29700 40.00900
C  7.64200 60.13300 41.16000
C  3.83200 57.28300 41.87600
N  8.46000 55.05300 40.33200
C  8.02400 53.75500 40.34200
C  9.15400 52.85400 39.86300
C  10.36900 53.67400 40.36800
C  9.76100 55.07500 40.22900
C  10.87600 53.38300 41.79800
C  8.98800 52.52000 38.37400
C  10.36100 52.24300 37.57300
H  10.49900 50.96900 36.70800
N  8.81000 58.03300 40.63900
C  10.03200 57.62600 40.19600
C  10.88200 58.80500 40.04800
C  10.11000 59.87700 40.52200
C  8.79500 59.37900 40.74600
C  12.27600 58.68000 39.46200
C  10.69800 61.27700 40.73800
O  11.86300 61.53900 40.44400
C  9.95200 62.37200 41.45300
N  5.80000 58.47600 41.10800
C  6.27800 59.71800 41.30200
C  5.09100 60.74700 41.31000
C  3.94100 59.83500 41.59600
C  4.51500 58.45800 41.54300
C  5.15000 61.99700 42.28300
C  2.74400 60.15600 40.61300
C  1.26100 59.94000 40.93600
N  5.56600 55.61300 41.30700
C  4.23600 55.92200 41.71800
C  3.59100 54.71000 42.07400
C  4.45500 53.72900 41.61000
C  5.63500 54.27800 41.09400
C  2.27900 54.53100 42.81900
C  4.58200 52.26700 41.49700
O  3.79300 51.35100 41.80700
C  5.86700 52.04400 40.65400
C  5.46700 51.43400 39.35000
O  5.55600 52.01700 38.29600
O  5.00700 50.14200 39.58200
C  4.54600 49.50000 38.35200
H  11.56000 56.12200 39.94200
H  7.72700 61.21900 41.23800
H  2.80600 57.41600 42.22700
H  9.34200 51.95100 40.44400
H  11.30000 53.51900 39.82200
H  10.31200 52.56100 42.23900
H  10.89500 54.21800 42.49800
H  11.90900 53.05000 41.69400
H  8.44200 53.28200 37.81800
H  8.37100 51.63300 38.23100
H  11.16400 52.08200 38.29100
H  10.80000 53.02600 36.95500
H  12.78900 59.36800 40.13400
H  12.32600 58.96300 38.41100
H  12.78900 57.72200 39.54500
H  9.48000 61.93800 42.33400
H  9.29300 62.88900 40.75600
H  10.70400 63.11200 41.72300
H  5.12600 61.11500 40.28500
H  3.65800 60.01700 42.63300
H  6.14100 62.07900 42.73000
H  4.41400 61.93600 43.08400
H  5.03700 62.86600 41.63500
H  2.76700 59.36800 39.86100
H  2.89400 61.18100 40.27400
H  0.83200 59.13500 40.34000
H  0.70700 60.85100 40.71000
H  1.13100 59.75300 42.00200
H  1.63500 54.11100 42.04700
H  1.84200 55.40800 43.29700
H  2.41700 53.88600 43.68700
H  6.55000 51.32600 41.10700
H  3.93500 50.19600 37.77700
H  4.01500 48.58500 38.61400
H  5.34500 49.13500 37.70700

