158

Mg 55.51100 22.59500 44.78200
C  53.42500 24.96200 43.52900
C  53.12900 20.23400 43.89200
C  57.84500 20.19800 45.16300
C  57.89200 24.99300 45.35200
N  53.57500 22.61600 43.69000
C  52.90100 23.71500 43.18800
C  51.54300 23.30000 42.71000
C  51.34800 21.83700 43.33600
C  52.72700 21.54500 43.72800
C  50.32200 21.71600 44.49900
C  51.33700 23.66800 41.22200
C  50.05600 24.40300 40.91100
H  49.25100 23.86900 39.75200
N  55.46400 20.57800 44.39500
C  54.42700 19.75500 44.03500
C  54.81100 18.36900 44.06000
C  56.20000 18.34800 44.33500
C  56.60200 19.72600 44.63300
C  53.87600 17.25600 43.87500
C  57.03300 17.07900 44.52000
O  56.44300 15.96300 44.46300
C  58.47400 17.05900 45.01700
N  57.54300 22.51000 45.32800
C  58.32100 21.45400 45.48100
C  59.83700 21.71900 45.85100
C  59.80400 23.35000 45.74000
C  58.30300 23.65100 45.47500
C  60.25400 21.23600 47.28700
C  60.69800 23.94700 44.53100
C  61.44800 25.25100 44.79700
N  55.63700 24.55700 44.65800
C  56.60700 25.44700 45.00800
C  56.11700 26.80700 44.83900
C  54.84300 26.70300 44.32800
C  54.58600 25.29800 44.21500
C  56.85100 28.09700 45.19400
C  53.65200 27.38000 43.86600
O  53.38100 28.57500 43.89100
C  52.82800 26.31200 43.15000
C  52.92000 26.54700 41.69400
O  53.87500 26.23100 40.95500
O  51.86300 27.30400 41.35200
C  51.93100 28.12000 40.14900
H  52.38500 19.47100 43.65300
H  58.64900 19.51700 45.44600
H  58.54700 25.85500 45.49200
H  50.89300 23.89900 43.34800
H  51.05500 21.08600 42.60100
H  50.85800 21.19500 45.29300
H  49.49100 21.09800 44.15700
H  49.93400 22.71600 44.68800
H  51.39000 22.73600 40.66000
H  52.14100 24.31900 40.88000
H  50.26500 25.40300 40.53000
H  49.42000 24.43400 41.79500
H  54.02600 16.94000 42.84300
H  52.82900 17.48500 44.07400
H  54.11100 16.42700 44.54300
H  58.53300 17.40900 46.04800
H  59.07700 17.66400 44.33900
H  58.94100 16.07500 45.05100
H  60.37600 21.27300 45.01500
H  60.05700 23.86300 46.66700
H  59.39600 20.75200 47.75300
H  60.56300 22.13400 47.82200
H  61.02000 20.47200 47.15100
H  60.07600 24.10700 43.65000
H  61.43600 23.17800 44.30100
H  61.33200 25.79900 43.86100
H  62.52800 25.20300 44.93700
H  60.97800 25.89800 45.53800
H  56.36500 28.64700 46.00000
H  56.72000 28.76400 44.34100
H  57.93200 27.98300 45.27500
H  51.77200 26.37200 43.41300
H  51.28500 28.99800 40.15100
H  51.57600 27.50500 39.32300
H  52.96800 28.39000 39.95100
Mg -4.31300 26.02600 25.83700
C  -3.10700 27.47700 28.82800
C  -6.19500 23.86900 27.82800
C  -5.13800 24.09300 23.09200
C  -2.10900 27.92300 23.99900
N  -4.51800 25.67700 28.08800
C  -3.99500 26.43500 29.03400
C  -4.60700 26.07800 30.39200
C  -5.31700 24.66600 30.12400
C  -5.44900 24.76600 28.56900
C  -4.57900 23.40600 30.56900
C  -5.59800 27.23100 30.94100
C  -5.47500 27.45900 32.53100
H  -4.99500 26.32100 33.40100
N  -5.66700 24.40300 25.48300
C  -6.29300 23.68000 26.46900
C  -7.17700 22.69500 25.78300
C  -6.87600 22.70200 24.39300
C  -5.88700 23.76900 24.23500
C  -8.17300 21.77000 26.59900
C  -7.34100 21.77500 23.32800
O  -6.88000 21.91600 22.17000
C  -8.44700 20.71000 23.49600
N  -3.62400 25.91800 23.89000
C  -4.10000 25.01300 22.91800
C  -3.39100 25.32800 21.53500
C  -2.32700 26.52600 21.90100
C  -2.66700 26.82300 23.32300
C  -2.85400 24.02800 20.77800
C  -2.29300 27.67900 20.88900
C  -3.15200 28.91700 21.18600
N  -2.91900 27.45000 26.22300
C  -2.21200 28.21700 25.38200
C  -1.47800 29.20300 26.15400
C  -1.79100 28.89400 27.51600
C  -2.66900 27.80000 27.51300
C  -0.58800 30.32400 25.67500
C  -1.55300 29.29300 28.87600
O  -1.05600 30.28000 29.37900
C  -2.39500 28.27700 29.75000
C  -1.51300 27.39500 30.45000
O  -0.56500 26.72900 29.97100
O  -1.87700 27.54000 31.77000
C  -0.86800 26.88300 32.61900
H  -6.91000 23.29200 28.41700
H  -5.16500 23.41400 22.23700
H  -1.42400 28.57800 23.45500
H  -3.84800 25.88700 31.15000
H  -6.21800 24.61900 30.73600
H  -4.64700 22.65600 29.78200
H  -5.07000 23.00200 31.45400
H  -3.51400 23.52100 30.77400
H  -6.63200 27.02000 30.66600
H  -5.30700 28.14000 30.41400
H  -6.43000 27.83900 32.89600
H  -4.71200 28.17700 32.83100
H  -7.84700 21.56200 27.61900
H  -8.23500 20.78800 26.13000
H  -9.14000 22.27200 26.62200
H  -8.06200 19.75000 23.83900
H  -8.83000 20.50100 22.49600
H  -9.22900 21.04500 24.17700
H  -4.23600 25.72700 20.97400
H  -1.29900 26.18000 22.00200
H  -1.83800 24.31100 20.50300
H  -3.52600 23.87600 19.93400
H  -2.85900 23.19000 21.47600
H  -2.70000 27.18100 20.00900
H  -1.28700 27.94200 20.56500
H  -2.52000 29.68000 21.64100
H  -3.88900 28.53100 21.89000
H  -3.62100 29.26400 20.26500
H  0.09800 30.59400 26.47800
H  -1.18800 31.21400 25.48400
H  -0.09900 29.96900 24.76800
H  -2.97700 28.94100 30.38900
H  0.08700 27.40300 32.53300
H  -0.76800 25.83200 32.34900
H  -1.18900 26.95200 33.65800

