158

Mg 40.79500 9.30200 29.24300
C  42.54600 10.63700 32.15500
C  38.61800 7.83500 31.34500
C  39.19200 8.36800 26.56300
C  43.48900 10.40300 27.34400
N  40.62400 9.26200 31.39400
C  41.36400 9.90200 32.40300
C  40.71400 9.77800 33.83800
C  39.65200 8.68300 33.51000
C  39.62500 8.57800 31.98400
C  40.05700 7.35500 34.23700
C  40.21700 11.20500 34.39500
C  40.39100 11.28800 35.97900
H  40.80300 12.64000 36.73800
N  39.15400 8.19400 28.96100
C  38.32100 7.64000 29.96100
C  37.21500 7.00300 29.38800
C  37.29100 7.37600 27.99500
C  38.57900 7.98000 27.72600
C  36.16400 6.36200 30.18200
C  36.24100 7.17900 26.87600
O  36.40000 7.51900 25.71700
C  34.87700 6.61400 27.26700
N  41.34600 9.35200 27.27100
C  40.39500 8.91700 26.32500
C  40.99900 9.01600 24.89100
C  42.36500 9.58400 25.16900
C  42.43700 9.81600 26.66000
C  40.88600 7.81100 23.99000
C  42.71900 10.79500 24.28200
C  42.14000 12.07800 24.90000
N  42.54100 10.43600 29.56500
C  43.55300 10.76800 28.66400
C  44.62100 11.47600 29.36000
C  44.25700 11.43000 30.71300
C  42.95800 10.86000 30.85000
C  45.95800 11.85200 28.74600
C  44.73000 11.78700 32.06100
O  45.79700 12.23600 32.36500
C  43.63200 11.39300 33.04200
C  44.07600 10.39000 34.03100
O  44.47400 9.24600 33.73400
O  43.81700 10.93600 35.28800
C  43.92700 9.94800 36.43900
H  37.96100 7.23400 31.97700
H  38.71900 7.93500 25.67900
H  44.36200 10.61200 26.72300
H  41.50900 9.36400 34.45700
H  38.67800 8.88600 33.95500
H  40.51300 6.77100 33.43800
H  39.19800 6.86900 34.69900
H  40.81500 7.55400 34.99400
H  39.13200 11.29600 34.34400
H  40.75300 12.09600 34.06800
H  41.09500 10.50700 36.26900
H  39.39400 11.06100 36.35700
H  36.55700 6.16300 31.17900
H  35.98100 5.33400 29.86800
H  35.23200 6.92700 30.20300
H  34.24500 6.28600 26.44200
H  34.44900 7.28100 28.01500
H  35.10600 5.70400 27.82200
H  40.44700 9.79400 24.36400
H  43.06500 8.78200 24.93500
H  41.80700 7.57600 23.45800
H  40.08100 7.97300 23.27300
H  40.59700 6.92700 24.55800
H  42.40900 10.70800 23.24000
H  43.79600 10.93400 24.18500
H  41.10400 11.91400 25.19700
H  42.09700 12.87200 24.15400
H  42.80000 12.42500 25.69500
H  46.08100 11.36600 27.77800
H  46.77800 11.37900 29.28600
H  46.12100 12.92900 28.71800
H  43.04500 12.20500 33.47100
H  43.46300 10.41600 37.30700
H  44.97200 9.74400 36.67400
H  43.38300 9.07100 36.08900
Mg -5.79200 25.26100 26.71800
C  -3.84200 26.60800 29.23500
C  -7.30000 23.15400 29.01800
C  -7.20000 23.59900 24.17200
C  -3.86300 27.20800 24.34600
N  -5.34900 24.73400 28.78600
C  -4.67600 25.56800 29.64700
C  -5.05300 25.25700 31.11900
C  -5.90300 23.95300 30.99200
C  -6.25100 23.93000 29.49000
C  -5.22200 22.62600 31.42900
C  -5.83600 26.39100 31.76600
C  -5.83200 26.55400 33.31600
H  -5.81800 25.32700 34.19500
N  -7.07900 23.63500 26.59800
C  -7.70500 22.95300 27.66600
C  -8.68500 21.97300 27.08800
C  -8.70700 22.23300 25.65600
C  -7.65700 23.21300 25.44300
C  -9.50400 21.06100 27.87800
C  -9.57200 21.50300 24.53100
O  -9.51300 21.81200 23.35600
C  -10.46100 20.36200 24.83600
N  -5.52500 25.43500 24.62300
C  -6.22900 24.62700 23.75500
C  -5.73500 24.76500 22.27800
C  -4.78900 25.93200 22.37600
C  -4.75200 26.25100 23.87000
C  -5.18400 23.48900 21.53800
C  -5.14000 27.22900 21.50700
C  -4.38500 27.29500 20.14100
N  -4.14800 26.73400 26.75000
C  -3.52900 27.46900 25.75300
C  -2.55800 28.34300 26.39100
C  -2.62100 28.05100 27.78900
C  -3.59900 27.07800 27.91200
C  -1.63100 29.37400 25.67600
C  -2.13000 28.24300 29.14500
O  -1.20100 28.96600 29.55300
C  -3.03100 27.44300 30.12000
C  -2.15600 26.60100 30.94800
O  -1.58500 25.54400 30.66600
O  -1.97200 27.18300 32.17000
C  -1.13700 26.42800 33.06100
H  -7.91000 22.52100 29.66600
H  -7.56400 22.94100 23.38000
H  -3.21000 27.74200 23.65200
H  -4.10500 25.16200 31.64900
H  -6.85800 24.06200 31.50800
H  -5.01600 22.08600 30.50500
H  -5.99700 22.06400 31.95100
H  -4.37400 22.77500 32.09700
H  -6.89500 26.24100 31.55500
H  -5.49700 27.26900 31.21500
H  -6.69500 27.18200 33.54000
H  -4.97300 27.18900 33.53500
H  -10.56500 21.03600 27.63100
H  -9.50600 21.19600 28.95900
H  -8.99200 20.09800 27.85100
H  -9.77800 19.63700 25.27900
H  -10.83300 20.00800 23.87500
H  -11.36000 20.61400 25.39800
H  -6.68100 24.99000 21.78600
H  -3.81300 25.53700 22.09600
H  -4.81800 22.86500 22.35400
H  -4.27300 23.70200 20.97800
H  -5.83000 23.09100 20.75600
H  -4.90500 28.14900 22.04100
H  -6.18800 27.28300 21.21000
H  -3.64800 26.50000 20.25800
H  -3.83900 28.23800 20.09500
H  -5.02600 27.08500 19.28500
H  -2.16900 29.83200 24.84600
H  -0.73500 28.85500 25.33500
H  -1.43900 30.23300 26.31800
H  -3.65900 28.13700 30.67800
H  -1.27300 26.92000 34.02400
H  -0.05700 26.53400 32.95200
H  -1.25900 25.34500 33.06500

