158

Mg 8.69900 3.40400 27.90600
C  10.17600 1.81200 30.63700
C  6.74800 5.17600 29.98100
C  7.11600 4.73100 25.15900
C  10.39400 1.06100 25.84200
N  8.61600 3.53400 30.09800
C  9.33500 2.87900 31.00000
C  9.17900 3.47900 32.37100
C  7.91300 4.38700 32.19300
C  7.72800 4.36800 30.64400
C  6.64900 4.02000 33.06700
C  10.41700 4.27100 32.84500
C  11.03500 3.90200 34.21500
H  10.46900 4.74100 35.48500
N  7.19400 4.75100 27.63500
C  6.47100 5.37400 28.59800
C  5.63400 6.35200 28.01300
C  5.71700 6.24400 26.55800
C  6.71400 5.22100 26.42100
C  4.59600 7.17900 28.77000
C  4.94200 7.00400 25.43800
O  5.15700 6.87800 24.24600
C  3.97500 8.04700 25.81200
N  8.81300 2.98700 25.87900
C  8.08400 3.74000 24.90700
C  8.46900 3.26100 23.50500
C  9.42600 2.03000 23.80600
C  9.56700 2.02400 25.26200
C  7.24000 2.98000 22.53500
C  10.95100 2.28000 23.09900
C  11.70400 0.93400 22.63800
N  9.90900 1.72100 28.18300
C  10.41800 0.82400 27.23700
C  11.21200 -0.21700 27.84800
C  11.13200 0.12400 29.23300
C  10.29200 1.26600 29.33500
C  11.94300 -1.34500 27.17200
C  11.72000 -0.16100 30.52000
O  12.53600 -1.02800 30.85000
C  10.96400 0.84500 31.51100
C  10.10100 0.14600 32.43000
O  9.15000 -0.60600 32.21800
O  10.49500 0.41600 33.73400
C  9.63300 -0.15300 34.81200
H  6.19100 5.82500 30.66000
H  6.67100 5.17900 24.26800
H  10.85600 0.41200 25.09500
H  8.90500 2.67600 33.05600
H  8.14900 5.42900 32.41000
H  5.78500 3.94800 32.40700
H  6.38600 4.76000 33.82300
H  6.83400 3.07700 33.58200
H  10.01800 5.27300 33.00500
H  11.16900 4.38100 32.06300
H  12.11400 4.05300 34.18100
H  10.85000 2.83800 34.36400
H  4.57800 6.81000 29.79500
H  3.59900 6.94500 28.39800
H  4.67900 8.25600 28.62000
H  4.44200 8.80600 26.43900
H  3.19100 7.52900 26.36500
H  3.62400 8.64500 24.97100
H  9.01900 4.05300 22.99600
H  9.05900 1.13900 23.29600
H  6.26200 3.27300 22.91600
H  7.25500 1.93200 22.23600
H  7.32100 3.61300 21.65100
H  11.66700 2.81900 23.72100
H  10.96300 2.80000 22.14100
H  12.07700 0.82800 21.62000
H  11.09700 0.04100 22.79100
H  12.49800 0.73500 23.35800
H  12.82700 -0.89100 26.72400
H  11.28000 -1.72700 26.39600
H  12.32400 -2.14000 27.81200
H  11.62400 1.51500 32.06200
H  9.96800 0.32900 35.73100
H  9.54100 -1.23900 34.85100
H  8.61500 0.16500 34.58900
Mg 25.48300 1.30400 29.78400
C  27.57900 1.05200 32.50700
C  22.76000 1.81500 31.90700
C  23.45100 1.27100 27.10100
C  28.16400 0.36700 27.69100
N  25.22300 1.26900 31.93300
C  26.24000 1.29200 32.85100
C  25.73300 1.46900 34.31900
C  24.23800 1.79700 34.13100
C  24.04100 1.58500 32.63100
C  23.23300 1.06100 34.93400
C  26.50900 2.64800 34.93100
C  26.83200 2.44800 36.41600
H  26.62800 3.45400 37.50500
N  23.40300 1.61800 29.56400
C  22.51400 1.77600 30.51900
C  21.18000 1.89200 29.92200
C  21.34700 1.77700 28.58300
C  22.75700 1.55500 28.35500
C  19.94500 2.13700 30.72100
C  20.26800 1.86700 27.51100
O  20.57200 1.85300 26.32300
C  18.82700 2.01700 27.87400
N  25.72300 0.89400 27.73200
C  24.75900 1.02800 26.75800
C  25.29500 0.88400 25.31700
C  26.79900 0.68800 25.57500
C  26.92400 0.57400 27.13500
C  24.60100 -0.23400 24.57300
C  27.67300 1.82900 24.99100
C  28.60200 1.29900 23.87500
N  27.46600 0.56900 30.02700
C  28.39800 0.34100 29.08600
C  29.62900 0.17000 29.84900
C  29.42100 0.43100 31.17500
C  28.05600 0.73100 31.22300
C  30.95800 -0.17600 29.34700
C  29.98900 0.44700 32.47500
O  31.11200 0.17600 32.89000
C  28.79200 0.78300 33.46400
C  28.61900 -0.31300 34.43100
O  28.12700 -1.41200 34.19400
O  29.12500 0.07800 35.66700
C  29.06500 -0.96100 36.66900
H  21.99000 2.24500 32.55100
H  22.74700 1.37000 26.27200
H  29.06100 0.35500 27.06900
H  25.97100 0.51400 34.78800
H  23.89800 2.82800 34.22400
H  22.98800 1.79000 35.70600
H  23.70700 0.13000 35.24600
H  22.33800 0.78200 34.37700
H  25.83500 3.49700 35.03500
H  27.38400 2.83300 34.30700
H  27.87600 2.14300 36.48800
H  26.36600 1.52200 36.75100
H  20.11000 2.03800 31.79400
H  19.25500 1.33600 30.45500
H  19.38500 3.06800 30.63800
H  18.24300 2.39100 27.03200
H  18.62000 2.79200 28.61300
H  18.38800 1.05300 28.12900
H  25.10900 1.84200 24.83200
H  27.11900 -0.26400 25.15200
H  23.67900 0.10400 24.09900
H  24.32900 -1.02400 25.27400
H  25.34900 -0.77300 23.99100
H  28.25000 2.34900 25.75600
H  27.02500 2.59200 24.56100
H  29.13500 0.38800 24.14800
H  29.28600 2.11400 23.63700
H  28.09900 1.05200 22.94000
H  31.21100 -1.08600 29.89100
H  31.70100 0.58000 29.60100
H  31.02700 -0.42800 28.28900
H  29.07600 1.72200 33.93800
H  28.25100 -1.68400 36.61700
H  28.80700 -0.46500 37.60500
H  30.05600 -1.40500 36.76300

