158

Mg 41.77600 41.45900 26.18800
C  40.92800 43.72300 28.73000
C  42.71700 39.13500 28.65800
C  43.06800 39.59700 23.73500
C  41.08800 43.98200 23.75300
N  41.89100 41.48300 28.44700
C  41.36000 42.45600 29.25000
C  41.56600 42.05900 30.77400
C  42.18300 40.59900 30.71500
C  42.30100 40.36300 29.19300
C  43.43300 40.21700 31.68400
C  40.22700 42.02000 31.48300
C  40.17800 41.48700 32.92400
H  40.38000 42.38700 34.14000
N  42.60700 39.62500 26.14700
C  42.97700 38.81100 27.26800
C  43.41200 37.48800 26.74100
C  43.68200 37.70700 25.33500
C  43.11400 39.01700 24.98500
C  43.52200 36.23200 27.53900
C  44.21700 36.75800 24.36400
O  44.69500 37.12200 23.27900
C  44.53600 35.31200 24.68800
N  41.98100 41.66900 24.01500
C  42.48300 40.72800 23.20700
C  42.40600 41.09700 21.75200
C  41.56600 42.40100 21.78200
C  41.48300 42.66500 23.25900
C  43.74000 41.34200 21.05500
C  40.20100 42.18600 21.16400
C  39.23800 41.21900 21.95800
N  41.22000 43.42200 26.14400
C  41.03900 44.34300 25.11600
C  40.64800 45.62600 25.66900
C  40.53000 45.42100 27.04000
C  40.92100 44.06400 27.31000
C  40.56100 46.89400 24.92100
C  40.26000 46.03100 28.32900
O  39.98200 47.17600 28.56700
C  40.43100 44.97600 29.41600
C  41.44600 45.43800 30.34600
O  42.63400 45.49700 30.05800
O  41.01500 45.68800 31.67400
C  42.01000 46.22900 32.56200
H  43.02500 38.40200 29.40700
H  43.38000 38.92600 22.93200
H  40.71200 44.77400 23.10200
H  42.26800 42.77500 31.20200
H  41.37800 39.92900 31.01700
H  43.13200 39.86200 32.66900
H  44.21400 40.97700 31.64900
H  43.93400 39.33900 31.27600
H  39.42500 41.43400 31.03300
H  39.86900 42.99600 31.81000
H  40.88200 40.65700 32.96900
H  39.17800 41.12100 33.15600
H  43.24000 36.51300 28.55400
H  44.55200 35.88100 27.60700
H  42.90800 35.44000 27.11300
H  45.42500 35.33100 25.31800
H  44.76200 34.71100 23.80700
H  43.74200 34.83900 25.26700
H  41.80900 40.35900 21.21700
H  42.06200 43.21400 21.25200
H  43.95800 40.32000 20.74400
H  44.35500 41.64900 21.90100
H  43.58500 41.83700 20.09600
H  40.41800 41.71600 20.20500
H  39.77000 43.16600 20.95900
H  38.47000 41.79000 22.47900
H  39.74800 40.60600 22.70200
H  38.79800 40.58000 21.19200
H  40.87200 47.76700 25.49400
H  39.52600 47.03200 24.60800
H  41.29100 46.81500 24.11500
H  39.52800 44.70300 29.96300
H  41.51600 47.02300 33.12200
H  42.91000 46.59500 32.06900
H  42.33600 45.50000 33.30400
Mg 29.40400 59.08500 40.48200
C  26.78800 56.94200 39.30100
C  31.64300 56.92500 38.95400
C  31.70100 61.48600 41.12600
C  26.91300 61.28000 41.63300
N  29.16400 57.18900 39.21800
C  28.00400 56.56100 38.82800
C  28.38500 55.29700 37.98200
C  29.96700 55.19900 38.20800
C  30.31700 56.50800 38.84900
C  30.25100 54.04200 39.11000
C  27.93100 55.54700 36.48800
C  26.99900 54.52600 35.82000
H  27.24200 54.35100 34.31200
N  31.41100 59.14100 40.15800
C  32.13700 58.14600 39.50500
C  33.50900 58.53300 39.41400
C  33.55500 59.90600 40.00100
C  32.21000 60.23800 40.50600
C  34.55300 57.76500 38.80500
C  34.84900 60.58800 40.12100
O  35.93600 60.13400 39.66000
C  34.89900 61.90000 41.03100
N  29.33600 61.08200 41.39100
C  30.43100 61.86400 41.53500
C  30.04600 63.32100 41.93700
C  28.48400 63.15500 42.30900
C  28.20800 61.78800 41.69400
C  30.69900 63.84000 43.25600
C  27.66600 64.31300 41.75900
C  26.69300 65.01300 42.74500
N  27.29200 59.14400 40.48400
C  26.43700 60.10200 41.03200
C  25.06300 59.66800 40.96900
C  25.13500 58.41300 40.19300
C  26.54000 58.16200 39.97700
C  24.02100 60.37800 41.53300
C  24.34600 57.38300 39.50200
O  23.13400 57.23000 39.40400
C  25.43700 56.36400 38.92100
C  25.26700 54.96200 39.49800
O  25.72400 54.66900 40.57800
O  24.65600 54.06300 38.68700
C  24.46900 52.72400 39.19200
H  32.39600 56.25200 38.53800
H  32.38000 62.30900 41.35700
H  26.11500 61.95600 41.94600
H  27.80300 54.46600 38.38000
H  30.41500 55.12000 37.21800
H  30.24700 54.42900 40.12900
H  31.25900 53.65300 38.96500
H  29.61700 53.16900 38.95300
H  28.83200 55.71600 35.89900
H  27.44400 56.51200 36.34700
H  25.95300 54.81200 35.92400
H  27.14500 53.52700 36.23100
H  35.54600 57.94300 39.21900
H  34.54200 57.91800 37.72500
H  34.42200 56.68300 38.82400
H  34.26200 61.89900 41.91600
H  34.60500 62.79700 40.48700
H  35.93400 62.04500 41.34100
H  30.23500 64.02300 41.12500
H  28.31700 62.99300 43.37400
H  30.19300 63.75500 44.21800
H  30.97800 64.88900 43.14800
H  31.68700 63.38000 43.27200
H  27.05900 63.91500 40.94600
H  28.28900 65.11500 41.36400
H  26.71700 64.36600 43.62200
H  25.66200 64.99700 42.39100
H  26.95000 66.04900 42.96200
H  24.14900 60.58300 42.59500
H  23.12300 59.76600 41.45800
H  23.88600 61.28600 40.94500
H  25.33500 56.21200 37.84600
H  24.22200 52.69600 40.25300
H  25.37000 52.18000 38.90600
H  23.67100 52.14300 38.73100

