158

Mg 1.36300 -0.81800 43.01700
C  4.89600 -0.41100 42.72000
C  0.93400 1.86900 40.93800
C  -1.96500 -1.58200 42.91900
C  2.03400 -3.99500 44.25300
N  2.79800 0.43100 41.76800
C  4.15100 0.48000 41.94000
C  4.73500 1.56700 40.99700
C  3.56500 2.44300 40.52900
C  2.33700 1.54900 41.06600
C  3.41300 3.87900 41.08400
C  5.44700 0.88900 39.76600
C  6.88900 1.28300 39.49500
H  7.12300 2.12400 38.27200
N  -0.33500 0.15000 42.18100
C  -0.28100 1.21700 41.41800
C  -1.64700 1.67500 41.13800
C  -2.56100 0.80500 41.75400
C  -1.64300 -0.29100 42.36600
C  -1.92400 2.96300 40.32300
C  -4.02500 0.82700 41.77800
O  -4.70100 1.63600 41.20300
C  -4.72700 -0.19500 42.52500
N  0.25600 -2.57900 43.33300
C  -1.13200 -2.60800 43.38900
C  -1.67100 -3.98100 43.63100
C  -0.36900 -4.77100 44.00300
C  0.73200 -3.65600 43.94000
C  -2.88400 -4.12000 44.63300
C  -0.12900 -6.06900 43.15500
C  -0.13300 -7.49100 43.86800
N  3.02700 -2.00900 43.50700
C  3.12400 -3.24900 43.95800
C  4.57700 -3.57400 44.24200
C  5.30000 -2.55000 43.70100
C  4.32500 -1.57300 43.32900
C  5.16100 -4.81500 44.96300
C  6.59100 -2.03800 43.41900
O  7.69600 -2.55500 43.55500
C  6.37500 -0.56900 42.92000
C  7.03700 0.22100 43.98100
O  6.54500 0.44600 45.05500
O  8.21600 0.79500 43.59600
C  9.16500 1.44600 44.50000
H  0.80600 2.80900 40.39700
H  -2.99900 -1.91000 42.79100
H  2.19100 -4.96200 44.73500
H  5.38700 2.15400 41.64400
H  3.51100 2.54100 39.44500
H  4.33000 4.34400 41.44600
H  2.66500 3.82400 41.87500
H  3.22300 4.65000 40.33700
H  4.84600 1.04000 38.86900
H  5.57700 -0.18100 39.92800
H  7.66400 0.53500 39.66000
H  7.10000 2.07800 40.21000
H  -1.56400 2.93100 39.29400
H  -1.45800 3.81400 40.81800
H  -2.96400 3.27400 40.42200
H  -5.81000 -0.17900 42.39800
H  -4.31000 -0.26200 43.53000
H  -4.56100 -1.09000 41.92500
H  -2.14200 -4.22400 42.67900
H  -0.50000 -5.11200 45.03000
H  -3.33400 -3.13200 44.72500
H  -2.54300 -4.37800 45.63600
H  -3.58500 -4.86900 44.26300
H  0.83300 -6.04600 42.64300
H  -0.95300 -6.15500 42.44700
H  -0.58800 -7.41000 44.85500
H  0.86800 -7.92000 43.85800
H  -0.68500 -8.27100 43.34300
H  6.24100 -4.84400 45.10300
H  4.73800 -5.67500 44.44300
H  4.64800 -4.80200 45.92500
H  6.96200 -0.58400 42.00200
H  9.35700 0.81600 45.36800
H  8.75000 2.41100 44.79400
H  10.11900 1.56300 43.98600
Mg -1.45700 34.55800 26.51000
C  -3.16300 33.03200 28.93700
C  -0.24400 36.81400 28.75900
C  -0.35400 36.58600 23.83800
C  -3.06400 32.57100 24.10900
N  -1.75700 34.91300 28.55500
C  -2.37100 34.07400 29.45300
C  -1.99300 34.33200 30.91300
C  -1.11800 35.62500 30.83800
C  -0.99500 35.79000 29.26900
C  -1.62600 37.02500 31.56500
C  -1.38600 33.07100 31.57800
C  -2.00700 32.70000 32.98300
H  -1.07300 32.53500 34.16200
N  -0.44500 36.44100 26.33300
C  -0.05700 37.17000 27.39100
C  0.69700 38.32500 26.92000
C  0.85000 38.23700 25.54300
C  -0.03600 37.04300 25.16500
C  1.24500 39.37900 27.93300
C  1.60800 39.18300 24.68500
O  1.54900 39.18800 23.45100
C  2.55600 40.26700 25.29900
N  -1.75500 34.68600 24.25800
C  -1.11600 35.47300 23.40900
C  -1.33600 35.13700 21.92900
C  -2.05800 33.74400 22.06900
C  -2.36000 33.61800 23.59600
C  -2.14000 36.24000 21.17800
C  -1.31000 32.58000 21.55200
C  0.10300 32.38300 22.15600
N  -2.79900 33.07800 26.46400
C  -3.34300 32.34400 25.47300
C  -4.27700 31.34800 25.98900
C  -4.18200 31.53100 27.39400
C  -3.35400 32.63600 27.58400
C  -4.99200 30.47800 25.12500
C  -4.62600 31.04100 28.65000
O  -5.52300 30.19700 28.88000
C  -3.87200 31.86900 29.74500
C  -4.77400 32.30600 30.82100
O  -5.51500 33.29200 30.79200
O  -4.79100 31.31000 31.73700
C  -5.78900 31.56400 32.83700
H  0.26700 37.56200 29.36800
H  0.18800 37.11200 23.04900
H  -3.37000 31.83800 23.35900
H  -2.80100 34.72700 31.52900
H  -0.09400 35.39100 31.12800
H  -2.41800 36.91500 32.30500
H  -1.92200 37.82300 30.88500
H  -0.77100 37.45200 32.08900
H  -0.34500 33.25900 31.84300
H  -1.52000 32.22800 30.90000
H  -2.41100 31.69500 32.86500
H  -2.90400 33.28300 33.19300
H  0.79500 39.33600 28.92500
H  0.99900 40.39600 27.62700
H  2.33300 39.31500 27.94800
H  3.25200 39.74100 25.95200
H  1.90900 40.99700 25.78500
H  3.06700 40.82500 24.51300
H  -0.34400 34.95700 21.51400
H  -3.00900 33.71700 21.53700
H  -2.85600 35.87100 20.44300
H  -1.57000 36.78000 20.42100
H  -2.60700 36.99000 21.81600
H  -1.33100 32.88500 20.50600
H  -1.90300 31.66500 21.57000
H  0.18800 31.30100 22.25300
H  0.17800 32.83600 23.14500
H  0.81500 32.78500 21.43500
H  -4.21500 30.06200 24.48400
H  -5.70700 31.01500 24.50200
H  -5.43800 29.64500 25.66800
H  -3.17800 31.12500 30.13500
H  -6.63600 32.02600 32.33000
H  -5.34300 32.29200 33.51600
H  -6.13300 30.65600 33.33000

