158

Mg -1.57500 17.64900 26.29900
C  -2.05500 15.07100 28.71500
C  -2.60000 19.88300 28.60100
C  -1.44900 19.79100 23.84400
C  -1.29300 14.94100 23.86200
N  -2.32000 17.39800 28.45100
C  -2.21000 16.33000 29.30000
C  -2.59100 16.76900 30.67100
C  -2.91900 18.32600 30.54800
C  -2.61200 18.58400 29.11900
C  -4.29500 18.81300 31.07800
C  -1.59400 16.39600 31.74800
C  -1.49800 17.20700 33.04400
H  -1.24000 16.59600 34.43800
N  -1.87200 19.55900 26.23200
C  -2.25700 20.33300 27.29300
C  -2.12800 21.75400 26.83900
C  -1.69500 21.79300 25.50700
C  -1.69400 20.35500 25.07600
C  -2.44200 22.90800 27.71200
C  -1.26800 23.02100 24.69500
O  -0.97200 22.96300 23.47800
C  -1.06400 24.27500 25.31100
N  -1.37500 17.39500 24.11400
C  -1.35300 18.46500 23.33300
C  -1.19700 18.12600 21.82000
C  -0.86600 16.61700 21.91600
C  -1.21800 16.25500 23.34900
C  -2.44400 18.42800 20.89900
C  0.58000 16.22200 21.56300
C  1.70800 17.08500 22.15300
N  -1.69600 15.41100 26.17900
C  -1.58600 14.52800 25.15500
C  -1.66500 13.19500 25.75500
C  -1.77800 13.44300 27.08500
C  -1.93500 14.75500 27.29600
C  -1.40700 11.84700 25.17500
C  -1.76200 12.66600 28.27700
O  -1.64200 11.39600 28.43300
C  -1.92800 13.73600 29.36000
C  -0.70200 13.65000 30.23900
O  0.35600 14.31100 30.11300
O  -0.85000 12.76500 31.27600
C  0.32800 12.66800 32.13400
H  -2.78300 20.67800 29.32700
H  -1.35600 20.55900 23.07200
H  -1.11100 14.11600 23.17000
H  -3.60500 16.39000 30.79500
H  -2.14500 18.92100 31.03300
H  -4.66300 19.55800 30.37200
H  -4.33800 19.39500 31.99900
H  -5.01700 18.05700 31.38800
H  -0.58100 16.57800 31.38800
H  -1.88400 15.36000 31.92600
H  -2.38800 17.83600 33.08900
H  -0.68100 17.91600 32.91400
H  -2.97600 22.61300 28.61500
H  -3.02800 23.65900 27.18300
H  -1.47000 23.33900 27.95400
H  -0.44000 24.23700 26.20300
H  -2.03200 24.72100 25.54100
H  -0.52800 24.91800 24.61200
H  -0.29300 18.65200 21.51300
H  -1.56000 16.02800 21.31700
H  -2.76600 17.55200 20.33600
H  -2.24900 19.19700 20.15100
H  -3.16800 18.70200 21.66700
H  0.66800 16.42000 20.49500
H  0.68300 15.14700 21.71300
H  2.22900 17.49300 21.28700
H  2.38900 16.42900 22.69600
H  1.48400 17.93500 22.79800
H  -1.09400 11.94600 24.13500
H  -2.39900 11.40000 25.11400
H  -0.75800 11.09200 25.61900
H  -2.90300 13.54800 29.81100
H  0.14000 13.37000 32.94700
H  1.27800 12.84800 31.63100
H  0.34800 11.67100 32.57500
Mg 46.76300 34.53800 28.12600
C  45.28500 33.04300 30.89700
C  47.24600 37.44800 30.15900
C  47.88600 36.21900 25.45700
C  45.95000 31.91200 26.18300
N  46.25400 35.18500 30.25500
C  45.82600 34.28500 31.20400
C  46.16400 34.80700 32.58900
C  46.33900 36.33300 32.30600
C  46.53000 36.36000 30.78800
C  45.20500 37.38600 32.79600
C  47.39400 34.17600 33.31300
C  47.51100 34.31100 34.78600
H  46.64000 35.20000 35.67400
N  47.30200 36.63700 27.81100
C  47.58500 37.57300 28.77500
C  48.12000 38.75600 28.15300
C  48.27700 38.44100 26.77100
C  47.82000 37.04200 26.59600
C  48.36300 40.03400 28.89100
C  48.86900 39.32600 25.59000
O  48.87200 38.88500 24.43400
C  49.42400 40.72600 25.76100
N  47.01800 34.05900 26.17800
C  47.49300 34.92500 25.17100
C  47.67700 34.11000 23.85100
C  46.94100 32.77500 24.10300
C  46.71100 32.86700 25.59200
C  47.25000 34.90600 22.61200
C  47.84400 31.53400 23.69300
C  47.08500 30.31200 23.45400
N  45.77800 32.78500 28.42900
C  45.52600 31.76100 27.53000
C  44.89300 30.65200 28.15400
C  44.82000 31.09300 29.49600
C  45.34000 32.42100 29.60400
C  44.45400 29.31300 27.47400
C  44.23500 30.80500 30.77600
O  43.59500 29.87100 31.11300
C  44.46600 32.09700 31.59100
C  44.82200 31.79200 32.96700
O  45.82900 31.25600 33.40500
O  43.64100 31.97400 33.69200
C  43.60500 31.58400 35.13500
H  47.61000 38.24700 30.80800
H  48.23300 36.47300 24.45300
H  45.86500 31.04200 25.52900
H  45.23700 34.64800 33.14100
H  47.34500 36.60000 32.63000
H  44.39200 36.73100 33.10700
H  44.85500 37.92900 31.91700
H  45.39500 38.15500 33.54400
H  48.31600 34.63000 32.95000
H  47.44600 33.11800 33.05600
H  48.53500 34.66500 34.90700
H  47.32300 33.28700 35.10900
H  48.40000 40.89900 28.22900
H  49.39600 39.91800 29.21800
H  47.62100 40.33300 29.63100
H  49.76100 40.93300 26.77600
H  48.56800 41.39400 25.66600
H  50.22000 40.86000 25.02800
H  48.74500 33.90800 23.77700
H  45.93600 32.66400 23.69300
H  46.53700 35.69300 22.85400
H  46.80200 34.28200 21.83900
H  48.18000 35.30000 22.20100
H  48.65000 31.36100 24.40600
H  48.47400 31.71300 22.82100
H  47.13800 29.72000 24.36800
H  47.53300 29.75300 22.63200
H  46.03600 30.51700 23.24400
H  43.52000 29.45900 26.93100
H  44.33400 28.56500 28.25800
H  45.15200 28.93500 26.72700
H  43.47900 32.55500 31.64700
H  42.57700 31.53200 35.49400
H  44.17100 32.40700 35.57100
H  44.10500 30.64600 35.37800

