158

Mg 47.13100 25.35700 28.42100
C  48.01400 27.53000 31.07000
C  46.26900 23.02100 30.73100
C  46.57500 23.15500 25.88500
C  48.67900 27.55300 26.21900
N  46.95600 25.42900 30.64600
C  47.41200 26.41000 31.50700
C  47.21100 25.99100 32.96900
C  46.51400 24.53900 32.82600
C  46.53100 24.31700 31.33200
C  47.15900 23.33200 33.66900
C  46.16200 26.96700 33.60900
C  46.70000 27.65300 34.85000
H  45.74200 28.14900 35.92600
N  46.43400 23.36400 28.32000
C  46.09700 22.59300 29.39400
C  45.57900 21.36600 28.89400
C  45.71000 21.34000 27.52900
C  46.25700 22.64400 27.14100
C  45.06900 20.24400 29.78000
C  45.39600 20.19400 26.48700
O  45.48100 20.31300 25.26500
C  44.77700 18.92600 26.93100
N  47.59100 25.37400 26.42200
C  47.21900 24.41400 25.54600
C  47.50500 24.77800 24.10200
C  48.07700 26.13100 24.20300
C  48.14300 26.35600 25.74600
C  48.34200 23.78400 23.33500
C  47.18400 27.22900 23.45700
C  47.65800 27.72100 22.14300
N  48.10600 27.18800 28.56200
C  48.74400 27.91800 27.55500
C  49.25500 29.14100 28.15600
C  49.12500 28.91300 29.49800
C  48.31400 27.82900 29.71000
C  49.97700 30.27100 27.49700
C  49.38600 29.45300 30.81700
O  50.10400 30.41500 31.16100
C  48.68000 28.59000 31.90000
C  49.77000 28.02300 32.80100
O  50.47900 27.15600 32.38600
O  49.83400 28.63800 34.00700
C  51.07600 28.37400 34.79600
H  46.03500 22.39800 31.59600
H  46.43100 22.60700 24.95100
H  49.05400 28.29800 25.51400
H  48.13600 25.92800 33.54200
H  45.50100 24.49900 33.22700
H  46.43600 22.69100 34.17300
H  47.84900 23.70600 34.42500
H  47.74200 22.72700 32.97400
H  45.25200 26.51000 33.99700
H  45.98000 27.82800 32.96700
H  47.21100 28.55200 34.50400
H  47.38800 26.97400 35.35500
H  44.09000 19.89700 29.45100
H  45.08100 20.51100 30.83600
H  45.80500 19.44300 29.70800
H  45.59900 18.33800 27.34100
H  44.38100 18.46900 26.02500
H  43.89700 19.17100 27.52600
H  46.51200 24.84200 23.65700
H  49.09900 26.20400 23.83200
H  48.72700 23.11400 24.10400
H  49.16300 24.28900 22.82700
H  47.71700 23.17400 22.68200
H  47.02100 28.06200 24.14000
H  46.18300 26.86500 23.22700
H  48.57300 27.16800 21.93200
H  47.90300 28.77700 22.26000
H  46.92800 27.55600 21.35100
H  51.05800 30.17700 27.40000
H  49.69200 31.13900 28.09200
H  49.67000 30.36200 26.45500
H  48.01500 29.22100 32.49000
H  52.00700 28.71000 34.33900
H  51.09100 27.30000 34.97900
H  51.00700 28.87700 35.76100
Mg 35.83100 49.16900 25.98500
C  36.30200 47.27900 28.98600
C  34.54800 51.66300 27.88900
C  35.36700 50.83300 23.11100
C  36.63200 46.25200 24.10200
N  35.52400 49.36200 28.20300
C  35.80300 48.52700 29.26300
C  35.57100 49.14000 30.65400
C  34.86600 50.49500 30.24100
C  34.91700 50.51400 28.65200
C  33.39700 50.71700 30.85900
C  36.90200 49.40100 31.43100
C  36.72400 49.49300 32.95800
H  35.32900 49.30000 33.61800
N  35.01300 50.99100 25.51300
C  34.54000 51.90300 26.42300
C  34.18100 53.14300 25.76200
C  34.35000 52.86600 24.36100
C  34.92600 51.50900 24.28000
C  33.71100 54.35900 26.45300
C  34.24100 53.79500 23.21700
O  34.48500 53.48400 22.02200
C  33.73800 55.17700 23.43700
N  35.76900 48.53000 23.85300
C  35.72800 49.50700 22.87000
C  35.89500 48.86000 21.44200
C  36.54800 47.47300 21.74400
C  36.43100 47.39600 23.34300
C  34.49100 48.84000 20.69600
C  37.95500 47.31100 21.13600
C  39.20100 47.63000 22.05400
N  36.48700 47.23100 26.41200
C  36.68200 46.14600 25.57200
C  37.14600 45.01400 26.41400
C  36.96800 45.37400 27.74600
C  36.51500 46.73200 27.66900
C  37.89300 43.81200 25.87000
C  37.13300 44.91200 29.08600
O  37.61500 43.83600 29.46000
C  36.61400 46.14100 29.97000
C  35.51600 45.67400 30.82400
O  34.32500 45.77700 30.59200
O  36.10000 45.18300 32.00100
C  35.19800 44.61800 33.01200
H  34.21100 52.51500 28.48400
H  35.11400 51.39700 22.21100
H  37.19000 45.51900 23.51600
H  34.96800 48.51400 31.31300
H  35.39900 51.41800 30.46900
H  33.23900 50.00400 31.66900
H  32.59400 50.31100 30.24400
H  33.14100 51.75300 31.08100
H  37.26900 50.36700 31.08400
H  37.62500 48.60300 31.26200
H  37.31400 50.35900 33.25800
H  37.14600 48.64900 33.50400
H  33.51300 54.21800 27.51600
H  32.73700 54.71300 26.11500
H  34.41200 55.19200 26.41200
H  32.87700 55.27800 24.09800
H  33.48000 55.66900 22.49900
H  34.59200 55.69300 23.87400
H  36.56800 49.50300 20.87400
H  36.07000 46.62700 21.25000
H  34.15100 47.81500 20.54700
H  34.59900 49.28700 19.70800
H  33.75100 49.29500 21.35400
H  37.96600 47.86200 20.19500
H  38.03400 46.25100 20.89300
H  38.97800 48.13100 22.99500
H  40.04700 48.11500 21.56800
H  39.62000 46.64500 22.25800
H  38.69100 43.64500 26.59300
H  38.26300 43.95200 24.85400
H  37.26900 42.92300 25.77900
H  37.47600 46.38600 30.59000
H  35.69900 43.72900 33.39400
H  34.23400 44.41200 32.54700
H  35.17400 45.45500 33.70900

