158

Mg 25.80700 0.92600 29.52300
C  27.77000 0.69200 32.50400
C  23.02400 0.88000 31.39600
C  24.20300 0.89400 26.70000
C  28.79200 0.18600 27.71300
N  25.48900 0.58100 31.71300
C  26.36800 0.79700 32.74700
C  25.58600 0.93100 34.07700
C  24.10200 0.68800 33.62600
C  24.21500 0.74900 32.12900
C  23.44500 -0.62700 34.16500
C  25.98100 2.28800 34.72200
C  25.17200 2.68800 35.91600
H  25.92900 2.58000 37.26100
N  23.84200 0.90900 29.07900
C  22.83700 0.90900 29.98300
C  21.58900 1.18000 29.31100
C  21.85600 1.09600 27.89200
C  23.32200 0.91200 27.85300
C  20.19600 1.42800 30.02900
C  20.98600 1.00700 26.72000
O  21.41100 0.68900 25.62200
C  19.52600 1.23500 26.86200
N  26.42600 0.73800 27.55500
C  25.59700 0.97500 26.53200
C  26.16300 0.69600 25.16000
C  27.64400 0.42400 25.47900
C  27.63900 0.42700 27.02000
C  25.50500 -0.39400 24.24200
C  28.64400 1.46300 24.85700
C  29.99700 0.83900 24.52000
N  27.88000 0.49400 29.97000
C  28.95200 0.30200 29.12600
C  30.11800 0.09600 29.96500
C  29.74000 0.31100 31.32400
C  28.32800 0.49700 31.23000
C  31.39900 -0.28300 29.50600
C  30.20400 0.40000 32.67600
O  31.31400 0.42500 33.16300
C  28.88300 0.72900 33.51600
C  28.67100 -0.20300 34.61800
O  28.42900 -1.35200 34.49300
O  29.07800 0.42500 35.82100
C  28.93300 -0.26100 37.12900
H  22.10200 0.88100 31.98000
H  23.63900 0.95100 25.76600
H  29.60600 -0.24100 27.12400
H  26.00700 0.22200 34.79000
H  23.56600 1.56800 33.98200
H  23.17700 -1.43100 33.47900
H  22.59300 -0.33600 34.78000
H  24.13100 -1.05000 34.89900
H  25.92900 3.06100 33.95500
H  27.02100 2.19900 35.03600
H  24.24500 2.12300 36.01100
H  24.82000 3.70400 35.73700
H  19.61400 0.51300 29.91300
H  19.65300 2.20200 29.48700
H  20.22400 1.65400 31.09500
H  19.04700 1.05700 25.89900
H  19.24700 2.22300 27.22900
H  19.18000 0.46300 27.55000
H  26.09400 1.64600 24.62900
H  27.94400 -0.60400 25.27800
H  24.63700 -0.90900 24.65400
H  26.26800 -1.09000 23.89400
H  25.11600 0.22900 23.43700
H  28.66700 2.29100 25.56600
H  28.18100 1.87300 23.95900
H  30.28400 0.97900 23.47800
H  30.11400 -0.14000 24.98400
H  30.79000 1.40100 25.01500
H  31.55700 0.20800 28.54600
H  31.47100 -1.34800 29.28400
H  32.13700 -0.01100 30.26100
H  29.00900 1.72700 33.93600
H  28.47100 0.28500 37.95100
H  29.94000 -0.46600 37.49400
H  28.43600 -1.23100 37.10000
Mg 44.44200 4.73900 47.19900
C  42.33800 7.45800 46.91100
C  41.67200 2.66600 46.64000
C  46.51800 2.16800 46.79200
C  47.21500 6.91500 46.89300
N  42.18400 5.02700 46.83700
C  41.55300 6.29400 46.68100
C  39.97000 6.15200 46.61800
C  39.84700 4.57900 46.55100
C  41.31000 4.07900 46.71700
C  38.89100 3.98400 47.67700
C  39.34400 6.82700 45.37600
C  39.82600 6.21800 44.04900
H  40.46800 7.26400 43.14300
N  44.16700 2.65200 46.79100
C  42.95400 2.01000 46.69700
C  43.23300 0.59000 46.62200
C  44.61500 0.36300 46.59100
C  45.19800 1.74500 46.71100
C  42.05600 -0.42400 46.57300
C  45.30100 -1.00300 46.59200
O  44.59400 -2.03300 46.65300
C  46.77600 -1.05200 46.58400
N  46.53500 4.60000 46.74600
C  47.15600 3.43500 46.83000
C  48.63500 3.56700 47.07900
C  48.82700 5.06800 46.78600
C  47.38800 5.58200 46.71000
C  49.10300 3.17300 48.48700
C  49.64900 5.40900 45.50600
C  51.21100 5.35100 45.73700
N  44.78500 6.77000 47.07800
C  45.93400 7.47900 46.99600
C  45.58300 8.91100 46.92200
C  44.16300 8.91900 46.93200
C  43.73800 7.57700 47.04400
C  46.56000 10.02800 46.73000
C  42.98500 9.75100 46.93200
O  42.78400 10.99200 46.94100
C  41.73900 8.78200 47.08000
C  41.01800 8.99900 48.43000
O  41.09500 8.29500 49.40700
O  40.33500 10.20100 48.39400
C  39.70800 10.54800 49.69100
H  40.72900 2.12000 46.56900
H  47.27700 1.40900 46.59100
H  48.01000 7.66200 46.94500
H  39.58700 6.61700 47.52600
H  39.47100 4.12700 45.63300
H  38.09300 4.68700 47.91900
H  39.51300 3.72500 48.53300
H  38.42800 3.06800 47.31000
H  39.46100 7.90900 45.32200
H  38.26100 6.69800 45.36500
H  38.94700 5.85700 43.51500
H  40.54300 5.43500 44.29900
H  42.03400 -0.83300 47.58300
H  42.15000 -1.32100 45.96000
H  41.11700 -0.00300 46.21400
H  47.16800 -2.05000 46.38500
H  47.05300 -0.64900 47.55900
H  47.11700 -0.44600 45.74600
H  49.21800 2.92000 46.42400
H  49.29500 5.61300 47.60500
H  48.24600 2.73900 49.00100
H  49.36100 4.10500 48.99000
H  49.94500 2.48900 48.38300
H  49.44500 6.41900 45.15100
H  49.34600 4.72600 44.71200
H  51.68100 4.98800 44.82300
H  51.47200 4.80700 46.64500
H  51.56000 6.37200 45.88700
H  47.17500 9.79900 45.85900
H  47.24000 10.00900 47.58200
H  46.09500 11.00200 46.57900
H  41.07100 8.99700 46.24700
H  40.31100 11.23900 50.28000
H  39.31000 9.69400 50.23900
H  38.79900 11.00800 49.30500

