158

Mg 54.65100 24.22800 44.89900
C  52.00800 26.46500 43.87000
C  52.50200 21.58500 44.16600
C  57.37000 22.24500 44.61700
C  56.76400 27.03100 45.30700
N  52.51500 24.10100 43.98500
C  51.65300 25.13600 43.63200
C  50.31800 24.49000 43.07000
C  50.34600 23.03200 43.71500
C  51.84500 22.87500 44.02000
C  49.46900 22.86700 45.00000
C  50.19800 24.63100 41.57400
C  48.76900 24.59100 41.02400
H  48.64000 23.87400 39.63200
N  54.91700 22.21500 44.50600
C  53.92700 21.25500 44.35600
C  54.48600 19.95900 44.31700
C  55.86300 20.14200 44.29700
C  56.09800 21.55800 44.43400
C  53.75100 18.72500 43.90700
C  56.92500 19.04300 44.02800
O  56.58100 17.86300 44.02800
C  58.37900 19.30300 43.61700
N  56.78100 24.63000 44.77200
C  57.60700 23.61000 44.79400
C  59.07100 24.01700 45.18500
C  58.84400 25.56800 45.37600
C  57.39000 25.79400 45.13000
C  59.67800 23.28000 46.38800
C  59.72200 26.47100 44.30100
C  60.59200 27.63800 44.87400
N  54.42700 26.31300 44.84400
C  55.39900 27.30400 45.07100
C  54.72400 28.52500 45.04800
C  53.41400 28.28500 44.57700
C  53.27800 26.90800 44.46200
C  55.30000 29.82000 45.41400
C  52.14600 28.86800 44.18400
O  51.83900 30.03500 44.10300
C  51.19900 27.74400 43.58000
C  51.02700 28.04600 42.17300
O  51.91800 28.01700 41.33200
O  49.68200 28.25200 41.92500
C  49.37500 28.49000 40.50600
H  51.81800 20.77900 43.89400
H  58.35400 21.77500 44.67800
H  57.45400 27.83500 45.57000
H  49.53800 25.09100 43.53700
H  50.07400 22.33900 42.92000
H  50.01800 22.54500 45.88500
H  48.72700 22.10800 44.75200
H  48.90000 23.77700 45.18900
H  50.79800 23.81400 41.17500
H  50.59400 25.59800 41.26300
H  48.50300 25.64600 40.96200
H  48.15300 24.09700 41.77600
H  53.88800 18.68800 42.82700
H  52.66900 18.78000 44.01900
H  54.19000 17.85700 44.39900
H  58.59600 18.57100 42.84000
H  58.97800 19.35900 44.52600
H  58.36600 20.20300 43.00200
H  59.64600 23.79300 44.28700
H  58.98800 25.86600 46.41500
H  59.01200 22.57700 46.88800
H  60.11600 23.96300 47.11600
H  60.55700 22.74200 46.03400
H  59.03100 26.89000 43.56900
H  60.37800 25.79400 43.75400
H  60.12200 28.61900 44.80200
H  61.55900 27.72600 44.37900
H  60.86200 27.59300 45.92900
H  55.68600 29.81600 46.43300
H  54.46000 30.51300 45.44600
H  56.07800 30.15400 44.72800
H  50.33400 27.77300 44.24200
H  49.14700 29.52200 40.23900
H  48.37900 28.07100 40.36600
H  50.12700 28.19300 39.77500
Mg 35.70100 48.25900 24.98700
C  36.10800 46.41800 27.99400
C  34.11900 50.81500 26.76900
C  35.22800 49.76100 22.15900
C  36.79700 45.43000 23.20000
N  35.12600 48.51900 27.16600
C  35.50800 47.67600 28.20000
C  35.23800 48.41000 29.53000
C  34.39000 49.65000 29.06900
C  34.42900 49.65700 27.56600
C  32.96600 49.55800 29.60200
C  36.55700 48.87700 30.18700
C  36.61600 48.58500 31.68400
H  35.26500 48.67500 32.42400
N  34.82800 50.11600 24.48700
C  34.32400 51.05900 25.36600
C  33.87900 52.29200 24.55500
C  34.34200 52.04400 23.18600
C  34.84600 50.60600 23.18900
C  33.30400 53.53600 25.12800
C  34.28800 52.92300 21.88300
O  34.77100 52.63000 20.82200
C  33.36100 54.10000 21.91200
N  35.69300 47.59300 22.97700
C  35.53400 48.43300 22.01600
C  35.84800 47.82100 20.65900
C  36.72500 46.65600 21.07000
C  36.41000 46.52600 22.52600
C  34.58300 47.42900 19.79800
C  38.26000 46.81100 20.67100
C  39.16600 47.49700 21.70900
N  36.36800 46.31400 25.42300
C  36.84900 45.31200 24.62400
C  37.22700 44.15000 25.40700
C  37.01800 44.57800 26.75800
C  36.43000 45.88400 26.69000
C  37.64800 42.77400 24.85000
C  37.01700 44.16600 28.17200
O  37.40200 43.15300 28.68200
C  36.41900 45.34000 29.01900
C  35.19400 44.90400 29.70100
O  34.11400 44.80300 29.18900
O  35.43600 44.84300 31.01400
C  34.23300 44.56400 31.78000
H  33.67700 51.65000 27.31600
H  35.19700 50.24800 21.18200
H  37.13000 44.59900 22.57500
H  34.68400 47.69200 30.13400
H  34.79400 50.62700 29.33400
H  32.84300 50.39300 30.29200
H  32.78500 48.59200 30.07300
H  32.18300 49.56900 28.84300
H  36.62200 49.94700 29.98700
H  37.43100 48.37700 29.77000
H  37.31000 49.29600 32.13100
H  36.98600 47.56700 31.81000
H  33.83700 54.40400 24.73800
H  33.46800 53.68100 26.19600
H  32.25100 53.55800 24.84500
H  33.69800 54.79800 22.67800
H  32.33500 53.79300 22.11600
H  33.33500 54.73400 21.02600
H  36.40100 48.62000 20.16600
H  36.46800 45.77300 20.48400
H  33.67100 47.52900 20.38700
H  34.59700 46.49300 19.23900
H  34.46000 48.19300 19.03000
H  38.39700 47.38400 19.75400
H  38.49800 45.78700 20.38100
H  38.71100 47.47600 22.69900
H  39.26000 48.55100 21.44900
H  40.11200 46.95600 21.69200
H  37.31500 42.79400 23.81200
H  36.98000 42.08500 25.36800
H  38.67900 42.48200 25.05100
H  37.15300 45.65000 29.76300
H  34.12100 43.49000 31.62900
H  33.43900 45.21800 31.41800
H  34.41000 44.75800 32.83800

