158

Mg 40.60900 9.78600 29.85000
C  42.75400 11.09800 32.60900
C  38.26000 9.02400 32.17800
C  39.07600 8.06000 27.51000
C  43.49400 10.06700 27.92700
N  40.56700 9.98100 32.16400
C  41.44100 10.68500 33.02200
C  40.86000 10.73200 34.43500
C  39.45800 10.00300 34.30500
C  39.36200 9.69500 32.80100
C  39.25500 8.74300 35.22700
C  40.75200 12.20500 35.04200
C  39.80000 12.20600 36.31400
H  40.22300 13.12900 37.45400
N  38.85000 8.76200 29.84500
C  38.05300 8.51500 30.88900
C  36.98000 7.64900 30.43600
C  37.18800 7.45500 29.06400
C  38.39300 8.11100 28.73900
C  35.93000 7.17600 31.41200
C  36.30000 6.76200 28.13100
O  36.46900 6.71500 26.92100
C  35.09700 6.03400 28.72600
N  41.16600 9.24000 27.93400
C  40.27000 8.60700 27.09100
C  40.83700 8.48100 25.64900
C  42.14000 9.40800 25.79300
C  42.33800 9.60300 27.31700
C  40.98100 6.98800 25.17000
C  42.23000 10.80300 25.12800
C  40.92900 11.70800 25.23500
N  42.68500 10.43200 30.12200
C  43.68600 10.51700 29.24400
C  44.87200 11.12800 29.78100
C  44.54500 11.37100 31.08800
C  43.18200 10.99400 31.24000
C  46.15100 11.36500 29.09800
C  45.03200 11.97500 32.27800
O  46.06900 12.54300 32.40800
C  43.84100 11.82000 33.33000
C  44.31400 11.09200 34.50400
O  44.78000 9.94100 34.53200
O  44.13100 11.92300 35.58900
C  44.25400 11.40300 36.92700
H  37.50200 8.68600 32.88800
H  38.70400 7.46300 26.67500
H  44.37800 10.28500 27.32300
H  41.50800 10.07400 35.01500
H  38.70000 10.75200 34.53500
H  38.98200 7.87300 34.63000
H  38.43300 8.96900 35.90600
H  40.19500 8.52400 35.73300
H  40.33700 12.95200 34.36600
H  41.73500 12.57600 35.33300
H  39.74500 11.21800 36.77100
H  38.80700 12.57600 36.06100
H  34.95200 7.65600 31.43600
H  36.33400 7.11500 32.42300
H  35.87600 6.10500 31.21600
H  35.35300 5.07800 29.18200
H  34.45500 5.71300 27.90600
H  34.61900 6.68500 29.45800
H  40.17100 9.06600 25.01500
H  43.05900 8.88900 25.52100
H  42.05100 6.78500 25.22500
H  40.59600 6.98400 24.15100
H  40.40000 6.29000 25.77300
H  42.54600 10.73900 24.08700
H  42.97700 11.35900 25.69500
H  41.05100 12.57200 25.88900
H  40.20500 11.14200 25.82100
H  40.61700 11.95100 24.22000
H  46.06800 12.06400 28.26700
H  46.44700 10.45500 28.57500
H  46.91600 11.62100 29.83200
H  43.53100 12.80400 33.68300
H  43.28400 10.92000 37.04000
H  44.34200 12.16100 37.70500
H  45.12300 10.76200 37.07400
Mg 26.96500 49.48600 26.39600
C  24.85500 50.45300 28.97700
C  29.19600 48.28000 28.63900
C  28.96000 48.54100 23.86500
C  24.61700 50.79600 24.15200
N  27.00300 49.46200 28.61000
C  26.01600 49.78400 29.48300
C  26.41000 49.49300 30.94400
C  27.94500 49.00600 30.84600
C  28.10400 48.95900 29.24700
C  28.96700 49.94600 31.52300
C  25.42200 48.48000 31.65800
C  24.66100 48.94300 32.92000
H  25.41300 49.57800 34.06700
N  28.74800 48.57500 26.28400
C  29.49600 48.18300 27.30600
C  30.60400 47.43100 26.84500
C  30.69100 47.68100 25.45400
C  29.38500 48.28400 25.14500
C  31.53500 46.66300 27.70900
C  31.81000 47.41600 24.44500
O  31.70600 47.69600 23.22900
C  32.95900 46.68600 24.90100
N  26.81400 49.71400 24.31900
C  27.78700 49.25900 23.48100
C  27.37000 49.49600 22.03700
C  25.95800 50.09900 22.12700
C  25.76800 50.19600 23.62900
C  28.42200 50.34300 21.22800
C  24.80500 49.30000 21.44600
C  24.10400 49.96400 20.24400
N  25.23500 50.49700 26.46000
C  24.41600 51.03400 25.46600
C  23.33300 51.68300 26.05800
C  23.44700 51.48400 27.37300
C  24.56000 50.73300 27.59800
C  22.17500 52.30700 25.35300
C  22.83800 51.71900 28.60400
O  21.85700 52.38200 28.89000
C  23.79400 51.14600 29.74800
C  24.41800 52.24100 30.53000
O  25.39400 52.89300 30.22400
O  23.60500 52.42100 31.61400
C  24.21500 53.31700 32.63400
H  29.87100 47.81500 29.36100
H  29.47700 48.20700 22.96300
H  23.87000 51.15200 23.44000
H  26.32300 50.50100 31.34900
H  28.04900 48.07300 31.39900
H  28.49500 50.77800 32.04600
H  29.64800 50.40500 30.80600
H  29.63700 49.35300 32.14500
H  25.87700 47.52700 31.92900
H  24.60800 48.28800 30.96000
H  24.13400 48.17300 33.48300
H  23.93300 49.73700 32.75100
H  31.87800 45.73500 27.25100
H  31.08100 46.48800 28.68500
H  32.45100 47.20600 27.94100
H  33.24500 47.17900 25.83100
H  33.68600 46.77300 24.09400
H  32.63600 45.64800 24.98400
H  27.38200 48.48900 21.61900
H  25.90900 51.12700 21.76900
H  29.36800 50.38500 21.76700
H  28.14300 51.39400 21.15600
H  28.72400 49.79400 20.33600
H  23.97100 49.19900 22.14000
H  25.13000 48.30200 21.15000
H  23.02600 49.84000 20.34200
H  24.37000 49.41100 19.34300
H  24.31600 51.02600 20.12200
H  21.96600 51.93100 24.35100
H  22.52600 53.31900 25.15000
H  21.24500 52.19400 25.91100
H  23.19100 50.46700 30.35200
H  23.40600 53.52500 33.33500
H  24.59800 54.29600 32.34400
H  25.03200 52.84100 33.17600

