158

Mg 53.40600 24.07600 44.29800
C  50.85000 26.03300 43.23600
C  51.95300 21.41200 42.59800
C  56.42500 22.28900 44.29100
C  55.22000 26.92400 45.22500
N  51.70000 23.85600 42.84900
C  50.77100 24.80400 42.66100
C  49.61100 24.19700 41.79100
C  49.76000 22.67300 42.05800
C  51.20800 22.61300 42.53500
C  48.81200 21.96500 43.09500
C  49.58700 24.69900 40.34000
C  48.20700 25.08600 39.73200
H  47.53800 23.77400 39.10400
N  54.01200 22.10500 43.62200
C  53.27700 21.18400 42.99300
C  53.99700 19.92900 42.89700
C  55.22500 20.09300 43.53500
C  55.26200 21.58000 43.89100
C  53.49500 18.70300 42.22600
C  56.22300 18.98800 43.73700
O  56.12600 17.87000 43.26200
C  57.50600 19.21500 44.60500
N  55.55400 24.50400 44.81600
C  56.63000 23.60400 44.62500
C  57.98100 24.36700 44.72300
C  57.53800 25.78200 45.14300
C  55.98600 25.78000 45.10400
C  59.07300 23.72500 45.49800
C  58.16600 26.95700 44.29500
C  58.82200 28.10200 45.04500
N  53.11100 26.05700 44.34700
C  53.82200 27.09800 44.83900
C  52.96400 28.28500 44.95600
C  51.80800 27.96400 44.31200
C  51.94300 26.60200 43.90200
C  53.25200 29.53000 45.64100
C  50.43000 28.36900 44.03300
O  49.82000 29.37700 44.22200
C  49.79500 27.07000 43.24100
C  49.37200 27.61300 42.02200
O  50.03400 28.00000 41.04000
O  47.99800 27.83200 42.21800
C  47.19000 28.34300 41.08300
H  51.41800 20.49200 42.35500
H  57.37300 21.74700 44.29000
H  55.75600 27.84500 45.46200
H  48.68400 24.63700 42.16000
H  49.85300 21.99800 41.20700
H  49.15200 22.05300 44.12700
H  48.54000 20.97100 42.74200
H  47.90300 22.55300 42.96900
H  49.87700 23.81100 39.77800
H  50.24000 25.55600 40.17400
H  48.24400 25.95500 39.07500
H  47.51200 25.36400 40.52400
H  54.15100 18.33100 41.43900
H  52.59900 18.86000 41.62600
H  53.18200 17.91300 42.90800
H  58.04800 18.32000 44.91000
H  57.07800 19.68900 45.48900
H  58.22600 19.77200 44.00600
H  58.32000 24.41000 43.68800
H  57.82700 25.92100 46.18400
H  58.74300 22.80500 45.97900
H  59.53700 24.43400 46.18400
H  59.92900 23.44900 44.88300
H  57.50100 27.37500 43.53900
H  58.97300 26.54000 43.69300
H  58.50400 28.00400 46.08300
H  58.60700 29.10400 44.67300
H  59.91200 28.08400 45.06300
H  53.47700 30.27600 44.87900
H  54.13300 29.40300 46.27000
H  52.40900 29.94200 46.19500
H  48.94200 26.76400 43.84600
H  47.72500 28.37600 40.13400
H  46.75000 29.33100 41.21700
H  46.46300 27.53100 41.05200
Mg -8.78700 40.30200 43.07100
C  -8.03300 37.00700 41.79900
C  -5.83300 41.39300 41.62000
C  -9.86500 43.53600 43.51600
C  -11.75800 39.14400 44.30500
N  -7.21800 39.29600 41.69700
C  -7.11200 37.99100 41.37600
C  -5.75100 37.69200 40.71700
C  -5.02700 39.04700 40.89200
C  -6.09000 40.02100 41.40500
C  -3.78400 39.04800 41.81900
C  -5.81700 37.25700 39.16300
C  -5.18600 35.93600 38.80900
H  -3.98700 36.21100 37.85700
N  -7.97500 42.20200 42.69600
C  -6.69200 42.43500 42.06400
C  -6.48800 43.90800 42.03500
C  -7.60700 44.53800 42.60800
C  -8.59200 43.44300 42.94900
C  -5.20800 44.62700 41.46000
C  -7.83000 45.96200 42.76800
O  -7.00900 46.72600 42.21700
C  -8.90700 46.63400 43.62700
N  -10.57400 41.24800 43.70000
C  -10.73000 42.54100 43.92500
C  -12.02200 42.78100 44.60200
C  -12.74800 41.38200 44.77200
C  -11.61800 40.52400 44.27400
C  -11.88700 43.50900 45.99200
C  -14.14400 41.20200 44.07100
C  -15.22200 40.90700 45.08900
N  -9.68300 38.49200 43.15000
C  -10.88400 38.14800 43.80200
C  -11.12100 36.69800 43.72700
C  -10.00600 36.22500 42.98000
C  -9.22900 37.35700 42.57400
C  -12.27200 35.92600 44.19000
C  -9.49800 35.05100 42.34400
O  -9.82800 33.88000 42.54800
C  -8.19500 35.46200 41.61800
C  -7.03100 34.69700 42.06100
O  -6.46400 34.79800 43.12900
O  -6.84700 33.76400 41.08400
C  -5.61300 32.93800 41.31800
H  -4.83600 41.72600 41.32500
H  -10.20100 44.54300 43.77000
H  -12.66300 38.80100 44.81100
H  -5.26100 36.90300 41.28700
H  -4.69900 39.35700 39.89900
H  -4.08800 39.40400 42.80300
H  -3.01500 39.74800 41.49400
H  -3.48800 38.00000 41.85500
H  -5.33900 38.06000 38.60200
H  -6.88400 37.20400 38.94500
H  -5.86100 35.22500 38.33200
H  -4.71100 35.49900 39.68700
H  -5.42100 45.06400 40.48400
H  -4.40400 43.89100 41.44100
H  -4.80300 45.40100 42.11200
H  -8.65300 47.69100 43.69600
H  -9.08100 46.13900 44.58300
H  -9.85600 46.56300 43.09500
H  -12.64400 43.45900 44.01700
H  -12.77100 41.05900 45.81300
H  -10.84300 43.72300 46.21700
H  -12.20900 42.84500 46.79500
H  -12.39300 44.47400 46.01900
H  -14.21800 40.51400 43.22900
H  -14.40800 42.14200 43.58700
H  -15.47900 41.67600 45.81800
H  -14.86600 40.04300 45.65000
H  -16.15700 40.52600 44.67600
H  -13.16300 36.55500 44.20700
H  -12.11700 35.32800 45.08800
H  -12.33600 35.18400 43.39400
H  -8.37000 35.25200 40.56300
H  -4.80100 33.66500 41.33400
H  -5.40700 32.46000 40.36000
H  -5.64400 32.33200 42.22300

