158

Mg 1.69200 -1.82200 44.17300
C  4.98500 -0.62700 43.62800
C  0.50500 0.93500 42.34500
C  -1.33000 -3.06200 44.36200
C  3.12700 -4.80600 45.28000
N  2.63500 -0.21800 42.92100
C  3.99500 0.09300 42.86800
C  4.28700 1.26400 41.94800
C  2.83600 1.95600 41.78800
C  1.92400 0.88800 42.40900
C  2.77300 3.21000 42.66500
C  4.87000 0.75500 40.61700
C  5.99100 1.67100 40.02200
H  5.73500 2.25200 38.65700
N  -0.18600 -1.11900 43.43600
C  -0.47600 -0.01900 42.75700
C  -1.88400 0.12200 42.58500
C  -2.46100 -1.06200 43.10000
C  -1.33200 -1.81000 43.71200
C  -2.59000 1.21700 41.89600
C  -3.93200 -1.34400 43.02900
O  -4.74200 -0.54700 42.49800
C  -4.48000 -2.63600 43.58300
N  1.02200 -3.78600 44.47600
C  -0.30000 -3.96600 44.80900
C  -0.60600 -5.18700 45.47400
C  0.81500 -5.82500 45.74500
C  1.79900 -4.78400 45.05100
C  -1.41400 -5.05100 46.80500
C  1.01000 -7.23900 45.21400
C  0.97800 -7.32700 43.69000
N  3.71000 -2.59700 44.42200
C  4.05800 -3.83800 44.86200
C  5.46400 -3.87000 45.09000
C  5.95300 -2.59500 44.63900
C  4.80100 -1.93100 44.21400
C  6.22600 -5.03400 45.71400
C  7.08800 -1.71300 44.39500
O  8.28800 -1.84500 44.51000
C  6.46500 -0.37800 43.79000
C  6.78600 0.81300 44.57400
O  6.12000 1.20800 45.50800
O  7.92200 1.34900 44.06300
C  8.36200 2.69700 44.55700
H  0.16400 1.89700 41.95600
H  -2.28900 -3.54400 44.56300
H  3.71900 -5.62300 45.69900
H  4.94500 1.87300 42.56800
H  2.57900 2.13700 40.74500
H  3.75100 3.68800 42.72400
H  2.47400 3.13900 43.71100
H  2.08900 3.95500 42.26000
H  4.11400 0.44500 39.89600
H  5.48900 -0.07000 40.97100
H  6.93200 1.12100 40.04400
H  6.18800 2.53200 40.66000
H  -3.23200 0.77800 41.13200
H  -1.95700 1.92600 41.36200
H  -3.21300 1.75300 42.61200
H  -4.10100 -3.48100 43.00900
H  -5.56100 -2.67200 43.44700
H  -4.29800 -2.86000 44.63400
H  -1.13700 -5.72400 44.68700
H  1.04700 -5.96800 46.80000
H  -1.36300 -4.00200 47.09500
H  -0.93700 -5.67100 47.56400
H  -2.44500 -5.40400 46.76200
H  0.31800 -8.01900 45.53100
H  1.96400 -7.66100 45.52900
H  0.31900 -8.04500 43.20300
H  1.99700 -7.52700 43.35800
H  0.66400 -6.43500 43.14800
H  5.78500 -5.25300 46.68700
H  7.28700 -4.78100 45.72400
H  6.09300 -5.83400 44.98600
H  6.93700 -0.23400 42.81800
H  7.68200 3.35900 44.01900
H  9.41800 2.83500 44.32500
H  8.21500 2.75400 45.63500
Mg -12.10600 16.40500 42.28900
C  -9.11700 14.67800 42.02700
C  -10.61300 19.06200 40.83300
C  -15.22600 17.82300 42.09700
C  -13.60100 13.30600 43.38000
N  -10.13200 16.65100 41.21100
C  -8.99300 15.91600 41.43400
C  -7.78500 16.58000 40.72900
C  -8.23600 18.05900 40.79200
C  -9.78700 17.96100 41.00700
C  -7.54200 18.95000 41.89500
C  -7.75500 16.02000 39.26500
C  -6.33200 15.65000 38.67500
H  -6.06100 16.25400 37.24500
N  -12.86300 18.17900 41.48800
C  -12.10200 19.15900 41.00400
C  -12.98400 20.28500 40.69300
C  -14.27300 19.95100 41.05000
C  -14.18500 18.62500 41.52100
C  -12.47300 21.56200 40.09100
C  -15.49600 20.86200 40.94200
O  -15.34200 22.00400 40.49300
C  -16.89900 20.38700 41.22300
N  -14.10100 15.58000 42.62100
C  -15.19400 16.46900 42.63500
C  -16.49600 15.79900 43.18100
C  -15.98600 14.38000 43.54000
C  -14.44400 14.41800 43.18600
C  -17.33700 16.53100 44.25100
C  -16.66100 13.14900 42.81100
C  -17.27800 12.10600 43.67300
N  -11.55100 14.43300 42.77900
C  -12.22800 13.25700 43.21200
C  -11.30200 12.18300 43.38500
C  -10.01200 12.72600 43.00100
C  -10.26700 14.06900 42.59200
C  -11.62300 10.73000 43.58300
C  -8.74100 12.33000 42.68200
O  -8.16900 11.22500 42.80000
C  -8.06300 13.61400 42.19200
C  -7.07700 13.94100 43.32100
O  -7.21400 13.62000 44.49000
O  -5.96300 14.51700 42.84100
C  -4.86000 14.93900 43.68700
H  -10.13900 20.02500 40.63400
H  -16.20500 18.29700 42.20000
H  -14.10800 12.42000 43.76600
H  -6.88900 16.26900 41.26600
H  -8.04700 18.63800 39.88800
H  -8.16700 19.21000 42.75000
H  -7.32300 19.86800 41.34900
H  -6.52600 18.58400 42.03900
H  -8.04000 16.82700 38.59100
H  -8.51900 15.24300 39.24400
H  -6.32400 14.56700 38.55100
H  -5.58800 15.85100 39.44600
H  -12.82300 21.62800 39.06100
H  -11.38700 21.62200 40.16500
H  -12.82500 22.47200 40.57500
H  -16.84100 19.44700 40.67400
H  -17.59500 21.12700 40.82900
H  -16.88300 20.27100 42.30700
H  -17.13300 15.69000 42.30300
H  -15.98800 14.17400 44.61100
H  -17.00100 17.56800 44.27100
H  -17.24200 16.00200 45.19900
H  -18.33500 16.68100 43.83900
H  -15.94000 12.72700 42.11100
H  -17.52800 13.54300 42.28100
H  -18.33000 12.30300 43.87900
H  -16.92900 12.11200 44.70500
H  -17.06100 11.09200 43.33700
H  -12.39500 10.66200 44.34900
H  -10.76100 10.09600 43.79100
H  -12.01200 10.32600 42.64900
H  -7.43400 13.45800 41.31600
H  -5.03100 14.86600 44.76100
H  -4.80800 15.98700 43.39400
H  -3.98100 14.39200 43.34600

