158

Mg 2.97000 -1.51600 43.40300
C  6.53900 -0.68700 42.88200
C  2.24400 1.21800 41.44300
C  -0.26200 -2.53700 43.20700
C  3.90500 -4.50400 44.74000
N  4.33200 -0.04200 42.11000
C  5.71400 0.23100 42.26400
C  6.03700 1.62400 41.67100
C  4.65200 2.26900 41.53300
C  3.62600 1.09900 41.73700
C  4.31900 3.43000 42.61600
C  6.64600 1.47300 40.22500
C  6.05500 0.48600 39.19900
H  5.70900 1.17800 37.95500
N  1.29400 -0.74800 42.49500
C  1.18400 0.43400 41.81700
C  -0.19400 0.72500 41.56800
C  -0.98300 -0.25300 42.19900
C  -0.01800 -1.21600 42.76100
C  -0.73200 1.96500 40.84700
C  -2.56400 -0.22900 42.43000
O  -3.18800 0.62000 41.81000
C  -3.28500 -1.19100 43.35800
N  1.91600 -3.35400 43.73600
C  0.60100 -3.49000 43.67300
C  0.20200 -4.91000 44.20400
C  1.52500 -5.56300 44.67000
C  2.49900 -4.42200 44.34700
C  -0.96100 -4.81800 45.26100
C  1.89400 -6.89800 43.90000
C  1.52100 -8.15100 44.65400
N  4.83000 -2.45200 43.81900
C  5.05200 -3.68300 44.42700
C  6.44100 -3.83800 44.66600
C  7.07500 -2.70200 44.16000
C  6.08000 -1.89000 43.54700
C  7.13600 -5.00100 45.37500
C  8.39900 -2.13400 43.84100
O  9.53400 -2.56900 44.02600
C  8.02100 -0.77900 42.99000
C  8.58500 0.48000 43.60600
O  9.25100 1.30400 43.00700
O  8.22700 0.76600 44.91800
C  8.77900 2.01800 45.50400
H  2.03700 2.23500 41.10300
H  -1.25700 -2.98300 43.15400
H  4.09500 -5.52100 45.09100
H  6.68100 2.14900 42.37700
H  4.55000 2.68200 40.52900
H  4.99300 3.41200 43.47200
H  3.29200 3.43400 42.98100
H  4.44100 4.41500 42.16600
H  7.66500 1.14100 40.42000
H  6.73900 2.48300 39.82400
H  5.11900 0.12900 39.62800
H  6.72000 -0.35000 38.98200
H  -0.07900 2.39200 40.08600
H  -0.93500 2.63500 41.68200
H  -1.68400 1.72800 40.37100
H  -2.64200 -1.82400 43.96800
H  -3.93200 -1.77900 42.70700
H  -3.95200 -0.61500 44.00000
H  -0.14200 -5.41800 43.30300
H  1.54300 -5.73500 45.74700
H  -1.59700 -3.94300 45.13000
H  -0.49900 -4.68900 46.24000
H  -1.57100 -5.71800 45.34400
H  2.93700 -6.95800 43.59000
H  1.31800 -7.01700 42.98200
H  0.79400 -8.79400 44.15800
H  1.14800 -7.84800 45.63300
H  2.38600 -8.79100 44.82300
H  7.55900 -5.71300 44.66600
H  6.43600 -5.54300 46.01100
H  7.95800 -4.62700 45.98500
H  8.49900 -0.80500 42.01000
H  8.94300 1.82000 46.56300
H  7.99200 2.75700 45.35600
H  9.64800 2.37200 44.94900
Mg 0.88600 7.44100 25.44300
C  1.76700 9.46600 28.05600
C  1.27000 4.74400 27.54700
C  0.35800 5.46400 22.89200
C  1.01800 10.23800 23.29800
N  1.56000 7.07700 27.59000
C  1.67300 8.13000 28.47200
C  1.76500 7.57400 29.90400
C  1.87100 6.00800 29.72200
C  1.44800 5.92900 28.25000
C  3.24500 5.27500 30.16300
C  0.52500 8.05400 30.80700
C  0.67800 7.76500 32.23200
H  2.01400 7.32000 32.83500
N  0.77800 5.39400 25.24900
C  0.99600 4.47200 26.25100
C  0.78500 3.11700 25.72800
C  0.49900 3.24900 24.30500
C  0.52400 4.73800 24.07200
C  0.84200 1.92600 26.58600
C  0.19100 2.20000 23.23800
O  0.19600 2.52600 22.02800
C  0.07300 0.69500 23.67000
N  0.90100 7.77000 23.36800
C  0.44900 6.85800 22.50300
C  0.15200 7.40000 21.09900
C  0.30300 8.91700 21.26700
C  0.75200 8.97100 22.76100
C  1.12000 6.76200 20.10500
C  -1.14800 9.56100 21.08600
C  -1.06500 10.86300 20.30200
N  1.34000 9.52700 25.61500
C  1.29000 10.53900 24.66900
C  1.57400 11.76800 25.35200
C  1.83600 11.39100 26.59400
C  1.63000 10.03100 26.70300
C  1.52200 13.18200 24.76200
C  2.15000 11.93600 27.93200
O  2.42300 13.10600 28.25400
C  2.09200 10.65100 28.94000
C  3.31900 10.61300 29.69200
O  4.19700 9.85000 29.52900
O  3.17600 11.48900 30.75800
C  4.23700 11.35100 31.72400
H  1.32300 3.91300 28.25400
H  0.05100 4.75500 22.12000
H  1.17600 11.09300 22.63800
H  2.70600 7.90900 30.34100
H  1.12300 5.62100 30.41500
H  3.09400 4.39400 30.78700
H  3.90000 5.95700 30.70400
H  3.73200 4.93500 29.24800
H  -0.42100 7.62900 30.47100
H  0.51000 9.14400 30.77000
H  -0.08100 7.02900 32.49600
H  0.30300 8.65600 32.73700
H  0.91700 2.08600 27.66100
H  1.53400 1.10700 26.38500
H  -0.11700 1.44500 26.39300
H  -0.73300 0.57000 24.39300
H  0.96500 0.41200 24.23000
H  -0.16300 0.00700 22.85800
H  -0.80300 7.09300 20.67200
H  1.12500 9.30300 20.66400
H  0.79700 5.77100 19.78500
H  2.12000 6.68400 20.53100
H  1.23300 7.36900 19.20600
H  -1.58100 9.81600 22.05400
H  -1.80100 8.81900 20.62700
H  -1.43000 11.68100 20.92400
H  -1.63200 10.75100 19.37800
H  -0.00500 11.02300 20.10600
H  0.57600 13.33800 24.24400
H  2.31300 13.41500 24.04800
H  1.63400 13.98400 25.49200
H  1.23300 10.84900 29.58200
H  5.09900 11.81500 31.24300
H  4.51600 10.33600 32.00800
H  3.94800 11.95600 32.58300

