158

Mg 24.39900 -4.77600 45.39700
C  26.46400 -2.53500 43.82200
C  21.77200 -3.52700 43.48000
C  22.67900 -7.77800 45.92400
C  27.17000 -6.23000 47.00100
N  24.17400 -3.23700 43.82000
C  25.16600 -2.41000 43.44100
C  24.59900 -1.47200 42.41000
C  23.10300 -1.48200 42.72800
C  23.00900 -2.82700 43.41700
C  22.52200 -0.34800 43.59000
C  24.92300 -1.92100 40.96900
C  25.20700 -0.70300 40.03400
H  24.90500 -0.85600 38.53700
N  22.39200 -5.52300 44.85100
C  21.52100 -4.88600 44.00000
C  20.30400 -5.68400 44.03800
C  20.55700 -6.89500 44.65500
C  21.94400 -6.78800 45.21900
C  19.00900 -5.17900 43.37400
C  19.61900 -8.02000 44.90600
O  18.52000 -7.92600 44.32300
C  19.91000 -9.27900 45.86700
N  24.71800 -6.63500 46.55400
C  23.84400 -7.70900 46.58600
C  24.46100 -8.93100 47.31700
C  25.81700 -8.35800 47.75100
C  25.92900 -6.93200 47.08500
C  23.58500 -9.57600 48.41300
C  27.10300 -9.33100 47.70900
C  27.72900 -9.71200 49.12800
N  26.38800 -4.35200 45.55100
C  27.41300 -5.01000 46.26300
C  28.67100 -4.32700 46.01700
C  28.37100 -3.38100 45.05100
C  26.96300 -3.46200 44.84100
C  30.02300 -4.78300 46.53700
C  28.85400 -2.41600 44.12800
O  30.04700 -2.09400 43.92400
C  27.64300 -1.79400 43.28200
C  27.62900 -0.34000 43.59900
O  27.29300 0.08400 44.72500
O  28.03800 0.38300 42.48700
C  27.97400 1.81500 42.77800
H  20.92800 -3.07300 42.95500
H  22.34700 -8.80900 45.78700
H  27.92100 -6.74600 47.60300
H  25.06200 -0.49800 42.57200
H  22.49500 -1.65700 41.84000
H  21.84300 0.28100 43.01400
H  23.38600 0.27400 43.82200
H  22.12800 -0.70900 44.54000
H  24.06000 -2.48400 40.61200
H  25.77900 -2.59600 40.99900
H  26.26600 -0.44800 40.01700
H  24.64900 0.17500 40.36100
H  18.28000 -5.97200 43.20700
H  19.22500 -4.72400 42.40700
H  18.67600 -4.37100 44.02700
H  20.29700 -9.02900 46.85500
H  20.63800 -9.84800 45.29000
H  18.97300 -9.80700 46.04600
H  24.61700 -9.71200 46.57300
H  25.68300 -8.08600 48.79800
H  23.34800 -10.62800 48.24900
H  22.65400 -9.06600 48.65700
H  24.14400 -9.53700 49.34800
H  27.88100 -9.06600 46.99200
H  26.68900 -10.22100 47.23400
H  28.81200 -9.62200 49.04400
H  27.47700 -10.71900 49.46000
H  27.51400 -8.95900 49.88600
H  30.74500 -4.56200 45.75100
H  29.96800 -5.87000 46.46700
H  30.20800 -4.39000 47.53600
H  27.82100 -2.06600 42.24200
H  27.27500 2.21000 42.04000
H  28.95700 2.26900 42.65900
H  27.56600 2.20200 43.71200
Mg -1.49000 34.78000 26.76600
C  -3.19100 33.31900 29.49100
C  0.16700 36.85700 29.16100
C  -0.19900 36.52200 24.30100
C  -3.07700 32.64500 24.58500
N  -1.61900 35.13800 29.08600
C  -2.36600 34.33200 29.94400
C  -2.13400 34.80100 31.39900
C  -1.00000 35.91000 31.27500
C  -0.80800 35.97200 29.72600
C  -1.34100 37.31100 31.87600
C  -1.93100 33.60000 32.36500
C  -0.96900 33.70500 33.50700
H  -1.06900 32.75600 34.62500
N  -0.21600 36.40200 26.74400
C  0.48000 37.02800 27.77500
C  1.30400 38.03100 27.24900
C  1.10100 37.96600 25.83600
C  0.15500 36.97100 25.59000
C  2.05600 38.98800 28.22700
C  1.77100 38.85000 24.72300
O  1.54300 38.71200 23.52100
C  2.90400 39.75100 25.12500
N  -1.79000 34.72000 24.77800
C  -1.03200 35.42900 23.95800
C  -1.15700 34.87900 22.54400
C  -1.96700 33.60800 22.59900
C  -2.24900 33.61400 24.06100
C  -1.78600 35.93600 21.55500
C  -1.27900 32.28300 21.97100
C  -0.33600 31.43100 22.82200
N  -2.96300 33.30600 26.94800
C  -3.51300 32.49700 25.94400
C  -4.43600 31.52700 26.55700
C  -4.35500 31.82600 27.93400
C  -3.41700 32.94300 28.10800
C  -5.36900 30.52900 25.83200
C  -4.80700 31.47500 29.24900
O  -5.58500 30.62800 29.54800
C  -4.10200 32.33200 30.32700
C  -5.21100 32.97500 31.04700
O  -5.50200 34.19000 31.08100
O  -5.66800 32.17400 32.07700
C  -6.49000 32.76000 33.07400
H  0.69200 37.39600 29.95200
H  0.40600 36.80100 23.43700
H  -3.34400 31.86900 23.86500
H  -3.05000 35.29700 31.72000
H  -0.06900 35.59000 31.74300
H  -0.61000 37.65200 32.61000
H  -2.30600 37.28000 32.38300
H  -1.31100 38.11100 31.13700
H  -1.50400 32.84300 31.70700
H  -2.87200 33.23500 32.77700
H  -1.00900 34.69400 33.96400
H  0.06100 33.62000 33.16200
H  1.39600 39.85200 28.30300
H  3.00300 39.29200 27.78200
H  2.33700 38.54300 29.18200
H  3.81900 39.20300 25.35100
H  2.62600 40.40700 25.95000
H  3.12500 40.35500 24.24400
H  -0.18400 34.66300 22.10400
H  -2.97600 33.72400 22.20300
H  -2.08500 36.75500 22.20800
H  -2.57500 35.51100 20.93500
H  -1.01400 36.37800 20.92500
H  -0.84700 32.43000 20.98100
H  -2.14100 31.73100 21.59600
H  0.57500 31.17600 22.28100
H  -0.91900 30.51700 22.93400
H  -0.10300 31.81600 23.81500
H  -4.79000 29.88100 25.17400
H  -6.13300 31.12600 25.33400
H  -5.94900 30.07400 26.63600
H  -3.56700 31.63900 30.97600
H  -7.40500 33.19600 32.67300
H  -5.92800 33.54600 33.57800
H  -6.59600 31.96400 33.81200

