158

Mg 29.81900 58.65000 39.04000
C  27.02900 56.70100 38.14800
C  31.85600 56.01500 38.50900
C  32.38300 60.81100 39.13500
C  27.61700 61.35000 39.30200
N  29.46200 56.66000 38.02300
C  28.18700 56.03800 37.92000
C  28.40800 54.57500 37.51500
C  29.83100 54.25500 38.20400
C  30.46300 55.72700 38.25000
C  29.77300 53.57800 39.59100
C  28.41700 54.44700 35.96000
C  27.23300 53.67100 35.30200
H  26.21700 54.48700 34.43700
N  31.97000 58.40600 39.01700
C  32.59600 57.25900 38.73100
C  34.01500 57.46200 38.75700
C  34.26200 58.82400 39.05700
C  32.86800 59.42000 39.01900
C  34.96500 56.34700 38.67700
C  35.51000 59.52600 39.17500
O  36.59500 59.01800 38.99900
C  35.56000 60.92000 39.51100
N  30.02300 60.76300 39.45200
C  31.18200 61.43700 39.29300
C  30.95700 62.96400 39.45200
C  29.48000 63.11600 39.61400
C  29.01400 61.64300 39.45600
C  31.83700 63.58900 40.61200
C  28.75100 64.08000 38.64600
C  28.15300 65.29000 39.18800
N  27.73900 59.05700 38.82400
C  26.98800 60.15100 38.98600
C  25.64700 59.86200 38.85200
C  25.55000 58.56700 38.51900
C  26.87900 58.07300 38.51800
C  24.50900 60.74700 39.22100
C  24.69300 57.47200 38.28000
O  23.47200 57.41900 38.19300
C  25.58300 56.21300 38.01500
C  25.17400 55.10900 38.94400
O  25.32000 55.10700 40.15400
O  24.57700 54.12200 38.19100
C  23.89100 52.95100 38.78400
H  32.44600 55.09700 38.46400
H  33.17100 61.55100 39.28900
H  26.93600 62.16000 39.57400
H  27.57500 53.93100 37.79900
H  30.45000 53.53600 37.66800
H  30.47200 52.74500 39.66800
H  28.78500 53.11900 39.57100
H  29.90000 54.23200 40.45400
H  29.28500 53.84300 35.69700
H  28.55300 55.45500 35.56800
H  26.66300 53.11200 36.04500
H  27.66700 52.88100 34.68800
H  35.92100 56.65500 39.10000
H  35.16300 56.16400 37.62100
H  34.53800 55.47800 39.17800
H  36.57500 61.22700 39.76500
H  34.85800 61.27200 40.26700
H  35.38700 61.48000 38.59200
H  31.26400 63.40200 38.50300
H  29.18900 63.32200 40.64400
H  31.94100 64.66900 40.50300
H  32.82100 63.14000 40.48200
H  31.27300 63.34100 41.51100
H  27.94800 63.61900 38.07100
H  29.51400 64.40800 37.94000
H  28.64200 66.09000 38.63300
H  28.51800 65.42500 40.20700
H  27.07200 65.31900 39.05300
H  24.88700 61.44300 39.97000
H  23.61300 60.17900 39.47200
H  24.24400 61.45900 38.43900
H  25.47900 55.90900 36.97400
H  23.15500 52.46500 38.14300
H  23.31900 53.12500 39.69500
H  24.66500 52.23400 39.06100
Mg 16.22900 51.26000 24.63100
C  18.16700 50.79700 27.41600
C  13.61800 52.28600 26.55900
C  14.43300 51.74500 21.73200
C  19.07200 50.49400 22.66400
N  15.91000 51.44800 26.86400
C  16.82700 51.20200 27.84000
C  16.30400 51.46200 29.24600
C  14.72300 51.76900 28.93200
C  14.70900 51.82100 27.36800
C  13.66400 50.77000 29.47300
C  16.99500 52.67500 29.90200
C  16.66600 53.04500 31.35700
H  16.05200 52.03000 32.26200
N  14.32000 51.95300 24.18800
C  13.43000 52.41000 25.12600
C  12.31400 52.95800 24.43800
C  12.48100 52.75200 23.02900
C  13.80900 52.08200 22.94000
C  11.13900 53.60200 25.26500
C  11.52300 53.02900 21.88700
O  11.77900 52.87700 20.70000
C  10.11200 53.42900 22.15500
N  16.66000 51.12100 22.55900
C  15.71400 51.33000 21.51600
C  16.36900 51.01700 20.08600
C  17.89400 51.16900 20.48600
C  17.88300 50.87900 22.00100
C  15.79000 49.71200 19.37000
C  18.47000 52.60200 20.27300
C  19.40100 52.83200 19.16200
N  18.12100 50.56200 24.91600
C  19.18700 50.26400 24.06900
C  20.33200 49.96900 24.83600
C  19.93000 50.08000 26.14700
C  18.58000 50.47500 26.15900
C  21.65400 49.66400 24.24400
C  20.44800 49.93400 27.49500
O  21.49800 49.58200 27.95800
C  19.29100 50.37300 28.30800
C  18.95800 49.24800 29.25900
O  18.50000 48.18600 28.98800
O  19.09700 49.84000 30.53800
C  18.46500 49.14900 31.65800
H  12.81800 52.68200 27.18800
H  14.02200 52.01000 20.75600
H  19.94300 50.19100 22.08000
H  16.58300 50.56800 29.80500
H  14.53300 52.78500 29.27700
H  12.95300 50.56000 28.67400
H  13.23200 51.22000 30.36700
H  14.06900 49.80200 29.76900
H  16.80500 53.46500 29.17600
H  18.08000 52.56500 29.89400
H  15.95100 53.86100 31.25500
H  17.61200 53.41500 31.75400
H  10.69400 54.42900 24.71100
H  11.56200 54.00400 26.18600
H  10.40000 52.81500 25.41800
H  9.70100 52.83200 22.96900
H  9.49100 53.17100 21.29800
H  10.04900 54.49100 22.39600
H  16.01500 51.83700 19.46200
H  18.48300 50.39300 19.99800
H  14.76200 49.82800 19.02700
H  15.82600 48.93600 20.13500
H  16.45800 49.37700 18.57600
H  19.03600 52.90700 21.15300
H  17.66400 53.33400 20.24800
H  18.82200 53.20200 18.31600
H  19.79200 51.88700 18.78400
H  20.27400 53.47100 19.29300
H  21.92000 50.32400 23.41800
H  21.64300 48.60100 24.00500
H  22.46100 49.81100 24.96200
H  19.55100 51.17100 29.00300
H  18.97000 48.31300 32.14200
H  17.42500 48.89800 31.44800
H  18.51100 49.90800 32.43900

