158

Mg 28.52300 58.17200 41.56600
C  25.99000 56.18000 40.14500
C  30.81700 56.40200 39.73800
C  30.75400 60.49200 42.36000
C  25.91300 60.44300 42.76500
N  28.41800 56.52100 40.17800
C  27.29700 55.86500 39.74000
C  27.58400 54.91000 38.63400
C  29.18400 54.78000 38.66800
C  29.53600 56.01500 39.52600
C  29.85000 53.54400 39.35500
C  27.06800 55.43200 37.21600
C  26.72300 54.23000 36.33100
H  27.26300 54.16700 34.86800
N  30.58900 58.36500 41.27400
C  31.30500 57.52700 40.46200
C  32.69900 58.07200 40.49300
C  32.64300 59.35500 41.07600
C  31.25200 59.44100 41.63400
C  33.75700 57.33600 39.84300
C  33.87500 60.31000 41.03400
O  34.91200 59.75900 40.68100
C  33.88000 61.71300 41.53200
N  28.28700 60.21600 42.35900
C  29.41400 60.94400 42.70800
C  29.04000 62.34700 43.23300
C  27.49000 62.25000 43.43200
C  27.18700 60.86900 42.81000
C  29.89700 62.92400 44.38600
C  26.77300 63.46100 42.73200
C  25.59300 64.04700 43.53600
N  26.45100 58.22200 41.63500
C  25.53700 59.17200 42.17600
C  24.19200 58.65500 42.10200
C  24.27900 57.55200 41.24400
C  25.65400 57.28700 40.96800
C  22.97800 59.36000 42.64100
C  23.50300 56.58600 40.46800
O  22.33100 56.36800 40.30300
C  24.67300 55.66900 39.72400
C  24.35600 54.17900 40.00100
O  24.47000 53.62300 41.08800
O  23.99900 53.52200 38.88900
C  23.40100 52.16600 38.99400
H  31.61200 55.93400 39.15300
H  31.41000 61.30600 42.67400
H  25.14600 61.11000 43.16400
H  27.22000 53.92500 38.92600
H  29.52800 54.77300 37.63400
H  30.31400 53.82800 40.30000
H  30.63000 53.14700 38.70500
H  29.10900 52.78900 39.61700
H  27.82700 56.08500 36.78500
H  26.25300 56.14400 37.34400
H  25.63400 54.18800 36.32800
H  27.02800 53.32900 36.86400
H  33.60500 57.43100 38.76800
H  33.62000 56.27200 40.03800
H  34.82900 57.45100 40.00000
H  33.07500 62.06100 40.88400
H  34.79800 62.21900 41.23400
H  33.73300 61.79200 42.61000
H  29.27600 63.04700 42.43100
H  27.27500 62.35100 44.49600
H  29.41700 62.89200 45.36400
H  30.21600 63.92300 44.08600
H  30.84600 62.40000 44.49700
H  26.45300 63.12300 41.74600
H  27.51200 64.19700 42.41800
H  25.68300 63.56800 44.51100
H  24.71900 63.68200 42.99800
H  25.64200 65.13500 43.49800
H  22.20400 59.00200 41.96300
H  23.05100 60.44400 42.56400
H  22.95600 59.08000 43.69500
H  24.36100 55.88400 38.70200
H  24.24000 51.47000 39.00900
H  22.72700 51.85900 38.19500
H  22.88600 52.13300 39.95400
Mg 27.46900 50.38500 25.81100
C  25.18200 51.17200 28.37900
C  29.48000 48.80700 28.07700
C  29.75600 49.90700 23.33300
C  25.18300 51.55200 23.45300
N  27.35700 50.22500 27.97600
C  26.33000 50.50100 28.80200
C  26.58900 50.06200 30.25500
C  28.06900 49.47800 30.08600
C  28.36600 49.47300 28.60900
C  29.17500 50.21800 30.84700
C  25.55800 49.14100 30.93700
C  24.83000 49.67900 32.25500
H  25.74500 50.15600 33.39600
N  29.34300 49.48500 25.74500
C  30.05700 48.83800 26.79000
C  31.21600 48.19000 26.24600
C  31.36500 48.67100 24.91500
C  30.18800 49.45400 24.63900
C  32.12700 47.41900 27.17100
C  32.52700 48.61800 23.99900
O  32.56300 49.10800 22.87700
C  33.74800 47.88600 24.49300
N  27.49000 50.77200 23.72600
C  28.49800 50.34500 22.93800
C  28.07800 50.30200 21.44300
C  26.54800 50.62900 21.51600
C  26.39200 51.05400 22.99700
C  29.03000 51.13200 20.49800
C  25.61000 49.47200 21.09500
C  24.83100 49.76200 19.77900
N  25.59700 51.31100 25.83300
C  24.82600 51.76200 24.82500
C  23.60300 52.36300 25.37300
C  23.68800 52.15000 26.76300
C  24.92400 51.45000 27.00200
C  22.51700 53.08000 24.63700
C  23.00300 52.32600 28.02400
O  21.91800 52.79700 28.32400
C  24.03700 51.76700 29.11300
C  24.43300 52.98900 29.91500
O  25.38500 53.65800 29.68900
O  23.64800 53.10100 31.08500
C  23.99800 54.25300 31.97700
H  30.06000 48.25100 28.81600
H  30.40900 49.67100 22.48900
H  24.52600 51.75100 22.60300
H  26.60000 51.01500 30.78500
H  28.03200 48.45000 30.44900
H  29.56200 49.47700 31.54600
H  28.75300 50.98600 31.49600
H  30.07000 50.52700 30.30600
H  26.03200 48.18400 31.15800
H  24.70300 48.97100 30.28200
H  24.34200 48.78500 32.64200
H  24.21400 50.55000 32.02800
H  32.75400 48.17000 27.65200
H  32.83000 46.67800 26.79200
H  31.52100 46.88100 27.90000
H  33.70400 46.79700 24.48800
H  33.91900 48.25900 25.50300
H  34.50100 48.28200 23.81200
H  28.13000 49.25000 21.16000
H  26.34700 51.49500 20.88500
H  29.48500 50.39000 19.84200
H  29.75200 51.65600 21.12400
H  28.46700 51.69600 19.75400
H  24.81600 49.33700 21.83100
H  26.07800 48.50300 20.92500
H  25.26200 48.98200 19.15100
H  25.15200 50.68500 19.29700
H  23.74800 49.63900 19.76400
H  21.79600 53.66700 25.20600
H  22.04800 52.32800 24.00300
H  23.02500 53.78300 23.97600
H  23.49700 51.03600 29.71500
H  24.67800 53.87300 32.73900
H  23.03500 54.56900 32.37800
H  24.41200 55.11400 31.45200

