158

Mg 2.27000 -2.21700 44.30700
C  5.63900 -1.36200 44.12200
C  1.48800 0.66800 42.72700
C  -0.93200 -3.30800 43.87100
C  3.28900 -5.42700 45.34400
N  3.56600 -0.59800 43.28300
C  4.84100 -0.34700 43.58200
C  5.24200 1.05200 43.13200
C  3.83900 1.67800 42.85500
C  2.88200 0.50200 42.92800
C  3.40300 2.89700 43.79800
C  6.24000 1.13900 41.97700
C  6.20000 0.06100 40.84800
H  5.62000 0.48100 39.50300
N  0.54100 -1.44200 43.37700
C  0.41300 -0.17800 42.85200
C  -0.93200 0.08700 42.40400
C  -1.70400 -1.03400 42.86600
C  -0.67000 -1.97200 43.38800
C  -1.36200 1.30400 41.67700
C  -3.27800 -1.20800 42.63200
O  -3.95700 -0.27900 42.15800
C  -4.01500 -2.44400 42.93300
N  1.27200 -4.08300 44.41500
C  -0.04300 -4.27600 44.29400
C  -0.48600 -5.68100 44.88900
C  0.96200 -6.26300 45.19800
C  1.91600 -5.18500 44.88800
C  -1.45700 -5.54100 46.06600
C  1.32500 -7.58300 44.34600
C  1.76800 -7.42200 42.88400
N  4.11600 -3.20100 44.75700
C  4.37600 -4.50000 45.18700
C  5.75100 -4.61700 45.60900
C  6.28600 -3.39500 45.16700
C  5.29600 -2.63400 44.59000
C  6.47400 -5.80500 46.16900
C  7.50800 -2.63200 45.10800
O  8.61700 -2.93800 45.52700
C  7.13500 -1.28800 44.36300
C  7.52300 -0.12400 45.26800
O  6.70200 0.38600 46.00400
O  8.81600 0.34400 45.07400
C  9.08900 1.73300 45.41600
H  1.27300 1.63100 42.25900
H  -1.98600 -3.59100 43.83200
H  3.48300 -6.41600 45.76300
H  5.75500 1.59500 43.92600
H  3.88300 2.06100 41.83500
H  3.18700 3.72500 43.12200
H  4.18600 3.19000 44.49700
H  2.46100 2.79200 44.33700
H  7.22200 1.27000 42.43100
H  6.02700 2.07900 41.46900
H  5.53600 -0.74000 41.17200
H  7.14700 -0.47500 40.78600
H  -1.97200 1.86600 42.38500
H  -2.02800 1.10100 40.83900
H  -0.60800 1.99400 41.29800
H  -5.03800 -2.20400 42.64400
H  -4.02300 -2.66600 44.00000
H  -3.64500 -3.27700 42.33600
H  -1.05700 -6.23200 44.14100
H  1.01300 -6.41700 46.27600
H  -1.87100 -4.53500 45.99700
H  -0.99300 -5.65200 47.04600
H  -2.19700 -6.33900 46.01800
H  0.37200 -8.10800 44.41800
H  1.96000 -8.17100 45.00700
H  0.95600 -7.79200 42.25800
H  2.60000 -8.11100 42.73900
H  2.04500 -6.40000 42.62800
H  6.26000 -6.72000 45.61600
H  6.26100 -6.03000 47.21400
H  7.54500 -5.60600 46.22300
H  7.78700 -1.09100 43.51200
H  9.46000 2.02900 44.43400
H  9.90400 1.81500 46.13500
H  8.16600 2.27400 45.62000
Mg 1.30800 42.89900 25.95400
C  2.67600 42.89400 29.14900
C  -1.40000 41.37700 26.98700
C  0.62000 42.03300 22.75400
C  4.41400 44.01600 24.80800
N  0.71200 42.32800 27.83500
C  1.32200 42.39800 29.06000
C  0.40300 42.21900 30.31000
C  -0.78500 41.60400 29.50200
C  -0.48300 41.77400 28.01600
C  -1.17900 40.18200 29.98100
C  0.15600 43.62100 31.01200
C  0.30000 43.65100 32.53300
H  0.40300 42.26400 33.29100
N  -0.24800 41.88100 24.94900
C  -1.29400 41.30900 25.55700
C  -2.14400 40.66300 24.57100
C  -1.48400 40.74600 23.33800
C  -0.29300 41.62600 23.64800
C  -3.30900 39.88800 25.01400
C  -1.73600 40.05200 22.03500
O  -0.96200 40.03300 21.06300
C  -2.98200 39.28500 21.80600
N  2.30000 43.07000 24.03700
C  1.77500 42.86200 22.87900
C  2.67300 43.21700 21.65900
C  3.72200 44.16300 22.43500
C  3.43600 43.77000 23.84200
C  3.26900 42.03300 20.87400
C  3.58300 45.76200 22.14400
C  2.95900 46.73200 23.20800
N  3.16900 43.49600 26.74400
C  4.31600 43.90600 26.14600
C  5.39400 43.99400 27.13900
C  4.76000 43.62000 28.33600
C  3.44900 43.22800 28.00400
C  6.78500 44.51900 26.90400
C  4.92300 43.57800 29.73000
O  5.85400 43.87000 30.48100
C  3.58900 42.97300 30.32800
C  3.99100 41.74500 30.99700
O  3.94500 40.58600 30.66900
O  4.56900 42.13100 32.20100
C  5.06100 40.99500 32.95700
H  -2.23700 40.87100 27.47300
H  0.43300 41.73800 21.71900
H  5.35100 44.47500 24.48500
H  0.92300 41.41400 30.83000
H  -1.65100 42.22000 29.74200
H  -1.22900 39.44200 29.18200
H  -2.21300 40.33700 30.29100
H  -0.51200 39.83000 30.76800
H  -0.86400 43.96000 30.83200
H  0.83600 44.33500 30.54700
H  -0.60200 44.08100 32.96800
H  1.11800 44.31500 32.81300
H  -3.04000 38.83600 25.11000
H  -4.17300 39.99000 24.35600
H  -3.62900 40.25800 25.98800
H  -3.00800 38.41300 22.46000
H  -3.06500 39.03000 20.74900
H  -3.82400 39.92400 22.07000
H  1.98000 43.72800 20.99100
H  4.73300 43.75600 22.40400
H  2.93500 41.10000 21.32700
H  4.34900 41.95600 20.99900
H  2.90100 42.05300 19.84800
H  3.04400 45.77300 21.19700
H  4.64600 45.98100 22.04500
H  2.99100 46.28700 24.20200
H  1.91100 46.91000 22.96500
H  3.50000 47.67800 23.20900
H  6.78900 45.60100 27.03400
H  7.18000 44.08900 25.98300
H  7.45600 44.19900 27.70100
H  3.22300 43.72800 31.02300
H  4.25100 40.28600 33.12700
H  5.27000 41.44800 33.92600
H  5.98800 40.64200 32.50500

