158

Mg 53.65800 23.74600 45.56800
C  50.80700 25.70900 44.77500
C  51.88900 21.04000 44.68600
C  56.62300 22.11100 45.63400
C  55.29000 26.65400 46.47100
N  51.58300 23.45700 44.57900
C  50.58700 24.35300 44.49800
C  49.25200 23.70000 44.21900
C  49.50800 22.15400 44.45900
C  51.09700 22.16600 44.65800
C  48.63000 21.70500 45.66600
C  48.74300 23.88000 42.76800
C  49.65900 23.51700 41.60300
H  49.45000 24.22700 40.24200
N  54.15300 21.86000 45.20800
C  53.28800 20.90800 44.92300
C  54.00500 19.66100 44.87400
C  55.43700 19.93600 44.85800
C  55.50900 21.34400 45.21800
C  53.28200 18.31300 44.73000
C  56.55600 18.87200 44.63900
O  56.27700 17.70600 44.44200
C  58.04900 19.31100 44.59900
N  55.73000 24.36800 45.91000
C  56.73800 23.44800 45.96400
C  58.04600 24.12000 46.42000
C  57.63100 25.54800 46.72000
C  56.08100 25.55300 46.34800
C  58.67900 23.35600 47.64600
C  58.68000 26.55400 46.11300
C  58.38000 27.14400 44.79300
N  53.24800 25.75300 45.64500
C  53.98300 26.80400 46.04400
C  53.15800 27.97800 46.27600
C  51.90000 27.56000 45.70400
C  52.03300 26.24700 45.29300
C  53.44900 29.19100 46.90900
C  50.54100 28.02200 45.48800
O  50.02500 29.08300 45.66600
C  49.79100 26.79000 44.80400
C  49.32400 27.27400 43.40200
O  50.03400 27.64400 42.46900
O  47.97100 27.45500 43.49700
C  47.27700 28.13200 42.40000
H  51.31700 20.15000 44.41700
H  57.55200 21.60900 45.91000
H  55.77600 27.53300 46.89900
H  48.45800 24.14700 44.81600
H  49.29800 21.58500 43.55300
H  49.19800 20.87900 46.09300
H  47.58600 21.48100 45.44500
H  48.69900 22.63200 46.23500
H  48.22300 24.81300 42.55200
H  47.96600 23.11600 42.73000
H  49.40000 22.48100 41.38000
H  50.71300 23.54100 41.88000
H  54.11200 17.63300 44.91800
H  52.92200 18.16200 43.71300
H  52.48800 18.23400 45.47300
H  58.18600 20.13400 43.89800
H  58.59800 18.45800 44.20000
H  58.44300 19.36300 45.61400
H  58.72900 24.14300 45.57200
H  57.69600 25.55300 47.80800
H  57.86000 22.73000 47.99900
H  59.01100 23.92300 48.51500
H  59.52000 22.78200 47.25700
H  59.69300 26.19800 46.30000
H  58.59400 27.41800 46.77100
H  57.92900 28.12100 44.96300
H  57.54800 26.62100 44.31900
H  59.31100 27.18200 44.22900
H  52.53700 29.76800 47.06100
H  54.18400 29.75600 46.33500
H  53.91600 28.98600 47.87200
H  48.84200 26.59600 45.30600
H  46.40200 28.51500 42.92500
H  46.93100 27.57700 41.52800
H  47.86400 28.99600 42.08600
Mg 26.36900 50.66100 26.51600
C  24.00300 51.55000 28.95900
C  28.56500 50.01900 29.06300
C  28.57600 49.68600 24.12100
C  24.25400 51.75400 24.06100
N  26.20500 50.68300 28.71800
C  25.22400 51.04800 29.48500
C  25.35100 50.70800 30.91400
C  26.85500 50.38700 30.97700
C  27.25600 50.42400 29.49800
C  27.65400 51.45400 31.76500
C  24.39700 49.57500 31.50700
C  23.87800 49.71000 32.89900
H  24.54100 50.73300 33.79700
N  28.36600 49.96500 26.54700
C  29.04000 49.69400 27.71500
C  30.31200 49.06400 27.32000
C  30.29200 48.91200 25.96100
C  29.04900 49.52100 25.44300
C  31.33800 48.58600 28.35500
C  31.38300 48.29900 25.11100
O  31.29500 48.31700 23.87500
C  32.66600 47.80800 25.75700
N  26.35500 50.76200 24.44200
C  27.33300 50.14200 23.70200
C  26.97300 49.97000 22.24600
C  25.48200 50.63400 22.10900
C  25.27100 51.01000 23.64600
C  27.92000 50.57100 21.21500
C  24.43900 49.59400 21.67300
C  23.35800 50.21200 20.81300
N  24.52600 51.55100 26.44400
C  23.81200 51.98700 25.39300
C  22.50500 52.56400 25.83700
C  22.56900 52.39100 27.27200
C  23.84800 51.76900 27.56800
C  21.41300 52.86100 25.03500
C  21.80700 52.64000 28.47000
O  20.71500 53.14700 28.69200
C  22.76900 52.17200 29.57700
C  23.11000 53.39700 30.43400
O  23.87400 54.27500 30.19200
O  22.49900 53.21500 31.59000
C  22.28000 54.39000 32.46400
H  29.23500 49.58000 29.80500
H  29.14600 49.20800 23.32200
H  23.62100 52.03400 23.21600
H  25.14900 51.64400 31.43400
H  26.96400 49.35100 31.29900
H  28.23100 52.11400 31.11700
H  28.33500 51.00400 32.48800
H  27.07100 52.02000 32.49200
H  24.82700 48.57500 31.45600
H  23.53800 49.48500 30.84100
H  23.93500 48.74300 33.39900
H  22.81700 49.94900 32.83300
H  31.25000 47.50400 28.25400
H  31.11500 48.79100 29.40200
H  32.24600 49.14100 28.12200
H  33.37100 47.36000 25.05700
H  32.46400 47.05500 26.51900
H  33.10400 48.71600 26.17100
H  26.83600 48.92600 21.96300
H  25.46700 51.47600 21.41700
H  28.85300 50.93700 21.64200
H  27.61400 51.43100 20.62000
H  28.17300 49.77900 20.51000
H  23.98900 49.06100 22.51000
H  24.91500 48.77400 21.13400
H  22.32400 49.91000 20.97900
H  23.61800 49.99800 19.77600
H  23.37500 51.29900 20.89800
H  20.60700 52.13500 25.14500
H  21.68900 52.83400 23.98100
H  21.09800 53.86300 25.32500
H  22.30100 51.37300 30.15300
H  22.61100 55.23300 31.85800
H  22.83800 54.40000 33.40100
H  21.22300 54.53600 32.68700

