158

Mg 24.96600 2.01800 30.43700
C  27.39900 1.56900 32.99300
C  22.55500 2.08900 32.86200
C  22.66000 1.88600 28.05000
C  27.41900 1.26100 28.05400
N  24.99700 1.74900 32.67100
C  26.11000 1.76000 33.51800
C  25.63400 2.13500 34.98100
C  24.10500 2.09400 34.84600
C  23.83600 1.97800 33.37800
C  23.41000 0.97200 35.69100
C  26.32400 3.47900 35.34100
C  27.25800 3.54900 36.57200
H  26.62900 4.40100 37.74700
N  22.90800 1.93700 30.49000
C  22.07400 1.94800 31.55700
C  20.70600 1.97100 31.14300
C  20.69400 1.82400 29.73000
C  22.13200 1.85800 29.34300
C  19.61400 2.08800 32.18300
C  19.56600 1.67300 28.76200
O  19.69700 1.56600 27.56100
C  18.07900 1.77800 29.15500
N  25.10600 1.61300 28.32000
C  23.97500 1.76200 27.57000
C  24.27200 1.86900 26.14100
C  25.85000 1.55600 26.07000
C  26.17600 1.47800 27.51600
C  23.53900 0.95200 25.12300
C  26.63800 2.59000 25.28300
C  27.45100 2.15300 24.00900
N  26.97200 1.63200 30.47800
C  27.86200 1.26000 29.37700
C  29.15800 0.91500 29.99700
C  28.98700 1.11600 31.39600
C  27.71600 1.46400 31.59400
C  30.39100 0.51600 29.28700
C  29.81700 1.14800 32.58600
O  31.00300 1.02600 32.75400
C  28.70400 1.40000 33.72300
C  28.62500 0.39800 34.73000
O  28.30100 -0.75700 34.54600
O  28.98600 0.89800 35.96300
C  28.76600 0.08900 37.07400
H  21.75800 2.17800 33.60300
H  22.07300 1.94100 27.13100
H  28.31700 1.13200 27.44500
H  25.94900 1.36800 35.68800
H  23.61800 2.99800 35.21100
H  23.17700 0.17100 34.98900
H  22.56200 1.40400 36.22100
H  24.07600 0.60900 36.47400
H  25.53200 4.20200 35.53700
H  26.95900 3.86900 34.54600
H  28.19700 4.00100 36.25300
H  27.46900 2.56800 36.99700
H  19.83500 2.25400 33.23700
H  19.01900 1.18500 32.04900
H  19.02400 2.92900 31.82100
H  17.72900 0.93100 29.74500
H  17.40600 1.91300 28.30900
H  18.00600 2.62500 29.83700
H  24.17400 2.94900 26.02400
H  26.19200 0.57500 25.74000
H  22.47000 1.10300 25.27800
H  23.94000 -0.03100 25.37000
H  23.77600 1.24600 24.10000
H  27.23500 3.06300 26.06300
H  25.97400 3.33500 24.84500
H  27.01500 2.65300 23.14400
H  27.38900 1.07800 23.84300
H  28.50900 2.38500 24.13200
H  30.34600 0.59700 28.20100
H  30.67000 -0.51800 29.49300
H  31.11400 1.24200 29.66000
H  28.85700 2.35200 34.23200
H  29.71000 0.20900 37.60400
H  28.76100 -0.96600 36.79800
H  27.88800 0.33700 37.67000
Mg -12.41400 16.80100 41.06600
C  -9.39600 15.23000 40.49500
C  -10.97400 19.78500 40.36400
C  -15.54900 18.19900 40.61100
C  -13.91800 13.66100 41.18400
N  -10.43900 17.38500 40.42900
C  -9.31800 16.64900 40.31900
C  -8.07500 17.46400 39.94800
C  -8.59500 18.91200 40.01800
C  -10.07700 18.67100 40.35700
C  -7.89100 19.78200 41.10600
C  -7.42300 16.98400 38.57900
C  -5.93000 17.32900 38.43500
H  -5.39100 17.59700 37.04600
N  -13.12100 18.70500 40.74100
C  -12.33500 19.80500 40.45200
C  -13.22000 20.97000 40.44000
C  -14.51600 20.52800 40.39900
C  -14.45500 19.06400 40.64500
C  -12.75300 22.40300 40.22200
C  -15.76300 21.48100 40.29500
O  -15.77600 22.63300 39.98600
C  -17.04800 20.97300 40.69000
N  -14.41300 16.01200 40.87800
C  -15.54800 16.81300 40.68100
C  -16.83300 15.94800 40.55400
C  -16.33700 14.54200 40.85400
C  -14.78600 14.67300 40.98700
C  -18.01700 16.39500 41.43400
C  -16.81300 13.38000 39.87700
C  -18.06400 12.51300 40.24900
N  -11.80300 14.86500 41.03800
C  -12.49200 13.67000 41.06300
C  -11.57800 12.49700 41.16700
C  -10.36900 13.14700 40.90600
C  -10.56100 14.54800 40.72500
C  -11.89500 11.07600 41.44300
C  -8.93200 12.83700 40.91100
O  -8.33300 11.82100 41.21900
C  -8.29400 14.19700 40.47500
C  -7.12000 14.40300 41.42600
O  -7.23700 14.94000 42.50800
O  -6.00000 13.99400 40.83600
C  -4.87000 14.06300 41.68200
H  -10.41100 20.70500 40.19200
H  -16.47400 18.68300 40.29000
H  -14.25000 12.63400 41.35500
H  -7.33100 17.25400 40.71600
H  -8.73200 19.31700 39.01600
H  -6.97300 19.32000 41.46900
H  -8.54600 19.85700 41.97400
H  -7.73100 20.77400 40.68300
H  -7.85900 17.42500 37.68200
H  -7.63500 15.91600 38.54100
H  -5.14100 16.66200 38.78200
H  -5.81600 18.26500 38.98200
H  -12.88100 22.59300 39.15700
H  -11.72500 22.58000 40.53800
H  -13.41600 22.99200 40.85700
H  -17.49000 20.25700 39.99800
H  -17.67500 21.85700 40.81000
H  -16.85900 20.52900 41.66800
H  -17.18700 16.00500 39.52400
H  -16.48400 14.43300 41.92800
H  -18.05700 15.90400 42.40700
H  -18.98000 16.22800 40.95100
H  -18.03100 17.48000 41.52800
H  -15.93400 12.73900 39.81000
H  -17.03300 13.82000 38.90400
H  -18.27700 12.63500 41.31100
H  -17.84700 11.53100 39.82900
H  -18.88600 12.83200 39.60900
H  -10.99400 10.59600 41.82300
H  -11.95500 10.69800 40.42300
H  -12.90500 10.88800 41.80800
H  -7.88500 14.01500 39.48100
H  -4.75800 15.03800 42.15800
H  -3.98300 13.88600 41.07400
H  -4.65500 13.24300 42.36700

