158

Mg 2.72500 -2.78700 43.96100
C  5.89000 -0.98200 43.22400
C  1.09900 -0.29600 42.11900
C  0.02300 -4.59100 44.15200
C  4.58700 -5.10300 45.49200
N  3.46600 -0.83100 42.80800
C  4.77200 -0.33200 42.68700
C  4.77800 0.91200 41.80100
C  3.21600 1.25400 41.80600
C  2.50000 -0.02700 42.25900
C  2.69600 2.62100 42.35900
C  5.44000 0.64800 40.45400
C  6.43900 1.67400 39.89800
H  6.16300 2.17100 38.53000
N  0.87200 -2.51000 43.12300
C  0.36100 -1.42500 42.47800
C  -1.02600 -1.69900 42.21500
C  -1.31400 -2.99600 42.68900
C  -0.15300 -3.43400 43.36100
C  -1.93600 -0.73400 41.45000
C  -2.64100 -3.76100 42.54800
O  -3.60400 -3.29400 41.98300
C  -2.79600 -5.26500 42.98700
N  2.34800 -4.85700 44.34800
C  1.07000 -5.20800 44.63800
C  1.01800 -6.46800 45.44600
C  2.49400 -6.66900 45.90800
C  3.15900 -5.44300 45.26200
C  -0.00100 -6.53600 46.68400
C  3.13400 -8.08900 45.72600
C  3.47400 -8.35200 44.25900
N  4.75200 -2.98400 44.47300
C  5.35100 -4.03300 45.10300
C  6.75200 -3.78900 45.31800
C  6.99500 -2.61600 44.61800
C  5.72300 -2.16900 44.08000
C  7.67000 -4.79300 45.96100
C  8.03600 -1.69500 44.13700
O  9.23100 -1.75000 44.25600
C  7.39000 -0.58700 43.28000
C  7.49600 0.74900 43.95800
O  6.84800 1.07800 44.95600
O  8.48400 1.53000 43.39000
C  8.87300 2.63300 44.27800
H  0.64900 0.49000 41.50900
H  -0.91300 -5.08800 44.41400
H  5.22800 -5.79900 46.03600
H  5.22200 1.73400 42.36200
H  2.95800 1.36500 40.75300
H  2.35100 3.22800 41.52300
H  3.46300 3.20700 42.86500
H  1.88400 2.43900 43.06300
H  4.68600 0.43300 39.69700
H  5.98900 -0.28600 40.56900
H  7.40800 1.17700 39.91800
H  6.33700 2.56100 40.52400
H  -2.51700 -0.07000 42.09000
H  -2.51600 -1.28000 40.70600
H  -1.32100 -0.06200 40.85000
H  -1.92100 -5.73600 42.53900
H  -3.68900 -5.65300 42.49600
H  -2.99800 -5.38800 44.05100
H  0.72400 -7.19200 44.68600
H  2.60600 -6.46200 46.97200
H  -0.78200 -7.27700 46.51700
H  -0.43600 -5.55500 46.87600
H  0.46200 -6.82500 47.62800
H  2.37300 -8.81000 46.02500
H  4.05200 -8.21100 46.30100
H  4.52000 -8.10700 44.07700
H  2.85600 -7.79000 43.55900
H  3.30300 -9.39600 43.99600
H  7.39400 -5.79600 45.63700
H  7.58300 -4.62800 47.03500
H  8.71900 -4.56300 45.77400
H  7.73400 -0.52500 42.24800
H  9.11300 2.17300 45.23700
H  8.17200 3.46700 44.26300
H  9.82800 3.00600 43.90800
Mg 43.15400 41.31100 25.87700
C  41.97500 43.49400 28.38600
C  44.07600 39.02300 28.17200
C  43.82100 39.19300 23.31000
C  42.24600 43.71500 23.49100
N  42.89000 41.26000 28.04900
C  42.47000 42.26600 28.87500
C  42.58000 41.82900 30.35300
C  43.29600 40.42700 30.19400
C  43.44900 40.26200 28.73600
C  44.62300 40.24200 30.99600
C  41.19100 41.82800 31.02900
C  41.12200 42.50600 32.35300
H  40.36000 41.99000 33.54600
N  43.92100 39.41400 25.74000
C  44.21900 38.63000 26.78100
C  44.75500 37.37600 26.29400
C  44.69600 37.44500 24.86000
C  44.11200 38.69600 24.57900
C  45.39600 36.15500 27.04500
C  45.18100 36.44200 23.72600
O  44.86000 36.48000 22.54000
C  45.97000 35.27800 24.15300
N  43.26200 41.52900 23.64700
C  43.43900 40.46300 22.85800
C  43.06600 40.70900 21.41400
C  42.45500 42.14800 21.51700
C  42.56200 42.49100 22.94200
C  44.33600 40.53700 20.45400
C  41.06500 42.23600 20.89600
C  40.85100 43.44600 20.03500
N  42.40700 43.24200 25.87100
C  42.24000 44.14300 24.86500
C  41.72900 45.44700 25.36500
C  41.63900 45.19100 26.76000
C  42.04800 43.83800 27.06400
C  41.35100 46.58100 24.50100
C  41.29500 45.80700 28.00700
O  40.85300 46.92600 28.25600
C  41.57100 44.70700 29.16500
C  42.66600 45.19100 30.06500
O  43.81700 45.32800 29.68700
O  42.18000 45.61000 31.25900
C  43.16700 46.16400 32.15000
H  44.25700 38.19700 28.86400
H  43.89300 38.52800 22.44600
H  41.88700 44.37800 22.70100
H  43.28400 42.48200 30.87000
H  42.63000 39.60700 30.46200
H  45.52100 40.46000 30.41800
H  44.69400 39.29700 31.53400
H  44.66500 41.02400 31.75500
H  40.88800 40.78200 31.08500
H  40.46800 42.38100 30.42900
H  40.73700 43.49500 32.10200
H  42.12800 42.66200 32.74000
H  44.88900 35.26000 26.68400
H  45.19700 36.17400 28.11600
H  46.44600 36.20500 26.75800
H  46.66900 35.90400 24.70700
H  46.55900 34.90300 23.31600
H  45.41300 34.56100 24.75700
H  42.32800 39.92000 21.26900
H  43.05500 42.78700 20.87000
H  45.19900 40.13500 20.98500
H  44.54400 41.47800 19.94400
H  44.07900 39.84100 19.65500
H  40.36500 42.18500 21.73100
H  40.96900 41.27400 20.39400
H  41.07400 43.10800 19.02300
H  41.60800 44.21000 20.21300
H  39.87800 43.86800 20.28500
H  42.10500 46.86700 23.76800
H  41.29100 47.44300 25.16500
H  40.36400 46.42800 24.06400
H  40.63700 44.54500 29.70400
H  43.85500 46.76500 31.55500
H  43.85500 45.48700 32.65700
H  42.67100 46.81600 32.87000

