158

Mg 35.14600 49.90500 25.46600
C  35.04900 48.16300 28.53300
C  33.80800 52.59200 27.19500
C  35.04700 51.51300 22.63000
C  36.61900 47.10200 23.92500
N  34.65200 50.38100 27.67000
C  34.70500 49.49000 28.68300
C  34.48900 50.33500 30.04600
C  33.91800 51.70000 29.58500
C  34.05100 51.56000 28.06500
C  32.48800 52.00700 30.07200
C  35.71500 50.36700 31.02300
C  35.41900 49.87000 32.45000
H  34.01500 49.92700 33.07200
N  34.40800 51.74500 25.00000
C  33.96600 52.72400 25.79600
C  33.59000 53.92500 25.07200
C  33.86600 53.53100 23.71600
C  34.51100 52.24200 23.72900
C  32.87600 55.21000 25.69800
C  33.50600 54.25300 22.37300
O  33.68800 53.80600 21.25100
C  32.91200 55.55700 22.41400
N  35.61300 49.37900 23.50400
C  35.55000 50.19700 22.54100
C  35.91900 49.56600 21.19600
C  36.73800 48.29300 21.71200
C  36.30900 48.25700 23.12300
C  34.61900 49.11900 20.50400
C  38.23800 48.37600 21.57200
C  38.92300 49.79300 21.76600
N  35.62600 48.00900 26.03100
C  36.26600 47.01500 25.35500
C  36.55600 45.91000 26.24200
C  35.98100 46.26400 27.50400
C  35.50600 47.60100 27.34500
C  37.16200 44.63100 25.84600
C  35.85700 45.83600 28.85700
O  36.18800 44.76100 29.45300
C  35.13400 47.12000 29.57300
C  33.81900 46.72400 30.13000
O  32.77500 46.71800 29.52500
O  33.92800 46.30600 31.44300
C  32.82800 45.80100 32.31300
H  33.34100 53.43500 27.70800
H  35.11500 52.14100 21.74000
H  37.09400 46.23400 23.46300
H  33.68700 49.75500 30.50200
H  34.63400 52.50200 29.76700
H  32.36600 52.75700 30.85400
H  32.02700 51.07700 30.40400
H  31.88000 52.38100 29.24800
H  36.07800 51.39200 31.09900
H  36.51300 49.70100 30.69300
H  36.08900 50.36100 33.15500
H  35.56300 48.79100 32.39700
H  33.43100 55.71500 26.48800
H  31.89600 54.88500 26.04700
H  32.89300 55.97900 24.92500
H  32.09500 55.57900 23.13500
H  32.44100 55.75400 21.45100
H  33.67200 56.32700 22.54700
H  36.45300 50.23400 20.52000
H  36.44300 47.31500 21.33200
H  33.74500 48.84900 21.09700
H  34.75300 48.22400 19.89700
H  34.47200 49.87400 19.73200
H  38.65500 47.93000 20.66900
H  38.68900 47.81100 22.38800
H  39.80200 49.69700 22.40400
H  38.26200 50.58700 22.11400
H  39.35500 50.06300 20.80300
H  37.48900 44.00600 26.67700
H  37.94900 44.80400 25.11200
H  36.34500 44.09500 25.36200
H  35.88100 47.38200 30.32300
H  31.87600 46.20800 31.97300
H  33.01900 46.10500 33.34200
H  32.71500 44.71800 32.34600
Mg -8.79100 18.39800 42.90500
C  -5.40400 17.59800 42.62000
C  -8.11400 21.62300 42.07700
C  -12.13100 18.88700 42.66200
C  -9.40900 14.94200 43.10100
N  -6.98300 19.43200 42.60700
C  -5.70700 18.97500 42.49800
C  -4.68100 20.09200 42.25900
C  -5.60500 21.38400 42.48600
C  -7.02600 20.80600 42.42300
C  -5.29600 22.23800 43.77500
C  -4.03300 20.07900 40.84300
C  -5.05000 20.13400 39.60500
H  -4.80300 19.07500 38.54200
N  -10.02600 20.06300 42.44400
C  -9.52800 21.32500 42.09900
C  -10.68800 22.15600 41.93200
C  -11.86700 21.36400 42.01600
C  -11.38200 20.01500 42.37800
C  -10.45700 23.61400 41.53100
C  -13.28900 21.83500 41.65800
O  -13.54000 22.97500 41.30700
C  -14.40100 20.86300 41.49200
N  -10.53900 17.06400 42.71000
C  -11.81900 17.54300 42.82300
C  -12.85500 16.39300 42.83600
C  -12.00800 15.13400 42.74600
C  -10.56100 15.75600 42.85000
C  -14.00200 16.54500 43.92500
C  -12.29200 14.18500 41.57500
C  -13.26600 13.07500 41.99300
N  -7.66400 16.55900 42.93300
C  -8.04600 15.21200 42.99000
C  -6.83300 14.37600 43.12400
C  -5.80100 15.29600 42.95700
C  -6.34500 16.59300 42.83600
C  -6.76600 12.91700 43.37400
C  -4.36300 15.41600 43.07800
O  -3.53700 14.49700 43.28300
C  -4.02500 16.91900 42.87900
C  -3.36500 17.34900 44.10600
O  -2.55400 18.25400 44.21300
O  -3.96400 16.72100 45.20600
C  -3.40500 17.09900 46.50500
H  -8.01100 22.69100 41.87600
H  -13.20800 18.93500 42.83400
H  -9.73900 13.91900 43.29500
H  -3.99600 20.12900 43.10500
H  -5.44200 22.03400 41.62700
H  -4.53000 21.76700 44.39000
H  -6.16100 22.34700 44.42900
H  -4.99100 23.23800 43.46900
H  -3.42800 19.17800 40.73900
H  -3.30700 20.89200 40.84600
H  -4.98700 21.07900 39.06600
H  -6.06000 20.01600 39.99600
H  -9.74300 23.67900 40.71100
H  -9.98000 24.16600 42.34000
H  -11.38000 24.17300 41.37800
H  -14.88100 20.41300 42.36200
H  -14.04000 20.06600 40.84300
H  -15.25100 21.36400 41.02800
H  -13.31900 16.63300 41.87900
H  -12.00100 14.58200 43.68600
H  -14.16800 15.54300 44.32000
H  -14.98300 16.75900 43.50200
H  -13.76400 17.17600 44.78100
H  -11.41900 13.59800 41.29200
H  -12.58100 14.71200 40.66600
H  -12.98300 12.09100 41.62000
H  -14.25200 13.30600 41.58800
H  -13.09400 12.92300 43.05900
H  -5.86300 12.36000 43.12400
H  -7.51800 12.38600 42.79100
H  -6.96200 12.63600 44.40900
H  -3.32800 17.07800 42.05700
H  -3.78400 16.41800 47.26700
H  -3.70000 18.06400 46.91900
H  -2.31900 17.01300 46.50600

