158

Mg 3.13400 -3.50800 44.83500
C  6.08700 -1.75600 44.43100
C  1.59900 -1.20900 42.71000
C  0.51600 -5.50900 44.69800
C  5.00000 -6.10100 46.37200
N  3.78800 -1.71900 43.63000
C  5.06100 -1.19300 43.59800
C  5.14400 0.00700 42.76600
C  3.57700 0.43500 42.67600
C  2.92200 -0.91000 43.02800
C  3.10600 1.62700 43.61400
C  5.73300 -0.49300 41.39400
C  6.63700 0.52700 40.61200
H  5.96300 1.40600 39.53200
N  1.26300 -3.33400 43.91400
C  0.80500 -2.30200 43.09100
C  -0.56500 -2.54800 42.70800
C  -0.96700 -3.80100 43.24800
C  0.25900 -4.28800 44.01200
C  -1.42900 -1.52300 41.90200
C  -2.36300 -4.43900 43.14800
O  -3.22800 -3.88100 42.50800
C  -2.75000 -5.75200 43.79100
N  2.76900 -5.51400 45.48000
C  1.57500 -6.09100 45.37100
C  1.51300 -7.55300 45.96400
C  3.00900 -7.67900 46.49500
C  3.64300 -6.33900 46.18600
C  0.40100 -7.63500 47.08000
C  3.76100 -8.84100 45.84100
C  4.36400 -9.97000 46.79100
N  5.07800 -3.86000 45.43600
C  5.74800 -4.97000 45.99400
C  7.07300 -4.56900 46.27900
C  7.22200 -3.32300 45.74500
C  6.04000 -2.97200 45.09400
C  8.22700 -5.36400 46.93200
C  8.15900 -2.29400 45.48800
O  9.32700 -2.11700 45.76800
C  7.44800 -1.16100 44.63800
C  7.33900 0.04000 45.48500
O  6.35600 0.24600 46.24200
O  8.30200 0.96500 45.17500
C  8.06900 2.25000 45.65600
H  1.15700 -0.43200 42.08300
H  -0.39300 -6.11400 44.69800
H  5.48700 -6.94500 46.86600
H  5.57100 0.91800 43.18600
H  3.23100 0.60100 41.65500
H  2.98600 1.32700 44.65500
H  2.21600 2.09900 43.19800
H  3.89000 2.38300 43.66500
H  4.88100 -0.65500 40.73300
H  6.35400 -1.36400 41.60300
H  7.45800 -0.07100 40.21500
H  7.08500 1.08100 41.43700
H  -2.37400 -1.40100 42.43200
H  -1.75000 -1.90600 40.93300
H  -1.01100 -0.52400 41.77500
H  -2.01900 -6.42700 43.34600
H  -3.73400 -6.06500 43.44000
H  -2.64100 -5.60600 44.86500
H  1.29900 -8.15400 45.08000
H  3.20600 -7.72800 47.56600
H  0.93800 -7.73000 48.02300
H  -0.21800 -8.52600 46.98100
H  -0.24000 -6.75400 47.04200
H  4.68600 -8.45200 45.41500
H  3.21400 -9.30400 45.02000
H  4.12900 -9.86900 47.85100
H  5.45100 -10.03600 46.74600
H  3.93200 -10.95000 46.59000
H  8.43900 -4.89700 47.89400
H  9.11900 -5.40900 46.30700
H  7.91100 -6.40300 47.02400
H  8.01600 -0.94100 43.73400
H  7.32200 2.44100 46.42700
H  7.91300 2.99200 44.87400
H  9.03500 2.49700 46.09500
Mg 36.76600 49.63900 23.79100
C  36.62300 48.33900 27.14600
C  35.43500 52.52500 25.16100
C  36.78600 50.86700 20.83600
C  37.52400 46.50500 22.62000
N  35.98800 50.23100 25.96700
C  36.15800 49.61700 27.13800
C  35.67400 50.50100 28.33000
C  35.19400 51.80800 27.68200
C  35.49800 51.51300 26.13800
C  33.69200 52.26900 28.01600
C  36.82100 50.69900 29.45800
C  36.53600 50.19200 30.83400
H  35.09700 50.41700 31.29600
N  36.08500 51.50200 23.04600
C  35.69100 52.57500 23.81800
C  35.58100 53.67500 22.86600
C  35.95600 53.19900 21.54900
C  36.30300 51.83700 21.76300
C  35.10400 55.12600 23.26900
C  35.91600 53.89500 20.19900
O  36.06900 53.29400 19.19200
C  35.56200 55.31400 20.15200
N  37.09600 48.79800 22.01000
C  37.20100 49.56100 20.88600
C  37.51800 48.69300 19.65100
C  37.71200 47.30400 20.26400
C  37.37500 47.49200 21.69000
C  36.51800 48.77400 18.46700
C  39.01300 46.49800 20.07800
C  40.37000 47.18200 20.49800
N  37.06200 47.75700 24.66100
C  37.34700 46.55800 23.99300
C  37.54200 45.49600 25.01700
C  37.26000 46.20500 26.22400
C  36.95200 47.54400 25.99200
C  37.83000 44.04200 24.70000
C  37.14600 46.05100 27.67200
O  37.45600 45.09000 28.34700
C  36.80200 47.39600 28.34300
C  35.46000 47.07000 29.05600
O  34.36300 47.23700 28.62200
O  35.84900 46.48800 30.24600
C  34.78400 46.11400 31.20800
H  35.11400 53.48400 25.57400
H  36.70200 51.29100 19.83300
H  37.73500 45.50100 22.24600
H  34.80700 49.97300 28.72900
H  35.81200 52.62500 28.05500
H  33.61800 53.28400 28.40800
H  33.20900 51.61100 28.73800
H  33.11700 52.29200 27.09100
H  37.13200 51.73000 29.62900
H  37.70700 50.24900 29.00900
H  37.25000 50.61000 31.54400
H  36.68100 49.11500 30.74500
H  34.25000 55.50100 22.70400
H  35.92000 55.84800 23.24700
H  34.74500 55.13200 24.29800
H  36.34800 55.86100 20.67100
H  34.57700 55.49300 20.58300
H  35.58800 55.51000 19.08000
H  38.43800 49.05400 19.19200
H  36.91300 46.72600 19.80100
H  35.53600 48.43600 18.79700
H  36.82400 48.10500 17.66300
H  36.50600 49.79100 18.07500
H  39.15800 46.30900 19.01500
H  38.99200 45.48600 20.48200
H  40.24800 48.12300 21.03500
H  41.01500 47.42700 19.65400
H  40.94500 46.49500 21.11800
H  37.34200 43.45800 25.48000
H  38.91700 43.97500 24.73900
H  37.47000 43.63300 23.75600
H  37.64000 47.72400 28.95700
H  34.33600 45.19400 30.83400
H  34.03000 46.90000 31.25200
H  35.27200 46.00000 32.17700

