158

Mg 24.92200 -5.49600 45.69400
C  26.84600 -2.82800 44.01300
C  22.38400 -4.86600 43.60700
C  23.66700 -8.19400 46.81300
C  28.01900 -6.16500 47.30000
N  24.77100 -4.13900 43.83000
C  25.57300 -3.09000 43.42700
C  24.87400 -2.38400 42.27500
C  23.38800 -2.85600 42.38700
C  23.49000 -4.03800 43.32300
C  22.37900 -1.71500 42.81300
C  25.56200 -2.55100 40.90500
C  25.35700 -1.41000 39.89200
H  26.21100 -1.42400 38.62200
N  23.14300 -6.40600 45.32700
C  22.20600 -6.04000 44.38900
C  21.05400 -6.90900 44.64200
C  21.40800 -7.94800 45.55600
C  22.84300 -7.54100 45.95400
C  19.75600 -6.71300 43.84800
C  20.48100 -9.06600 46.12200
O  19.35800 -9.20700 45.73300
C  20.91800 -9.94300 47.34400
N  25.74300 -6.97000 46.84300
C  24.97500 -8.01300 47.18700
C  25.78800 -9.09200 47.90800
C  27.16400 -8.39000 48.17000
C  26.97600 -7.10400 47.36300
C  25.17100 -9.58500 49.27100
C  28.42800 -9.17800 47.69400
C  29.57300 -9.23100 48.74200
N  26.98800 -4.50100 45.94200
C  28.09300 -4.89900 46.61700
C  29.13300 -3.98800 46.44100
C  28.78300 -3.18500 45.38600
C  27.43500 -3.52100 45.14800
C  30.42800 -4.10700 47.08400
C  29.22700 -2.15200 44.44800
O  30.40400 -1.76800 44.25900
C  27.97300 -1.92400 43.45000
C  27.66600 -0.46600 43.26600
O  26.94700 0.18900 44.00900
O  28.53800 0.07800 42.32500
C  28.50500 1.53400 41.98500
H  21.45900 -4.63300 43.07600
H  23.18800 -9.14300 47.06600
H  28.92400 -6.40600 47.86200
H  24.95800 -1.35400 42.62100
H  23.09300 -3.17400 41.38700
H  21.88300 -1.52500 41.86100
H  22.79000 -0.74400 43.09000
H  21.68400 -2.11700 43.55000
H  25.10000 -3.44100 40.47700
H  26.60900 -2.78000 41.10400
H  25.70100 -0.52600 40.43000
H  24.29800 -1.25800 39.68500
H  19.38300 -7.66400 43.47000
H  19.88400 -6.10700 42.95100
H  18.97800 -6.12300 44.33200
H  20.01700 -10.33700 47.81400
H  21.33800 -9.33400 48.14500
H  21.57200 -10.76900 47.06400
H  25.86100 -9.97300 47.27000
H  27.19700 -8.05900 49.20800
H  24.16000 -9.19900 49.40600
H  25.83600 -9.42900 50.12100
H  24.98300 -10.65400 49.18000
H  28.81100 -8.78600 46.75200
H  28.09900 -10.17100 47.38700
H  29.54800 -10.18400 49.27000
H  29.33100 -8.55900 49.56500
H  30.54500 -9.05500 48.28100
H  31.05500 -3.22300 46.96300
H  30.83800 -5.01600 46.64500
H  30.26700 -4.20800 48.15700
H  28.33900 -2.15300 42.44800
H  28.04500 1.73700 41.01800
H  29.49900 1.97200 41.89100
H  28.02100 2.12900 42.75900
Mg 43.07400 42.10700 26.57100
C  42.42300 44.42200 29.17700
C  44.28200 39.82100 28.96300
C  43.87900 40.00000 24.10400
C  42.02200 44.52600 24.36200
N  43.34600 42.17100 28.75900
C  42.90100 43.18200 29.58700
C  42.78700 42.64000 31.01800
C  43.68500 41.31800 31.08200
C  43.84000 41.09900 29.51300
C  45.05400 41.44900 31.73300
C  41.35600 42.46000 31.42000
C  41.10500 42.99000 32.85600
H  41.91300 42.63200 34.11500
N  43.96600 40.16000 26.52300
C  44.41400 39.40900 27.62100
C  44.92300 38.13400 27.08800
C  44.67400 38.11000 25.66800
C  44.15600 39.44300 25.38500
C  45.61200 37.13900 28.01600
C  44.85000 36.96000 24.65500
O  44.52100 37.10500 23.52300
C  45.38800 35.72100 25.18600
N  43.12800 42.36000 24.54400
C  43.47300 41.32600 23.73500
C  43.33700 41.58600 22.26000
C  42.53300 42.94800 22.33800
C  42.58800 43.35000 23.78400
C  44.61200 41.69900 21.37200
C  41.09500 42.91300 21.70500
C  40.23400 41.84200 22.36100
N  42.43900 44.06600 26.67900
C  41.93700 44.88300 25.69100
C  41.42600 46.10800 26.28400
C  41.48900 45.95500 27.71900
C  42.17800 44.71600 27.86600
C  40.79100 47.25600 25.44400
C  41.21600 46.66600 28.91600
O  40.83500 47.81300 29.11800
C  41.84200 45.64500 29.95500
C  42.78900 46.34800 30.90900
O  44.00900 46.38400 30.89900
O  41.99900 46.99800 31.81000
C  42.81700 47.43800 32.98600
H  44.38900 39.00200 29.67800
H  44.29900 39.50100 23.22800
H  41.55500 45.20400 23.64500
H  43.28300 43.36400 31.66500
H  43.09400 40.46800 31.42400
H  45.81200 40.91000 31.16400
H  44.95100 40.94900 32.69600
H  45.28600 42.50300 31.88300
H  40.99800 41.43100 31.37300
H  40.71100 43.04700 30.76500
H  40.11500 42.60800 33.10400
H  41.08500 44.08000 32.82800
H  45.80100 37.69300 28.93500
H  46.55500 36.80800 27.58000
H  44.92500 36.29700 28.11200
H  44.70500 35.37700 25.96200
H  46.41300 35.58800 25.53300
H  45.30700 34.92600 24.44400
H  42.71600 40.76300 21.90500
H  43.10900 43.73900 21.85900
H  45.43400 41.10500 21.77100
H  44.90600 42.74100 21.23900
H  44.35700 41.35300 20.37000
H  40.98300 42.85400 20.62300
H  40.62000 43.86800 21.93000
H  39.83700 41.13500 21.63200
H  39.37700 42.34100 22.81400
H  40.74600 41.35900 23.19400
H  40.04600 46.86000 24.75400
H  41.52800 47.68400 24.76500
H  40.20700 47.92900 26.07200
H  41.08300 45.33900 30.67400
H  43.60900 48.13300 32.70500
H  43.39200 46.65200 33.47700
H  42.14000 47.98000 33.64500

