158

Mg 40.66000 40.91500 26.88800
C  40.15900 43.35400 29.32500
C  41.54500 38.67400 29.31200
C  41.29100 38.80100 24.52500
C  40.07500 43.43100 24.36800
N  41.05900 41.07600 29.08600
C  40.60500 42.13500 29.88400
C  40.64300 41.67600 31.38900
C  41.31300 40.26400 31.34100
C  41.26300 39.93700 29.80300
C  42.82000 40.31400 31.72600
C  39.28800 41.72900 32.12400
C  39.13900 42.62400 33.41300
H  38.39900 42.07100 34.71800
N  41.25500 38.98700 26.86500
C  41.61500 38.23400 27.93600
C  41.97900 36.90100 27.47900
C  41.76900 36.93300 26.13600
C  41.31600 38.26200 25.76100
C  42.50500 35.92300 28.47700
C  41.96400 35.81400 25.22600
O  41.72500 35.86900 24.01400
C  42.59000 34.51300 25.78300
N  40.71800 41.15700 24.71500
C  41.00300 40.04200 24.03100
C  40.84000 40.25300 22.50100
C  40.11100 41.68800 22.49300
C  40.35400 42.14900 23.91200
C  42.12900 40.14500 21.63000
C  38.54500 41.64400 22.14900
C  37.72400 40.46700 22.68500
N  40.16600 42.98500 26.87600
C  39.97500 43.87900 25.74800
C  39.68700 45.22300 26.23200
C  39.74900 45.04200 27.63000
C  40.06900 43.72000 27.91500
C  39.20100 46.41700 25.47600
C  39.53700 45.73000 28.82900
O  39.22100 46.91500 29.05800
C  39.71400 44.60700 30.08200
C  40.57900 45.15900 31.14100
O  41.79500 45.15500 31.07200
O  39.83500 45.52900 32.20000
C  40.47500 46.21400 33.37400
H  41.68400 37.88800 30.05700
H  41.54800 38.06400 23.76200
H  39.82600 44.25100 23.69100
H  41.28300 42.33900 31.97100
H  40.83500 39.48000 31.92800
H  43.15400 41.31700 31.99400
H  43.60900 40.01000 31.03800
H  42.91900 39.61400 32.55500
H  38.96000 40.75000 32.47400
H  38.54400 42.13600 31.43900
H  38.37000 43.34600 33.13800
H  40.08900 43.11400 33.62600
H  42.31400 34.88100 28.22000
H  42.25100 36.02600 29.53200
H  43.57800 36.09500 28.39400
H  42.79200 33.91800 24.89300
H  41.86100 34.09200 26.47600
H  43.54700 34.70000 26.27100
H  40.10900 39.55100 22.10000
H  40.57500 42.36600 21.77600
H  41.81000 39.38500 20.91600
H  43.00900 39.77400 22.15500
H  42.23600 41.04500 21.02500
H  38.44600 41.59000 21.06500
H  38.09000 42.59100 22.43900
H  36.86300 40.92600 23.17000
H  38.28500 39.94000 23.45600
H  37.45600 39.73000 21.92700
H  38.38200 46.36000 24.75900
H  40.11700 46.68800 24.95100
H  38.89400 47.22300 26.14300
H  38.68700 44.47300 30.42300
H  40.65300 45.51100 34.18800
H  39.80900 46.96900 33.79000
H  41.46500 46.63700 33.20700
Mg -4.58300 25.51300 25.77300
C  -3.67000 27.05500 28.80700
C  -6.65200 23.51800 27.57500
C  -5.06500 23.63200 23.06500
C  -2.36600 27.52500 24.21000
N  -5.07100 25.37200 28.00600
C  -4.60000 26.03600 29.03600
C  -5.17200 25.53200 30.35200
C  -6.10400 24.29100 29.97700
C  -5.94300 24.37200 28.43900
C  -5.49800 22.92700 30.36400
C  -5.84800 26.73200 31.16700
C  -5.46800 26.94000 32.57400
H  -5.25000 25.74400 33.42500
N  -5.80700 23.82700 25.37600
C  -6.60800 23.23700 26.18800
C  -7.40600 22.26900 25.44500
C  -6.96000 22.22100 24.08600
C  -5.92700 23.29200 24.11400
C  -8.45600 21.42400 26.09000
C  -7.31400 21.31300 22.89300
O  -6.84600 21.40900 21.71600
C  -8.10500 20.13100 23.16900
N  -3.89000 25.64200 23.85300
C  -4.21200 24.77000 22.83900
C  -3.43400 25.18000 21.55600
C  -2.86300 26.56500 21.92100
C  -3.08100 26.64200 23.39900
C  -2.45500 24.09100 21.03200
C  -3.65300 27.73900 21.22100
C  -3.03700 28.49800 20.01200
N  -3.35200 27.04400 26.26400
C  -2.43100 27.77200 25.54100
C  -1.73000 28.77500 26.37800
C  -2.26600 28.55100 27.63300
C  -3.18100 27.47900 27.55500
C  -0.56100 29.61800 26.02700
C  -2.00800 28.86000 29.03400
O  -1.21600 29.59400 29.59900
C  -2.96100 27.92400 29.80000
C  -2.19300 27.18700 30.83200
O  -1.63700 26.10200 30.61700
O  -2.18100 27.89500 32.00700
C  -1.26400 27.42400 33.04000
H  -7.30500 22.90700 28.20200
H  -5.21300 23.04500 22.15600
H  -1.78900 28.20100 23.57500
H  -4.39000 25.16500 31.01700
H  -7.18300 24.38700 30.10200
H  -4.49200 23.02800 30.77000
H  -5.48000 22.32100 29.45900
H  -6.27900 22.57600 31.03900
H  -6.88200 26.39000 31.12600
H  -5.77600 27.69300 30.65800
H  -6.33100 27.41800 33.03700
H  -4.59300 27.57700 32.70100
H  -7.99600 20.54800 26.54800
H  -9.29100 21.12700 25.45600
H  -9.00100 21.98600 26.84900
H  -8.19300 19.55500 22.24700
H  -9.07600 20.58400 23.37300
H  -7.66900 19.50100 23.94300
H  -4.22400 25.16400 20.80400
H  -1.78500 26.49100 21.77900
H  -2.32800 23.29900 21.76900
H  -1.41800 24.42400 20.98400
H  -2.86600 23.72900 20.08900
H  -3.80900 28.53700 21.94700
H  -4.64500 27.34600 20.99900
H  -2.92100 29.57300 20.14900
H  -3.61600 28.20200 19.13700
H  -1.99600 28.18400 19.93300
H  -0.21600 30.25300 26.84300
H  -0.87700 30.18000 25.14800
H  0.18900 28.88000 25.74400
H  -3.62000 28.51200 30.43900
H  -0.36300 28.01700 32.88300
H  -1.00300 26.36800 32.95800
H  -1.55700 27.68200 34.05700

