158

Mg 43.79400 4.15000 48.47100
C  41.48600 6.79400 47.85200
C  41.02700 1.86900 48.11900
C  45.95600 1.59000 48.35800
C  46.33700 6.47800 48.06100
N  41.62300 4.30300 48.08500
C  40.93500 5.51500 47.81700
C  39.56200 5.27500 47.35900
C  39.28900 3.72900 47.66000
C  40.70300 3.24900 48.03200
C  38.14500 3.43900 48.77000
C  39.35800 5.52100 45.85200
C  38.08700 6.30600 45.40100
H  37.80500 6.57600 43.80700
N  43.48500 1.93000 48.37100
C  42.33100 1.24500 48.25700
C  42.62000 -0.18500 48.23100
C  44.02800 -0.28200 48.25800
C  44.58900 1.06000 48.35800
C  41.60600 -1.26100 48.12200
C  44.71000 -1.63500 48.20800
O  44.11400 -2.68800 47.98700
C  46.21800 -1.70700 48.51700
N  45.87300 3.97300 48.12500
C  46.52200 2.84500 48.23100
C  48.07500 3.09900 48.06900
C  48.14200 4.65000 47.83600
C  46.67700 5.12100 48.11000
C  48.94900 2.54500 49.22200
C  48.71800 4.98300 46.46500
C  50.29600 5.08000 46.46800
N  43.99200 6.23600 48.21700
C  45.07800 7.03900 48.19100
C  44.67200 8.45400 48.11400
C  43.25100 8.37800 47.97500
C  42.89300 7.04600 48.00100
C  45.64500 9.58100 47.97800
C  42.03300 9.15700 47.78600
O  41.88800 10.38100 47.80200
C  40.81300 8.14900 47.75000
C  39.81200 8.44400 48.77400
O  39.67800 7.83000 49.83600
O  39.05000 9.46800 48.32700
C  37.83500 9.89300 48.97400
H  40.16100 1.21700 47.99300
H  46.67100 0.76400 48.37300
H  47.19900 7.13300 47.92000
H  38.76800 5.88400 47.79200
H  39.05300 3.11700 46.78900
H  37.46100 4.27600 48.91300
H  38.60700 3.25400 49.74000
H  37.60700 2.55200 48.43600
H  39.44700 4.63100 45.22900
H  40.18700 6.15200 45.53400
H  38.03900 7.23000 45.97600
H  37.19600 5.75700 45.70600
H  41.81000 -1.82300 47.21000
H  40.61300 -0.81500 48.07800
H  41.56900 -1.92900 48.98200
H  46.77900 -1.24500 47.70500
H  46.49400 -2.76000 48.56900
H  46.34000 -1.23500 49.49200
H  48.22300 2.52700 47.15200
H  48.74400 4.92600 48.70200
H  49.65500 3.26900 49.62800
H  49.47600 1.67900 48.82100
H  48.25900 2.11300 49.94600
H  48.31000 5.95700 46.19300
H  48.26600 4.30400 45.74300
H  50.75600 4.61800 47.34200
H  50.75900 6.06400 46.39900
H  50.74800 4.55400 45.62700
H  45.12300 10.53700 47.99900
H  46.14000 9.63600 47.00800
H  46.41900 9.63900 48.74300
H  40.36700 8.34300 46.77400
H  37.91200 9.94400 50.06100
H  36.92600 9.36000 48.69800
H  37.67600 10.92400 48.65800
Mg 26.43800 50.28900 27.14500
C  24.27700 51.27500 29.68200
C  28.53700 49.02400 29.48800
C  28.31600 49.13400 24.68200
C  24.23400 51.76600 24.85800
N  26.37100 50.12800 29.32400
C  25.37000 50.58000 30.19700
C  25.69500 50.26400 31.63600
C  27.13500 49.66600 31.52400
C  27.38400 49.58800 30.03200
C  28.21200 50.42000 32.41700
C  24.67100 49.33500 32.40700
C  24.08200 49.83800 33.73300
H  24.22400 48.82200 34.90600
N  28.19200 49.12400 27.11200
C  28.94700 48.73200 28.18400
C  30.16900 48.10800 27.69300
C  30.06000 48.18900 26.26700
C  28.77300 48.81100 25.98700
C  31.31100 47.51200 28.52400
C  31.10200 47.73300 25.23100
O  30.95200 47.88700 24.00500
C  32.34800 46.97500 25.66000
N  26.34400 50.56600 25.06700
C  27.24600 49.86400 24.25200
C  26.92200 50.15600 22.77100
C  25.45100 50.72000 22.86000
C  25.29600 51.06300 24.34100
C  28.04300 51.11300 22.11800
C  24.32400 49.80800 22.29000
C  23.56200 48.88400 23.25300
N  24.72700 51.43800 27.21300
C  23.86000 51.87500 26.21300
C  22.73700 52.48300 26.77300
C  22.85400 52.19800 28.13200
C  24.07200 51.64100 28.38100
C  21.64000 53.15700 26.06600
C  22.21200 52.36500 29.38000
O  21.07800 52.77600 29.59600
C  23.08600 51.83600 30.48300
C  23.47600 52.90400 31.44900
O  24.27200 53.72800 31.10000
O  22.73700 52.79800 32.58400
C  22.67900 53.94700 33.56200
H  29.22800 48.69400 30.26700
H  28.86100 48.65800 23.86400
H  23.52200 52.15100 24.12400
H  25.74700 51.19000 32.21000
H  27.17500 48.63900 31.88700
H  28.88900 49.76600 32.96600
H  27.79900 50.98200 33.25500
H  28.64600 51.16500 31.75000
H  25.13500 48.37300 32.62500
H  23.96400 48.98400 31.65500
H  23.01100 50.02600 33.65900
H  24.51500 50.81100 33.96400
H  31.18000 46.43500 28.62300
H  31.23300 47.92800 29.52900
H  32.28800 47.81400 28.14700
H  32.78600 46.80300 24.67700
H  32.18000 45.98200 26.07700
H  33.04400 47.41800 26.37200
H  26.95300 49.18700 22.27300
H  25.44400 51.62900 22.25900
H  28.77200 51.44500 22.85800
H  27.65500 52.03800 21.69000
H  28.53100 50.56200 21.31400
H  24.80600 49.16500 21.55400
H  23.61500 50.47000 21.79300
H  24.26800 48.57000 24.02200
H  23.11000 48.08900 22.66000
H  22.67300 49.38900 23.63200
H  21.98100 54.05800 25.55400
H  20.76000 53.48700 26.61900
H  21.19500 52.46600 25.35000
H  22.49100 51.06900 30.97700
H  22.90900 54.89300 33.07400
H  23.41300 53.64700 34.31000
H  21.70000 53.95500 34.04200

