158

Mg 0.05700 7.45100 26.21100
C  0.64000 9.78400 28.90800
C  -0.42700 5.07300 28.49500
C  -0.14100 5.28000 23.72700
C  0.82200 10.03700 23.90200
N  -0.01300 7.46800 28.46800
C  0.20600 8.51300 29.37400
C  0.03900 7.96900 30.84400
C  0.10100 6.45600 30.56800
C  -0.15300 6.29700 29.12100
C  1.48000 5.82100 31.00700
C  -1.23500 8.50400 31.35200
C  -1.11500 8.93400 32.75300
H  -0.24100 8.04300 33.72100
N  -0.34500 5.47500 26.14200
C  -0.56400 4.63300 27.19600
C  -0.91500 3.33700 26.65700
C  -0.97100 3.44300 25.21400
C  -0.40200 4.76300 24.99100
C  -1.09300 2.10600 27.61200
C  -1.49300 2.46500 24.10500
O  -1.49100 2.63500 22.87200
C  -1.96100 1.05600 24.62300
N  0.21300 7.71400 24.09100
C  0.07700 6.65600 23.26000
C  0.04400 7.02200 21.84300
C  0.37300 8.53500 21.88700
C  0.37700 8.85200 23.40500
C  0.88600 6.26700 20.72700
C  -0.59800 9.41900 21.14400
C  -0.11400 10.28900 19.98000
N  0.71200 9.47700 26.34100
C  1.06500 10.37800 25.30200
C  1.50000 11.62200 25.97400
C  1.25500 11.45400 27.37300
C  0.78500 10.13000 27.53500
C  2.02400 12.84600 25.35300
C  1.29800 12.14500 28.66100
O  1.58500 13.31000 28.89000
C  0.86400 11.03600 29.71900
C  1.92000 10.93100 30.80000
O  2.94100 10.28100 30.71800
O  1.59000 11.72200 31.83400
C  2.62600 11.93200 32.88700
H  -0.52400 4.32000 29.27900
H  -0.21200 4.63500 22.84800
H  1.11500 10.79200 23.17000
H  0.89000 8.30200 31.43900
H  -0.64800 5.91000 31.14000
H  1.11700 5.08600 31.72400
H  2.09300 6.62500 31.41500
H  1.89800 5.37800 30.10300
H  -1.91200 7.65000 31.31800
H  -1.57100 9.26900 30.65300
H  -2.07800 8.72100 33.21700
H  -0.93900 10.00900 32.76000
H  -2.00700 1.65000 27.23100
H  -1.20400 2.57000 28.59200
H  -0.26300 1.40400 27.53600
H  -2.48400 0.61000 23.77700
H  -2.77700 1.22400 25.32600
H  -1.08800 0.55100 25.03700
H  -1.00500 6.82600 21.62500
H  1.42300 8.65600 21.62000
H  0.18300 5.68500 20.13100
H  1.58700 5.58400 21.20700
H  1.47900 6.95500 20.12600
H  -0.92900 10.15600 21.87500
H  -1.52000 8.93900 20.81700
H  -0.89300 10.37600 19.22300
H  0.90000 10.07400 19.64300
H  -0.02700 11.30500 20.36600
H  2.79700 12.55700 24.64100
H  2.37000 13.58400 26.07600
H  1.23400 13.32700 24.77700
H  -0.03700 11.28500 30.28000
H  2.57700 11.11900 33.61100
H  2.36500 12.84300 33.42400
H  3.66600 12.05200 32.58500
Mg 30.63100 59.09400 40.90800
C  28.19500 57.13700 39.45700
C  33.02000 56.85000 39.64200
C  33.13500 61.39200 41.47900
C  28.28700 61.56800 41.35600
N  30.62200 57.18800 39.68500
C  29.48100 56.63600 39.27300
C  29.82200 55.46500 38.38000
C  31.34900 55.15900 38.67400
C  31.72900 56.42000 39.43000
C  31.71200 53.97900 39.64500
C  29.56700 55.72900 36.90800
C  28.67200 54.67600 36.11700
H  27.69500 55.38600 35.11400
N  32.68500 59.05900 40.71400
C  33.48900 58.00700 40.23100
C  34.93200 58.29000 40.46100
C  34.97700 59.58600 41.08000
C  33.56000 60.05400 41.14600
C  35.95900 57.26600 40.02000
C  36.27700 60.29700 41.56600
O  37.38800 59.72500 41.48700
C  36.21500 61.54100 42.33800
N  30.74100 61.34400 41.13300
C  31.85900 61.98200 41.64400
C  31.48900 63.35400 42.31800
C  29.95400 63.37600 42.15700
C  29.62800 61.99500 41.51600
C  32.06800 63.39300 43.70700
C  29.24700 64.57200 41.35500
C  29.31900 64.62700 39.83800
N  28.59300 59.31800 40.64800
C  27.73600 60.35000 40.92500
C  26.36500 59.92300 40.57800
C  26.50300 58.65000 39.93900
C  27.90800 58.35200 40.05800
C  25.21700 60.80800 40.71700
C  25.78500 57.59400 39.29500
O  24.57200 57.44200 38.98900
C  26.93400 56.47500 39.02100
C  26.51000 55.22700 39.72200
O  26.97700 54.92500 40.81900
O  25.45900 54.64100 39.07800
C  25.02800 53.30100 39.64400
H  33.75000 56.10300 39.32300
H  33.96100 62.09000 41.63200
H  27.48100 62.29400 41.48100
H  29.18400 54.61900 38.63600
H  32.02600 55.23600 37.82400
H  32.19700 53.15600 39.12000
H  30.76000 53.68500 40.08800
H  32.44600 54.32300 40.37300
H  30.51900 55.81200 36.38400
H  29.34400 56.77800 36.71200
H  28.01700 54.02100 36.69100
H  29.35400 54.02600 35.56800
H  36.97500 57.56400 40.27700
H  35.94300 57.21400 38.93200
H  35.64900 56.27400 40.35100
H  37.22300 61.83900 42.62700
H  35.47000 61.61100 43.13100
H  35.91800 62.34700 41.66700
H  31.92800 64.24600 41.87100
H  29.52900 63.33600 43.16000
H  31.59700 62.66700 44.36900
H  31.68200 64.29000 44.19100
H  33.15700 63.38900 43.74900
H  29.70700 65.45200 41.80600
H  28.19500 64.54500 41.63900
H  29.50300 65.67300 39.59300
H  28.38300 64.20600 39.47100
H  30.16500 64.08100 39.42200
H  24.39600 60.22300 40.30200
H  25.20400 61.70700 40.10100
H  25.08400 61.21100 41.72100
H  26.94200 56.28900 37.94700
H  24.19400 52.93400 39.04400
H  24.76100 53.43400 40.69200
H  25.74300 52.48100 39.70600

