158

Mg 41.99500 40.69500 26.28200
C  41.31900 43.07700 28.68900
C  43.01800 38.49900 28.64500
C  42.74000 38.57700 23.63000
C  40.83200 43.06400 23.83200
N  42.29400 40.82200 28.36700
C  41.75200 41.89100 29.18300
C  41.86100 41.54300 30.62300
C  42.48300 40.07000 30.65900
C  42.62900 39.75500 29.13000
C  43.83000 39.95800 31.42900
C  40.50200 41.71500 31.42800
C  40.51200 42.59600 32.79100
H  40.01500 41.97500 34.07300
N  42.81400 38.81000 26.15800
C  43.16200 38.03200 27.26300
C  43.58300 36.68900 26.75600
C  43.63100 36.70700 25.29900
C  42.99200 38.05400 25.00200
C  44.08500 35.61700 27.75100
C  44.13100 35.72400 24.30900
O  44.13100 36.02500 23.10900
C  44.67900 34.40300 24.75200
N  41.85000 40.84400 24.08100
C  42.25900 39.82400 23.25600
C  42.00300 40.14600 21.83300
C  41.21400 41.48400 21.86500
C  41.27400 41.82700 23.36100
C  43.17300 40.32200 20.85000
C  39.71000 41.32500 21.37500
C  38.85300 40.34500 22.13800
N  41.24600 42.70900 26.25300
C  40.87600 43.49900 25.20400
C  40.40300 44.72800 25.75100
C  40.61600 44.65500 27.12000
C  41.13900 43.37200 27.37700
C  39.93100 45.83400 24.90600
C  40.44900 45.39000 28.31300
O  40.09000 46.54600 28.56400
C  40.92300 44.32400 29.38900
C  42.07900 44.85900 30.20300
O  43.29800 44.67300 29.96500
O  41.66200 45.64300 31.34600
C  42.74800 46.21500 32.14400
H  43.27900 37.75400 29.40000
H  42.93200 37.88100 22.81100
H  40.56900 43.65900 22.95500
H  42.63900 42.22200 30.97200
H  41.85700 39.34400 31.17700
H  44.64100 39.68400 30.75400
H  43.80100 39.27500 32.27700
H  44.14300 40.90500 31.86900
H  40.23400 40.71300 31.76400
H  39.70100 41.88700 30.71000
H  39.75900 43.34800 32.55500
H  41.51500 43.01000 32.89200
H  43.91800 35.95000 28.77600
H  45.16300 35.53000 27.61500
H  43.65900 34.62400 27.60800
H  43.77300 33.80800 24.87200
H  45.27600 34.44000 25.66300
H  45.16300 33.98900 23.86800
H  41.40100 39.31400 21.46900
H  41.64800 42.32600 21.32500
H  43.76300 39.43200 20.62900
H  43.80500 41.17100 21.11100
H  42.68000 40.60800 19.92100
H  39.70700 40.99400 20.33600
H  39.25700 42.30800 21.50800
H  38.36600 39.64300 21.46200
H  38.07400 40.85700 22.70400
H  39.46100 39.78100 22.84500
H  40.09500 45.55200 23.86600
H  40.58700 46.69900 25.01600
H  38.89100 46.12000 25.06100
H  40.11300 44.15200 30.09700
H  42.85100 45.47600 32.93900
H  42.58900 47.17500 32.63500
H  43.72700 46.30300 31.67500
Mg -4.68600 25.55100 25.78800
C  -3.79000 27.10300 28.72300
C  -6.63200 23.37000 27.55200
C  -5.06900 23.63900 22.96500
C  -2.55000 27.63600 24.02000
N  -5.05000 25.27700 27.96500
C  -4.58300 26.02400 28.97100
C  -5.20500 25.63600 30.34200
C  -6.08300 24.36900 29.99600
C  -5.94200 24.32900 28.41300
C  -5.59200 23.08600 30.64600
C  -6.01100 26.83600 31.08100
C  -5.75700 26.91900 32.64300
H  -5.16600 25.65600 33.35200
N  -5.69500 23.79600 25.32800
C  -6.46400 23.07200 26.19300
C  -7.06200 21.91900 25.54500
C  -6.54400 21.96200 24.19500
C  -5.73500 23.18900 24.10900
C  -7.96000 20.90800 26.30300
C  -6.75600 21.02300 23.10000
O  -6.22900 21.05900 21.99800
C  -7.59800 19.84900 23.39000
N  -4.09800 25.68500 23.72600
C  -4.37200 24.82700 22.77200
C  -3.60600 25.14900 21.43700
C  -3.05400 26.56100 21.74000
C  -3.20600 26.68900 23.27200
C  -2.68400 24.00700 20.95000
C  -3.70000 27.66100 20.83100
C  -2.80300 28.31100 19.80700
N  -3.40000 26.98200 26.26800
C  -2.58700 27.75500 25.43800
C  -1.85400 28.75300 26.18800
C  -2.29400 28.45300 27.52200
C  -3.23200 27.44700 27.50100
C  -0.92200 29.77800 25.58500
C  -2.05700 28.85500 28.88000
O  -1.36200 29.73300 29.41800
C  -2.95100 27.95700 29.76000
C  -2.13900 27.09700 30.68100
O  -1.62700 26.03900 30.33100
O  -1.90300 27.80400 31.85300
C  -1.12900 27.06600 32.83000
H  -7.25600 22.68300 28.12600
H  -5.13200 23.08600 22.02600
H  -1.87900 28.34700 23.53500
H  -4.35000 25.34100 30.95000
H  -7.10600 24.64900 30.24700
H  -5.96800 22.29600 29.99500
H  -6.09600 22.78300 31.56400
H  -4.50600 23.11800 30.55300
H  -7.05800 26.76000 30.78800
H  -5.59900 27.74200 30.63600
H  -6.75200 27.07700 33.06000
H  -5.26200 27.86400 32.86400
H  -7.63700 19.89500 26.06600
H  -9.00700 20.95800 26.00200
H  -8.00200 20.98400 27.39000
H  -7.04600 19.24000 24.10500
H  -7.81900 19.27100 22.49200
H  -8.55200 20.23500 23.74900
H  -4.22600 25.23800 20.54600
H  -1.98700 26.36200 21.63800
H  -1.65300 24.34600 20.85400
H  -3.07200 23.72700 19.97000
H  -2.75800 23.10900 21.56400
H  -4.10800 28.43800 21.47700
H  -4.60400 27.31700 20.32800
H  -3.45000 28.30800 18.93000
H  -1.90900 27.79400 19.45900
H  -2.49000 29.27700 20.20300
H  -1.65400 30.53000 25.28900
H  -0.47100 29.41700 24.66100
H  -0.19000 29.97500 26.36700
H  -3.58300 28.72300 30.20900
H  -0.28200 26.47700 32.47800
H  -1.82500 26.39600 33.33400
H  -0.74700 27.88800 33.43600

