158

Mg 16.77400 50.84800 27.17000
C  18.61600 49.66400 29.80400
C  14.32300 52.08400 29.31000
C  14.80700 51.78800 24.54000
C  18.90000 49.13900 24.91700
N  16.47200 50.75400 29.30700
C  17.40200 50.34100 30.18600
C  16.93600 50.74700 31.62100
C  15.43400 51.21100 31.48800
C  15.32600 51.26400 29.92700
C  14.42500 50.14200 32.02300
C  17.87000 51.81600 32.24100
C  17.96300 51.93500 33.78400
H  17.20200 50.96300 34.70300
N  14.93300 51.94000 26.96700
C  14.09500 52.39900 27.96200
C  13.02400 53.21000 27.37800
C  13.13100 53.11700 25.98800
C  14.28700 52.24800 25.75500
C  12.02300 53.91100 28.31400
C  12.35800 53.92500 24.96600
O  12.60900 53.84100 23.77400
C  11.17400 54.79000 25.34500
N  16.76600 50.48500 25.00500
C  15.86100 50.94800 24.15700
C  16.14800 50.58000 22.65800
C  17.58500 50.00800 22.76300
C  17.79400 49.84100 24.31600
C  15.04600 49.67600 21.93100
C  18.64100 50.92900 22.07500
C  19.79100 50.22500 21.32400
N  18.41500 49.59500 27.30100
C  19.25200 49.05100 26.30700
C  20.31600 48.42300 27.01100
C  20.10900 48.54300 28.36900
C  18.90700 49.36900 28.48600
C  21.36500 47.61900 26.32800
C  20.56900 48.30200 29.62200
O  21.62700 47.74000 29.91400
C  19.58800 48.96200 30.67500
C  18.93300 47.86200 31.43700
O  18.04000 47.16600 30.99600
O  19.51400 47.59800 32.61800
C  19.00700 46.38700 33.28500
H  13.53300 52.52700 29.92100
H  14.20300 52.19500 23.72600
H  19.52500 48.63000 24.18000
H  17.06800 49.88700 32.27800
H  15.24400 52.11100 32.07200
H  14.94300 49.23300 32.32800
H  13.70700 50.04700 31.20900
H  13.86600 50.44100 32.90900
H  17.55200 52.83200 32.00900
H  18.86500 51.83000 31.79700
H  17.75700 52.97300 34.04300
H  19.00300 51.70000 34.00700
H  11.73100 54.91900 28.01900
H  12.38200 54.12300 29.32100
H  11.10900 53.33300 28.45000
H  10.50200 54.04300 25.76700
H  10.81200 54.99900 24.33800
H  11.53000 55.65300 25.90800
H  16.11000 51.55300 22.16700
H  17.56900 49.09000 22.17500
H  14.40500 50.30900 21.31700
H  14.49500 49.11900 22.68900
H  15.46900 49.01500 21.17500
H  19.19800 51.59400 22.73500
H  18.10600 51.54800 21.35400
H  20.73900 50.50600 21.78300
H  19.97300 50.51100 20.28800
H  19.67300 49.14300 21.39200
H  21.12300 47.44800 25.27900
H  21.56900 46.67400 26.83100
H  22.25700 48.24100 26.40300
H  20.07200 49.68000 31.33700
H  17.98300 46.47300 33.64800
H  19.61700 46.16400 34.16100
H  19.22500 45.45800 32.75800
Mg 9.57700 47.23000 26.75300
C  7.51700 47.63800 29.44900
C  12.17100 48.51300 28.63900
C  11.48400 46.89500 23.99700
C  6.75100 47.09600 24.59900
N  9.78800 48.28800 28.71900
C  8.84500 47.99800 29.72600
C  9.40300 48.36000 31.10100
C  10.68400 49.16400 30.71800
C  10.96800 48.70100 29.24400
C  10.71100 50.74500 30.93800
C  9.72000 47.09100 31.95500
C  9.26500 47.15400 33.46500
H  9.44900 45.84900 34.33500
N  11.58900 47.53100 26.44000
C  12.50000 48.10300 27.27100
C  13.89900 47.91000 26.65800
C  13.62100 47.21900 25.36400
C  12.16800 47.24800 25.18100
C  15.11200 48.24400 27.32100
C  14.65600 46.62500 24.43100
O  14.31100 46.06800 23.37200
C  16.13100 46.71800 24.81400
N  9.07800 46.95700 24.60700
C  10.12300 46.89100 23.75200
C  9.66900 46.78900 22.35100
C  8.06700 46.79500 22.40400
C  7.94300 46.96500 23.94300
C  10.32100 47.83100 21.31600
C  7.42800 45.45800 21.95600
C  7.17500 45.43600 20.41700
N  7.57600 47.21200 26.97000
C  6.58600 47.11600 26.02000
C  5.30100 47.03700 26.75900
C  5.63200 47.13400 28.09000
C  7.02500 47.38100 28.20700
C  3.87400 46.91000 26.12100
C  5.10400 47.10000 29.45300
O  3.95800 46.86300 29.83500
C  6.30400 47.57300 30.32500
C  6.41500 46.48000 31.42000
O  6.98800 45.41400 31.34100
O  5.76100 46.91100 32.56600
C  5.34500 45.87800 33.50000
H  13.00700 48.91200 29.21700
H  12.11200 46.68000 23.12900
H  5.84000 46.90200 24.02800
H  8.75200 49.06100 31.62400
H  11.43700 48.75900 31.39400
H  9.75700 51.24600 31.10400
H  11.05400 51.18700 30.00300
H  11.33200 51.05000 31.78100
H  10.76600 46.78600 31.98700
H  9.31000 46.22800 31.43100
H  8.26300 47.57800 33.52600
H  9.96600 47.85200 33.92300
H  14.90200 48.28900 28.38900
H  15.32500 49.26900 27.01800
H  15.96100 47.56300 27.38200
H  16.78600 46.41900 23.99600
H  16.20400 46.00600 25.63600
H  16.35000 47.74600 25.10400
H  9.90300 45.76300 22.06700
H  7.72100 47.74400 21.99400
H  11.25700 47.42500 20.93000
H  10.68800 48.67500 21.90000
H  9.65100 48.17400 20.52800
H  6.48000 45.35200 22.48400
H  8.07500 44.67700 22.35500
H  6.11700 45.50600 20.16400
H  7.54100 44.56800 19.86800
H  7.75000 46.27500 20.02600
H  3.96300 46.77000 25.04400
H  3.21300 47.76300 26.27600
H  3.38900 46.02200 26.52700
H  5.88800 48.54700 30.58400
H  5.15900 44.95500 32.95100
H  4.34100 46.21500 33.76000
H  6.06000 45.75500 34.31300

