158

Mg 28.80700 56.30800 40.55400
C  26.40400 53.95000 39.67800
C  31.14000 54.03900 39.64400
C  31.19500 58.78500 40.18900
C  26.23100 58.71100 40.93100
N  28.69900 54.27500 39.70700
C  27.65100 53.45400 39.46600
C  28.09000 52.11100 38.88100
C  29.56100 52.08100 39.24100
C  29.78900 53.57200 39.50600
C  29.97500 51.22100 40.51900
C  27.68500 51.81600 37.40000
C  28.23600 52.82000 36.30000
H  27.36100 53.41300 35.21800
N  30.98000 56.45200 40.10800
C  31.74800 55.31900 39.78900
C  33.07300 55.74900 39.67300
C  33.12900 57.12500 39.77600
C  31.76900 57.53600 40.03300
C  34.18300 54.68300 39.45800
C  34.33600 57.95400 39.73200
O  35.41300 57.41400 39.55300
C  34.36800 59.38400 40.02900
N  28.70500 58.42600 40.57900
C  29.86400 59.15900 40.58400
C  29.50100 60.59100 40.69700
C  27.96900 60.60200 40.98600
C  27.58700 59.17700 40.85400
C  30.35400 61.44200 41.64700
C  27.12500 61.57200 40.10700
C  26.37000 62.70000 40.82400
N  26.77000 56.37900 40.44600
C  25.80900 57.36900 40.65000
C  24.52400 56.86700 40.54000
C  24.68000 55.51900 40.17200
C  26.07100 55.29400 40.07100
C  23.20100 57.51000 40.84200
C  23.95800 54.28400 39.93000
O  22.70000 54.10600 39.90600
C  25.04600 53.22700 39.49500
C  24.84100 51.90700 40.17500
O  24.62800 50.86700 39.60300
O  25.16900 51.91700 41.47400
C  24.99200 50.65800 42.20600
H  31.88200 53.23900 39.61400
H  31.79600 59.65600 39.92100
H  25.52500 59.53700 41.03700
H  27.71300 51.41600 39.63200
H  30.21000 51.80500 38.41000
H  29.71400 50.16500 40.46200
H  29.68300 51.76700 41.41600
H  31.04200 51.32400 40.71800
H  26.59500 51.79300 37.41200
H  27.97300 50.85800 36.96700
H  28.82500 52.25300 35.58000
H  28.90000 53.55200 36.76000
H  33.71000 53.76800 39.10200
H  34.69000 54.51200 40.40800
H  34.94600 54.92000 38.71600
H  33.78900 59.48600 40.94600
H  33.90700 59.93200 39.20600
H  35.38700 59.76200 40.11600
H  29.57700 60.93500 39.66600
H  27.68600 60.97100 41.97100
H  31.12800 60.82800 42.10700
H  29.76200 61.99800 42.37500
H  30.81400 62.22700 41.04700
H  26.39300 61.07000 39.47400
H  27.79100 61.99000 39.35200
H  25.38600 62.33100 41.11300
H  26.29900 63.46100 40.04600
H  26.90900 63.04900 41.70500
H  22.45600 56.73600 41.02500
H  22.93700 58.02600 39.91900
H  23.28500 58.11700 41.74300
H  24.87700 53.03600 38.43500
H  24.86700 50.85300 43.27100
H  25.81500 49.94800 42.11900
H  24.02600 50.20400 41.98900
Mg -2.82900 34.81500 28.04100
C  -4.54700 32.80200 30.08900
C  -1.75700 36.55400 30.65400
C  -1.28600 36.86300 25.79700
C  -4.26100 33.19600 25.22600
N  -3.19200 34.70000 30.11500
C  -3.85400 33.73400 30.79500
C  -3.80100 33.84300 32.34100
C  -3.11700 35.24400 32.47800
C  -2.66000 35.56200 30.99700
C  -4.10500 36.32100 32.98500
C  -3.00800 32.61700 32.87000
C  -3.61000 32.12600 34.15600
H  -4.18500 33.21700 35.14800
N  -1.72800 36.48200 28.19500
C  -1.33300 37.01200 29.39900
C  -0.40600 38.17400 29.13400
C  -0.35100 38.31000 27.72700
C  -1.15200 37.22300 27.17200
C  0.18400 39.04100 30.26600
C  0.27900 39.45000 26.96200
O  0.00400 39.68100 25.79300
C  1.19300 40.39800 27.66500
N  -2.78900 34.99900 25.73100
C  -1.97100 35.85700 25.11000
C  -1.74100 35.52400 23.56600
C  -2.66400 34.24800 23.49000
C  -3.30700 34.11200 24.89200
C  -2.26600 36.52000 22.53700
C  -1.95100 32.89200 22.95700
C  -2.78800 32.08300 21.84800
N  -4.19200 33.30700 27.66800
C  -4.69900 32.76200 26.50500
C  -5.60900 31.71300 26.87800
C  -5.45200 31.54800 28.23700
C  -4.64000 32.60600 28.70500
C  -6.34500 30.67600 25.99700
C  -5.85000 30.79300 29.41600
O  -6.59100 29.81400 29.48800
C  -5.28700 31.58100 30.66800
C  -6.51200 32.00100 31.51500
O  -7.19800 33.00400 31.30000
O  -6.67800 31.03600 32.46900
C  -7.74100 31.29400 33.35800
H  -1.43100 36.95900 31.61400
H  -0.72600 37.56800 25.18000
H  -4.48400 32.44600 24.46400
H  -4.80500 33.81800 32.76500
H  -2.17300 35.05200 32.98900
H  -5.09800 35.88100 33.07700
H  -4.23400 37.17000 32.31400
H  -3.72600 36.62900 33.96000
H  -1.96100 32.83500 33.08200
H  -2.99400 31.73700 32.22800
H  -2.80400 31.58500 34.65200
H  -4.35400 31.37100 33.90400
H  1.27100 39.05900 30.18100
H  -0.11200 38.69200 31.25600
H  -0.26400 40.03300 30.31700
H  0.63200 41.09300 28.29000
H  1.72800 40.89200 26.85500
H  1.87500 39.83900 28.30600
H  -0.71700 35.20400 23.37600
H  -3.57000 34.42700 22.91100
H  -1.79500 37.49900 22.62400
H  -3.32700 36.65400 22.74700
H  -2.06000 36.06500 21.56700
H  -1.72600 32.28900 23.83700
H  -0.92800 32.95100 22.58500
H  -3.18700 31.28200 22.46900
H  -2.04800 31.62400 21.19200
H  -3.40400 32.69300 21.18700
H  -6.61100 31.13900 25.04700
H  -7.25000 30.32600 26.49300
H  -5.68900 29.82700 25.80200
H  -4.67800 30.83000 31.17400
H  -7.54100 32.26800 33.80400
H  -7.66300 30.51600 34.11700
H  -8.62600 31.19900 32.72800

