158

Mg 46.65500 46.39800 44.12500
C  43.46900 45.16700 43.34600
C  47.96500 43.39900 43.09000
C  49.68300 47.79400 44.21700
C  45.27000 49.56100 44.66700
N  45.76100 44.56300 43.24200
C  44.41400 44.23200 43.05600
C  44.22400 42.77000 42.50900
C  45.67900 42.18300 42.79800
C  46.57700 43.42600 43.02200
C  45.61200 41.25500 44.07300
C  43.87100 42.79100 40.95500
C  42.69800 41.89900 40.54900
H  42.63400 41.48000 39.05800
N  48.60400 45.74000 43.67500
C  48.92100 44.42500 43.31400
C  50.30100 44.23900 43.26100
C  50.87400 45.50000 43.60300
C  49.68900 46.47300 43.85100
C  51.02500 42.90700 42.92500
C  52.29300 45.74000 43.68500
O  53.14900 44.86000 43.45700
C  52.77700 47.06700 44.20700
N  47.31100 48.42500 44.25900
C  48.61500 48.70100 44.40400
C  48.85700 50.21800 44.52900
C  47.42300 50.76600 44.61000
C  46.62100 49.45700 44.62500
C  49.67500 50.58300 45.79800
C  47.07300 51.67600 43.35700
C  46.03600 52.79100 43.68200
N  44.73400 47.26200 44.07100
C  44.28600 48.54900 44.43200
C  42.82700 48.50200 44.37500
C  42.46800 47.19200 43.92200
C  43.69900 46.47400 43.79000
C  41.85800 49.61300 44.70300
C  41.42200 46.28100 43.50100
O  40.18100 46.41800 43.40000
C  42.02100 45.01900 43.15800
C  41.49200 44.00000 44.05600
O  41.07900 42.88300 43.62200
O  41.44900 44.39500 45.40600
C  40.54400 43.50400 46.16500
H  48.34800 42.39300 42.90200
H  50.64400 48.31200 44.26800
H  44.80900 50.51900 44.91700
H  43.48300 42.33900 43.18200
H  46.04800 41.61600 41.94400
H  44.68600 41.26100 44.64900
H  46.44700 41.58700 44.69000
H  45.72000 40.20800 43.78900
H  44.70800 42.63600 40.27400
H  43.54900 43.80100 40.70100
H  41.78200 42.46800 40.71400
H  42.61900 41.11900 41.30600
H  51.77100 42.91800 42.13000
H  50.39900 42.07400 42.60700
H  51.57800 42.49200 43.76700
H  53.86400 47.14200 44.23800
H  52.22400 47.23300 45.13200
H  52.49700 47.65000 43.32900
H  49.41000 50.61500 43.67800
H  47.27000 51.43300 45.45800
H  49.48200 49.98400 46.68800
H  49.50100 51.61400 46.10800
H  50.75500 50.55900 45.65100
H  46.69100 50.97100 42.61900
H  47.99500 52.15400 43.02500
H  46.36800 53.72400 43.22700
H  45.78700 52.89000 44.73900
H  45.09800 52.45400 43.24300
H  41.09900 49.34100 45.43700
H  41.25200 49.83500 43.82500
H  42.43200 50.43800 45.12700
H  41.75500 44.70200 42.15000
H  40.94900 42.49200 46.18400
H  39.48500 43.48000 45.90600
H  40.60000 43.78300 47.21700
Mg 47.29900 35.95700 28.98600
C  45.78800 34.06700 31.41900
C  47.72400 38.54100 31.43900
C  48.11000 38.13500 26.56300
C  46.37800 33.50800 26.58300
N  46.91600 36.24300 31.15000
C  46.32300 35.26100 31.92200
C  46.46800 35.60200 33.42900
C  46.49000 37.19800 33.29200
C  47.04500 37.42600 31.86300
C  45.07900 37.77800 33.56400
C  47.78700 35.08400 34.01100
C  47.82300 34.67000 35.47400
H  47.00400 35.39200 36.47900
N  48.05000 37.98400 28.97400
C  48.14500 38.86500 30.05800
C  48.76100 40.08700 29.68100
C  48.91500 39.98200 28.25500
C  48.44200 38.64800 27.87400
C  48.94100 41.25500 30.64700
C  49.54000 40.93600 27.24100
O  49.97600 40.55600 26.19200
C  49.84000 42.36600 27.62900
N  47.22000 35.88200 26.94900
C  47.65600 36.89000 26.13700
C  47.48100 36.57200 24.64800
C  46.94400 35.06400 24.68400
C  46.93900 34.73100 26.18400
C  46.42500 37.50500 24.01100
C  47.84100 34.12900 23.83700
C  47.10900 33.01600 23.17300
N  46.25500 34.18000 28.95500
C  46.05700 33.23000 27.96300
C  45.43500 32.04800 28.51600
C  45.24200 32.35200 29.89300
C  45.86200 33.62200 30.06400
C  45.12300 30.75400 27.76800
C  44.72200 31.84200 31.12600
O  44.20100 30.78800 31.50500
C  44.94600 33.01000 32.10500
C  45.46500 32.45900 33.43700
O  46.58100 32.07400 33.61900
O  44.45300 32.30300 34.27700
C  44.68000 31.50000 35.46000
H  47.69600 39.35900 32.16200
H  48.15300 38.89400 25.77900
H  46.07400 32.73500 25.87400
H  45.61000 35.24800 34.00100
H  47.15500 37.66100 34.02100
H  45.18200 38.31000 34.50900
H  44.31500 37.00400 33.63700
H  44.82700 38.48000 32.76900
H  48.62900 35.74100 33.79400
H  47.99200 34.21800 33.38100
H  48.87100 34.64300 35.77200
H  47.33900 33.69700 35.55600
H  48.25200 41.34400 31.48600
H  48.84100 42.20500 30.12200
H  49.93000 41.22500 31.10300
H  50.71300 42.27400 28.27500
H  48.91100 42.69800 28.09100
H  49.91700 43.08000 26.80900
H  48.43300 36.61100 24.11900
H  45.89400 35.10200 24.39400
H  45.98800 38.09100 24.82000
H  45.68100 37.00800 23.38700
H  46.96100 38.18600 23.35000
H  48.52800 33.60500 24.50100
H  48.28400 34.69400 23.01700
H  47.11000 33.17500 22.09400
H  46.04400 32.94400 23.39200
H  47.57300 32.04600 23.35500
H  44.99700 29.86600 28.38800
H  45.90500 30.42800 27.08200
H  44.20700 30.92900 27.20400
H  44.00500 33.53200 32.28100
H  45.45900 30.75000 35.31800
H  43.72600 31.02400 35.68800
H  44.99500 32.07900 36.32800

