158

Mg -10.60800 39.51700 42.35200
C  -9.21000 36.56200 41.37300
C  -8.03200 41.17800 40.91900
C  -12.19000 42.50100 42.85800
C  -13.69800 37.79000 43.01300
N  -8.79000 38.95700 41.24800
C  -8.41600 37.64200 41.01600
C  -7.13100 37.59400 40.22300
C  -6.59400 39.10800 40.25500
C  -7.86900 39.75900 40.82300
C  -5.28000 39.37400 41.05400
C  -7.37300 36.96500 38.83000
C  -6.39100 35.89500 38.34800
H  -5.52800 36.17800 37.17700
N  -10.10400 41.58600 42.02200
C  -9.03800 42.09000 41.38200
C  -9.01800 43.48700 41.49000
C  -10.16900 43.91300 42.18100
C  -10.86800 42.63300 42.43700
C  -7.80400 44.25000 41.05900
C  -10.51400 45.31100 42.57000
O  -9.76500 46.23400 42.23100
C  -11.69700 45.66000 43.46300
N  -12.72200 40.01100 42.78700
C  -12.92400 41.34400 43.18400
C  -14.40000 41.45000 43.71000
C  -14.93100 39.95500 43.65800
C  -13.72400 39.17500 43.07400
C  -14.44000 42.12000 45.12400
C  -16.26700 39.67100 42.98800
C  -17.40400 39.91300 43.91200
N  -11.30300 37.57600 42.34900
C  -12.50500 36.97100 42.67200
C  -12.43200 35.54700 42.52800
C  -11.15400 35.35300 41.98900
C  -10.49100 36.61600 41.92000
C  -13.53600 34.51300 42.72400
C  -10.29800 34.31600 41.46300
O  -10.56000 33.13500 41.28600
C  -8.88800 35.03600 41.14100
C  -7.85500 34.55600 42.08500
O  -7.65200 34.94100 43.22900
O  -6.97700 33.69600 41.45500
C  -5.88000 33.01700 42.10100
H  -7.15300 41.64200 40.46600
H  -12.78300 43.38300 43.10900
H  -14.61400 37.24800 43.26000
H  -6.37500 37.06600 40.80300
H  -6.26600 39.47300 39.28200
H  -4.66100 40.08300 40.50500
H  -4.71700 38.45100 40.91800
H  -5.47700 39.58200 42.10600
H  -7.28300 37.76100 38.09000
H  -8.37500 36.54800 38.72700
H  -6.99700 35.02000 38.11400
H  -5.70200 35.69300 39.16800
H  -7.96100 44.66100 40.06200
H  -6.92000 43.61800 41.13900
H  -7.59000 45.00700 41.81400
H  -11.69600 46.69600 43.80300
H  -11.65200 45.19500 44.44800
H  -12.61300 45.47100 42.90400
H  -14.94600 42.05100 42.98200
H  -15.04100 39.59200 44.68000
H  -13.50800 42.67400 45.23000
H  -14.45100 41.35400 45.89900
H  -15.25200 42.83200 45.27000
H  -16.25900 38.65300 42.60000
H  -16.27400 40.33600 42.12400
H  -17.15900 40.09600 44.95900
H  -17.93600 38.96400 43.98100
H  -18.12000 40.68100 43.62000
H  -13.65500 34.36000 43.79700
H  -13.19900 33.53800 42.37200
H  -14.51600 34.75600 42.31100
H  -8.59400 34.81700 40.11500
H  -6.13300 32.03600 42.50300
H  -5.39400 33.63300 42.85700
H  -5.07900 32.86800 41.37600
Mg -1.90200 34.59500 27.09300
C  -3.61600 32.69300 29.53400
C  -0.59200 36.55600 29.61000
C  -0.56900 36.52700 24.72000
C  -3.79100 32.98100 24.65100
N  -2.19000 34.66100 29.31500
C  -2.78600 33.71800 30.06100
C  -2.43600 33.94800 31.54300
C  -1.54400 35.21200 31.51800
C  -1.45600 35.55700 30.02300
C  -2.07800 36.44700 32.28000
C  -1.86000 32.74500 32.35400
C  -2.78800 32.14100 33.45200
H  -2.10100 32.01600 34.91100
N  -0.72500 36.22200 27.10500
C  -0.28200 36.85800 28.23300
C  0.65200 37.87000 27.78800
C  0.75200 37.88700 26.38900
C  -0.19700 36.81000 26.01100
C  1.28900 38.81300 28.73800
C  1.64600 38.74500 25.40000
O  1.54200 38.71600 24.18900
C  2.64000 39.72300 25.89100
N  -2.13800 34.73600 24.97100
C  -1.41700 35.59600 24.17700
C  -1.59500 35.23500 22.74200
C  -2.52300 34.04900 22.77900
C  -2.82300 33.83300 24.26500
C  -2.19200 36.49300 22.02700
C  -1.83100 32.79200 22.14600
C  -0.63400 32.17500 22.84600
N  -3.36300 33.06000 27.02700
C  -4.01000 32.47500 25.99500
C  -4.83100 31.39600 26.50600
C  -4.66300 31.40700 27.85400
C  -3.79300 32.49300 28.18200
C  -5.77400 30.49200 25.73200
C  -5.17300 30.80900 29.16300
O  -6.07500 30.01100 29.42100
C  -4.44900 31.62700 30.29500
C  -5.47200 32.33200 31.15800
O  -5.93100 33.42100 30.95000
O  -5.85500 31.55800 32.30300
C  -6.32100 32.37600 33.39300
H  0.05800 37.04400 30.34000
H  -0.06000 37.16300 23.99300
H  -4.39700 32.47400 23.89700
H  -3.34600 34.25100 32.06000
H  -0.50500 35.02800 31.79200
H  -2.94300 36.25500 32.91600
H  -2.25800 37.30000 31.62600
H  -1.28400 36.79700 32.93900
H  -0.90600 32.94400 32.84200
H  -1.55900 32.01100 31.60600
H  -3.10000 31.12600 33.20700
H  -3.53600 32.93000 33.53300
H  0.76900 38.91600 29.69100
H  1.35700 39.79800 28.27600
H  2.31800 38.57600 29.00800
H  3.06400 39.07600 26.65900
H  2.14800 40.62000 26.27000
H  3.37600 40.01000 25.14100
H  -0.63300 34.83500 22.42100
H  -3.45800 34.23400 22.25200
H  -3.17700 36.75200 22.41500
H  -2.41400 36.34600 20.97000
H  -1.59900 37.40500 22.08900
H  -1.59500 33.02300 21.10700
H  -2.65200 32.07600 22.11300
H  -0.48600 32.57800 23.84800
H  0.20500 32.28200 22.15700
H  -0.84300 31.11800 23.01300
H  -5.19900 29.88500 25.03300
H  -6.54500 31.12500 25.29200
H  -6.29900 29.82100 26.41100
H  -3.82100 31.01400 30.94200
H  -5.55900 32.65800 34.12000
H  -6.96800 31.67900 33.92600
H  -6.95000 33.21500 33.09200

