158

Mg 1.77000 42.66100 25.89900
C  2.78800 42.50200 29.34100
C  -1.25900 41.19500 26.87800
C  0.97200 42.35000 22.55700
C  4.95400 43.59000 25.07100
N  0.85800 42.01900 27.89200
C  1.41400 42.19000 29.17600
C  0.32500 41.75800 30.26400
C  -0.86100 41.15000 29.40100
C  -0.43100 41.53200 27.95300
C  -1.17800 39.61300 29.63400
C  -0.09200 42.97000 31.14800
C  -0.04700 42.79500 32.71700
H  -0.65600 41.56500 33.44800
N  0.11400 41.90300 24.88900
C  -1.02900 41.40200 25.47700
C  -1.95200 41.05900 24.41800
C  -1.41800 41.46200 23.11800
C  -0.02800 41.95600 23.49600
C  -3.29200 40.48700 24.63900
C  -1.96000 41.38800 21.67900
O  -1.37200 41.91400 20.78000
C  -3.20600 40.62800 21.43000
N  2.91500 42.78400 24.08200
C  2.30900 42.68700 22.82500
C  3.30700 43.20400 21.76100
C  4.40400 43.91400 22.57000
C  4.11500 43.34200 24.00500
C  3.80300 42.18400 20.69300
C  4.26500 45.47900 22.53700
C  2.94900 46.15500 22.75600
N  3.53300 43.06800 26.97800
C  4.79100 43.38300 26.43900
C  5.75900 43.40200 27.56700
C  5.00400 43.08200 28.72400
C  3.66700 42.92500 28.31400
C  7.19600 43.64900 27.43900
C  5.03800 42.93300 30.20400
O  5.96000 43.00400 30.98000
C  3.64100 42.51900 30.66100
C  3.70400 41.12800 31.24900
O  4.33300 40.20000 30.84000
O  3.09800 41.13200 32.50200
C  3.12800 39.82100 33.11900
H  -2.14600 40.59900 27.10200
H  0.69700 42.34400 21.50000
H  5.94900 43.98500 24.85400
H  0.82400 40.98600 30.85000
H  -1.73700 41.75800 29.62800
H  -2.18100 39.42200 30.01600
H  -0.47400 39.24400 30.38000
H  -1.02400 39.10600 28.68100
H  -1.12000 43.25400 30.92200
H  0.52600 43.85800 31.01800
H  -0.47300 43.71400 33.12100
H  0.97500 42.86700 33.08900
H  -3.54900 39.61300 24.04100
H  -4.07200 41.24500 24.56300
H  -3.31400 39.97400 25.60000
H  -3.30300 40.56500 20.34600
H  -4.02400 40.88600 22.10200
H  -2.97400 39.58400 21.64100
H  2.93600 43.97700 21.08800
H  5.44900 43.74000 22.31300
H  3.91500 41.21500 21.17800
H  4.64100 42.58100 20.11900
H  3.02400 41.92900 19.97500
H  4.57200 45.67000 21.50900
H  4.99000 45.81900 23.27700
H  3.00500 46.80500 23.62900
H  2.14900 45.44800 22.97400
H  2.69500 46.74100 21.87300
H  7.34000 44.71700 27.60300
H  7.42300 43.40800 26.40000
H  7.77200 43.13000 28.20500
H  3.28900 43.17900 31.45400
H  3.05400 40.06100 34.18000
H  4.02600 39.22100 32.97200
H  2.30800 39.19400 32.77100
Mg -1.14800 34.25000 27.37100
C  -3.01000 32.20500 29.44700
C  0.16700 35.76000 30.08900
C  0.50500 36.25400 25.25600
C  -2.61600 32.60800 24.52500
N  -1.46000 34.13000 29.50100
C  -2.20000 33.12800 30.11800
C  -2.09200 33.21600 31.63000
C  -1.13600 34.51100 31.83800
C  -0.82800 34.84200 30.40600
C  -1.70500 35.76700 32.58500
C  -1.50100 31.91000 32.32400
C  -2.40300 31.27100 33.36600
H  -1.73500 31.28300 34.77700
N  0.14500 35.82000 27.68100
C  0.60600 36.25900 28.88200
C  1.60200 37.31100 28.61000
C  1.66200 37.56400 27.22400
C  0.76300 36.47300 26.69400
C  2.28800 37.98200 29.76500
C  2.49600 38.48000 26.46100
O  2.47400 38.58500 25.23600
C  3.37900 39.48100 27.20700
N  -1.07600 34.46500 25.21100
C  -0.27800 35.37600 24.58100
C  -0.53600 35.45900 23.03500
C  -1.34200 34.15000 22.79000
C  -1.71200 33.66500 24.24400
C  -1.23600 36.72800 22.63100
C  -0.62900 33.04300 21.97000
C  -1.53000 32.39400 20.91000
N  -2.62500 32.70400 26.99000
C  -3.11400 32.20200 25.83100
C  -4.06000 31.18200 26.20500
C  -3.99500 31.10000 27.63000
C  -3.16400 32.10800 28.06200
C  -4.71600 30.30300 25.28400
C  -4.38900 30.34600 28.79300
O  -5.12300 29.31900 28.86500
C  -3.84400 31.07100 30.02900
C  -5.04800 31.60900 30.82000
O  -5.87200 32.44000 30.40900
O  -5.15100 30.87000 31.96300
C  -6.32000 31.07400 32.85400
H  0.50600 36.08000 31.07600
H  0.96800 37.04700 24.66400
H  -3.15700 32.13100 23.70500
H  -3.04000 33.50100 32.08600
H  -0.22300 34.15100 32.31200
H  -1.89200 36.60700 31.91600
H  -1.03400 36.04900 33.39700
H  -2.62000 35.46900 33.09700
H  -0.52200 32.15200 32.73800
H  -1.30100 31.17800 31.54100
H  -2.40800 30.23800 33.01700
H  -3.40200 31.68500 33.22500
H  1.87700 37.70600 30.73600
H  2.05600 39.04200 29.66500
H  3.37200 37.88000 29.71300
H  3.72800 40.13300 26.40600
H  4.24300 38.96200 27.62200
H  2.75600 40.05900 27.88800
H  0.46400 35.40700 22.60300
H  -2.30600 34.37800 22.33600
H  -0.53700 37.51000 22.92800
H  -2.03600 36.93000 23.34300
H  -1.45300 36.61700 21.56800
H  -0.25700 32.33200 22.70900
H  0.24100 33.41200 21.42700
H  -1.00000 32.53500 19.96800
H  -2.56400 32.73500 20.94700
H  -1.59400 31.30800 20.97900
H  -4.09100 30.33500 24.39100
H  -5.68200 30.61800 24.89000
H  -4.79300 29.32100 25.75100
H  -3.24700 30.37900 30.62200
H  -7.03900 31.84300 32.56900
H  -5.87100 31.52100 33.74100
H  -6.67500 30.10300 33.19800

