158

Mg 42.87000 41.93800 26.36800
C  42.04800 44.28500 28.82100
C  44.15500 39.93900 28.75400
C  44.09700 39.84400 23.98600
C  42.47900 44.39800 23.96600
N  43.13300 42.21900 28.61900
C  42.60600 43.15000 29.43400
C  42.61500 42.68600 30.87900
C  43.45200 41.35600 30.81200
C  43.64100 41.20900 29.28900
C  44.84000 41.42400 31.49600
C  41.24200 42.61700 31.65200
C  41.42900 41.81000 32.97200
H  40.59700 42.12800 34.15100
N  43.92500 40.16500 26.41400
C  44.36000 39.53500 27.47800
C  44.99600 38.31000 27.07900
C  44.80500 38.14200 25.67600
C  44.23100 39.41400 25.26800
C  45.58700 37.32200 28.09100
C  45.11200 36.97300 24.77400
O  45.01400 37.07900 23.54600
C  45.62500 35.68100 25.30800
N  43.12900 42.05700 24.31400
C  43.62900 41.07600 23.52400
C  43.62700 41.48900 22.05400
C  42.96700 42.82600 22.11100
C  42.79800 43.11300 23.52000
C  45.00400 41.35700 21.34300
C  41.66200 42.89300 21.31800
C  40.37600 42.32700 22.04100
N  42.21200 43.85500 26.32200
C  42.11700 44.73500 25.24900
C  41.55000 45.98200 25.75900
C  41.45500 45.78700 27.16200
C  41.93600 44.55800 27.43800
C  41.28500 47.20400 24.84600
C  41.02000 46.35200 28.44800
O  40.51100 47.41700 28.67300
C  41.40600 45.47400 29.55700
C  42.32400 46.21900 30.34800
O  43.50000 46.54600 30.05400
O  41.82400 46.18700 31.63800
C  42.77800 46.16900 32.77600
H  44.36300 39.14500 29.47300
H  44.39100 39.20900 23.14800
H  42.13800 45.09400 23.19600
H  43.12600 43.49800 31.39500
H  43.02600 40.41900 31.17000
H  45.58800 41.10800 30.76900
H  44.85100 40.79800 32.38900
H  45.05200 42.38600 31.96200
H  40.52600 42.11000 31.00400
H  40.96600 43.62400 31.96200
H  42.40800 41.90900 33.44200
H  41.27200 40.74700 32.79000
H  45.02900 36.39300 28.21100
H  45.79700 37.73600 29.07800
H  46.50900 36.95300 27.64300
H  45.77700 35.02400 24.45100
H  44.95700 35.41900 26.12800
H  46.62900 35.97700 25.61200
H  42.96700 40.79400 21.53500
H  43.60500 43.57100 21.63600
H  45.08900 40.60000 20.56300
H  45.80900 41.26400 22.07200
H  45.21500 42.27900 20.80100
H  41.79600 42.37800 20.36700
H  41.50300 43.93600 21.04500
H  40.49700 41.70100 22.92500
H  39.88600 41.56100 21.43900
H  39.67000 43.11500 22.30500
H  41.32200 48.10500 25.45900
H  40.37100 47.02100 24.28100
H  42.08300 47.08100 24.11400
H  40.50500 45.24000 30.12600
H  43.75000 45.79300 32.45800
H  42.51600 45.45000 33.55200
H  42.80600 47.11500 33.31800
Mg 1.25500 41.13900 25.46700
C  2.27400 41.56400 28.91800
C  -1.68900 39.78800 26.73200
C  0.40500 40.67500 22.30200
C  4.55400 41.74300 24.53600
N  0.35400 40.80800 27.56500
C  0.93500 41.08300 28.77500
C  -0.03500 40.73700 29.96200
C  -1.28400 40.16200 29.18600
C  -0.86300 40.27300 27.76100
C  -1.56600 38.70500 29.62400
C  -0.30000 41.96800 30.89900
C  -0.56900 41.69100 32.40800
H  -1.55900 40.49700 32.70100
N  -0.47700 40.43900 24.65100
C  -1.58500 40.02000 25.32000
C  -2.59200 39.69100 24.31100
C  -1.91400 39.86300 23.02600
C  -0.58000 40.39000 23.28600
C  -3.94200 39.17900 24.65900
C  -2.54300 39.56000 21.62800
O  -1.94400 39.86100 20.59400
C  -3.95600 39.02600 21.49100
N  2.37900 41.18100 23.69800
C  1.75300 41.00800 22.47100
C  2.80100 41.14800 21.33600
C  4.13700 41.37000 22.11400
C  3.65600 41.50100 23.49700
C  2.89100 40.01500 20.23800
C  4.84100 42.71300 21.71300
C  4.15100 44.06900 22.00600
N  3.10500 41.65200 26.45500
C  4.35700 41.80700 25.92600
C  5.29800 41.96100 27.00100
C  4.48300 41.88200 28.18000
C  3.12700 41.70500 27.80100
C  6.81500 42.02500 26.91900
C  4.58800 41.94100 29.57100
O  5.57800 42.21200 30.25100
C  3.19600 41.73900 30.15300
C  3.21600 40.42700 30.97300
O  3.66900 39.37500 30.51200
O  2.87400 40.62500 32.29800
C  3.02800 39.44200 33.07900
H  -2.46700 39.15900 27.17000
H  0.12200 40.53800 21.25600
H  5.61500 41.80700 24.28200
H  0.44700 40.02800 30.63500
H  -2.16200 40.78600 29.35400
H  -1.02700 38.40900 30.52400
H  -1.14600 38.00400 28.90300
H  -2.64500 38.69900 29.77800
H  -1.18600 42.51500 30.57400
H  0.52600 42.67800 30.89600
H  -1.04500 42.57800 32.82600
H  0.36700 41.51100 32.93700
H  -4.10300 39.36400 25.72100
H  -3.86600 38.10700 24.47200
H  -4.77000 39.52800 24.04300
H  -4.04200 37.97600 21.77200
H  -4.19700 38.92700 20.43200
H  -4.70600 39.65200 21.97500
H  2.51700 42.11300 20.91800
H  4.86100 40.55600 22.13700
H  2.21300 39.16900 20.35400
H  3.90600 39.62500 20.16600
H  2.54800 40.40800 19.28100
H  4.98200 42.61800 20.63700
H  5.79800 42.64700 22.23000
H  3.99200 44.51800 21.02600
H  4.82700 44.71600 22.56500
H  3.21100 44.01900 22.55600
H  7.13600 42.08500 25.87900
H  7.23000 41.17900 27.46600
H  7.09900 42.91000 27.48800
H  3.05400 42.63700 30.75400
H  4.10400 39.27400 33.11900
H  2.57400 38.60200 32.55300
H  2.80100 39.47000 34.14500

