158

Mg 40.27000 9.56500 29.19100
C  42.13800 10.43800 32.09600
C  37.80800 7.93100 31.26400
C  38.77600 8.27900 26.46300
C  42.91300 10.68600 27.32600
N  40.10200 9.18400 31.40100
C  40.89100 9.79500 32.32900
C  40.26300 9.54600 33.72800
C  38.95200 8.58900 33.44100
C  38.94600 8.60200 31.92400
C  38.90300 7.28000 34.27700
C  39.87900 10.92300 34.43200
C  39.04100 10.69800 35.68200
H  39.35300 11.63200 36.83900
N  38.58200 8.31000 28.89600
C  37.76400 7.71300 29.83700
C  36.70600 7.01000 29.21500
C  36.82400 7.18600 27.75700
C  38.05900 8.03400 27.67300
C  35.70000 6.19100 30.06000
C  35.95000 6.76600 26.58000
O  36.14900 7.01400 25.37000
C  34.68900 6.08500 26.92500
N  40.79100 9.47800 27.19600
C  39.97000 8.95100 26.25200
C  40.60900 9.05500 24.78400
C  41.92600 9.87000 25.05700
C  41.84300 10.03800 26.62700
C  40.87300 7.66200 24.12800
C  42.15100 11.18100 24.23600
C  41.23200 12.34400 24.68500
N  42.09500 10.52700 29.56400
C  43.08100 10.92100 28.72300
C  44.26300 11.38800 29.41500
C  43.97700 11.29300 30.76600
C  42.60600 10.72800 30.83400
C  45.43100 12.12400 28.67900
C  44.32300 11.66100 32.12600
O  45.25700 12.26000 32.59900
C  43.13100 11.12100 33.00600
C  43.71500 10.27200 34.05600
O  44.48700 9.34300 33.83600
O  43.34300 10.76800 35.31000
C  43.97000 10.16400 36.48600
H  37.00200 7.62900 31.93600
H  38.22600 7.95600 25.57700
H  43.83600 11.00500 26.83700
H  40.97300 8.92900 34.27900
H  38.06700 9.13500 33.76700
H  38.89400 6.37600 33.66800
H  38.06600 7.16300 34.96600
H  39.68200 7.17900 35.03300
H  39.36500 11.40200 33.59800
H  40.70900 11.53000 34.79300
H  39.21000 9.69900 36.08500
H  37.98800 10.85000 35.44400
H  36.10800 6.01700 31.05600
H  35.55500 5.23700 29.55500
H  34.73700 6.65000 30.28500
H  34.80700 5.34700 27.71800
H  34.30500 5.62600 26.01400
H  34.01500 6.87200 27.26500
H  39.88900 9.56200 24.14200
H  42.87900 9.35400 24.93900
H  40.31300 6.85900 24.60700
H  41.94600 7.46800 24.10700
H  40.69100 7.75500 23.05800
H  42.10000 11.13800 23.14800
H  43.19100 11.36400 24.50500
H  41.78500 13.28300 24.68200
H  40.70400 12.09500 25.60600
H  40.51800 12.32500 23.86200
H  45.78600 11.44800 27.90200
H  46.23100 12.40200 29.36600
H  45.04100 13.04100 28.23700
H  42.79500 12.07600 33.40800
H  45.05500 10.22600 36.39900
H  43.62400 9.13800 36.61000
H  43.80000 10.74100 37.39500
Mg 46.53200 24.96300 27.80400
C  47.39500 27.29100 30.30600
C  45.59000 22.82800 30.28000
C  45.94700 22.79200 25.35200
C  47.72000 27.35300 25.47100
N  46.50200 25.03500 30.02300
C  46.89900 26.09400 30.79900
C  46.85000 25.72600 32.34000
C  46.41900 24.24600 32.26600
C  46.13700 24.00000 30.77500
C  47.40300 23.34400 33.07500
C  45.88400 26.67100 33.10300
C  46.44400 27.25900 34.35600
H  45.45600 27.62900 35.45100
N  45.68000 23.08200 27.81600
C  45.39400 22.32300 28.92200
C  44.92200 21.01500 28.50500
C  44.92100 21.08700 27.07900
C  45.60500 22.37400 26.69400
C  44.50200 19.92700 29.49600
C  44.34100 20.08000 26.12800
O  44.55700 20.10700 24.93300
C  43.32000 19.08800 26.57400
N  46.92600 24.98600 25.74500
C  46.65900 23.88400 24.97900
C  46.94500 24.19800 23.48200
C  47.14100 25.69300 23.47700
C  47.21900 26.08800 24.96100
C  48.06600 23.33800 22.81700
C  46.06400 26.55100 22.75700
C  46.46300 27.03200 21.35200
N  47.43300 26.90100 27.81900
C  47.91100 27.73000 26.85100
C  48.48800 28.88500 27.42400
C  48.25700 28.78900 28.78700
C  47.64100 27.58100 28.96200
C  49.25600 29.92500 26.69100
C  48.51400 29.47900 30.09600
O  49.08400 30.51100 30.38400
C  48.05300 28.44900 31.17800
C  49.21900 28.03700 31.92800
O  49.98100 27.17000 31.61700
O  49.23600 28.76300 33.10300
C  50.52000 28.76200 33.87100
H  45.35300 22.12300 31.08000
H  45.80500 22.06500 24.55000
H  48.03000 28.12600 24.76500
H  47.84400 25.80200 32.78200
H  45.42500 24.12200 32.69700
H  48.10900 22.96300 32.33800
H  46.97000 22.47600 33.57300
H  48.04700 23.88100 33.77200
H  45.01200 26.11600 33.45000
H  45.61100 27.53300 32.49500
H  46.86400 28.21500 34.04500
H  47.23900 26.66300 34.80300
H  44.90500 18.96200 29.18900
H  43.43100 19.81600 29.66600
H  44.97900 20.16000 30.44900
H  43.70300 18.50300 27.41100
H  43.06500 18.44600 25.73100
H  42.44700 19.55900 27.02600
H  46.00200 24.08100 22.94800
H  48.13000 25.95400 23.10100
H  48.35500 22.54300 23.50400
H  48.90100 24.01000 22.62200
H  47.81500 22.95800 21.82700
H  45.80800 27.33800 23.46600
H  45.14300 25.97700 22.65700
H  45.72200 26.65600 20.64700
H  47.41900 26.59200 21.06900
H  46.34000 28.11500 21.35200
H  49.90500 30.38700 27.43500
H  48.63400 30.74600 26.33300
H  49.78900 29.47700 25.85200
H  47.32500 28.98400 31.78700
H  50.47800 28.23000 34.82200
H  50.64400 29.81700 34.11500
H  51.41000 28.52800 33.28600

