158

Mg 35.59200 2.20900 29.75100
C  33.64200 3.45800 32.35400
C  38.39900 2.31900 31.78300
C  37.36400 1.18400 27.13500
C  32.91500 2.81700 27.55000
N  35.98800 3.05200 31.74000
C  34.99300 3.22300 32.72200
C  35.65600 3.37100 34.13600
C  37.17900 3.14100 33.87700
C  37.22000 2.89200 32.37100
C  38.18100 4.17800 34.33300
C  34.92400 2.33900 35.06900
C  34.69800 2.73300 36.56200
H  35.49800 4.02000 37.04600
N  37.59900 1.71400 29.50100
C  38.60900 1.81300 30.46600
C  39.89400 1.17500 30.02900
C  39.56300 0.99500 28.61000
C  38.14100 1.34500 28.35900
C  41.07200 0.91500 30.98800
C  40.50000 0.42200 27.60400
O  40.15200 0.24300 26.43000
C  41.89900 -0.00600 27.93000
N  35.25300 2.12600 27.62000
C  36.10000 1.63100 26.78100
C  35.56100 1.54900 25.30900
C  34.07400 1.91900 25.58900
C  34.05200 2.31600 27.00000
C  36.24400 2.53400 24.39300
C  33.19000 0.62500 25.38200
C  32.29200 0.66300 24.22600
N  33.69900 2.94100 29.86700
C  32.72000 3.12300 28.91100
C  31.52700 3.58300 29.56400
C  31.81500 3.69000 30.88200
C  33.16500 3.33800 31.01600
C  30.16900 3.94300 28.99800
C  31.26000 4.04900 32.13900
O  30.09600 4.40000 32.39000
C  32.48000 3.87900 33.15200
C  32.66100 5.16400 33.85800
O  32.94900 6.22100 33.32400
O  32.41800 4.97800 35.21400
C  32.42000 6.14200 36.07200
H  39.27800 2.26200 32.42900
H  37.98100 0.80200 26.31900
H  31.97500 2.90500 27.00200
H  35.52900 4.39900 34.47500
H  37.42100 2.19300 34.35800
H  37.62000 4.98600 34.80300
H  38.66200 4.54700 33.42700
H  38.88600 3.78700 35.06600
H  35.46900 1.39500 35.05200
H  34.00000 1.94900 34.64400
H  35.15500 1.89900 37.09500
H  33.65000 2.82400 36.85000
H  41.70800 0.11900 30.59900
H  40.51600 0.63500 31.88200
H  41.61000 1.85500 31.11400
H  42.50800 0.87300 28.13900
H  42.32900 -0.42200 27.01900
H  41.76300 -0.77600 28.68900
H  35.70600 0.51400 24.99900
H  33.62400 2.73500 25.02300
H  36.65400 3.38200 24.94200
H  35.72900 2.84000 23.48200
H  37.17800 2.02500 24.15600
H  32.65300 0.40000 26.30300
H  33.80300 -0.27100 25.28000
H  32.47100 -0.19500 23.57800
H  32.06300 1.63700 23.79200
H  31.39400 0.26900 24.70000
H  29.60400 3.07700 28.65100
H  30.22400 4.64100 28.16300
H  29.52400 4.37900 29.76100
H  32.18500 3.11900 33.87600
H  32.62700 5.85300 37.10200
H  31.36200 6.40700 36.08900
H  33.16600 6.86500 35.74400
Mg 36.05800 49.41300 24.61200
C  36.47100 47.14500 27.37000
C  34.79500 51.66100 26.64800
C  35.27600 51.02800 21.84100
C  36.83600 46.44700 22.45100
N  35.65100 49.36400 26.70400
C  36.03200 48.43000 27.69300
C  35.75600 48.90100 29.11900
C  35.00000 50.24500 28.85000
C  35.08000 50.43600 27.32200
C  33.47300 50.37800 29.42100
C  37.05800 49.04900 29.94000
C  37.01900 48.33100 31.32600
H  35.65900 48.56100 32.14800
N  35.27000 51.10400 24.29500
C  34.87400 51.97400 25.29100
C  34.60100 53.19400 24.63100
C  34.77900 53.11200 23.23000
C  35.13000 51.68100 23.06200
C  34.10000 54.37900 25.42600
C  34.68700 54.18000 22.10800
O  34.85700 53.82600 20.96900
C  34.44300 55.56200 22.43200
N  36.22200 48.81900 22.40800
C  35.72300 49.72500 21.54400
C  35.79400 49.16400 20.10500
C  36.72100 47.90000 20.28600
C  36.49600 47.65700 21.78000
C  34.41700 48.85700 19.53400
C  38.19200 48.12100 19.92400
C  38.92100 47.07900 19.16200
N  36.56500 47.25400 24.83200
C  36.79400 46.22400 23.82400
C  37.20200 45.03500 24.56300
C  37.00800 45.31200 25.90900
C  36.68000 46.69100 26.04300
C  37.70700 43.80600 23.91500
C  37.20700 44.80300 27.30700
O  37.58200 43.72100 27.67600
C  36.83600 45.99000 28.33100
C  35.66500 45.48600 29.18800
O  34.48100 45.55500 28.87500
O  36.17600 45.08800 30.34600
C  35.18000 44.69300 31.32400
H  34.45300 52.48600 27.27600
H  34.89000 51.53000 20.95100
H  37.01500 45.58000 21.81200
H  35.00900 48.27200 29.60500
H  35.31100 51.14800 29.37500
H  33.03400 49.46900 29.83300
H  32.81200 50.72700 28.62700
H  33.44500 51.18500 30.15300
H  37.21800 50.09800 30.18700
H  37.86900 48.71600 29.29200
H  37.84300 48.77400 31.88400
H  37.19400 47.29400 31.04000
H  33.66700 55.17500 24.82000
H  34.95500 54.75500 25.98800
H  33.41100 54.00700 26.18400
H  33.41000 55.60100 22.77800
H  34.54300 56.21500 21.56500
H  35.11300 55.98700 23.18000
H  36.22700 49.96200 19.50200
H  36.38500 46.96900 19.82800
H  34.02200 49.82600 19.23100
H  33.70400 48.39700 20.21800
H  34.57900 48.36600 18.57500
H  38.70900 48.37500 20.85000
H  38.26300 49.07700 19.40600
H  38.21500 46.54200 18.52900
H  39.33500 46.39700 19.90400
H  39.72000 47.52500 18.57000
H  36.87200 43.17200 23.61800
H  38.37400 43.25900 24.58200
H  38.17200 44.11600 22.97900
H  37.68800 46.09900 29.00200
H  35.53300 44.85500 32.34300
H  34.87800 43.66500 31.12600
H  34.28800 45.30300 31.18400

