158

Mg 2.59600 -1.11800 43.93600
C  6.08100 -0.31100 43.78300
C  1.93600 1.85100 42.50100
C  -0.51200 -2.24800 43.46300
C  3.62700 -4.22400 44.98200
N  3.93500 0.46200 43.20300
C  5.22600 0.67100 43.27300
C  5.72500 1.97900 42.66800
C  4.36400 2.76800 42.62200
C  3.31000 1.61500 42.81600
C  4.08600 4.12600 43.45600
C  6.42800 1.78100 41.31600
C  7.74800 2.58900 41.08100
H  8.24800 2.57700 39.64200
N  0.96600 -0.31100 43.10700
C  0.81900 0.93100 42.58100
C  -0.53700 1.25800 42.19500
C  -1.27700 0.04300 42.44900
C  -0.27000 -0.90200 43.04800
C  -0.93300 2.55900 41.50000
C  -2.70700 -0.07500 42.10400
O  -3.29100 0.70900 41.41000
C  -3.43000 -1.33800 42.47900
N  1.73000 -3.04800 44.05700
C  0.41000 -3.26000 43.93300
C  0.05100 -4.79300 44.16200
C  1.36000 -5.29600 44.80400
C  2.31600 -4.14100 44.65600
C  -1.32900 -5.01400 44.90000
C  1.91500 -6.62300 44.25400
C  2.15100 -7.78800 45.23500
N  4.47300 -2.05800 44.33000
C  4.70200 -3.30900 44.85700
C  6.07300 -3.52800 45.12000
C  6.70500 -2.29300 44.66700
C  5.66600 -1.51100 44.24600
C  6.68200 -4.87000 45.62600
C  7.97100 -1.67400 44.52500
O  9.10400 -2.10500 44.72700
C  7.64800 -0.25200 43.93400
C  8.01300 0.77100 45.00300
O  7.76100 0.66500 46.18200
O  8.79500 1.77400 44.41100
C  9.05800 2.86600 45.38300
H  1.77700 2.87100 42.14500
H  -1.54500 -2.58600 43.36100
H  4.03500 -5.15900 45.37100
H  6.40600 2.50600 43.33600
H  4.31600 3.21000 41.62700
H  3.09800 3.96300 43.88800
H  3.97800 5.01800 42.83800
H  4.79800 4.23000 44.27500
H  5.71100 1.99200 40.52300
H  6.60500 0.70700 41.25700
H  8.56000 2.17400 41.67900
H  7.61300 3.64600 41.30800
H  -0.62200 2.47600 40.45900
H  -0.61000 3.51000 41.92400
H  -2.01500 2.59000 41.62500
H  -4.50700 -1.26000 42.32600
H  -3.27400 -1.55900 43.53500
H  -3.14700 -2.17400 41.83900
H  -0.01500 -5.24200 43.17100
H  1.19100 -5.45100 45.87000
H  -2.10300 -4.32400 44.56200
H  -1.08600 -4.90900 45.95700
H  -1.53400 -6.05100 44.63700
H  2.83400 -6.43300 43.70000
H  1.14800 -7.02000 43.58900
H  3.18900 -8.11100 45.15400
H  1.58600 -8.64600 44.87100
H  1.81500 -7.66900 46.26500
H  6.77100 -5.73400 44.96600
H  6.16700 -5.10400 46.55800
H  7.72900 -4.66200 45.84800
H  8.21400 -0.04400 43.02600
H  8.06600 3.27900 45.56300
H  9.84800 3.53400 45.04000
H  9.47300 2.40100 46.27800
Mg 29.75000 57.76800 40.66200
C  27.05000 55.77200 39.47800
C  31.84300 55.60700 39.11600
C  32.25500 60.01500 40.98800
C  27.49400 60.26000 41.57800
N  29.41200 55.97100 39.44900
C  28.31000 55.25100 39.08400
C  28.57700 53.93200 38.29300
C  30.12400 53.86900 38.48200
C  30.48100 55.23900 39.04400
C  30.69800 52.67900 39.28300
C  28.06900 54.02800 36.78700
C  27.86400 55.35100 36.12600
H  27.03300 55.39000 34.95700
N  31.83700 57.80500 40.22600
C  32.50700 56.70800 39.70500
C  33.92700 56.96700 39.76100
C  34.07500 58.24600 40.41100
C  32.70500 58.76300 40.56300
C  35.02200 55.96600 39.44800
C  35.36500 58.94500 40.63500
O  36.45900 58.45900 40.28500
C  35.45400 60.29300 41.29000
N  29.83000 59.95100 41.13200
C  31.02000 60.55400 41.25500
C  30.80800 62.02900 41.67600
C  29.25100 62.15800 41.92800
C  28.82300 60.71000 41.58100
C  31.69700 62.56500 42.90000
C  28.54300 63.34400 41.13600
C  28.21200 64.59400 41.90800
N  27.70400 57.94300 40.74700
C  26.93500 59.00200 41.16200
C  25.55200 58.58100 41.15200
C  25.55900 57.26500 40.47800
C  26.93500 57.00300 40.24500
C  24.39500 59.49900 41.46300
C  24.69000 56.30300 39.89000
O  23.45500 56.26800 39.74800
C  25.62700 55.27500 39.27100
C  25.38700 53.97600 39.98600
O  26.02600 53.53300 40.95800
O  24.25400 53.38300 39.55500
C  23.95000 52.02600 39.86000
H  32.52100 54.87200 38.67700
H  33.02600 60.78000 41.10300
H  26.68100 60.97500 41.72600
H  28.08800 53.20800 38.94400
H  30.70100 53.86700 37.55800
H  29.96900 51.86800 39.26900
H  30.78000 53.00400 40.32000
H  31.67500 52.40500 38.88400
H  27.17900 53.40600 36.67900
H  28.87200 53.60400 36.18400
H  28.82500 55.77700 35.83900
H  27.48700 56.13000 36.78900
H  35.75900 56.43600 38.79600
H  34.64800 55.06700 38.95900
H  35.67000 55.67900 40.27600
H  35.01500 61.06500 40.65800
H  36.53200 60.41600 41.39400
H  35.04100 60.45400 42.28600
H  31.10600 62.55300 40.76900
H  29.16500 62.27700 43.00800
H  32.63200 62.00500 42.86500
H  31.28800 62.49200 43.90800
H  31.96000 63.60100 42.68100
H  27.74700 62.91100 40.53100
H  29.25400 63.70000 40.39000
H  28.76800 65.45800 41.54300
H  28.49100 64.51500 42.95900
H  27.14900 64.79800 41.78200
H  24.68500 60.18800 42.25600
H  23.49200 58.95300 41.73500
H  24.22000 60.12700 40.58800
H  25.42600 55.17200 38.20500
H  23.17400 51.84100 40.60300
H  24.84300 51.45300 40.11300
H  23.48000 51.61000 38.96900

