158

Mg 47.04000 16.32700 28.94100
C  44.92400 15.57600 31.79500
C  49.16500 17.95300 30.94500
C  48.54600 17.17100 26.23500
C  44.20700 15.00300 27.00700
N  47.04400 16.68100 31.13000
C  46.15400 16.20300 32.13100
C  46.54600 16.67500 33.56400
C  47.82800 17.54300 33.19800
C  48.08100 17.38200 31.73600
C  47.72700 19.05900 33.51300
C  46.78200 15.41100 34.47800
C  46.50200 15.60400 36.01800
H  46.58800 16.99700 36.76800
N  48.73200 17.34000 28.65200
C  49.57100 17.90100 29.57200
C  50.75700 18.47600 28.96000
C  50.46000 18.34700 27.60200
C  49.15000 17.69000 27.43400
C  51.95600 19.09500 29.69000
C  51.37900 18.74700 26.41500
O  51.09800 18.48600 25.21300
C  52.58300 19.67300 26.69500
N  46.42200 16.10200 26.95300
C  47.35200 16.49000 26.01600
C  46.84900 16.26200 24.55300
C  45.57800 15.44000 24.82200
C  45.43400 15.46500 26.38700
C  46.55800 17.60800 23.77400
C  45.54900 14.00300 24.28700
C  44.30500 13.67300 23.40100
N  45.00200 15.50800 29.24800
C  44.02700 15.03800 28.33800
C  42.88200 14.60600 29.05300
C  43.17100 14.82300 30.41900
C  44.54500 15.29200 30.45300
C  41.63600 14.00600 28.52100
C  42.63600 14.60400 31.79200
O  41.63900 14.07700 32.28400
C  43.71600 15.24500 32.69100
C  43.10700 16.53500 33.16400
O  42.95200 17.56500 32.51100
O  43.01300 16.54200 34.53700
C  42.50200 17.71900 35.24100
H  49.91900 18.43800 31.56900
H  49.01600 17.45400 25.29000
H  43.50200 14.57100 26.29300
H  45.77800 17.36000 33.92400
H  48.71600 17.22700 33.74400
H  48.14200 19.70300 32.73700
H  48.23100 19.32600 34.44200
H  46.72000 19.38100 33.77700
H  47.80600 15.14900 34.21300
H  46.09500 14.60400 34.22100
H  47.18200 14.91500 36.52000
H  45.49500 15.23700 36.21600
H  51.96100 20.16700 29.49500
H  52.91000 18.70200 29.33800
H  51.94700 18.97900 30.77400
H  52.86300 19.92300 25.67200
H  53.29200 18.97400 27.13900
H  52.44200 20.53400 27.34900
H  47.56400 15.68600 23.96500
H  44.61700 15.82900 24.48500
H  45.49200 17.83200 23.76300
H  46.96200 17.49300 22.76800
H  47.04100 18.35100 24.40900
H  45.57900 13.36400 25.17000
H  46.44300 13.91700 23.67100
H  44.58800 12.83600 22.76300
H  43.99300 14.36100 22.61500
H  43.39800 13.63700 24.00500
H  41.41700 14.60800 27.63900
H  40.81400 14.03500 29.23500
H  41.86800 12.97400 28.25800
H  43.79400 14.67300 33.61500
H  41.54300 17.36900 35.62300
H  42.14600 18.56000 34.64500
H  43.21400 18.03300 36.00400
Mg 41.87900 41.16100 26.63000
C  41.17400 43.58700 29.06300
C  42.77500 39.03700 29.07300
C  42.93100 39.07800 24.21600
C  41.10000 43.61200 24.33600
N  42.05800 41.32400 28.84400
C  41.51800 42.26100 29.56200
C  41.40500 41.90800 31.06300
C  41.93700 40.39300 31.05600
C  42.30900 40.24500 29.54600
C  42.95000 39.89000 32.07500
C  39.86800 41.94600 31.57800
C  39.55600 41.43700 33.03400
H  38.70700 42.35800 33.92900
N  42.83100 39.29700 26.62800
C  43.13600 38.51200 27.73900
C  43.72200 37.27400 27.38500
C  43.72600 37.25900 25.95600
C  43.21600 38.59800 25.51700
C  43.94700 36.11000 28.38900
C  44.30000 36.19900 24.96500
O  44.33700 36.40500 23.71600
C  44.59700 34.85000 25.47200
N  41.88800 41.29900 24.63100
C  42.46100 40.29200 23.82200
C  42.41100 40.65800 22.31300
C  41.47300 41.98700 22.41300
C  41.54300 42.34800 23.87000
C  43.71500 40.92500 21.47300
C  39.92900 41.88100 22.03400
C  39.11200 40.69000 22.57900
N  41.24700 43.20800 26.60400
C  41.12100 44.08800 25.63100
C  40.88900 45.40200 26.08800
C  40.83900 45.24900 27.49600
C  41.06100 43.90200 27.71200
C  40.81300 46.65700 25.26000
C  40.71200 45.93800 28.70600
O  40.54700 47.12700 28.94600
C  40.85800 44.86900 29.79900
C  41.75100 45.29300 30.89100
O  42.90500 45.06800 31.05400
O  41.06800 46.14500 31.72500
C  41.79900 46.81100 32.79100
H  43.09000 38.34400 29.85700
H  43.19400 38.42300 23.38300
H  40.76000 44.25100 23.51800
H  41.95300 42.48100 31.80900
H  41.04600 39.77600 31.17400
H  43.12900 40.63500 32.85000
H  43.95000 39.88600 31.64000
H  42.64100 38.92100 32.46800
H  39.18200 41.36400 30.96300
H  39.36900 42.91500 31.53400
H  40.47200 41.20100 33.57500
H  38.99800 40.51800 32.85100
H  43.86100 36.35600 29.44800
H  44.92100 35.67700 28.16400
H  43.20800 35.34900 28.13800
H  43.69700 34.41100 25.90400
H  45.40300 34.87500 26.20500
H  44.92700 34.24600 24.62700
H  42.11800 39.81400 21.69000
H  41.96300 42.84200 21.94700
H  43.85200 40.07000 20.81100
H  44.59800 41.00000 22.10800
H  43.61600 41.87600 20.95000
H  40.01300 41.71100 20.96000
H  39.51800 42.85400 22.30400
H  38.32100 41.09900 23.20700
H  39.80200 40.18200 23.25300
H  38.71800 40.26900 21.65400
H  40.13400 46.49000 24.42400
H  41.79000 46.98800 24.90900
H  40.35200 47.48200 25.80300
H  39.86800 44.74700 30.24000
H  41.45700 47.84500 32.84200
H  42.87500 46.87400 32.62500
H  41.53600 46.42800 33.77700

