158

Mg 30.71500 58.71200 40.23400
C  28.00900 56.86800 39.18500
C  32.92600 56.22800 39.10700
C  33.22500 60.77700 40.70100
C  28.31600 61.32400 41.13500
N  30.51000 56.88900 39.23000
C  29.29200 56.31800 38.98300
C  29.46600 54.94600 38.31000
C  30.95100 54.58100 38.58300
C  31.51200 55.98100 38.90500
C  31.21400 53.56700 39.74200
C  29.22500 55.00700 36.73200
C  28.12600 54.13200 36.23400
H  27.69600 54.30000 34.77200
N  32.87700 58.50200 39.89600
C  33.54400 57.47700 39.36600
C  34.97500 57.73500 39.48600
C  35.09600 59.02200 40.06700
C  33.68400 59.52200 40.20800
C  36.02300 56.67000 39.18000
C  36.37700 59.62900 40.62500
O  37.47000 59.10900 40.37900
C  36.57100 61.00000 41.48400
N  30.71500 60.82000 40.73800
C  31.95900 61.35000 40.97900
C  31.82300 62.82100 41.42500
C  30.26900 62.93600 41.82500
C  29.67100 61.64400 41.12700
C  32.80100 63.29900 42.57000
C  29.50900 64.17400 41.39700
C  28.52700 64.58400 42.51300
N  28.53500 59.07800 40.23200
C  27.76300 60.09700 40.69000
C  26.36100 59.77700 40.57800
C  26.35500 58.49700 39.95500
C  27.72800 58.13700 39.81500
C  25.21400 60.65000 40.82300
C  25.52200 57.39400 39.43100
O  24.34600 57.14900 39.27000
C  26.65600 56.31300 38.95000
C  26.40200 55.00100 39.71400
O  26.90800 54.62800 40.76800
O  25.39800 54.37300 39.13500
C  25.19400 52.98400 39.61000
H  33.47800 55.29300 38.98700
H  34.08300 61.44500 40.80100
H  27.69400 62.10600 41.57400
H  28.76400 54.22300 38.72400
H  31.48800 54.16100 37.73200
H  30.40600 52.90200 40.04700
H  31.54900 54.17200 40.58500
H  31.96200 52.85700 39.39100
H  30.07900 54.77100 36.09600
H  28.96600 56.04000 36.49900
H  27.17600 54.28200 36.74600
H  28.38500 53.08800 36.41300
H  37.00300 57.14200 39.10400
H  35.83500 56.12000 38.25700
H  36.12200 56.02400 40.05200
H  35.63600 61.01000 42.04400
H  36.71000 61.89900 40.88400
H  37.33100 60.89000 42.25800
H  31.89600 63.35400 40.47700
H  30.38400 62.81100 42.90200
H  33.68500 63.73800 42.10800
H  33.01600 62.42100 43.17900
H  32.16600 64.03300 43.06800
H  28.89000 64.08400 40.50400
H  30.23000 64.98900 41.34700
H  28.71900 65.60500 42.84300
H  28.43700 63.89500 43.35300
H  27.55600 64.62500 42.02000
H  25.45200 61.61800 41.26400
H  24.49100 60.19400 41.50000
H  24.66700 60.84900 39.90200
H  26.42700 56.15800 37.89600
H  24.35800 52.64900 38.99700
H  24.80800 52.93000 40.62800
H  25.99800 52.28000 39.39400
Mg -5.88400 25.33100 25.52800
C  -4.13200 26.88700 28.27900
C  -7.21100 23.21300 27.67700
C  -6.73800 23.53500 22.82100
C  -3.55600 27.22500 23.42400
N  -5.61300 25.03600 27.85800
C  -5.05900 25.91600 28.73600
C  -5.55600 25.73700 30.12200
C  -6.35000 24.39200 29.95100
C  -6.42100 24.18400 28.40800
C  -5.75800 23.25700 30.85400
C  -6.38500 26.92200 30.70000
C  -6.36400 27.10900 32.22100
H  -5.76200 25.99500 33.11000
N  -7.07700 23.74300 25.26500
C  -7.39300 22.86800 26.32600
C  -8.14600 21.81700 25.72800
C  -8.09900 21.86400 24.33800
C  -7.28500 23.05400 24.04800
C  -8.83700 20.76900 26.53700
C  -8.61000 20.99600 23.24700
O  -8.59100 21.26700 22.07600
C  -9.28100 19.68800 23.70400
N  -5.25500 25.40700 23.45300
C  -5.91000 24.61300 22.54100
C  -5.33000 24.88300 21.12600
C  -4.42000 26.15800 21.26100
C  -4.43000 26.29000 22.80500
C  -4.80800 23.69700 20.30600
C  -4.81900 27.36600 20.39100
C  -4.09200 27.53400 19.05500
N  -4.27000 26.89900 25.69200
C  -3.47300 27.55800 24.77900
C  -2.57600 28.45200 25.48300
C  -2.82100 28.22700 26.84000
C  -3.79800 27.31700 26.91700
C  -1.56600 29.42200 24.94400
C  -2.39000 28.54800 28.18600
O  -1.52900 29.36000 28.50400
C  -3.27100 27.64700 29.17300
C  -2.31700 26.75400 29.93600
O  -1.61000 25.85300 29.45600
O  -2.34000 27.09900 31.30400
C  -1.48500 26.33700 32.14100
H  -7.59700 22.58300 28.48000
H  -7.04200 22.94800 21.95100
H  -2.88300 27.70700 22.71300
H  -4.71800 25.56400 30.79700
H  -7.42100 24.54500 30.07700
H  -5.50800 22.42100 30.20100
H  -6.55000 23.07100 31.57900
H  -4.82100 23.54100 31.33400
H  -7.46500 26.78300 30.64200
H  -6.11000 27.85600 30.21000
H  -7.42100 27.14500 32.48400
H  -5.88900 28.07400 32.39600
H  -9.88200 20.87500 26.24400
H  -8.97600 21.01400 27.59000
H  -8.35500 19.80100 26.40000
H  -9.42600 19.12200 22.78400
H  -10.24400 19.92600 24.15600
H  -8.65400 19.23300 24.47100
H  -6.23700 25.10900 20.56600
H  -3.41000 25.81100 21.04400
H  -4.96700 22.74000 20.80300
H  -3.76200 23.70300 20.00200
H  -5.34500 23.71600 19.35800
H  -4.62800 28.32000 20.88300
H  -5.90000 27.42200 20.26400
H  -4.81500 27.67300 18.25100
H  -3.44000 26.67700 18.88400
H  -3.51700 28.43600 19.26500
H  -2.14200 30.22400 24.48200
H  -0.86100 28.83800 24.35200
H  -1.05000 29.85900 25.79900
H  -3.77700 28.34700 29.83700
H  -0.51700 26.43900 31.65000
H  -1.71800 25.27400 32.20200
H  -1.33900 26.78300 33.12500

