158

Mg 25.78100 0.97300 28.65600
C  27.65500 0.67800 31.58800
C  23.07000 1.69000 30.63700
C  23.97100 1.19400 25.86300
C  28.50300 -0.12600 26.81200
N  25.42000 1.08900 30.89600
C  26.34800 0.96200 31.87100
C  25.76400 1.21700 33.32300
C  24.28100 1.59700 32.97600
C  24.22100 1.44500 31.39500
C  23.31300 0.78200 33.90700
C  26.46300 2.36400 34.13200
C  25.85600 2.76600 35.46200
H  26.51200 2.18100 36.69500
N  23.78400 1.33300 28.32000
C  22.84200 1.66000 29.29000
C  21.60300 1.92700 28.58800
C  21.86900 1.86200 27.20700
C  23.25600 1.40800 27.04100
C  20.26000 2.31300 29.30500
C  20.93400 2.30600 26.08600
O  21.19800 2.05400 24.92400
C  19.67200 3.06000 26.42600
N  26.15300 0.43600 26.71300
C  25.29100 0.77600 25.78700
C  25.90600 0.54000 24.39900
C  27.37000 0.16000 24.67800
C  27.36000 0.18400 26.15800
C  25.26000 -0.41600 23.42600
C  28.33600 1.21700 23.97300
C  28.77300 2.50700 24.67500
N  27.68400 0.45600 29.03400
C  28.64500 -0.00100 28.18600
C  29.82300 -0.30800 28.89600
C  29.57100 0.01900 30.26000
C  28.20100 0.38900 30.27900
C  31.10600 -0.81600 28.26900
C  30.11200 0.11700 31.62900
O  31.24600 -0.08500 32.02200
C  28.87300 0.48000 32.55900
C  28.60300 -0.59300 33.53700
O  27.82000 -1.53800 33.40000
O  29.47200 -0.59300 34.58300
C  29.69200 -1.82900 35.40300
H  22.22400 2.01200 31.24900
H  23.46800 1.17700 24.89400
H  29.25500 -0.54100 26.13700
H  25.83200 0.30400 33.91500
H  24.06800 2.63000 33.25100
H  23.11600 1.21500 34.88700
H  23.75900 -0.20600 34.02300
H  22.34400 0.59700 33.44300
H  26.64000 3.15900 33.40800
H  27.45700 1.99100 34.37700
H  24.79900 2.53900 35.32100
H  25.94600 3.84000 35.62700
H  20.24100 2.13700 30.38100
H  19.48300 1.67100 28.89000
H  20.09200 3.36500 29.07400
H  19.79800 4.02100 26.92600
H  19.02500 2.33700 26.92300
H  19.24400 3.32900 25.46100
H  25.77400 1.48600 23.87300
H  27.64800 -0.82800 24.31100
H  24.67100 -1.10500 24.03100
H  25.92400 -0.96800 22.76000
H  24.62500 0.11200 22.71500
H  27.99400 1.50500 22.97900
H  29.27900 0.71300 23.75900
H  28.10300 2.88200 25.44900
H  28.91900 3.32200 23.96700
H  29.75200 2.30000 25.11000
H  31.76600 -0.04400 27.87500
H  30.88900 -1.55600 27.49800
H  31.66900 -1.27100 29.08400
H  29.20800 1.45400 32.91700
H  28.96600 -1.98300 36.20100
H  30.64600 -1.80700 35.93000
H  29.57900 -2.64200 34.68600
Mg -9.97200 40.27500 38.91900
C  -8.94000 36.89000 38.12300
C  -6.86500 41.36800 37.95000
C  -11.31500 43.34300 38.83500
C  -13.29300 38.91000 39.32300
N  -8.18300 39.19000 37.96500
C  -7.92300 37.86700 37.95700
C  -6.43300 37.63900 37.72200
C  -5.79400 39.08200 37.84700
C  -7.05500 39.95500 38.06100
C  -4.88200 39.20500 39.10600
C  -6.15900 36.95500 36.36500
C  -6.71500 37.79100 35.17900
H  -7.81000 37.10500 34.27300
N  -9.18100 42.01000 38.45800
C  -7.87400 42.35600 38.14400
C  -7.73900 43.72000 37.82100
C  -9.03500 44.30500 37.90200
C  -9.91300 43.22600 38.39200
C  -6.47500 44.39900 37.34100
C  -9.41100 45.68100 37.38600
O  -8.57300 46.49800 36.98600
C  -10.83800 46.11500 37.31700
N  -11.99400 41.01600 39.15400
C  -12.22100 42.37500 39.10300
C  -13.75100 42.61200 39.21100
C  -14.34300 41.20500 39.55200
C  -13.18500 40.30200 39.35800
C  -14.05800 43.62700 40.26200
C  -15.68900 40.71300 38.89400
C  -16.66600 39.96300 39.85000
N  -10.95600 38.31300 38.86000
C  -12.26300 37.95900 39.11300
C  -12.38700 36.54700 39.00500
C  -11.10400 36.05100 38.72400
C  -10.31700 37.19100 38.52500
C  -13.68400 35.70200 39.20800
C  -10.31700 34.87400 38.41800
O  -10.56100 33.68400 38.44700
C  -8.89300 35.34600 38.02500
C  -7.86700 34.88200 39.11000
O  -8.00200 34.88100 40.30900
O  -6.79800 34.29000 38.39800
C  -5.76500 33.61100 39.21400
H  -5.85300 41.70900 37.72300
H  -11.78500 44.32500 38.91500
H  -14.27600 38.53500 39.61600
H  -6.05100 37.01200 38.52800
H  -5.18400 39.43400 37.01500
H  -4.79400 38.31400 39.72900
H  -5.28100 39.96100 39.78100
H  -3.88300 39.54200 38.82900
H  -6.64600 35.98000 36.32700
H  -5.09600 36.90900 36.13100
H  -5.80400 38.02700 34.62800
H  -7.07400 38.75700 35.53600
H  -6.55600 44.52200 36.26100
H  -5.60600 43.75200 37.46200
H  -6.11700 45.28900 37.85900
H  -11.22000 46.46800 38.27500
H  -11.52800 45.32600 37.01900
H  -10.86000 46.86500 36.52700
H  -14.16100 42.98600 38.27300
H  -14.37700 41.10600 40.63700
H  -13.14600 44.08100 40.65000
H  -14.46000 43.11800 41.13800
H  -14.79600 44.33900 39.89300
H  -15.59300 40.09300 38.00300
H  -16.26000 41.57200 38.54200
H  -16.15600 39.60900 40.74600
H  -16.78800 39.03200 39.29500
H  -17.60900 40.49700 39.96400
H  -14.11600 35.26700 38.30700
H  -14.49400 36.27700 39.65800
H  -13.48500 35.03800 40.05000
H  -8.69900 35.01600 37.00500
H  -5.94700 32.56300 39.45300
H  -5.81500 33.99400 40.23300
H  -4.71000 33.75900 38.98500

