158

Mg 2.24500 -2.15400 45.38000
C  5.76300 -1.62800 44.87300
C  1.52400 0.32600 43.31600
C  -1.04600 -3.25600 45.25300
C  3.01500 -4.86900 47.31000
N  3.59500 -0.83200 44.18000
C  4.99500 -0.74800 44.12000
C  5.42900 0.34200 43.07200
C  4.07400 1.12200 42.89300
C  2.91200 0.21300 43.57200
C  4.04600 2.58000 43.37000
C  5.93000 -0.32100 41.78700
C  7.36600 -0.01000 41.34600
H  7.80800 0.33600 39.94100
N  0.43600 -1.52700 44.38400
C  0.38900 -0.45200 43.61000
C  -0.99600 -0.15100 43.31300
C  -1.81300 -1.11400 43.94300
C  -0.81900 -2.07700 44.56800
C  -1.45400 0.96100 42.41700
C  -3.27500 -0.95800 44.12600
O  -3.88000 -0.00100 43.64800
C  -4.01300 -2.03500 44.90800
N  1.07600 -3.87400 46.18900
C  -0.26000 -3.99400 46.10500
C  -0.76500 -5.25500 46.88900
C  0.57600 -5.62800 47.65300
C  1.64000 -4.82800 46.95000
C  -2.08000 -5.01800 47.76400
C  0.90400 -7.22400 47.73900
C  1.64100 -7.61200 48.97100
N  3.97600 -3.00100 46.03000
C  4.12700 -4.15700 46.80100
C  5.57500 -4.36700 47.04700
C  6.23800 -3.37900 46.35600
C  5.24200 -2.59400 45.76100
C  6.16300 -5.46800 47.90100
C  7.51300 -2.81900 46.13800
O  8.63800 -3.26400 46.45000
C  7.23000 -1.64300 45.13200
C  7.75100 -0.35200 45.68100
O  7.43800 0.12000 46.77300
O  8.44300 0.21600 44.66700
C  8.79700 1.63100 44.92600
H  1.43700 1.26900 42.77200
H  -2.07500 -3.62200 45.22900
H  3.26100 -5.59200 48.09000
H  6.21400 0.86500 43.61800
H  3.74900 1.10600 41.85200
H  4.99000 2.89600 43.81500
H  3.28500 2.78300 44.12300
H  3.87300 3.06600 42.40900
H  5.31500 -0.04900 40.93000
H  5.81600 -1.40000 41.88300
H  7.95500 -0.86800 41.67300
H  7.63900 0.91900 41.84600
H  -2.21100 0.65800 41.69500
H  -0.62100 1.20900 41.75900
H  -1.84300 1.83100 42.94600
H  -3.34100 -2.27900 45.73100
H  -4.15100 -2.85700 44.20600
H  -4.91000 -1.47600 45.17500
H  -1.10100 -6.09600 46.28200
H  0.58400 -5.13300 48.62400
H  -2.91400 -5.58800 47.35500
H  -2.09100 -3.92900 47.71000
H  -2.01800 -5.29700 48.81600
H  1.42900 -7.58600 46.85500
H  0.07000 -7.92100 47.65500
H  1.03700 -8.36000 49.48400
H  1.70600 -6.73500 49.61400
H  2.60700 -8.06900 48.75200
H  6.25300 -6.42200 47.38300
H  5.58900 -5.58600 48.82000
H  7.22100 -5.24900 48.04200
H  7.84000 -1.86100 44.25500
H  9.64700 1.63500 45.60900
H  7.90700 2.11700 45.32400
H  9.02800 2.09200 43.96500
Mg 30.11300 58.16900 39.98000
C  27.37300 56.24900 39.13800
C  32.12000 55.52600 38.97800
C  32.80500 60.16500 40.06700
C  27.96300 60.95100 40.08900
N  29.77100 56.08700 39.37200
C  28.56300 55.49400 39.03500
C  28.75600 54.02000 38.75100
C  30.12900 53.68300 39.33200
C  30.79100 55.18100 39.23500
C  30.16700 53.07500 40.76200
C  28.70600 53.67000 37.21100
C  27.62600 52.64900 36.62100
H  26.73500 53.35900 35.60100
N  32.19100 57.90000 39.46200
C  32.80600 56.77700 39.09200
C  34.20100 56.94200 39.00500
C  34.47000 58.29000 39.43200
C  33.13000 58.94400 39.59400
C  35.05400 55.83500 38.60700
C  35.83300 58.86800 39.63400
O  36.79700 58.14600 39.37500
C  36.01600 60.27600 40.16200
N  30.32300 60.36800 39.88400
C  31.59200 60.87400 40.18600
C  31.38800 62.32100 40.59900
C  29.81700 62.46500 40.74700
C  29.28300 61.17200 40.15100
C  32.11300 62.83100 41.91400
C  29.15200 63.65700 39.97600
C  28.50700 64.67100 40.85300
N  28.03300 58.53000 39.89200
C  27.35800 59.71600 39.89700
C  25.94800 59.37400 39.87600
C  25.89500 57.96300 39.59300
C  27.20500 57.58600 39.50200
C  24.89200 60.38800 40.02700
C  25.05600 56.87300 39.32100
O  23.85400 56.79600 39.30200
C  26.02900 55.68900 38.98700
C  25.60100 54.48000 39.71100
O  26.01900 54.11800 40.81200
O  24.81500 53.61900 38.91700
C  24.31600 52.36100 39.48500
H  32.67900 54.61900 38.74200
H  33.65200 60.81900 40.28700
H  27.27900 61.73400 40.42200
H  28.02200 53.43000 39.30100
H  30.63700 53.10200 38.56300
H  29.24700 53.40500 41.24400
H  31.05000 53.50700 41.23400
H  30.31600 51.99500 40.75300
H  29.63400 53.35800 36.73100
H  28.52000 54.60800 36.68700
H  26.89900 52.30500 37.35700
H  28.21000 51.84600 36.17200
H  35.28000 55.32200 39.54200
H  35.95300 56.21900 38.12500
H  34.55100 55.02400 38.08000
H  35.57900 60.60100 41.10500
H  35.98900 60.92500 39.28700
H  37.09400 60.22600 40.31900
H  31.69300 62.87700 39.71300
H  29.51100 62.54700 41.79000
H  32.31800 61.93000 42.49300
H  31.47200 63.55400 42.42000
H  33.04400 63.34100 41.66500
H  28.30100 63.35500 39.36600
H  29.91500 64.19600 39.41300
H  28.24500 64.44600 41.88700
H  27.60600 64.92700 40.29500
H  29.17400 65.52500 40.96700
H  23.96200 59.84900 39.84200
H  25.02800 61.14900 39.25900
H  24.95400 60.90400 40.98500
H  25.87800 55.31700 37.97400
H  24.17400 51.63600 38.68300
H  23.38800 52.49400 40.04200
H  25.00600 51.93600 40.21300

