158

Mg 24.89200 -6.51500 47.94900
C  27.31700 -4.32400 46.81800
C  22.64600 -5.23600 45.60700
C  22.96500 -9.15200 48.69100
C  27.48700 -8.06300 50.12100
N  25.00800 -4.90200 46.52100
C  26.06900 -4.12400 46.17600
C  25.68700 -3.12800 45.09600
C  24.17800 -3.34900 44.85200
C  23.89500 -4.54600 45.76700
C  23.24400 -2.07700 45.05400
C  26.57900 -3.22400 43.78700
C  27.39800 -1.99400 43.31700
H  27.01500 -1.50100 41.89400
N  22.98600 -7.04600 47.24500
C  22.24800 -6.40400 46.35700
C  20.97600 -7.10000 46.29700
C  21.04500 -8.28600 47.10100
C  22.37200 -8.20200 47.73000
C  19.89500 -6.60000 45.36700
C  19.87700 -9.33300 47.29400
O  18.89200 -9.34200 46.57200
C  19.98600 -10.50500 48.31500
N  25.14700 -8.26500 49.27900
C  24.15600 -9.10900 49.41200
C  24.35000 -10.23300 50.44000
C  25.77800 -9.85600 50.94900
C  26.19500 -8.66700 50.06700
C  23.24500 -10.37400 51.49900
C  26.74000 -11.10500 50.95800
C  27.10000 -11.57400 52.36600
N  26.99000 -6.30100 48.45200
C  27.81700 -6.92100 49.35900
C  29.06800 -6.15900 49.36000
C  28.90900 -5.13600 48.41700
C  27.66500 -5.31700 47.80300
C  30.40200 -6.54800 50.18800
C  29.55500 -3.96100 47.86300
O  30.67000 -3.51300 48.07300
C  28.55700 -3.47900 46.77500
C  28.19100 -2.04700 47.18800
O  27.41600 -1.77200 48.06900
O  28.91700 -1.12700 46.38100
C  28.59300 0.28700 46.72300
H  22.02000 -4.91300 44.77300
H  22.34600 -10.01000 48.96400
H  28.24600 -8.36200 50.84700
H  25.74400 -2.17700 45.62600
H  23.96500 -3.70400 43.84400
H  23.25500 -1.54500 44.10300
H  23.70900 -1.44300 45.80900
H  22.23100 -2.26700 45.40800
H  25.85200 -3.34200 42.98400
H  27.07900 -4.19100 43.73100
H  28.46000 -2.24100 43.31100
H  27.24200 -1.15000 43.98900
H  19.93600 -5.51000 45.38800
H  18.91400 -6.91000 45.72600
H  20.16600 -6.93400 44.36600
H  20.67100 -11.19000 47.81500
H  18.95700 -10.86600 48.29800
H  20.27500 -10.11400 49.29100
H  24.34100 -11.16100 49.86900
H  25.51900 -9.42000 51.91400
H  23.66300 -10.30000 52.50200
H  22.70400 -11.32100 51.52200
H  22.48200 -9.60200 51.39200
H  27.60200 -10.88600 50.32900
H  26.18200 -11.90000 50.46400
H  26.80600 -10.97300 53.22600
H  28.18200 -11.55100 52.49300
H  26.84700 -12.62300 52.52000
H  30.26100 -6.14200 51.18900
H  31.26300 -6.24200 49.59300
H  30.45900 -7.63500 50.22700
H  28.95200 -3.42900 45.76000
H  28.84200 0.31600 47.78400
H  27.51200 0.40800 46.66000
H  29.00600 0.96300 45.97500
Mg -5.39400 25.20600 25.96000
C  -3.61200 26.90500 28.37700
C  -6.92300 23.39800 28.54200
C  -7.07500 23.48000 23.73600
C  -3.32800 26.64000 23.60000
N  -5.28900 25.18200 28.18900
C  -4.50100 26.00600 28.95500
C  -4.82600 25.81800 30.50800
C  -5.74800 24.50900 30.53600
C  -5.96800 24.29000 28.97400
C  -5.20600 23.27600 31.26000
C  -5.47300 27.18700 31.13000
C  -5.97000 27.43400 32.59200
H  -5.67900 26.29100 33.68400
N  -6.84800 23.64500 26.14600
C  -7.34700 23.07100 27.25400
C  -8.34300 22.11600 26.93900
C  -8.39100 22.10200 25.48300
C  -7.42900 23.13200 25.05300
C  -9.23800 21.44000 27.98500
C  -9.22200 21.14800 24.61600
O  -9.18300 21.27000 23.39700
C  -10.02000 20.08800 25.17000
N  -5.18800 24.85200 24.00000
C  -6.09400 24.29400 23.26500
C  -5.75300 24.54200 21.75400
C  -4.80400 25.73900 21.81200
C  -4.39700 25.74900 23.24900
C  -5.21400 23.30600 21.07600
C  -5.47800 27.01100 21.37700
C  -4.73600 28.02900 20.52600
N  -3.86700 26.66100 25.88200
C  -3.01100 27.01900 24.90200
C  -1.98100 27.95100 25.36800
C  -2.19600 27.93900 26.77900
C  -3.32600 27.08800 26.98200
C  -0.96200 28.66600 24.56300
C  -1.75500 28.42200 28.06200
O  -0.93700 29.20600 28.51500
C  -2.63900 27.77700 29.13900
C  -1.71100 26.98200 30.09800
O  -1.03100 26.01700 29.86600
O  -1.75700 27.54700 31.32100
C  -1.41500 26.71300 32.46400
H  -7.36900 22.81100 29.34800
H  -7.85500 23.14300 23.05000
H  -2.64600 27.05200 22.85400
H  -3.82400 25.70600 30.92100
H  -6.59300 24.86300 31.12600
H  -4.99400 22.53000 30.49500
H  -6.00900 22.90200 31.89500
H  -4.31300 23.54700 31.82400
H  -6.28100 27.31100 30.40900
H  -4.65700 27.86400 30.87500
H  -7.05100 27.55000 32.51900
H  -5.43200 28.31400 32.94400
H  -9.99700 22.21500 28.08800
H  -8.75500 21.31600 28.95500
H  -9.50700 20.42100 27.70600
H  -10.83900 20.50600 25.75500
H  -9.33200 19.44500 25.71900
H  -10.44100 19.48600 24.36400
H  -6.70700 24.70600 21.25300
H  -3.89300 25.56300 21.24000
H  -4.30000 23.59000 20.55500
H  -5.96900 22.94500 20.37800
H  -4.95900 22.55300 21.82200
H  -5.82700 27.40600 22.33100
H  -6.33100 26.70300 20.77200
H  -5.45700 28.42800 19.81200
H  -3.87600 27.68500 19.95100
H  -4.35000 28.77700 21.21800
H  -0.95400 28.20000 23.57700
H  0.01600 28.46400 24.99900
H  -1.34600 29.68600 24.58800
H  -3.21900 28.50900 29.70000
H  -0.34500 26.88000 32.59300
H  -1.64800 25.65200 32.37300
H  -1.91600 27.10500 33.34900

