158

Mg -0.17000 7.57800 26.29400
C  0.67100 9.60700 28.93300
C  -0.33000 4.96100 28.44600
C  -0.60100 5.48800 23.58900
C  0.76500 10.09800 24.07200
N  0.22300 7.33000 28.51200
C  0.41700 8.33500 29.39200
C  0.31600 7.85300 30.83300
C  0.27500 6.25000 30.67700
C  0.09400 6.11000 29.13200
C  1.45700 5.38500 31.30200
C  -1.00900 8.38700 31.55200
C  -1.06000 8.37500 33.07500
H  0.09200 7.81600 33.86200
N  -0.43500 5.52600 26.07900
C  -0.51300 4.62400 27.10000
C  -0.89800 3.34300 26.65300
C  -0.98800 3.44200 25.24600
C  -0.70000 4.88600 24.87500
C  -1.04100 2.19800 27.56800
C  -1.29400 2.32400 24.23600
O  -1.23400 2.44600 22.98300
C  -1.45000 0.93900 24.72900
N  -0.08900 7.78600 24.12700
C  -0.29600 6.81400 23.24000
C  -0.22200 7.35600 21.79000
C  0.11400 8.85000 21.98800
C  0.31700 8.89100 23.44600
C  0.90800 6.67300 20.85600
C  -0.90900 9.90200 21.54600
C  -2.31300 10.04500 22.17600
N  0.51400 9.52100 26.38300
C  0.88900 10.40000 25.40800
C  1.12700 11.72600 26.05200
C  1.16500 11.39200 27.44300
C  0.79700 10.10600 27.57700
C  1.36000 13.10200 25.42500
C  1.32400 12.01300 28.80300
O  1.69900 13.19600 29.04200
C  1.04700 10.83500 29.79400
C  2.06300 10.65200 30.78500
O  3.19300 10.23000 30.55300
O  1.56600 11.00600 31.99400
C  2.56900 11.21800 33.02800
H  -0.50100 4.15100 29.15800
H  -0.80500 4.76500 22.79700
H  0.93800 10.89700 23.34800
H  1.21000 8.19500 31.35400
H  -0.62500 5.71800 30.98600
H  1.84900 4.68900 30.56100
H  0.94700 4.75200 32.02800
H  2.25000 6.04200 31.66000
H  -1.84400 7.80400 31.16400
H  -1.10700 9.45400 31.35000
H  -1.91500 7.87400 33.52900
H  -1.16900 9.42100 33.36100
H  -0.11200 1.62900 27.58000
H  -1.93000 1.64600 27.26200
H  -1.20500 2.44900 28.61600
H  -2.43300 0.99000 25.19700
H  -0.68400 0.78300 25.48800
H  -1.38600 0.24700 23.88900
H  -1.17400 7.20900 21.28000
H  1.06000 9.12800 21.52400
H  1.73500 7.36600 20.69900
H  0.42800 6.47100 19.89900
H  1.32100 5.77500 21.31500
H  -1.19800 9.43900 20.60200
H  -0.50600 10.90800 21.43000
H  -2.36700 11.00900 22.68200
H  -2.36200 9.36500 23.02700
H  -3.07700 9.84200 21.42600
H  2.42200 13.34600 25.46200
H  0.74400 13.80700 25.98300
H  0.99600 13.03000 24.40000
H  0.10300 11.22300 30.17600
H  3.29200 11.92000 32.61400
H  3.17300 10.35600 33.31300
H  2.26500 11.72400 33.94400
Mg 40.46700 9.97200 30.31900
C  42.49400 11.27700 32.83000
C  38.47800 8.58400 32.81500
C  38.93200 8.36600 27.88500
C  42.86600 11.11000 27.93500
N  40.45600 9.95900 32.59300
C  41.33300 10.66500 33.38000
C  40.93000 10.57700 34.89600
C  39.69700 9.57200 34.83600
C  39.53100 9.34200 33.35400
C  39.77200 8.20400 35.64000
C  40.56300 11.96700 35.62200
C  41.33200 12.10700 37.00100
H  40.58300 12.73700 38.15900
N  38.87400 8.73400 30.32500
C  38.10600 8.28300 31.45600
C  37.04500 7.39100 30.98200
C  37.25100 7.27900 29.50100
C  38.40700 8.12400 29.21000
C  36.03900 6.84300 31.94200
C  36.59400 6.45300 28.52200
O  36.81400 6.43100 27.33500
C  35.51800 5.61500 29.04100
N  40.93800 9.68200 28.24100
C  40.13400 8.95200 27.45000
C  40.39100 9.20100 25.97900
C  41.65600 10.12100 26.03800
C  41.89600 10.22800 27.50100
C  40.36500 8.06000 24.88900
C  41.44400 11.55900 25.51600
C  42.63100 12.14500 24.80600
N  42.27900 11.06700 30.30600
C  43.11100 11.36500 29.28000
C  44.21100 12.10200 29.86700
C  43.95900 12.15000 31.24700
C  42.80000 11.44900 31.47500
C  45.33500 12.73900 29.21100
C  44.44800 12.73000 32.52000
O  45.36400 13.52800 32.71100
C  43.47700 12.12200 33.60100
C  44.29200 11.26600 34.42200
O  44.93400 10.32100 34.00700
O  44.14200 11.57500 35.74900
C  44.82300 10.60300 36.61900
H  37.71600 8.17800 33.48300
H  38.41800 7.92200 27.03000
H  43.63600 11.50000 27.26600
H  41.72900 10.06100 35.43000
H  38.81300 10.15400 35.09900
H  38.77900 8.11200 36.08100
H  40.55500 8.37900 36.37900
H  40.01100 7.31200 35.06200
H  39.49200 12.12600 35.73900
H  40.84300 12.69300 34.85800
H  42.16500 12.76200 36.74800
H  41.81700 11.15700 37.23000
H  35.16500 7.48700 32.03000
H  36.45200 6.65500 32.93300
H  35.74900 5.81300 31.73400
H  36.00600 4.80300 29.58100
H  34.89500 5.25900 28.22100
H  34.92300 6.31600 29.62600
H  39.55300 9.85300 25.73300
H  42.50800 9.62500 25.57200
H  40.20000 7.11000 25.39800
H  41.27700 7.98300 24.29700
H  39.56500 8.18200 24.16000
H  41.16800 12.23600 26.32400
H  40.70100 11.53700 24.71900
H  42.82200 13.13500 25.22100
H  42.39900 12.26900 23.74800
H  43.56900 11.59300 24.85600
H  45.11100 12.81400 28.14700
H  46.27100 12.17900 29.23100
H  45.46500 13.73900 29.62500
H  43.01900 12.87200 34.24600
H  45.91100 10.62500 36.55900
H  44.47400 9.57200 36.54700
H  44.59400 10.94500 37.62800

