158

Mg 55.32500 22.09500 44.39900
C  53.02500 24.88500 43.70900
C  53.09300 19.97700 43.09700
C  57.81300 19.79200 43.95700
C  57.72700 24.57300 45.18900
N  53.30700 22.47600 43.39400
C  52.50000 23.55700 43.29500
C  51.12100 23.17000 42.75700
C  51.14600 21.61600 42.90900
C  52.59400 21.31900 43.16100
C  50.22100 21.13400 44.06400
C  50.92100 23.65300 41.26200
C  52.10600 23.86400 40.34800
H  51.92400 24.85700 39.20700
N  55.46700 20.15900 43.63300
C  54.35600 19.43200 43.25000
C  54.74100 17.99900 43.14200
C  56.08700 17.94800 43.54100
C  56.57000 19.28100 43.67200
C  53.70800 16.89700 42.88000
C  56.85700 16.64100 43.62500
O  56.21900 15.62400 43.54900
C  58.33400 16.43700 43.84400
N  57.49300 22.20000 44.38500
C  58.24200 21.09000 44.20800
C  59.70700 21.42600 44.57400
C  59.68500 22.95200 44.89700
C  58.19400 23.29500 44.80800
C  60.31800 20.56700 45.70200
C  60.47200 23.91600 43.91400
C  61.82200 24.29400 44.39200
N  55.37900 24.25200 44.59300
C  56.45100 25.06300 45.03300
C  55.94100 26.43300 45.17200
C  54.62200 26.44600 44.55900
C  54.33000 25.08300 44.26600
C  56.81700 27.61600 45.49700
C  53.49900 27.27000 44.20100
O  53.29700 28.46000 44.39000
C  52.40900 26.28000 43.64600
C  51.84900 26.76900 42.28600
O  52.47600 27.03100 41.28700
O  50.51100 27.00900 42.39200
C  49.81900 27.68400 41.24000
H  52.35600 19.20400 42.86900
H  58.61500 19.05200 44.00300
H  58.50200 25.23700 45.57800
H  50.45200 23.71200 43.42600
H  50.69400 21.09300 42.06500
H  49.46200 20.48600 43.62700
H  49.67000 21.95900 44.51500
H  50.87400 20.70500 44.82400
H  50.24900 24.51100 41.29500
H  50.40900 22.80300 40.81100
H  52.36900 22.86300 40.00800
H  52.97200 24.20900 40.91500
H  53.53700 16.78300 41.81000
H  52.74300 17.28500 43.20800
H  53.75400 15.92300 43.36700
H  58.62800 16.85500 44.80700
H  58.82100 16.98700 43.03900
H  58.48900 15.36200 43.74400
H  60.36000 21.32100 43.70800
H  59.96200 23.09600 45.94100
H  61.38600 20.42000 45.54200
H  59.74000 19.66600 45.90900
H  60.37700 21.17900 46.60200
H  59.87600 24.75200 43.55000
H  60.52500 23.32900 42.99700
H  62.58700 23.87100 43.74100
H  62.04300 23.89300 45.38100
H  62.00400 25.36800 44.35300
H  57.51300 27.55300 46.33400
H  56.27800 28.56300 45.53600
H  57.42500 27.68700 44.59500
H  51.55000 26.24100 44.31700
H  49.96100 28.73400 41.49600
H  48.77700 27.36900 41.18800
H  50.30300 27.46800 40.28800
Mg 0.48900 43.26400 25.98600
C  2.86600 43.02300 28.44200
C  -1.91000 42.09800 28.05500
C  -1.56400 43.04700 23.24700
C  3.21100 43.99100 23.62400
N  0.57200 42.57500 27.99100
C  1.53900 42.76700 28.86100
C  1.01000 42.69900 30.30200
C  -0.42100 42.11900 30.10300
C  -0.63400 42.19600 28.61100
C  -0.50400 40.58300 30.50700
C  1.14200 44.01400 31.14100
C  1.23800 43.96600 32.66200
H  0.86300 42.60000 33.29100
N  -1.53300 42.73400 25.73500
C  -2.33600 42.37900 26.71900
C  -3.71900 42.17900 26.15100
C  -3.61900 42.43800 24.70600
C  -2.16800 42.72700 24.48500
C  -4.98000 41.86600 27.01500
C  -4.62300 42.35500 23.72600
O  -4.44300 42.76700 22.61400
C  -5.96800 41.87700 24.12300
N  0.81300 43.37700 23.81300
C  -0.25500 43.38600 22.93600
C  0.16200 43.84800 21.51100
C  1.70800 44.08300 21.62300
C  1.93300 43.83200 23.11600
C  -0.15400 42.95400 20.26400
C  2.25900 45.46800 21.12000
C  2.33100 46.67100 22.00600
N  2.60300 43.51800 25.97300
C  3.53300 43.81600 24.98700
C  4.85200 43.81300 25.61000
C  4.64500 43.52100 26.93000
C  3.26400 43.31300 27.11900
C  6.12300 43.92500 24.85900
C  5.30500 43.23500 28.16500
O  6.49600 43.07800 28.46800
C  4.15500 43.05000 29.24900
C  4.43100 41.87200 30.07400
O  4.17900 40.70900 29.79500
O  4.86900 42.30600 31.30000
C  5.10800 41.35300 32.36500
H  -2.61900 41.66300 28.76200
H  -2.21000 43.13900 22.37100
H  3.98800 44.21500 22.89100
H  1.55900 41.94300 30.86400
H  -1.22100 42.63100 30.63600
H  0.40400 40.33100 31.05400
H  -0.48600 39.87100 29.68200
H  -1.43300 40.38500 31.04200
H  0.29400 44.62900 30.83900
H  2.01300 44.53600 30.74600
H  0.78400 44.78700 33.21600
H  2.29400 44.03200 32.92600
H  -4.86700 41.80600 28.09700
H  -5.25000 40.86100 26.68800
H  -5.78900 42.58400 26.88000
H  -5.83000 40.90200 24.58900
H  -6.59800 41.77500 23.23900
H  -6.46000 42.55500 24.82000
H  -0.29000 44.82900 21.36300
H  2.31700 43.34300 21.10400
H  -0.59900 41.98500 20.49300
H  0.70200 42.89300 19.59300
H  -0.88800 43.55100 19.72300
H  1.72700 45.78800 20.22300
H  3.29500 45.32400 20.81200
H  3.29000 46.73900 22.52000
H  1.61000 46.66400 22.82300
H  2.25500 47.50400 21.30800
H  6.31500 44.87300 24.35600
H  6.22500 43.24400 24.01500
H  6.86100 43.66900 25.62000
H  4.05400 43.98100 29.80600
H  5.34100 41.81300 33.32500
H  5.82500 40.57900 32.09200
H  4.20600 40.77900 32.57900

