158

Mg 16.80900 52.10900 26.95200
C  18.87600 50.68600 29.35300
C  14.58800 52.99600 29.34500
C  14.83000 53.16900 24.54200
C  18.98000 50.79200 24.53800
N  16.81300 51.87100 29.15400
C  17.76300 51.22700 29.95300
C  17.44600 51.48200 31.42700
C  15.90700 51.89500 31.30900
C  15.74400 52.37400 29.87700
C  14.96400 50.79400 31.71100
C  18.39500 52.55600 32.10800
C  18.95200 52.16800 33.48000
H  18.10200 51.40400 34.39000
N  15.04100 53.10600 26.98500
C  14.28300 53.37200 28.02900
C  13.11600 54.12300 27.59800
C  13.10600 54.10800 26.21800
C  14.35800 53.44300 25.83600
C  12.10100 54.78400 28.62800
C  12.12300 54.72400 25.16500
O  12.35600 54.76400 23.95500
C  10.96200 55.41000 25.75500
N  16.96400 52.01800 24.76700
C  16.00400 52.56000 24.01300
C  16.35000 52.46700 22.54200
C  17.73200 51.67000 22.55100
C  17.92200 51.42400 24.04200
C  15.21600 51.76000 21.71100
C  18.94900 52.49700 21.93000
C  19.64600 53.47300 22.85000
N  18.60000 50.94400 26.89400
C  19.37800 50.47400 25.81200
C  20.44400 49.68600 26.32300
C  20.30300 49.76900 27.72100
C  19.16000 50.52100 28.00500
C  21.55600 48.98400 25.60700
C  20.95400 49.36800 28.93200
O  22.00500 48.80400 29.12400
C  19.97800 49.86300 30.05200
C  19.32800 48.75900 30.72800
O  18.44500 48.01000 30.35700
O  19.95400 48.57600 31.98800
C  19.39500 47.48900 32.86600
H  13.92300 53.28500 30.16100
H  14.23700 53.49400 23.68400
H  19.52400 50.33300 23.71000
H  17.54100 50.48500 31.85800
H  15.76300 52.68500 32.04600
H  14.57600 50.32400 30.80700
H  14.07000 51.21300 32.17200
H  15.35800 50.16100 32.50600
H  17.83200 53.48900 32.10800
H  19.29900 52.81900 31.55800
H  19.31700 52.98500 34.10300
H  19.92500 51.70100 33.32700
H  12.42200 54.67200 29.66400
H  11.22800 54.13400 28.67300
H  11.85100 55.83700 28.49600
H  10.28200 55.71600 24.96000
H  11.31400 56.33000 26.22100
H  10.34100 54.77000 26.38200
H  16.67400 53.46900 22.26000
H  17.60700 50.86400 21.82700
H  14.32000 51.47000 22.26000
H  15.52800 50.92000 21.09000
H  14.86300 52.48100 20.97500
H  18.48100 53.03100 21.10200
H  19.85200 52.01200 21.55900
H  20.70800 53.24300 22.93000
H  19.22000 53.53500 23.85100
H  19.41000 54.44200 22.41000
H  21.84800 49.73300 24.87200
H  21.15800 48.18600 24.98000
H  22.32000 48.61500 26.29100
H  20.55000 50.38200 30.82100
H  18.42800 47.11800 32.52600
H  19.24700 47.76200 33.91100
H  19.98300 46.57100 32.89600
Mg -1.79900 34.16300 27.14000
C  -3.71600 32.38500 29.51000
C  -0.94300 36.32100 29.56600
C  -0.64300 36.02000 24.77200
C  -3.60200 32.17900 24.60800
N  -2.44100 34.38700 29.23000
C  -2.94300 33.42700 30.05600
C  -2.76300 33.70800 31.58000
C  -2.26400 35.18200 31.46500
C  -1.82000 35.31800 30.02500
C  -3.28700 36.25600 31.84300
C  -1.86900 32.65300 32.23400
C  -2.50100 31.96100 33.45800
H  -1.70300 32.13600 34.80000
N  -0.81300 35.82800 27.24600
C  -0.46000 36.55900 28.31900
C  0.45800 37.59500 27.87700
C  0.52500 37.57900 26.46400
C  -0.37300 36.45200 26.09100
C  1.27100 38.44800 28.86400
C  1.35600 38.40100 25.48500
O  1.20800 38.33200 24.31200
C  2.46000 39.30300 26.03000
N  -2.24500 34.10600 25.01600
C  -1.44000 34.93600 24.33200
C  -1.50700 34.66100 22.76600
C  -2.15800 33.24300 22.76800
C  -2.68800 33.13300 24.17200
C  -2.37300 35.77400 22.17200
C  -1.15700 32.14300 22.35800
C  0.08300 31.82600 23.14100
N  -3.30800 32.64700 27.02000
C  -4.01000 31.96000 25.98200
C  -4.93000 31.04700 26.49700
C  -4.81000 31.21400 27.87200
C  -3.85700 32.11800 28.11600
C  -5.80400 30.14400 25.80100
C  -5.36900 30.71600 29.09900
O  -6.23100 29.87200 29.22000
C  -4.68900 31.44700 30.23400
C  -5.78600 32.08600 31.01400
O  -6.31700 33.18400 30.73800
O  -5.90600 31.46900 32.18700
C  -6.83400 32.11100 33.17600
H  -0.65900 36.91700 30.43600
H  -0.28700 36.65600 23.95800
H  -3.93700 31.43900 23.87900
H  -3.73300 33.74700 32.07500
H  -1.43400 35.37800 32.14400
H  -4.08300 35.81500 32.44300
H  -3.62900 36.79500 30.96000
H  -2.82700 37.01200 32.47800
H  -0.95200 33.14400 32.55800
H  -1.55600 31.85400 31.56100
H  -2.59400 30.90000 33.22700
H  -3.50200 32.29600 33.73100
H  0.99700 39.49800 28.76000
H  2.34800 38.39800 28.70500
H  1.12300 38.03500 29.86200
H  2.90800 39.90400 25.23800
H  3.20800 38.64500 26.47100
H  1.96100 39.99100 26.71200
H  -0.51300 34.68800 22.31800
H  -3.01400 33.14900 22.10100
H  -2.88500 36.36100 22.93400
H  -3.16200 35.27500 21.60900
H  -1.71600 36.39900 21.56600
H  -1.07600 32.52800 21.34200
H  -1.74500 31.24200 22.18200
H  0.08700 30.80800 23.53100
H  0.11500 32.54400 23.96000
H  0.95500 32.04800 22.52500
H  -5.57200 30.00300 24.74500
H  -6.76700 30.63000 25.95700
H  -5.75000 29.21500 26.36900
H  -4.21700 30.64700 30.80500
H  -7.71300 32.60600 32.76300
H  -6.37300 32.83400 33.84900
H  -7.04700 31.30900 33.88300

