158

Mg 44.62600 5.16500 47.74800
C  42.68800 8.16500 47.15600
C  41.81300 3.33600 47.53300
C  46.59000 2.43000 47.85600
C  47.49300 7.23900 47.97700
N  42.53800 5.72700 47.32100
C  41.94600 6.93800 47.03100
C  40.49700 6.80100 46.66400
C  40.23600 5.45300 47.39000
C  41.60900 4.73900 47.36500
C  39.57600 5.53900 48.76800
C  40.31700 6.69400 45.12300
C  40.10200 8.04200 44.39700
H  39.08500 7.92800 43.21200
N  44.28800 3.12200 47.61900
C  43.03800 2.59700 47.55800
C  43.13100 1.09800 47.69700
C  44.50900 0.85300 47.71500
C  45.18400 2.18100 47.76700
C  41.98900 0.03100 47.53600
C  45.03400 -0.56000 47.75000
O  44.36200 -1.60700 47.70500
C  46.53700 -0.87700 47.80300
N  46.72400 4.91500 47.66600
C  47.22800 3.63700 47.86500
C  48.76300 3.65900 48.20800
C  49.05000 5.22200 48.24900
C  47.67100 5.82700 47.94500
C  49.26600 2.93600 49.39100
C  50.13900 5.64200 47.32300
C  51.04400 6.71900 47.97100
N  45.03100 7.29200 47.48600
C  46.23900 7.95400 47.76000
C  46.00700 9.35900 47.79800
C  44.56100 9.50300 47.69000
C  44.07800 8.19300 47.38100
C  47.09700 10.38500 48.03500
C  43.46600 10.46400 47.74300
O  43.37900 11.61600 48.15100
C  42.21900 9.58900 47.20600
C  41.17200 9.70900 48.30300
O  41.07000 9.15000 49.36700
O  40.20600 10.58500 47.85700
C  39.02800 10.76100 48.71200
H  40.85400 2.81900 47.59700
H  47.22300 1.57800 48.11700
H  48.40000 7.81600 48.16900
H  39.87800 7.63500 46.99600
H  39.59600 4.83000 46.76500
H  40.18400 5.04800 49.52700
H  38.64400 4.97300 48.77300
H  39.43700 6.56500 49.11000
H  39.65100 5.89400 44.79800
H  41.32000 6.43200 44.78600
H  41.06800 8.35200 43.99900
H  39.76700 8.79100 45.11300
H  41.99900 -0.70600 46.73400
H  41.08900 0.63100 47.40000
H  41.80800 -0.48900 48.47700
H  46.56600 -1.96500 47.87100
H  47.10700 -0.29600 48.52700
H  46.93900 -0.62800 46.82100
H  49.39600 3.25700 47.41700
H  49.20500 5.55300 49.27600
H  49.82600 2.04700 49.10100
H  48.43200 2.65400 50.03300
H  49.92400 3.52600 50.03000
H  49.76100 6.03700 46.38000
H  50.81800 4.82500 47.07700
H  52.08500 6.54400 47.70000
H  51.03500 6.73000 49.06100
H  50.82700 7.69800 47.54300
H  47.72600 9.93300 48.80200
H  46.62700 11.31600 48.35300
H  47.70400 10.59300 47.15400
H  41.93500 9.94500 46.21600
H  39.06600 11.73400 49.20200
H  38.84400 9.97900 49.44800
H  38.10800 10.70200 48.13000
Mg 49.08300 46.82800 42.81000
C  45.70000 47.03600 42.15500
C  49.10100 43.50600 42.10400
C  52.47800 46.85400 43.12800
C  49.11200 50.33300 43.29900
N  47.63100 45.55300 41.99600
C  46.25700 45.80300 41.84000
C  45.57300 44.56800 41.25200
C  46.61400 43.41800 41.42000
C  47.85500 44.24100 41.91000
C  46.29000 42.33700 42.47500
C  45.09700 44.93000 39.80400
C  43.86500 44.10500 39.19200
H  44.17700 43.04100 38.07600
N  50.62800 45.37500 42.53400
C  50.43900 44.03200 42.18900
C  51.70900 43.38600 41.97200
C  52.72900 44.31500 42.37700
C  51.98400 45.61700 42.67500
C  51.88500 41.86500 41.58000
C  54.19400 44.04300 42.47100
O  54.58300 42.87500 42.28700
C  55.33300 45.09200 42.78300
N  50.58200 48.43000 43.00300
C  51.86600 48.15100 43.30200
C  52.69900 49.47700 43.59900
C  51.61900 50.61400 43.54400
C  50.39400 49.76500 43.26700
C  53.46800 49.53600 44.95000
C  51.89400 51.75400 42.56900
C  51.81400 51.47800 41.01000
N  47.73900 48.39700 42.79200
C  47.87200 49.74500 43.08100
C  46.54800 50.38500 43.11100
C  45.67000 49.35500 42.72000
C  46.40200 48.20800 42.58200
C  46.31700 51.89600 43.39100
C  44.29200 49.05600 42.42000
O  43.35400 49.84100 42.51200
C  44.18000 47.52400 42.02900
C  43.30600 46.84600 43.04200
O  43.63000 46.56300 44.18600
O  42.04000 46.66000 42.50100
C  41.18300 45.96200 43.50600
H  49.09500 42.42200 41.97100
H  53.56700 46.87900 43.19700
H  49.03900 51.41500 43.42900
H  44.62500 44.39900 41.76400
H  46.73400 42.81700 40.51900
H  46.59800 41.30000 42.34100
H  45.21000 42.21800 42.56100
H  46.80300 42.62900 43.39100
H  45.97200 44.96500 39.15500
H  44.80900 45.98100 39.81400
H  43.15800 44.84300 38.81100
H  43.35500 43.52500 39.96100
H  50.98900 41.31800 41.87300
H  52.69300 41.42300 42.16200
H  52.20900 41.73700 40.54700
H  55.15100 45.87200 42.04400
H  56.35300 44.70900 42.77300
H  55.10200 45.50800 43.76400
H  53.50700 49.67200 42.89300
H  51.50100 51.06300 44.53000
H  53.12100 48.71800 45.58100
H  53.44100 50.47300 45.50500
H  54.52500 49.42600 44.70800
H  52.93400 52.03800 42.73200
H  51.37500 52.61400 42.99200
H  51.55000 50.43500 40.83400
H  52.75000 51.86800 40.61000
H  51.04300 52.08500 40.53500
H  45.24700 51.99200 43.57700
H  46.59000 52.40500 42.46700
H  46.81000 52.23000 44.30400
H  43.67700 47.42300 41.06700
H  41.67000 45.03400 43.80700
H  40.22900 45.66000 43.07300
H  41.02400 46.58700 44.38400

