158

Mg 43.75900 4.46800 46.71900
C  41.68100 7.11100 46.76500
C  41.19400 2.26200 46.32900
C  46.00800 1.80900 46.91100
C  46.61100 6.75500 46.74600
N  41.75200 4.68200 46.40200
C  41.09100 5.82800 46.65800
C  39.60000 5.66000 46.63000
C  39.46800 4.08400 46.68800
C  40.88200 3.66400 46.41000
C  38.96200 3.54300 48.06000
C  38.86200 6.29400 45.40100
C  39.62200 6.28800 44.03400
H  38.80300 5.94200 42.77500
N  43.63300 2.31000 46.47100
C  42.45300 1.65800 46.39200
C  42.73900 0.24000 46.28900
C  44.16100 0.09900 46.30600
C  44.69100 1.43500 46.63000
C  41.74700 -0.87300 46.20500
C  44.99700 -1.18000 46.00100
O  44.40200 -2.23700 45.86100
C  46.49200 -1.11800 45.82900
N  45.95000 4.24900 46.84300
C  46.56700 3.09200 47.02400
C  48.08500 3.28300 47.24700
C  48.17700 4.86300 47.40500
C  46.82100 5.38100 46.95300
C  48.55800 2.49500 48.43500
C  49.33200 5.37500 46.41300
C  50.76200 4.88800 46.52900
N  44.13300 6.52000 46.58900
C  45.29100 7.34000 46.67100
C  44.88000 8.72200 46.77800
C  43.47400 8.71200 46.78600
C  43.11600 7.34400 46.63400
C  45.94400 9.83600 46.92200
C  42.31800 9.49000 46.98700
O  42.20600 10.68700 47.19600
C  41.07500 8.45100 46.98100
C  40.26100 8.55500 48.21700
O  40.63100 8.36000 49.39900
O  38.97300 8.95900 47.87700
C  38.04400 9.10900 49.04600
H  40.35500 1.56900 46.23700
H  46.71800 0.99300 47.06500
H  47.34800 7.55900 46.78600
H  39.21100 6.05600 47.56900
H  38.67500 3.89900 45.96400
H  38.54700 4.32300 48.69800
H  39.76800 3.17700 48.69700
H  38.20900 2.76000 47.97600
H  38.64500 7.33600 45.63600
H  37.86300 5.88200 45.25800
H  40.53200 5.68900 44.08100
H  39.92800 7.31700 43.84500
H  40.77300 -0.47400 46.48700
H  41.92700 -1.70800 46.88300
H  41.80000 -1.32500 45.21500
H  46.93200 -1.23000 46.82000
H  46.87500 -0.19400 45.39500
H  46.80200 -1.93200 45.17300
H  48.66100 2.99400 46.36800
H  48.44300 5.22900 48.39700
H  48.09200 1.52900 48.62500
H  48.59100 3.06300 49.36500
H  49.60000 2.27100 48.20400
H  49.44900 6.35600 46.87400
H  48.91300 5.52000 45.41700
H  51.36900 5.74200 46.82700
H  51.09100 4.52000 45.55700
H  50.93700 3.99600 47.13100
H  46.67700 9.57600 46.15800
H  46.32400 9.77100 47.94200
H  45.59300 10.84100 46.68900
H  40.53700 8.69500 46.06500
H  38.38300 8.85000 50.04900
H  37.17600 8.53400 48.72200
H  37.68900 10.13900 49.04900
Mg -5.30100 24.38500 26.24900
C  -3.84200 26.60600 28.65400
C  -6.33100 22.41200 28.90600
C  -6.72800 22.48200 23.99300
C  -4.16600 26.64100 23.67100
N  -5.31200 24.62200 28.50700
C  -4.55100 25.53200 29.20100
C  -4.55700 25.20900 30.74500
C  -4.97200 23.66500 30.73500
C  -5.59400 23.58100 29.28900
C  -3.90800 22.53300 30.84700
C  -5.53200 26.12600 31.54300
C  -5.16600 26.20500 33.01400
H  -6.32700 26.21300 33.95300
N  -6.42100 22.68700 26.41500
C  -6.81700 22.00000 27.60800
C  -7.56900 20.87000 27.20500
C  -7.62000 20.85300 25.77600
C  -6.84300 21.99800 25.33200
C  -8.13600 19.86700 28.29100
C  -8.39400 19.89400 24.86000
O  -8.38000 19.96800 23.62700
C  -9.31100 18.80300 25.40900
N  -5.21200 24.52900 24.14300
C  -6.04600 23.62200 23.50500
C  -6.21800 24.06800 22.01300
C  -5.22300 25.26100 21.83600
C  -4.82100 25.50900 23.27300
C  -6.11800 22.96600 20.92500
C  -5.68800 26.57900 21.08000
C  -6.18100 26.51400 19.60300
N  -4.21700 26.21200 26.08400
C  -3.72400 26.93300 25.00400
C  -2.94200 28.08300 25.49200
C  -2.93400 27.94300 26.84000
C  -3.76200 26.82800 27.22600
C  -2.25400 29.13700 24.66300
C  -2.47700 28.60800 28.11400
O  -1.83100 29.61000 28.28500
C  -2.99300 27.69700 29.26400
C  -1.84500 27.20700 30.03200
O  -0.86900 26.51900 29.61000
O  -2.04800 27.53600 31.35400
C  -1.00400 27.02900 32.32800
H  -6.61200 21.70900 29.69300
H  -7.07800 21.76100 23.25000
H  -3.71000 27.28700 22.91800
H  -3.57400 25.34300 31.19700
H  -5.76000 23.51600 31.47300
H  -3.84000 22.04600 31.82000
H  -2.91600 22.96600 30.71600
H  -3.97700 21.81200 30.03200
H  -6.55100 25.74000 31.52100
H  -5.60400 27.15500 31.19100
H  -4.68300 27.14800 33.27300
H  -4.38500 25.48300 33.25000
H  -9.21400 19.73300 28.19600
H  -8.03900 20.17500 29.33200
H  -7.42300 19.04200 28.28700
H  -9.11000 17.92000 24.80100
H  -10.28200 19.29400 25.35200
H  -9.09500 18.55600 26.44800
H  -7.23300 24.46200 21.95200
H  -4.31700 25.02100 21.28000
H  -5.62500 22.12200 21.40700
H  -5.57100 23.31600 20.04900
H  -7.10700 22.68100 20.56700
H  -4.80800 27.21900 21.01600
H  -6.39600 27.14100 21.68800
H  -6.26700 25.48200 19.26400
H  -5.44400 26.89400 18.89500
H  -7.05800 27.14000 19.43800
H  -1.45500 29.52300 25.29500
H  -2.91100 29.98200 24.45900
H  -1.74200 28.75200 23.78000
H  -3.59700 28.33500 29.90900
H  -1.22100 26.01200 32.65600
H  -0.95700 27.77000 33.12600
H  -0.00200 26.98400 31.90000

