158

Mg 2.88600 -1.90100 44.48600
C  6.05700 -0.55300 44.07100
C  1.51200 0.81100 43.06300
C  -0.17400 -3.49300 44.61300
C  4.37500 -4.96000 45.45200
N  3.71700 -0.12400 43.69500
C  5.02200 0.23300 43.62200
C  5.13400 1.67400 43.14900
C  3.64400 2.05600 42.80600
C  2.87300 0.85200 43.24100
C  3.13500 3.35000 43.52300
C  6.17300 2.05600 42.00400
C  5.82800 1.41000 40.61800
H  6.97400 0.65200 39.90000
N  0.91500 -1.35400 43.96900
C  0.57900 -0.19300 43.37300
C  -0.80700 -0.21900 43.14100
C  -1.34700 -1.40900 43.66300
C  -0.22600 -2.12900 44.17300
C  -1.49400 0.90800 42.47900
C  -2.76800 -1.78700 43.56800
O  -3.51800 -0.90900 43.24900
C  -3.35600 -3.07600 43.86600
N  2.20200 -3.94400 44.87200
C  0.90100 -4.35900 44.94500
C  0.77200 -5.83000 45.30800
C  2.17600 -6.33600 45.45700
C  2.97400 -5.02000 45.26000
C  -0.13500 -6.15000 46.55700
C  2.60800 -7.54200 44.54700
C  2.95800 -8.87600 45.29200
N  4.78500 -2.65900 44.89200
C  5.29100 -3.85600 45.29800
C  6.66000 -3.81700 45.60000
C  7.02800 -2.53300 45.02000
C  5.84500 -1.89000 44.58700
C  7.46500 -4.80200 46.39000
C  8.12400 -1.63500 44.83600
O  9.35300 -1.80400 45.03400
C  7.57100 -0.22400 44.24800
C  7.82900 0.82200 45.37400
O  7.64800 0.61500 46.56800
O  8.40600 1.94000 44.84100
C  8.60200 3.07000 45.77500
H  1.15200 1.80900 42.80500
H  -1.16900 -3.93500 44.53000
H  4.87800 -5.83800 45.86300
H  5.44900 2.30300 43.98200
H  3.57200 2.38900 41.77000
H  2.24400 3.20400 44.13300
H  2.84300 4.07600 42.76300
H  3.86600 3.81700 44.18200
H  7.19800 1.78800 42.26000
H  6.11600 3.11100 41.73600
H  5.45400 2.21700 39.98900
H  5.04000 0.66400 40.72300
H  -2.01600 0.58800 41.57700
H  -0.83000 1.73700 42.23400
H  -2.22700 1.30600 43.18100
H  -2.83900 -3.90600 43.38600
H  -4.39600 -2.93500 43.57200
H  -3.27100 -3.11400 44.95200
H  0.12200 -6.14900 44.49300
H  2.35600 -6.49500 46.52100
H  -1.17800 -5.95900 46.30600
H  0.05800 -5.45600 47.37500
H  0.04500 -7.18700 46.83900
H  3.42700 -7.16100 43.93700
H  1.70400 -7.67600 43.95300
H  2.53800 -9.79500 44.88300
H  2.59500 -8.78000 46.31500
H  4.03700 -9.02800 45.27500
H  8.44700 -4.56900 46.80200
H  7.56200 -5.67700 45.74700
H  6.76200 -5.20400 47.12000
H  8.10300 0.05800 43.34000
H  9.20500 2.68200 46.59700
H  7.68800 3.43700 46.24200
H  9.09700 3.94000 45.34200
Mg 48.47600 15.64700 29.34700
C  46.32800 15.29300 32.13700
C  50.61100 17.37600 31.33300
C  50.33500 15.99900 26.63700
C  45.77700 14.38200 27.29700
N  48.53300 16.12800 31.43100
C  47.60500 15.83900 32.43100
C  48.04400 16.19300 33.84600
C  49.29700 17.10800 33.58600
C  49.49500 16.94700 32.04500
C  49.15700 18.59700 33.95500
C  48.34900 14.89800 34.52800
C  48.04700 14.93100 36.05700
H  47.85200 16.22500 36.83000
N  50.28100 16.45500 29.04300
C  51.06400 17.10500 30.03700
C  52.27200 17.46600 29.44500
C  52.30200 16.98400 28.08200
C  50.92300 16.43600 27.85200
C  53.44300 18.08100 30.19500
C  53.44400 17.00100 27.01200
O  53.26400 16.55700 25.85900
C  54.79100 17.48800 27.45200
N  48.11600 15.19700 27.28100
C  49.10900 15.37100 26.41400
C  48.59600 14.87400 25.00000
C  47.25900 14.16100 25.29000
C  47.00300 14.60900 26.71200
C  48.48100 16.10400 24.06000
C  47.22500 12.62500 25.12400
C  46.41600 12.12200 23.95900
N  46.46700 15.04100 29.59600
C  45.48000 14.66600 28.67900
C  44.24000 14.30500 29.35000
C  44.59200 14.48800 30.71800
C  45.93700 14.97200 30.78800
C  43.01500 13.70000 28.73100
C  44.04800 14.50400 32.03200
O  42.93100 14.26600 32.44900
C  45.19600 14.92000 33.03200
C  44.60900 16.11300 33.76500
O  44.51500 17.24400 33.22600
O  44.13300 15.87000 35.03200
C  43.57200 16.95500 35.78900
H  51.23900 18.01800 31.95400
H  50.95800 16.16900 25.75700
H  44.91000 14.08000 26.70600
H  47.23100 16.78900 34.26200
H  50.08400 16.57900 34.12300
H  48.16200 18.79800 34.35300
H  49.32100 19.25800 33.10400
H  49.87800 18.84900 34.73300
H  49.35200 14.52600 34.31800
H  47.65900 14.12100 34.19900
H  48.89700 14.40800 36.49600
H  47.19600 14.28500 36.27200
H  53.78000 18.97200 29.66300
H  54.24400 17.35300 30.07000
H  53.37300 18.27100 31.26600
H  55.23700 16.76700 28.13800
H  54.76700 18.54500 27.71600
H  55.38300 17.45000 26.53700
H  49.21800 14.08200 24.58400
H  46.51600 14.48900 24.56300
H  49.09400 16.93600 24.40800
H  47.49300 16.55500 23.97100
H  48.81600 15.80000 23.06800
H  46.84300 12.22700 26.06400
H  48.24800 12.25800 25.04000
H  46.92900 11.41400 23.30900
H  45.95800 12.92900 23.38700
H  45.52700 11.61000 24.32800
H  42.34900 14.52800 28.97300
H  42.67400 12.77100 29.18900
H  43.05500 13.65900 27.64300
H  45.44900 14.23900 33.84400
H  42.52800 16.95500 35.47400
H  43.97500 17.91700 35.47200
H  43.71700 16.71200 36.84100

