158

Mg 35.66700 0.62500 29.68500
C  33.35700 1.86700 32.17400
C  38.14000 0.72600 32.06000
C  37.94500 -0.01600 27.30400
C  33.22300 1.36000 27.27200
N  35.69300 1.29900 31.82900
C  34.62800 1.53100 32.69900
C  35.12800 1.68200 34.10400
C  36.70400 1.46400 34.02200
C  36.87600 1.15900 32.57500
C  37.60400 2.57000 34.56000
C  34.33000 0.89000 35.23700
C  34.02000 1.65000 36.46700
H  35.15500 2.52200 36.93500
N  37.71700 0.50700 29.65800
C  38.58400 0.42300 30.75900
C  39.91900 -0.03600 30.38700
C  39.90100 -0.27200 28.99100
C  38.49500 0.03900 28.56500
C  41.02500 -0.16400 31.46200
C  41.08900 -0.66000 27.99400
O  40.86800 -0.70200 26.77200
C  42.46200 -0.75700 28.59500
N  35.59600 0.69900 27.60400
C  36.70300 0.39900 26.82200
C  36.36700 0.61700 25.30900
C  34.82700 0.97000 25.39400
C  34.49400 0.95500 26.85200
C  37.31200 1.56700 24.50700
C  33.82300 0.31600 24.42100
C  33.25200 -1.03700 24.88900
N  33.75500 1.33900 29.65700
C  32.81600 1.55300 28.57700
C  31.53000 1.93500 29.08200
C  31.69500 2.06700 30.47300
C  33.00700 1.76300 30.77600
C  30.35000 2.31400 28.19600
C  31.06300 2.40000 31.71900
O  29.90800 2.71800 31.97800
C  32.03100 2.21600 32.95000
C  32.14700 3.42200 33.79200
O  33.03100 4.21400 33.64800
O  31.27500 3.42800 34.91100
C  31.51500 4.73800 35.67900
H  38.74400 0.51200 32.94400
H  38.68900 -0.31000 26.56100
H  32.37300 1.58700 26.62500
H  35.00000 2.73800 34.34100
H  36.86300 0.54800 34.59300
H  37.25700 3.26200 35.32800
H  38.25700 3.06800 33.84300
H  38.18600 1.88700 35.17900
H  34.94000 0.05300 35.57500
H  33.41600 0.52100 34.77100
H  33.74800 1.00200 37.30000
H  33.18700 2.31800 36.24700
H  41.67600 0.69500 31.62300
H  41.67700 -1.00400 31.22100
H  40.58000 -0.37300 32.43500
H  42.44400 -1.66500 29.19800
H  42.76000 0.13500 29.14600
H  43.17200 -0.88800 27.77800
H  36.55600 -0.34800 24.83900
H  34.82700 1.99900 25.03600
H  38.08400 1.83400 25.22900
H  36.80700 2.41700 24.04800
H  37.80500 1.04300 23.68800
H  34.30200 0.13300 23.45900
H  33.01800 1.03100 24.24900
H  33.54800 -1.67400 24.05600
H  32.17600 -1.00900 25.06300
H  33.76100 -1.30800 25.81400
H  30.65900 2.65700 27.20800
H  29.79800 3.00700 28.83100
H  29.75600 1.43800 27.93700
H  31.60400 1.34000 33.43700
H  31.33000 5.63300 35.08500
H  32.56100 4.64300 35.97000
H  30.89300 4.67200 36.57200
Mg -8.53700 18.27100 42.87800
C  -5.07100 17.71700 42.74700
C  -8.07700 21.57000 41.48600
C  -11.79900 18.50700 42.23800
C  -8.96500 14.77900 43.04400
N  -6.80400 19.43900 42.20800
C  -5.42800 19.06000 42.26700
C  -4.54100 20.19600 41.92900
C  -5.54200 21.38200 41.57700
C  -6.91800 20.75000 41.72800
C  -5.31100 22.71100 42.34500
C  -3.39900 19.85700 40.88000
C  -3.73100 18.90200 39.65500
H  -3.42700 19.52100 38.31100
N  -9.86300 19.92200 42.21500
C  -9.44200 21.17000 41.69600
C  -10.66400 21.88400 41.36100
C  -11.80900 20.99600 41.66400
C  -11.16500 19.74700 42.04600
C  -10.60300 23.27700 40.76700
C  -13.28400 21.34400 41.39300
O  -13.51700 22.40600 40.87100
C  -14.36600 20.52200 41.74700
N  -10.15400 16.81000 42.64300
C  -11.47600 17.24000 42.58700
C  -12.46200 16.14000 42.89300
C  -11.53500 14.91000 42.99400
C  -10.13400 15.51500 42.98000
C  -13.50900 16.33200 44.03700
C  -11.66300 13.81800 41.86800
C  -11.79700 12.31900 42.28100
N  -7.21900 16.57000 43.06500
C  -7.59500 15.18700 43.14700
C  -6.39400 14.46800 43.42200
C  -5.37300 15.40700 43.26900
C  -5.91000 16.63000 43.03400
C  -6.18000 13.06200 43.76600
C  -3.93800 15.58400 43.32900
O  -3.04200 14.76400 43.48700
C  -3.66100 17.09200 43.02900
C  -2.78100 17.66700 44.11100
O  -1.57000 17.77500 43.97600
O  -3.53800 18.18300 45.14300
C  -2.88400 18.83300 46.29000
H  -7.98100 22.62500 41.22200
H  -12.87600 18.50200 42.05400
H  -9.06300 13.69100 43.03300
H  -3.97900 20.41900 42.83600
H  -5.39500 21.62500 40.52500
H  -6.21700 22.91800 42.91300
H  -5.11700 23.49300 41.61100
H  -4.49800 22.52400 43.04600
H  -2.50900 19.54600 41.42700
H  -3.09400 20.78300 40.39200
H  -4.76300 18.56700 39.75900
H  -3.15500 17.97700 39.70400
H  -9.94800 23.32000 39.89700
H  -10.23100 23.89000 41.58800
H  -11.54600 23.73100 40.46100
H  -14.01600 20.11300 42.69400
H  -14.49100 19.63900 41.12000
H  -15.27400 21.10800 41.88900
H  -12.94100 15.91300 41.94100
H  -11.93100 14.41600 43.88100
H  -14.42900 16.49500 43.47600
H  -13.26600 17.23200 44.60200
H  -13.74000 15.51100 44.71700
H  -10.80500 13.87400 41.19800
H  -12.53100 13.94400 41.22100
H  -12.71400 11.90300 41.86200
H  -11.84100 12.34200 43.37000
H  -10.96900 11.69300 41.95100
H  -5.61000 12.66200 42.92700
H  -7.13000 12.54200 43.88800
H  -5.56300 13.11200 44.66300
H  -3.04500 17.05500 42.13100
H  -3.31600 19.83400 46.30700
H  -1.80800 18.79100 46.12500
H  -3.14800 18.27100 47.18600

