158

Mg 47.68200 24.70400 28.15800
C  48.67500 27.03000 30.73600
C  47.03600 22.48500 30.73200
C  46.88800 22.49000 25.88300
C  49.00700 26.79400 25.86000
N  47.81200 24.81900 30.49100
C  48.08500 25.90300 31.31200
C  47.88600 25.51000 32.75200
C  47.57300 24.00000 32.74500
C  47.57500 23.72300 31.20100
C  48.64600 23.12000 33.46000
C  46.76600 26.37600 33.46100
C  47.30800 27.39600 34.49000
H  46.63400 27.64300 35.85700
N  46.97700 22.77900 28.28500
C  46.82900 22.00600 29.45300
C  46.22800 20.68900 29.01600
C  46.16400 20.68400 27.61000
C  46.65700 22.03500 27.19200
C  45.79300 19.53400 29.99700
C  45.82800 19.62200 26.55600
O  45.96000 19.72100 25.35900
C  45.24100 18.34100 27.09500
N  48.08100 24.60700 26.06800
C  47.44300 23.67600 25.33700
C  47.52300 24.05900 23.82300
C  47.96600 25.54000 23.87600
C  48.28200 25.67200 25.38600
C  48.47700 23.07800 23.06500
C  46.92000 26.56800 23.38200
C  47.31000 27.66900 22.35500
N  48.72600 26.53000 28.24600
C  49.23600 27.20600 27.18500
C  49.66900 28.47200 27.71300
C  49.44700 28.45700 29.07700
C  48.90000 27.24300 29.35000
C  50.19800 29.68600 27.02000
C  49.72900 29.19200 30.34100
O  50.24600 30.28400 30.51500
C  49.12100 28.22900 31.48900
C  50.31000 27.97700 32.35900
O  51.21100 27.24500 32.18200
O  50.20200 28.72200 33.41700
C  51.11200 28.53300 34.52400
H  46.88800 21.84400 31.60300
H  46.59300 21.88200 25.02500
H  49.31800 27.51600 25.10300
H  48.78300 25.73600 33.32800
H  46.59000 23.70300 33.11100
H  48.99000 22.36600 32.75200
H  48.08300 22.58200 34.22300
H  49.47900 23.72200 33.82400
H  45.97700 25.81600 33.96300
H  46.35000 26.90300 32.60100
H  47.36700 28.37000 34.00400
H  48.35700 27.22600 34.73200
H  46.20300 18.55600 29.74600
H  44.71100 19.42800 30.08500
H  46.14200 19.85100 30.98000
H  45.93300 17.76400 27.70800
H  44.91700 17.72700 26.25400
H  44.41000 18.58600 27.75700
H  46.54300 23.89000 23.37600
H  48.90300 25.73300 23.35300
H  48.86500 22.43600 23.85600
H  49.34600 23.56000 22.61700
H  47.92800 22.60800 22.24800
H  46.43200 26.93700 24.28400
H  46.16100 26.06800 22.78100
H  48.37100 27.81400 22.15100
H  46.97200 28.64700 22.69700
H  46.82100 27.45100 21.40500
H  50.47800 29.43500 25.99700
H  51.01700 30.07900 27.62300
H  49.43400 30.46100 26.96100
H  48.32100 28.78600 31.97600
H  51.98800 29.17500 34.42400
H  51.51100 27.52000 34.58000
H  50.55400 28.81100 35.41700
Mg -10.00800 39.77800 40.72900
C  -8.56500 36.69200 39.50700
C  -7.14500 41.35000 39.49800
C  -11.65400 42.72300 40.74900
C  -13.00800 38.06100 40.96800
N  -8.10200 39.07100 39.68700
C  -7.71100 37.79200 39.28100
C  -6.34500 37.79400 38.59000
C  -5.77200 39.20800 39.03300
C  -7.07200 39.94400 39.43500
C  -4.68600 39.20300 40.12500
C  -6.23800 37.49200 37.08400
C  -7.52800 37.71800 36.26400
H  -7.82500 36.79700 35.05500
N  -9.41100 41.80200 40.34600
C  -8.23900 42.21200 39.87300
C  -8.14400 43.63700 39.90300
C  -9.45400 44.04700 40.25800
C  -10.26300 42.87100 40.49400
C  -6.90500 44.47700 39.43500
C  -9.87700 45.49100 40.43000
O  -9.13400 46.40200 40.02700
C  -11.13100 45.83900 41.13100
N  -11.88200 40.35600 40.97400
C  -12.42800 41.59900 41.00800
C  -13.97600 41.63200 41.06500
C  -14.37100 40.19100 41.30900
C  -12.98100 39.48200 41.06500
C  -14.49700 42.60600 42.17100
C  -15.60400 39.74400 40.44500
C  -16.77700 38.98200 41.05700
N  -10.66200 37.69300 40.64400
C  -11.94400 37.22200 40.72300
C  -11.82400 35.75300 40.54900
C  -10.55800 35.49800 40.06500
C  -9.87600 36.74700 40.10500
C  -12.92900 34.73900 40.68700
C  -9.67100 34.52200 39.55000
O  -9.79300 33.31800 39.37400
C  -8.34900 35.19400 39.19500
C  -7.30300 34.59200 40.02500
O  -7.25100 34.68700 41.24300
O  -6.45400 33.86600 39.25800
C  -5.39300 33.10300 39.92600
H  -6.21700 41.87000 39.25000
H  -12.22900 43.64900 40.68200
H  -13.97500 37.55500 41.01400
H  -5.70900 37.15800 39.20600
H  -5.28500 39.64800 38.16200
H  -5.06900 39.14200 41.14400
H  -3.96800 39.99200 39.90200
H  -4.05100 38.31700 40.11700
H  -5.88400 36.46600 36.98300
H  -5.39800 38.10900 36.76300
H  -7.46500 38.73500 35.87700
H  -8.45800 37.59200 36.81800
H  -7.16000 45.48600 39.11200
H  -6.45600 43.87400 38.64500
H  -6.12900 44.40900 40.19700
H  -11.16200 45.49500 42.16500
H  -11.97600 45.64400 40.47100
H  -11.23900 46.91500 40.99400
H  -14.25500 42.05600 40.10000
H  -14.46900 39.90900 42.35800
H  -13.58200 43.13900 42.43200
H  -14.87300 42.16300 43.09200
H  -15.30700 43.23900 41.80800
H  -15.28500 39.04500 39.67300
H  -15.97600 40.67300 40.01200
H  -17.69700 39.52800 40.85000
H  -16.58200 38.79000 42.11200
H  -16.85300 38.03100 40.53000
H  -13.71500 34.88300 39.94600
H  -13.31200 34.77000 41.70700
H  -12.52200 33.73300 40.58100
H  -8.22100 35.07600 38.11900
H  -5.37400 32.10000 39.49900
H  -5.45100 33.16200 41.01300
H  -4.41500 33.55600 39.76300

