158

Mg -10.43300 38.89400 42.31800
C  -8.86900 35.92000 41.58300
C  -7.68900 40.58300 41.22600
C  -12.22400 41.75200 42.43600
C  -13.40100 37.01400 42.74500
N  -8.57800 38.22000 41.35400
C  -8.01900 36.97700 41.27400
C  -6.59500 37.01600 40.73600
C  -6.17500 38.51900 41.09500
C  -7.54800 39.15200 41.22600
C  -5.18400 38.75400 42.29600
C  -6.44300 36.64200 39.15300
C  -5.24000 35.75500 38.87700
H  -5.37600 34.69600 37.75400
N  -10.09100 40.89000 41.74400
C  -8.86400 41.35700 41.38900
C  -8.97900 42.77800 41.06100
C  -10.25400 43.15300 41.46700
C  -10.90800 41.94900 41.96400
C  -7.82300 43.62100 40.37700
C  -10.80400 44.64600 41.44700
O  -10.05600 45.54100 41.00200
C  -12.23900 45.01400 41.94500
N  -12.54500 39.33900 42.69100
C  -12.94600 40.59300 42.78100
C  -14.48600 40.62600 43.20100
C  -14.94500 39.11900 43.03700
C  -13.58800 38.41500 42.79500
C  -14.82400 41.36400 44.53400
C  -16.15200 38.86100 42.04300
C  -17.55700 38.41700 42.52600
N  -10.99800 36.87100 42.31300
C  -12.21400 36.24800 42.52700
C  -12.09800 34.78300 42.40300
C  -10.76300 34.62300 42.07100
C  -10.14900 35.90400 41.96900
C  -13.12100 33.79100 42.85000
C  -9.68400 33.64900 41.79300
O  -9.79900 32.46100 41.89900
C  -8.46800 34.49200 41.30500
C  -7.42500 34.03800 42.21400
O  -7.15600 34.52800 43.35300
O  -6.85200 32.93800 41.66400
C  -5.90200 32.19600 42.60700
H  -6.80500 41.13100 40.89500
H  -12.86200 42.61600 42.63200
H  -14.34900 36.48200 42.85100
H  -5.99200 36.37200 41.37600
H  -5.75200 39.02900 40.22900
H  -5.76300 39.23400 43.08500
H  -4.37500 39.43700 42.03900
H  -4.70700 37.86200 42.70100
H  -6.21500 37.54800 38.59100
H  -7.41700 36.28700 38.81900
H  -5.10000 35.24300 39.82900
H  -4.38100 36.30100 38.48800
H  -7.02600 42.95500 40.04500
H  -7.43300 44.44300 40.97800
H  -8.26300 44.06500 39.48400
H  -12.42700 44.67200 42.96300
H  -12.95000 44.83600 41.13800
H  -12.12400 46.09700 42.00400
H  -14.96900 41.15800 42.38100
H  -15.41500 38.69200 43.92300
H  -15.53500 42.18400 44.43100
H  -13.89300 41.87500 44.78100
H  -15.07200 40.78400 45.42200
H  -15.82200 38.19000 41.25100
H  -16.39400 39.76100 41.47700
H  -17.94500 37.50000 42.08200
H  -18.23900 39.26100 42.42300
H  -17.56100 38.32100 43.61100
H  -13.68800 33.29400 42.06200
H  -13.85900 34.20600 43.53600
H  -12.63600 33.07900 43.51800
H  -8.17600 34.26100 40.28100
H  -6.27600 32.28400 43.62700
H  -4.92400 32.67500 42.56600
H  -5.82800 31.14400 42.33200
Mg -4.53400 25.82100 25.09800
C  -2.89500 27.10500 27.98200
C  -6.09900 23.60400 27.13500
C  -5.87500 24.58700 22.37900
C  -2.38800 27.86300 23.12100
N  -4.47900 25.41400 27.35300
C  -3.82300 26.14100 28.30200
C  -4.39700 25.80600 29.69400
C  -5.12300 24.40700 29.40400
C  -5.27000 24.46700 27.87500
C  -4.36700 23.10400 29.85500
C  -5.30600 26.95800 30.27900
C  -5.15900 27.33000 31.66700
H  -4.73900 26.15500 32.64500
N  -5.88400 24.42900 24.83500
C  -6.43500 23.51800 25.78300
C  -7.42000 22.68300 25.16400
C  -7.38300 22.96500 23.77700
C  -6.33400 24.00000 23.61500
C  -8.31900 21.68900 25.97600
C  -8.15800 22.39700 22.65900
O  -7.99600 22.68700 21.46500
C  -9.21900 21.40200 22.91800
N  -4.08800 26.12900 23.06300
C  -4.90400 25.54600 22.12000
C  -4.45000 25.97000 20.73700
C  -3.50100 27.12100 20.97300
C  -3.26700 27.03300 22.45000
C  -3.86900 24.80900 19.86700
C  -4.01000 28.57300 20.61300
C  -2.91600 29.48500 20.13200
N  -2.92500 27.09700 25.40500
C  -2.20700 27.96000 24.55000
C  -1.25400 28.78000 25.28600
C  -1.54000 28.43100 26.61800
C  -2.54600 27.45700 26.65500
C  -0.35700 29.81500 24.75000
C  -1.14800 28.75200 27.92100
O  -0.36300 29.52000 28.37100
C  -2.12200 27.95200 28.89100
C  -1.17700 27.34100 29.77200
O  -0.32700 26.53500 29.44100
O  -1.30900 27.69400 31.07500
C  -0.28400 27.23500 32.05100
H  -6.67800 22.96500 27.80400
H  -6.58600 24.42600 21.56600
H  -1.80400 28.46100 22.41800
H  -3.60900 25.60900 30.42100
H  -6.12400 24.46700 29.83100
H  -3.47100 23.25400 30.45600
H  -4.14400 22.43900 29.02000
H  -5.05900 22.63200 30.55300
H  -6.33900 26.62600 30.18300
H  -5.18500 27.87100 29.69600
H  -6.08500 27.72200 32.08800
H  -4.43700 28.14500 31.72400
H  -9.16800 22.28800 26.30500
H  -7.83900 21.45400 26.92600
H  -8.72900 20.83200 25.44000
H  -9.87100 21.34000 22.04600
H  -9.82500 21.80100 23.73200
H  -8.89000 20.37300 23.06200
H  -5.32900 26.40800 20.26500
H  -2.61900 26.85800 20.39000
H  -3.45000 23.96800 20.41800
H  -3.20600 25.06800 19.04200
H  -4.75100 24.42400 19.35500
H  -4.49900 29.05700 21.45800
H  -4.82600 28.57000 19.89000
H  -2.97400 30.39700 20.72600
H  -3.04700 29.65700 19.06300
H  -1.94500 28.99000 20.10600
H  0.61500 29.33900 24.61400
H  -0.24700 30.56600 25.53200
H  -0.82600 30.26500 23.87500
H  -2.72100 28.73800 29.35100
H  0.77300 27.27300 31.78600
H  -0.48700 26.28900 32.55500
H  -0.34200 27.98200 32.84300

