158

Mg 25.67600 -7.37500 47.90200
C  27.74300 -4.75300 46.85900
C  23.35500 -6.60700 45.58400
C  23.71200 -9.79700 49.33900
C  28.39900 -8.71400 49.84400
N  25.71300 -5.92800 46.26300
C  26.58300 -4.87800 46.05000
C  26.00300 -3.81500 45.10500
C  24.62100 -4.47000 44.68700
C  24.47700 -5.72600 45.62300
C  23.43100 -3.47200 44.66300
C  26.93000 -3.47600 43.89000
C  27.05900 -2.03300 43.58300
H  26.63300 -1.67000 42.20300
N  23.75900 -8.14600 47.46500
C  23.01800 -7.75400 46.42100
C  21.89400 -8.63000 46.35000
C  21.86900 -9.40900 47.48700
C  23.16000 -9.08900 48.20700
C  20.96800 -8.67600 45.17400
C  20.68300 -10.38000 47.94900
O  19.61400 -10.52400 47.35500
C  20.75100 -11.16000 49.28000
N  26.05400 -9.04500 49.32300
C  25.03800 -9.86100 49.76500
C  25.55900 -11.02400 50.64200
C  27.03200 -10.58700 50.85700
C  27.20900 -9.38000 49.93100
C  24.74800 -11.17200 51.99700
C  28.01100 -11.80400 50.58000
C  29.06600 -12.00000 51.67800
N  27.67000 -6.88000 48.32600
C  28.61900 -7.48700 49.08400
C  29.72900 -6.55100 49.11000
C  29.42700 -5.44900 48.32500
C  28.17300 -5.72000 47.80400
C  31.16700 -6.76700 49.62200
C  30.01000 -4.21400 47.74100
O  31.03800 -3.64300 47.93400
C  28.81500 -3.66200 46.90200
C  28.26100 -2.34300 47.57500
O  27.74000 -2.25000 48.66900
O  28.42700 -1.29100 46.66600
C  27.87900 0.04400 46.94300
H  22.60000 -6.40300 44.82200
H  23.04900 -10.44500 49.91600
H  29.36500 -9.00300 50.26300
H  25.89500 -2.90600 45.69700
H  24.65900 -4.81300 43.65300
H  22.53600 -3.95500 45.05400
H  23.34200 -3.18200 43.61600
H  23.62100 -2.53600 45.18900
H  26.48600 -3.97600 43.02800
H  27.88800 -3.96200 44.07200
H  28.12900 -1.82500 43.57300
H  26.40700 -1.49500 44.27100
H  21.43100 -8.07100 44.39400
H  19.97500 -8.29800 45.41900
H  20.92400 -9.73400 44.91700
H  21.60100 -11.84100 49.24300
H  19.86600 -11.78500 49.39300
H  20.84600 -10.57000 50.19200
H  25.54400 -11.97500 50.11000
H  27.17000 -10.10700 51.82600
H  24.20000 -12.11300 52.03100
H  24.04500 -10.38300 52.26600
H  25.44200 -11.26900 52.83300
H  28.55300 -11.58300 49.66100
H  27.50600 -12.75600 50.41900
H  30.04100 -11.86000 51.21200
H  29.04600 -13.03600 52.01700
H  28.85000 -11.40400 52.56500
H  31.78600 -7.20600 48.83900
H  31.26900 -7.43300 50.47800
H  31.51600 -5.81600 50.02400
H  29.14900 -3.35900 45.91000
H  26.82000 0.04300 47.20300
H  28.00900 0.66500 46.05700
H  28.46500 0.28000 47.83100
Mg 48.06400 15.91300 28.72000
C  45.82000 15.33600 31.33700
C  50.13800 17.44100 30.87500
C  49.90100 16.81700 26.09200
C  45.73000 14.54000 26.51000
N  47.93100 16.41300 30.83800
C  47.02100 16.01900 31.78000
C  47.31000 16.36600 33.18200
C  48.53800 17.32300 32.93300
C  48.97100 17.04400 31.52600
C  48.26900 18.81100 33.33600
C  47.49900 15.11500 34.13300
C  46.67400 15.02500 35.40300
H  46.57800 16.18600 36.39100
N  49.80800 16.90900 28.55700
C  50.62600 17.42000 29.56500
C  51.85700 17.89300 29.02100
C  51.77600 17.71000 27.59600
C  50.41700 17.18400 27.36600
C  52.99100 18.38800 29.89000
C  52.87600 17.94500 26.55900
O  52.89500 17.59000 25.38300
C  54.09900 18.74900 26.91900
N  47.77200 15.93800 26.50700
C  48.67300 16.30600 25.62400
C  48.31600 15.92900 24.14300
C  47.03500 15.06000 24.43000
C  46.86500 15.08500 25.91600
C  48.17800 17.10400 23.07900
C  47.17100 13.67400 23.71500
C  46.45000 13.56700 22.27900
N  46.18500 15.08500 28.86100
C  45.38500 14.56000 27.91000
C  44.22000 13.94900 28.41700
C  44.25200 14.32800 29.80100
C  45.53100 14.94500 30.00900
C  43.09000 13.35400 27.66200
C  43.57400 14.24400 31.03400
O  42.49300 13.67200 31.36200
C  44.50000 14.99300 32.13300
C  43.75600 15.97900 32.82200
O  43.50000 17.11200 32.49500
O  43.38600 15.47700 34.03300
C  42.76400 16.49800 34.87400
H  50.75500 17.95100 31.61700
H  50.53000 17.13300 25.25800
H  45.06500 13.93200 25.89300
H  46.42300 16.88600 33.54400
H  49.33600 16.94800 33.57500
H  48.97100 19.24900 34.04600
H  47.20800 18.92500 33.56000
H  48.39100 19.34800 32.39500
H  48.55100 14.90800 34.33000
H  47.18600 14.24300 33.55700
H  47.11500 14.17700 35.92700
H  45.65700 14.71500 35.16300
H  52.91900 19.40700 30.27000
H  54.02500 18.35200 29.54500
H  52.99100 17.74000 30.76700
H  54.93700 18.17800 27.31900
H  53.81000 19.58000 27.56200
H  54.44400 19.24300 26.01100
H  49.20300 15.39100 23.80900
H  46.15900 15.62700 24.11600
H  47.10700 17.27200 22.96600
H  48.77600 16.87400 22.19800
H  48.58400 18.04600 23.44900
H  46.79600 12.82100 24.28000
H  48.22200 13.46800 23.51500
H  46.87300 14.08400 21.41800
H  45.41700 13.91500 22.28900
H  46.53400 12.48600 22.16500
H  42.62600 14.12200 27.04300
H  42.34000 12.86200 28.28200
H  43.56400 12.52700 27.13400
H  44.74700 14.20700 32.84700
H  43.49200 17.23900 35.20200
H  42.20900 16.08100 35.71400
H  41.98700 17.02900 34.32400

