158

Mg 47.76400 25.39600 28.45300
C  48.96300 27.42000 31.17500
C  46.54300 23.18500 30.94100
C  46.88500 23.20300 26.10700
C  49.62300 27.27700 26.36800
N  47.71200 25.38900 30.81600
C  48.24400 26.34600 31.67200
C  47.94300 25.98900 33.12600
C  47.14400 24.66900 33.02800
C  47.09900 24.39600 31.51000
C  47.65400 23.50300 33.90100
C  47.34700 27.24100 33.88900
C  47.82900 27.46600 35.41200
H  46.74800 27.58200 36.48200
N  46.74600 23.47900 28.53700
C  46.39100 22.75200 29.62600
C  45.52700 21.57700 29.16300
C  45.53200 21.58900 27.73100
C  46.39100 22.82300 27.41400
C  44.80600 20.60100 30.08800
C  44.89100 20.72700 26.70400
O  45.09600 20.86800 25.53200
C  44.02700 19.48900 27.02700
N  48.12800 25.28700 26.45100
C  47.58600 24.30900 25.65900
C  48.15400 24.43500 24.24600
C  49.06600 25.64800 24.40000
C  48.85000 26.21700 25.79200
C  48.91800 23.15700 23.91600
C  48.89100 26.69200 23.25400
C  48.79200 26.09000 21.84800
N  48.91900 27.07800 28.62700
C  49.69100 27.69900 27.69800
C  50.38100 28.81000 28.33100
C  50.16100 28.69400 29.65400
C  49.18400 27.70900 29.81800
C  51.47600 29.70200 27.60000
C  50.55000 29.23500 30.93100
O  51.40900 30.04500 31.25700
C  49.67000 28.49500 32.01100
C  50.55500 27.86900 33.09900
O  51.06600 26.71200 33.12000
O  50.85900 28.84800 33.98300
C  51.90900 28.54700 34.96200
H  46.23000 22.45400 31.68900
H  46.56900 22.53400 25.30400
H  50.22500 27.83800 25.65000
H  48.91900 25.77100 33.55900
H  46.12300 24.93600 33.30300
H  46.78600 23.16400 34.46600
H  48.48300 23.77000 34.55500
H  47.88300 22.55100 33.42200
H  46.28000 27.01700 33.91000
H  47.31700 28.19600 33.36500
H  48.34700 28.40600 35.60400
H  48.53400 26.65000 35.57000
H  44.82200 20.89200 31.13800
H  45.31700 19.65300 29.92000
H  43.79900 20.41500 29.71600
H  43.17000 19.95100 27.51700
H  44.49700 18.84500 27.77000
H  43.71100 18.91100 26.15900
H  47.33500 24.60900 23.54800
H  50.08300 25.26000 24.46800
H  49.15000 22.72900 24.89100
H  49.78400 23.47400 23.33500
H  48.36500 22.45600 23.29100
H  49.70300 27.39500 23.43800
H  47.97400 27.24100 23.46600
H  49.67100 26.39100 21.27700
H  47.94500 26.54800 21.33800
H  48.76200 25.00300 21.91700
H  52.21200 28.99800 27.21300
H  51.86300 30.44300 28.29900
H  50.97100 30.26200 26.81300
H  48.98500 29.23900 32.41700
H  52.83100 28.25500 34.45900
H  51.63500 27.93900 35.82400
H  52.27400 29.43100 35.48500
Mg -2.51600 33.85700 25.80900
C  -4.06500 32.54500 28.68900
C  -0.90600 36.08100 27.52300
C  -1.66900 35.20700 22.78700
C  -4.61500 31.63700 23.99000
N  -2.59700 34.26000 27.90200
C  -3.29500 33.64900 28.92600
C  -2.92600 34.20000 30.27900
C  -1.95000 35.40800 29.83700
C  -1.79400 35.25300 28.30600
C  -2.57100 36.80800 30.26900
C  -2.07500 33.26600 31.18300
C  -1.71500 33.67300 32.63300
H  -2.27200 32.85000 33.74100
N  -1.35100 35.31700 25.22900
C  -0.73100 36.20700 26.11000
C  0.17300 37.05000 25.42400
C  -0.04800 36.83500 24.02700
C  -1.04600 35.71500 23.90500
C  1.03500 38.02400 26.18600
C  0.58200 37.60100 22.86600
O  0.31700 37.37600 21.68700
C  1.68500 38.52900 23.12700
N  -3.07100 33.51000 23.57300
C  -2.61000 34.21600 22.57000
C  -3.21400 33.84600 21.24700
C  -3.70700 32.38600 21.65300
C  -3.87900 32.55200 23.17100
C  -4.33900 34.77900 20.76000
C  -2.60600 31.24600 21.48700
C  -3.14300 29.91900 21.01900
N  -3.95900 32.34800 26.17800
C  -4.56000 31.44800 25.37200
C  -5.28000 30.47600 26.16300
C  -5.08000 30.88800 27.48100
C  -4.30300 32.03000 27.39700
C  -6.20000 29.46400 25.64900
C  -5.49400 30.61800 28.85900
O  -6.25100 29.80700 29.33300
C  -4.82100 31.69300 29.68200
C  -5.92700 32.47900 30.30900
O  -6.94300 32.89100 29.82000
O  -5.76700 32.36500 31.67500
C  -6.99400 32.78000 32.37800
H  -0.30100 36.73200 28.15800
H  -1.27700 35.67000 21.87900
H  -5.16400 30.86200 23.45000
H  -3.76900 34.54900 30.87500
H  -0.94900 35.37200 30.26600
H  -2.85600 37.40000 29.39900
H  -1.83400 37.40700 30.80400
H  -3.49200 36.71500 30.84300
H  -1.17800 32.86900 30.70800
H  -2.69300 32.43400 31.52300
H  -2.10600 34.66100 32.87600
H  -0.63400 33.76900 32.73900
H  0.61000 38.20000 27.17400
H  1.11200 39.00300 25.71300
H  2.04300 37.61800 26.27900
H  2.18200 38.72400 22.17700
H  2.38100 38.05100 23.81600
H  1.34900 39.39900 23.69300
H  -2.49800 33.60200 20.46100
H  -4.61600 32.19900 21.08100
H  -4.53900 35.57300 21.48000
H  -5.25600 34.23600 20.53500
H  -4.11800 35.24200 19.79800
H  -2.11600 31.03300 22.43800
H  -1.87100 31.55300 20.74300
H  -2.97500 29.83500 19.94500
H  -4.21100 29.76000 21.16800
H  -2.59900 29.15700 21.57600
H  -5.73000 28.87200 24.86400
H  -6.91500 30.10800 25.13700
H  -6.70700 28.83700 26.38300
H  -4.28000 31.21200 30.49700
H  -7.89300 32.23800 32.08500
H  -7.18000 33.83300 32.16400
H  -6.90600 32.79800 33.46400

