158

Mg 47.37400 25.58900 28.21900
C  48.02900 27.82900 30.69900
C  46.79800 23.11900 30.63500
C  46.60700 23.53300 25.70400
C  48.55400 27.87500 25.87800
N  47.31500 25.52900 30.37900
C  47.62100 26.56200 31.16700
C  47.49700 26.25000 32.68000
C  47.12200 24.73000 32.62500
C  47.21500 24.39200 31.10400
C  48.00000 23.73200 33.47100
C  46.55100 27.21800 33.47100
C  45.80600 26.72800 34.77600
H  46.13100 27.44000 36.11000
N  46.60100 23.62200 28.21000
C  46.49400 22.74700 29.25100
C  46.08800 21.42200 28.71800
C  45.95400 21.55600 27.30100
C  46.41800 22.95900 26.99400
C  45.83700 20.20800 29.53200
C  45.50000 20.47900 26.30900
O  45.56200 20.66800 25.12500
C  45.10200 19.13500 26.72300
N  47.59900 25.65800 26.09400
C  47.25700 24.63700 25.28600
C  47.65900 24.98200 23.89700
C  47.96000 26.51100 23.92600
C  48.00800 26.72200 25.43300
C  48.79600 24.04200 23.28800
C  46.82900 27.32100 23.30800
C  47.04300 27.73400 21.87000
N  48.32800 27.44200 28.28900
C  48.68300 28.27800 27.29000
C  49.23100 29.54500 27.82500
C  48.91800 29.38700 29.21700
C  48.47100 28.09800 29.44000
C  49.72700 30.76900 27.14100
C  48.91300 30.12200 30.50500
O  49.25100 31.24400 30.82200
C  48.34700 29.12700 31.53300
C  49.40000 28.95200 32.58100
O  50.32600 28.21500 32.49400
O  49.01300 29.59700 33.70800
C  49.86300 29.34600 34.88500
H  46.47900 22.38800 31.38100
H  46.51100 22.77200 24.92700
H  48.88600 28.56300 25.09800
H  48.49400 26.43100 33.08200
H  46.08800 24.42900 32.79300
H  47.39100 23.12100 34.13700
H  48.75000 24.33000 33.98900
H  48.59300 23.08800 32.82300
H  45.68000 27.33800 32.82600
H  46.83800 28.26100 33.60100
H  45.97000 25.66900 34.97600
H  44.72000 26.78000 34.71300
H  46.03500 20.39400 30.58700
H  46.45100 19.35500 29.24300
H  44.78300 19.96200 29.39700
H  44.34700 19.14700 27.50900
H  46.01600 18.63700 27.04600
H  44.67200 18.67300 25.83400
H  46.77800 24.91000 23.25800
H  48.94800 26.83900 23.60400
H  48.52900 23.71300 22.28400
H  48.97800 23.19100 23.94400
H  49.73500 24.59600 23.26000
H  46.65300 28.25400 23.84500
H  45.85500 26.83200 23.30000
H  46.55400 27.10600 21.12500
H  48.08400 27.51100 21.63300
H  46.87900 28.80000 21.71600
H  49.66200 30.81100 26.05400
H  50.74300 30.91400 27.50800
H  49.30200 31.70500 27.50400
H  47.43700 29.57800 31.92800
H  49.56000 30.05200 35.65900
H  50.91700 29.43300 34.62200
H  49.66200 28.30300 35.12600
Mg 48.02800 35.41700 27.65000
C  46.34200 33.54000 30.13300
C  48.42200 37.95400 29.69700
C  49.72400 36.90000 25.15100
C  47.29800 32.68800 25.38900
N  47.44300 35.68800 29.66900
C  46.94700 34.76500 30.57900
C  47.03900 35.37500 32.00000
C  47.24100 36.82100 31.72800
C  47.81900 36.85400 30.32100
C  45.98000 37.74100 32.03300
C  48.14500 34.67800 32.79900
C  47.91200 34.41500 34.24600
H  46.91600 35.26700 35.05500
N  48.80400 37.21700 27.39100
C  48.87100 38.15100 28.40500
C  49.53300 39.34300 27.92000
C  50.09000 38.99000 26.62700
C  49.46800 37.69300 26.28700
C  49.78800 40.51100 28.79300
C  51.10500 39.66300 25.66400
O  51.49600 39.14000 24.64000
C  51.71800 40.98900 26.03200
N  48.17900 34.98300 25.47100
C  49.06100 35.68200 24.77800
C  49.37200 35.06800 23.37300
C  48.56900 33.65100 23.46500
C  47.97600 33.80200 24.87000
C  49.06000 35.90200 22.08900
C  49.52600 32.44000 23.33200
C  49.18300 31.43100 22.15500
N  46.93700 33.58600 27.63500
C  46.73500 32.54100 26.66600
C  45.93300 31.50800 27.25700
C  45.77100 31.85700 28.57700
C  46.40500 33.12500 28.79700
C  45.52700 30.23300 26.59300
C  45.10400 31.50000 29.83800
O  44.40900 30.56100 30.09000
C  45.21900 32.74700 30.76300
C  45.50900 32.36200 32.15000
O  46.40600 31.58600 32.48700
O  44.52200 32.81100 32.92900
C  44.49100 32.33100 34.32500
H  48.72900 38.65300 30.47800
H  50.41800 37.20400 24.36400
H  47.20200 31.80700 24.75100
H  46.05600 35.19800 32.43800
H  48.11600 37.17100 32.27500
H  45.71200 37.70400 33.08900
H  45.13400 37.28200 31.52200
H  45.96400 38.71400 31.54300
H  49.10600 35.14100 32.57700
H  48.39100 33.77100 32.24700
H  48.85100 34.44100 34.79900
H  47.57800 33.37800 34.28000
H  50.78100 40.94400 28.66700
H  49.61000 40.37800 29.86000
H  49.27000 41.39800 28.42800
H  50.90900 41.71600 25.95200
H  52.48100 41.22600 25.29100
H  52.31100 40.90500 26.94200
H  50.44300 34.87000 23.31800
H  47.78600 33.59100 22.70900
H  48.23700 35.42600 21.55800
H  49.93700 35.87900 21.44300
H  48.76900 36.87300 22.49000
H  49.59000 31.89500 24.27300
H  50.52500 32.79500 23.08000
H  48.40900 31.82700 21.49800
H  48.78600 30.53800 22.63700
H  50.08600 31.10200 21.64200
H  44.74300 29.79400 27.21100
H  46.35800 29.54900 26.42700
H  44.95900 30.57800 25.72800
H  44.29100 33.28000 30.55700
H  44.02100 31.35700 34.45600
H  43.79500 32.93900 34.90300
H  45.38400 32.34600 34.95000

