158

Mg 45.60600 4.31200 46.89700
C  43.71600 7.24200 46.54600
C  42.70100 2.50000 46.29600
C  47.46500 1.62000 46.50300
C  48.52300 6.37300 46.35800
N  43.42700 4.79700 46.67200
C  42.97500 6.09400 46.53800
C  41.42200 6.06600 46.34900
C  41.07200 4.56700 46.56800
C  42.47700 3.83600 46.62400
C  40.17100 4.35300 47.81400
C  40.90000 6.62600 44.96500
C  41.88300 6.61800 43.75500
H  41.13400 6.02500 42.56100
N  45.14400 2.29500 46.55300
C  43.91700 1.77700 46.23400
C  44.04200 0.36400 45.91300
C  45.44000 0.04800 45.98600
C  46.05900 1.36000 46.37900
C  42.88100 -0.56800 45.34300
C  46.03300 -1.29400 45.67500
O  45.37300 -2.30800 45.37000
C  47.57200 -1.46100 45.47200
N  47.66700 4.06300 46.38300
C  48.17600 2.83000 46.50100
C  49.74100 2.84600 46.32700
C  50.06300 4.35800 46.31200
C  48.70400 4.98500 46.42800
C  50.67900 1.95900 47.25400
C  50.93500 4.92900 45.17200
C  52.21400 5.71000 45.47900
N  46.07300 6.34400 46.66500
C  47.27400 6.98600 46.45300
C  47.00200 8.45400 46.45100
C  45.61000 8.63700 46.60100
C  45.10400 7.27700 46.62000
C  48.06600 9.54900 46.22900
C  44.48400 9.53900 46.63400
O  44.37500 10.77000 46.68700
C  43.23400 8.69800 46.58300
C  42.36200 8.99400 47.77300
O  42.13600 8.29300 48.81200
O  41.71100 10.21600 47.64500
C  40.78100 10.63700 48.69600
H  41.75300 2.01400 46.05700
H  48.13700 0.77900 46.32100
H  49.43000 6.98200 46.37000
H  41.11800 6.66900 47.20500
H  40.56300 4.26700 45.65200
H  39.63600 5.23300 48.17100
H  40.86700 4.10900 48.61600
H  39.40600 3.60800 47.59200
H  40.76800 7.70000 45.09800
H  39.96200 6.24000 44.56700
H  42.61800 5.84300 43.97100
H  42.37500 7.54100 43.44500
H  43.03700 -0.77700 44.28400
H  41.84500 -0.23600 45.40200
H  42.83800 -1.49900 45.90800
H  47.83700 -2.48000 45.19300
H  48.11600 -1.45700 46.41700
H  47.99300 -0.69700 44.81800
H  50.00600 2.41300 45.36200
H  50.65200 4.58800 47.20000
H  51.31400 1.24500 46.73000
H  50.02500 1.44700 47.95900
H  51.20100 2.63000 47.93600
H  50.37800 5.66400 44.59000
H  51.20700 4.12200 44.49200
H  53.10600 5.13500 45.22900
H  52.16200 5.99600 46.53000
H  52.14700 6.60500 44.86200
H  48.59500 9.69300 47.17100
H  47.63900 10.51300 45.95100
H  48.82900 9.26400 45.50500
H  42.77900 8.95600 45.62700
H  40.67100 11.72200 48.70300
H  41.02600 10.57400 49.75700
H  39.87400 10.11500 48.39200
Mg 55.28700 24.43200 44.49300
C  52.62700 26.62600 43.67200
C  53.48300 21.78200 43.21000
C  58.09900 22.64100 44.77400
C  57.04700 27.40400 45.54400
N  53.30000 24.30400 43.70200
C  52.40400 25.27100 43.44600
C  51.02900 24.60000 43.03200
C  51.28400 23.06800 43.28100
C  52.85100 23.02400 43.25500
C  50.71900 22.50400 44.60400
C  50.65600 24.82200 41.51900
C  51.76100 25.10800 40.51900
H  52.37200 23.81200 40.02200
N  55.73100 22.44700 44.08800
C  54.84700 21.52900 43.57500
C  55.50500 20.27000 43.62300
C  56.85400 20.49300 44.00700
C  56.96800 21.90500 44.33300
C  54.82900 18.97100 43.31500
C  57.88000 19.35000 44.07900
O  57.59100 18.19600 43.69100
C  59.27700 19.67700 44.48400
N  57.31500 25.03200 44.87600
C  58.28100 24.05000 44.99000
C  59.63700 24.73700 45.16900
C  59.21400 26.15500 45.69000
C  57.74500 26.24500 45.27800
C  60.65300 24.11700 46.09800
C  60.05400 27.32400 45.01000
C  60.80100 28.10700 46.09600
N  54.98800 26.66500 44.66800
C  55.79800 27.65900 45.12800
C  54.96300 28.85300 45.16700
C  53.71500 28.52100 44.57600
C  53.80800 27.17900 44.28400
C  55.39200 30.14800 45.91100
C  52.39500 29.04700 44.28300
O  51.84000 30.11100 44.42100
C  51.66200 27.88400 43.51000
C  51.46800 28.37700 42.15500
O  52.41300 28.77500 41.49000
O  50.12800 28.38900 41.80200
C  49.69500 28.81000 40.49000
H  52.83200 20.93800 42.97000
H  58.99400 22.06900 45.02900
H  57.60200 28.25700 45.94000
H  50.20800 25.01300 43.61800
H  50.87700 22.39000 42.53000
H  51.52300 21.96200 45.10200
H  50.07700 21.64100 44.42900
H  50.24700 23.23000 45.26700
H  50.01300 25.70200 41.51700
H  49.96600 24.04600 41.18900
H  52.48300 25.76900 40.99900
H  51.31600 25.65800 39.68900
H  55.24400 18.49800 42.42500
H  53.78200 19.19600 43.11400
H  54.94800 18.32800 44.18800
H  59.63200 20.45200 43.80400
H  59.89600 18.78500 44.39000
H  59.24200 20.03600 45.51200
H  59.93200 24.84500 44.12500
H  59.21600 26.13900 46.78000
H  60.24300 23.43200 46.84000
H  61.20000 24.93100 46.57300
H  61.46100 23.62700 45.55400
H  59.47600 28.00900 44.39100
H  60.82300 26.94300 44.33700
H  61.76000 28.46300 45.72000
H  61.03600 27.48600 46.96000
H  60.27700 29.01200 46.40500
H  56.46200 30.33900 45.99200
H  54.87500 30.34700 46.84900
H  55.07100 30.98100 45.28500
H  50.69100 27.85600 44.00400
H  49.09800 29.72200 40.50400
H  49.07200 28.00600 40.10000
H  50.50100 28.90200 39.76100

