158

Mg 35.36900 0.61300 29.45700
C  33.10200 1.83200 31.89000
C  37.82600 0.44700 31.77400
C  37.45000 -0.02900 26.89300
C  32.80100 1.31000 27.07100
N  35.45900 1.25500 31.52600
C  34.41400 1.45500 32.34900
C  34.95600 1.52700 33.82800
C  36.49400 1.51300 33.60900
C  36.62600 1.01900 32.18300
C  37.14800 2.83300 33.89900
C  34.48200 0.30400 34.75400
C  34.18300 0.66400 36.23100
H  34.87600 1.96200 36.81900
N  37.43000 0.15000 29.33600
C  38.25200 0.04800 30.40800
C  39.56000 -0.27600 29.96900
C  39.44400 -0.42200 28.50900
C  38.06600 -0.12600 28.15600
C  40.73500 -0.47700 30.88700
C  40.48900 -0.67600 27.52700
O  40.22600 -0.70600 26.33500
C  41.92400 -1.20700 28.05900
N  35.20900 0.79200 27.27700
C  36.19100 0.36200 26.48200
C  35.77100 0.32600 25.02500
C  34.23900 0.57100 25.09300
C  34.09000 0.93300 26.61000
C  36.62000 1.26800 24.15300
C  33.31200 -0.62200 24.71500
C  32.12300 -0.43100 23.71700
N  33.33800 1.28400 29.46600
C  32.44900 1.50800 28.45700
C  31.21600 2.09600 28.91300
C  31.34000 2.17000 30.33200
C  32.69200 1.70900 30.61000
C  30.09200 2.53000 28.06500
C  30.75100 2.49700 31.56300
O  29.64700 2.88100 31.77600
C  31.83000 2.20900 32.65800
C  31.98000 3.40900 33.50800
O  32.68700 4.43500 33.30400
O  31.10700 3.24500 34.54000
C  30.81700 4.33400 35.49400
H  38.65400 0.37800 32.48300
H  37.97400 -0.44400 26.03000
H  31.97800 1.38600 26.35700
H  34.62900 2.45500 34.29800
H  36.94100 0.76600 34.26500
H  37.64400 3.14500 32.98000
H  37.96000 2.88200 34.62500
H  36.40700 3.57900 34.18500
H  35.22100 -0.49200 34.84100
H  33.57500 -0.03500 34.25200
H  34.41300 -0.22400 36.82100
H  33.10600 0.76400 36.36400
H  40.99100 -1.53400 30.80700
H  40.36600 -0.28700 31.89500
H  41.57300 0.16600 30.61800
H  42.63300 -1.61300 27.33700
H  41.71700 -2.01000 28.76600
H  42.50400 -0.46300 28.60500
H  36.01500 -0.58500 24.47700
H  34.01200 1.33800 24.35200
H  36.00100 1.80200 23.43200
H  37.35600 0.66700 23.61900
H  37.04800 2.03400 24.79900
H  33.01300 -1.09200 25.65200
H  34.02600 -1.28100 24.22200
H  31.86600 0.61300 23.53800
H  31.19500 -0.76800 24.17800
H  32.32800 -0.92900 22.77000
H  29.60000 3.43500 28.42100
H  29.43500 1.67100 27.93000
H  30.42900 2.83700 27.07500
H  31.50000 1.40800 33.32000
H  29.81600 4.35400 35.92600
H  30.97000 5.33200 35.08500
H  31.48800 4.14600 36.33200
Mg 47.20400 34.41600 27.67700
C  45.53700 32.62600 30.13100
C  47.51200 37.07900 29.95400
C  48.27500 36.25700 25.24700
C  46.24300 31.84500 25.36700
N  46.59300 34.74600 29.82300
C  45.96400 33.79900 30.63800
C  45.96400 34.25400 32.04900
C  46.32500 35.82400 31.95800
C  46.95100 35.86800 30.51900
C  45.15000 36.85000 32.20300
C  46.97000 33.41400 32.94300
C  46.72800 33.35600 34.50100
H  45.88200 34.51200 35.13700
N  47.77700 36.36400 27.58700
C  47.99400 37.31900 28.64000
C  48.60400 38.47100 28.13100
C  48.95500 38.16700 26.77300
C  48.33800 36.90000 26.49900
C  49.03400 39.63700 29.10300
C  49.77500 38.94200 25.83000
O  49.95400 38.68300 24.63000
C  50.43100 40.25000 26.29100
N  47.23700 34.07300 25.61100
C  47.73300 35.07300 24.80500
C  47.69500 34.57800 23.31200
C  46.94500 33.21300 23.34900
C  46.79200 33.00700 24.84400
C  47.04900 35.64500 22.45200
C  47.60600 32.04600 22.56900
C  48.73900 31.25900 23.31300
N  46.37200 32.46900 27.67900
C  45.95800 31.58600 26.74000
C  45.41600 30.39000 27.33600
C  45.14000 30.84000 28.65300
C  45.70800 32.10200 28.81000
C  44.96900 29.09200 26.67800
C  44.42200 30.50800 29.82400
O  43.79400 29.53400 30.10100
C  44.42100 31.70800 30.74400
C  44.38100 31.27700 32.12900
O  45.22700 30.58400 32.64400
O  43.21800 31.73800 32.70700
C  43.17000 31.75300 34.21300
H  47.43400 37.87500 30.69700
H  48.74800 36.74300 24.39100
H  46.06600 30.96700 24.74300
H  44.93400 34.19100 32.40200
H  47.09700 36.14700 32.65700
H  44.18500 36.34500 32.22700
H  44.99800 37.53300 31.36800
H  45.42300 37.29700 33.16000
H  48.01500 33.71600 32.86900
H  46.92800 32.40700 32.52700
H  47.68000 33.44400 35.02500
H  46.09400 32.52600 34.81500
H  48.54200 40.55100 28.77000
H  50.11700 39.76100 29.11600
H  48.79000 39.46800 30.15200
H  49.79100 40.86800 26.91900
H  50.63200 40.99100 25.51700
H  51.39500 40.00000 26.73600
H  48.73300 34.47600 22.99500
H  45.91800 33.37100 23.02000
H  47.84700 36.19400 21.95200
H  46.32600 36.22300 23.02900
H  46.50200 35.15300 21.64800
H  48.04800 32.45200 21.65900
H  46.90100 31.35500 22.10800
H  48.39800 30.29200 23.68100
H  49.19800 31.76900 24.16000
H  49.72100 31.23800 22.84100
H  44.37200 29.39100 25.81700
H  44.48200 28.46200 27.42300
H  45.87600 28.66000 26.25500
H  43.42100 32.06200 30.49400
H  42.33800 31.12500 34.53100
H  42.90300 32.77800 34.47000
H  44.07500 31.49800 34.76600

