158

Mg 53.74600 24.53700 43.82000
C  51.02700 26.99000 43.03800
C  51.41200 22.28200 42.72000
C  56.24200 22.49800 43.34200
C  55.73200 27.21700 44.61700
N  51.48600 24.67400 42.75400
C  50.59500 25.71200 42.72200
C  49.21900 25.24000 42.25200
C  49.27300 23.67600 42.45000
C  50.82000 23.53000 42.72100
C  48.48500 23.13300 43.71500
C  48.76700 25.72300 40.91500
C  49.84500 25.77200 39.75500
H  49.23400 25.78200 38.35600
N  53.80600 22.55700 43.42700
C  52.76100 21.84000 42.99900
C  53.23300 20.42900 42.77200
C  54.68200 20.46100 43.06900
C  54.96100 21.87900 43.27100
C  52.40100 19.33300 42.26900
C  55.64600 19.25100 42.92500
O  55.19800 18.14300 42.54300
C  57.08500 19.32000 43.22600
N  55.76100 24.89500 43.76600
C  56.69800 23.84400 43.58800
C  58.14500 24.39000 43.51200
C  57.85300 25.89600 44.06600
C  56.36000 26.02700 44.20400
C  59.26300 23.55900 44.19500
C  58.54500 27.02300 43.31300
C  57.79500 27.73900 42.23300
N  53.40100 26.59800 44.00500
C  54.34700 27.56200 44.44700
C  53.71600 28.89800 44.52400
C  52.43300 28.68500 43.98100
C  52.27400 27.32200 43.62600
C  54.20500 30.08700 45.22400
C  51.12900 29.31700 43.70700
O  50.74900 30.45100 43.83200
C  50.25900 28.31200 42.99500
C  49.87200 28.83600 41.60900
O  50.62200 29.09500 40.65800
O  48.56200 29.07800 41.73400
C  47.95300 29.54100 40.45900
H  50.73600 21.48500 42.40300
H  57.09600 21.83900 43.17000
H  56.38700 28.04300 44.90100
H  48.60400 25.71200 43.01900
H  49.03300 23.19500 41.50200
H  47.58500 22.69400 43.28500
H  48.40100 23.93600 44.44700
H  49.12500 22.40700 44.21600
H  48.18300 26.64300 40.93700
H  48.08000 24.91900 40.65300
H  50.66700 25.06500 39.86800
H  50.27400 26.77000 39.66000
H  52.34700 19.51400 41.19600
H  51.36800 19.49000 42.58100
H  52.69400 18.30600 42.48300
H  57.56700 19.50400 42.26600
H  57.50500 18.37200 43.56300
H  57.37200 20.06900 43.96500
H  58.42200 24.35500 42.45800
H  58.31400 25.88300 45.05400
H  58.84300 23.27000 45.15800
H  60.14900 24.15900 44.40200
H  59.41600 22.69300 43.55000
H  59.39200 26.53700 42.83000
H  58.90000 27.70700 44.08500
H  57.46100 28.69600 42.63300
H  56.83300 27.26700 42.03700
H  58.35100 27.74300 41.29500
H  53.70600 30.92900 44.74400
H  55.27100 30.15100 45.00900
H  54.04200 30.01900 46.29900
H  49.39000 28.23600 43.65000
H  47.67600 30.59500 40.48700
H  47.03600 28.95900 40.37200
H  48.52500 29.28700 39.56600
Mg 45.95800 16.63600 27.13100
C  44.34100 16.38400 30.23200
C  48.31700 18.70600 28.55300
C  46.83800 17.67700 23.97600
C  43.15800 15.01500 25.74200
N  46.22200 17.52700 29.16700
C  45.54200 17.17300 30.29800
C  46.22000 17.70000 31.56800
C  47.40500 18.60500 30.93000
C  47.38600 18.19200 29.45800
C  47.17300 20.07600 31.20700
C  46.61100 16.70300 32.57700
C  46.74500 17.15600 34.10600
H  46.54700 18.64500 34.50900
N  47.50900 17.81700 26.33900
C  48.36600 18.55500 27.10100
C  49.35300 19.15500 26.23400
C  48.95200 18.87900 24.89400
C  47.70900 18.16700 25.00300
C  50.59700 19.97600 26.67300
C  49.54100 19.41400 23.63800
O  49.00100 19.20200 22.51600
C  50.79900 20.19500 23.61300
N  45.19900 16.31500 25.11700
C  45.70200 16.85000 23.98400
C  45.05300 16.34800 22.80000
C  44.09900 15.22400 23.42700
C  44.08100 15.65300 24.84000
C  44.41200 17.58700 22.07500
C  44.62700 13.73000 23.39100
C  43.68200 12.74800 22.63400
N  44.10700 15.85000 27.79800
C  43.16000 15.08900 27.15600
C  42.07700 14.70900 28.08200
C  42.51200 15.12200 29.30800
C  43.78500 15.80100 29.08900
C  40.73400 14.20500 27.65100
C  42.23800 15.21400 30.70200
O  41.21000 14.89000 31.34400
C  43.36800 16.06800 31.39600
C  42.76400 17.19000 32.31100
O  42.39700 18.28400 31.95800
O  42.72500 16.66900 33.57800
C  42.30700 17.57300 34.65500
H  49.18200 19.16200 29.03800
H  47.12400 17.78700 22.92800
H  42.48800 14.34600 25.19700
H  45.42700 18.28900 32.03000
H  48.34400 18.37900 31.43700
H  46.18700 20.11700 31.67000
H  47.13700 20.77100 30.36800
H  47.89800 20.30900 31.98600
H  47.59700 16.35000 32.27400
H  45.91700 15.86700 32.48200
H  47.78100 16.91400 34.34200
H  46.09600 16.52200 34.71000
H  51.47200 19.50100 26.22900
H  50.64200 20.10900 27.75400
H  50.57500 20.99700 26.29100
H  50.74800 21.14500 24.14500
H  50.81900 20.60200 22.60200
H  51.63100 19.52900 23.84100
H  45.73400 15.97600 22.03500
H  43.05400 15.18000 23.12100
H  44.55900 18.51400 22.62900
H  43.33200 17.44100 22.04300
H  44.72900 17.79900 21.05400
H  44.87700 13.31900 24.36900
H  45.54500 13.73100 22.80300
H  44.11200 12.50100 21.66300
H  42.71600 13.00000 22.19700
H  43.52300 11.83600 23.20900
H  40.63700 14.50900 26.60900
H  39.91200 14.72900 28.13800
H  40.70500 13.11800 27.72300
H  43.89300 15.37000 32.04800
H  42.86600 18.50800 34.62600
H  42.49700 17.07600 35.60600
H  41.22300 17.67600 34.61300

