158

Mg 52.47300 24.19900 44.47200
C  49.75600 26.34200 44.02600
C  50.27600 21.52700 44.11400
C  55.13300 22.26600 43.90600
C  54.51900 27.05100 44.81900
N  50.31500 23.99400 43.83700
C  49.41000 25.04200 43.75000
C  47.97400 24.48600 43.59900
C  48.13200 22.98300 43.91000
C  49.71000 22.78200 44.01200
C  47.40100 22.30300 45.11800
C  47.17700 24.71300 42.26900
C  47.95700 24.58500 40.95000
H  47.40700 25.21400 39.72500
N  52.68100 22.10300 44.16400
C  51.65700 21.20600 44.29800
C  52.25100 19.90900 44.31400
C  53.68800 20.00100 44.22900
C  53.88300 21.48600 44.04100
C  51.40600 18.61800 44.58000
C  54.70700 18.90800 44.38500
O  54.39400 17.74800 44.58900
C  56.12600 19.30000 44.36000
N  54.46800 24.64000 44.30100
C  55.37200 23.62400 44.12700
C  56.82200 24.27800 43.94200
C  56.60800 25.81300 44.25100
C  55.10500 25.84800 44.42600
C  57.94100 23.50700 44.71800
C  57.20000 26.93300 43.30900
C  57.75100 28.22600 43.96700
N  52.21300 26.22800 44.50100
C  53.12800 27.25500 44.89400
C  52.35600 28.47400 45.11900
C  51.06900 28.11800 44.80000
C  51.05400 26.78400 44.37200
C  52.68500 29.75300 45.75300
C  49.71200 28.69000 44.79100
O  49.26000 29.68700 45.25500
C  48.84200 27.62700 44.11900
C  48.30000 28.06200 42.83200
O  48.89100 28.01400 41.74100
O  47.05100 28.54200 42.97700
C  46.40600 29.10800 41.80500
H  49.56300 20.71200 44.25300
H  56.02000 21.73000 43.56100
H  55.14600 27.93000 44.98100
H  47.43300 24.90900 44.44600
H  47.84200 22.31600 43.09900
H  47.15300 21.31600 44.72600
H  46.45600 22.76800 45.39900
H  48.05700 22.30000 45.98800
H  46.55900 25.60700 42.35800
H  46.49000 23.86800 42.29800
H  47.82000 23.54000 40.67400
H  48.96500 24.84600 41.27100
H  51.35100 17.86400 43.79500
H  50.45400 18.96800 44.97900
H  51.75700 18.01000 45.41300
H  56.67900 18.40200 44.63600
H  56.25700 20.04200 45.14800
H  56.48000 19.71800 43.41800
H  57.19000 24.17000 42.92200
H  57.08400 25.98300 45.21600
H  58.72000 24.23300 44.95200
H  58.22500 22.62300 44.14700
H  57.57400 23.12100 45.66900
H  56.34700 27.22300 42.69700
H  57.97900 26.51900 42.66900
H  57.86700 28.13300 45.04700
H  57.04400 29.02700 43.75300
H  58.63700 28.55200 43.42200
H  52.31300 30.63400 45.23100
H  53.76800 29.84000 45.84700
H  52.37800 29.80200 46.79700
H  47.94800 27.44900 44.71600
H  45.35300 29.31800 41.99300
H  46.41900 28.46900 40.92200
H  46.98000 29.95700 41.43500
Mg -5.91300 24.55200 26.69700
C  -4.16500 26.11500 29.38700
C  -7.05300 22.28300 29.08000
C  -7.64800 23.18800 24.29300
C  -4.14000 26.55100 24.49600
N  -5.53200 24.19200 28.97600
C  -4.93800 25.03900 29.80800
C  -5.19400 24.68800 31.24900
C  -5.78500 23.22200 31.16400
C  -6.23100 23.22200 29.64800
C  -4.69000 22.20700 31.41200
C  -6.20700 25.63100 31.94200
C  -5.93600 26.02100 33.46500
H  -5.94200 24.76400 34.43000
N  -7.16500 23.00700 26.73300
C  -7.49400 22.21900 27.78300
C  -8.40300 21.14600 27.27700
C  -8.56600 21.38800 25.91500
C  -7.76300 22.58300 25.55400
C  -8.75000 19.93500 28.10200
C  -9.45600 20.62600 24.90600
O  -9.46700 20.86200 23.70500
C  -10.42200 19.59000 25.35400
N  -5.89700 24.79500 24.66600
C  -6.73300 24.21300 23.86400
C  -6.54800 24.53800 22.39400
C  -5.37300 25.60100 22.37700
C  -5.12300 25.71100 23.93200
C  -6.25600 23.24000 21.49100
C  -5.71500 27.01700 21.77600
C  -6.76900 27.05600 20.62600
N  -4.45500 25.92700 26.84800
C  -3.87900 26.67600 25.83100
C  -2.96000 27.58500 26.44700
C  -3.01000 27.37500 27.77900
C  -3.95400 26.38200 28.00000
C  -2.12200 28.62900 25.67400
C  -2.50300 27.87500 29.12000
O  -1.70900 28.73300 29.49000
C  -3.25700 27.03500 30.16500
C  -2.32200 26.38800 31.02000
O  -1.81600 25.34000 30.80200
O  -2.12200 27.07700 32.23300
C  -1.34700 26.40100 33.32500
H  -7.49700 21.55700 29.76400
H  -8.40100 22.84300 23.58200
H  -3.61100 27.28100 23.87900
H  -4.31300 24.59700 31.88500
H  -6.48800 23.13700 31.99300
H  -4.77900 21.93800 32.46500
H  -3.71300 22.65500 31.22800
H  -4.83600 21.32400 30.79000
H  -7.15600 25.09700 31.98400
H  -6.46400 26.55500 31.42400
H  -6.67400 26.77200 33.74700
H  -5.00500 26.55800 33.64900
H  -9.82500 19.95300 28.27800
H  -8.23400 19.79800 29.05200
H  -8.44700 19.02100 27.59000
H  -10.85900 19.93900 26.28900
H  -9.82900 18.68200 25.46800
H  -11.28800 19.41500 24.71600
H  -7.53500 24.92400 22.13700
H  -4.48000 25.20000 21.89900
H  -7.05500 23.23800 20.75000
H  -6.43600 22.35500 22.10300
H  -5.26600 23.24700 21.03300
H  -4.72900 27.39200 21.50000
H  -6.05700 27.67600 22.57300
H  -7.61500 27.44900 21.19000
H  -6.97400 26.13300 20.08200
H  -6.38000 27.77200 19.90200
H  -1.17200 28.25300 25.29300
H  -1.88700 29.40700 26.40100
H  -2.66300 28.94300 24.78200
H  -3.93600 27.68900 30.71300
H  -0.75600 27.13700 33.86900
H  -0.62700 25.63600 33.03600
H  -2.07300 26.03900 34.05300

