158

Mg 0.86100 9.24900 27.06400
C  1.46800 11.27100 29.89300
C  1.18600 6.50500 29.22900
C  0.44800 7.36100 24.55300
C  1.09800 12.22200 25.09100
N  1.35600 8.98400 29.25100
C  1.44400 9.91400 30.25900
C  1.29600 9.40100 31.64800
C  1.49600 7.83600 31.40700
C  1.23100 7.72900 29.90400
C  2.82400 7.30500 31.87200
C  -0.10300 9.85100 32.23400
C  -0.41800 9.25900 33.67700
H  0.74200 8.69800 34.55900
N  0.84000 7.28500 26.86800
C  1.04300 6.28600 27.86600
C  0.84100 4.96000 27.26400
C  0.49400 5.20900 25.90400
C  0.55200 6.62900 25.72700
C  0.96400 3.67000 28.00900
C  -0.03800 4.26500 24.74100
O  -0.37100 4.66800 23.60700
C  -0.15000 2.75300 24.86300
N  0.71100 9.81800 25.15400
C  0.55200 8.80400 24.27100
C  0.65800 9.31500 22.75000
C  0.42900 10.86400 23.04800
C  0.75100 10.99300 24.54100
C  2.00700 9.02700 22.14700
C  -0.98700 11.36100 22.81400
C  -1.16200 11.89100 21.35100
N  1.20400 11.38500 27.35000
C  1.27300 12.42900 26.49700
C  1.48000 13.64400 27.24300
C  1.67000 13.25000 28.58800
C  1.34800 11.85200 28.58800
C  1.57600 15.02800 26.63600
C  1.97600 13.56500 29.93800
O  2.47600 14.60000 30.34800
C  1.73700 12.42800 30.81800
C  2.85400 12.18600 31.81400
O  3.96600 11.83100 31.45200
O  2.48700 12.52700 33.10500
C  3.40700 12.33500 34.18500
H  1.22700 5.58000 29.80800
H  0.33700 6.84100 23.59900
H  1.26600 13.02800 24.37300
H  2.04100 9.82100 32.32400
H  0.69700 7.28000 31.89800
H  3.25900 6.83100 30.99200
H  2.83100 6.56700 32.67400
H  3.41200 8.16300 32.19800
H  -0.92400 9.36400 31.70800
H  -0.19800 10.93500 32.30000
H  -1.05100 8.39600 33.46700
H  -0.89600 10.02100 34.29200
H  -0.02500 3.29100 28.26600
H  1.62100 3.76500 28.87500
H  1.53000 3.03000 27.33200
H  0.18500 2.26900 25.78000
H  0.41100 2.27700 24.05800
H  -1.21800 2.61800 24.69200
H  -0.12400 8.93000 22.09700
H  1.20400 11.47500 22.58500
H  2.58200 8.55500 22.94400
H  2.51600 9.92400 21.79400
H  1.80300 8.32300 21.34000
H  -1.17700 12.22900 23.44500
H  -1.76000 10.60500 22.95000
H  -0.30300 11.55000 20.77300
H  -1.16800 12.97900 21.29100
H  -2.07700 11.41600 20.99600
H  2.56600 15.26600 26.24800
H  1.14500 15.74300 27.33700
H  0.99900 15.04700 25.71200
H  0.85900 12.66000 31.42200
H  3.66200 13.37500 34.39300
H  4.23000 11.69700 33.86400
H  2.98000 11.86900 35.07300
Mg 35.24800 47.40900 25.19700
C  35.92300 45.80000 28.06600
C  34.01300 50.05500 27.08100
C  34.53500 49.17200 22.30200
C  36.28400 44.66500 23.36900
N  34.87900 47.78000 27.42900
C  35.33000 46.97900 28.38400
C  35.12400 47.68200 29.72100
C  34.17300 48.93000 29.32500
C  34.33100 48.93000 27.87200
C  32.67000 48.91500 29.79700
C  36.39300 48.12200 30.50900
C  36.34400 47.96900 31.97800
H  35.16400 47.94300 32.95600
N  34.42900 49.35700 24.78200
C  34.05600 50.30500 25.69700
C  33.72100 51.54600 25.03100
C  33.78000 51.27600 23.61500
C  34.27900 49.91300 23.49500
C  33.43400 52.92200 25.67400
C  33.53200 52.20200 22.44600
O  33.47200 51.74400 21.32500
C  33.32300 53.68300 22.68700
N  35.33900 46.89700 23.14200
C  34.98000 47.81800 22.11600
C  35.34700 47.17100 20.75200
C  36.12500 45.86700 21.10800
C  35.87800 45.74700 22.61700
C  34.14000 46.86400 19.78800
C  37.61500 45.86200 20.76100
C  38.63700 46.12300 21.88300
N  35.92100 45.55300 25.61400
C  36.32500 44.49900 24.73900
C  36.66200 43.41500 25.52600
C  36.62700 43.86900 26.87500
C  36.03800 45.11500 26.81200
C  37.23400 42.08900 24.95600
C  36.85300 43.54800 28.24300
O  37.31300 42.51500 28.70400
C  36.39100 44.75200 29.10400
C  35.32000 44.32200 30.07400
O  34.18100 43.98000 29.74700
O  35.68800 44.49700 31.40500
C  34.69000 44.12200 32.41000
H  33.67600 50.96200 27.58800
H  34.37500 49.56900 21.29700
H  36.62900 43.80300 22.79400
H  34.60300 47.04900 30.43900
H  34.59500 49.86700 29.68900
H  32.46200 49.70500 30.51800
H  32.18600 48.01400 30.17300
H  32.12200 49.26600 28.92200
H  36.66900 49.15500 30.29700
H  37.18000 47.49900 30.08400
H  36.99500 48.71800 32.42900
H  36.80600 46.98400 32.03600
H  34.02400 53.75100 25.28100
H  33.73100 52.93500 26.72300
H  32.36700 53.10700 25.55200
H  34.09500 54.07200 23.35100
H  32.39800 53.71000 23.26400
H  33.28600 54.23200 21.74700
H  36.17700 47.76600 20.37200
H  35.63700 45.07600 20.53800
H  33.41300 47.67300 19.72200
H  33.72100 45.94400 20.19700
H  34.43400 46.61000 18.76900
H  37.77300 46.44300 19.85300
H  37.69800 44.87600 20.30400
H  38.97600 45.19100 22.33500
H  38.19300 46.65300 22.72500
H  39.50000 46.71900 21.58600
H  36.42100 41.37100 24.84900
H  37.91100 41.76500 25.74600
H  37.70700 42.35500 24.01000
H  37.25400 45.04300 29.70400
H  34.71000 43.04000 32.53600
H  33.70300 44.50900 32.15800
H  34.96700 44.34400 33.44100

