158

Mg 41.06700 9.90300 30.28800
C  42.91300 10.51100 33.15100
C  38.68600 8.25700 32.30600
C  39.51300 8.83800 27.50100
C  43.62800 11.09800 28.29700
N  40.84700 9.45400 32.51800
C  41.76600 9.82500 33.48900
C  41.23700 9.38100 34.87000
C  40.06900 8.38600 34.50700
C  39.84300 8.73700 32.99500
C  40.22900 6.83600 34.76700
C  40.87200 10.65100 35.80500
C  41.43400 10.86400 37.19500
H  40.80300 12.00200 38.08100
N  39.27700 8.76200 29.91300
C  38.40100 8.33100 30.93900
C  37.32900 7.68100 30.28300
C  37.40200 7.94600 28.89300
C  38.80600 8.54700 28.68200
C  36.30400 6.88100 30.98100
C  36.43900 7.61100 27.74800
O  36.61900 7.84100 26.58600
C  35.06300 7.03700 28.12100
N  41.54800 10.00300 28.24400
C  40.74200 9.44800 27.29200
C  41.25400 9.69200 25.88500
C  42.33100 10.74900 26.15700
C  42.51900 10.65000 27.62800
C  41.73400 8.34500 25.30300
C  41.98000 12.13700 25.70200
C  40.70600 12.72100 26.34600
N  42.87800 10.68100 30.64200
C  43.83200 11.11700 29.73500
C  44.93200 11.70300 30.42700
C  44.60900 11.52900 31.76200
C  43.36300 10.83600 31.85000
C  46.12600 12.28500 29.98100
C  45.06300 11.75400 33.18400
O  46.11800 12.32000 33.59300
C  43.97700 11.12400 34.10900
C  44.70900 10.20100 34.96200
O  45.04000 9.08400 34.59700
O  44.88600 10.80500 36.22500
C  45.59200 9.98700 37.20200
H  37.99200 7.67900 32.92000
H  38.90200 8.66500 26.61300
H  44.45300 11.61200 27.79800
H  42.03700 8.82800 35.36300
H  39.24700 8.81600 35.08000
H  40.35100 6.27600 33.84000
H  39.31300 6.51600 35.26400
H  41.01500 6.74300 35.51700
H  39.80800 10.64600 36.04300
H  41.11600 11.48800 35.15200
H  42.45900 11.20600 37.05300
H  41.59200 9.94800 37.76400
H  35.29900 7.29600 30.90600
H  36.49600 6.89300 32.05400
H  36.24100 5.86800 30.58500
H  34.28700 7.18800 27.37000
H  34.80500 7.73000 28.92200
H  35.07200 6.01900 28.51100
H  40.44000 10.15400 25.32600
H  43.25900 10.57500 25.61200
H  41.41200 7.43200 25.80400
H  42.80900 8.26700 25.13900
H  41.30800 8.34100 24.30000
H  41.86600 12.14800 24.61800
H  42.90300 12.69500 25.85500
H  40.92900 13.68700 26.79900
H  40.18900 12.14200 27.11200
H  39.89400 12.76300 25.62100
H  45.96300 13.20500 29.41900
H  46.68100 11.49600 29.47300
H  46.76500 12.56400 30.81900
H  43.60300 11.97600 34.67800
H  45.17400 8.99000 37.06300
H  45.44500 10.34400 38.22100
H  46.67500 9.97300 37.07900
Mg -11.45100 16.16500 41.47400
C  -8.86400 13.91400 41.11100
C  -9.68800 18.64600 39.95100
C  -14.40600 17.91600 40.86800
C  -13.57000 13.29800 42.18700
N  -9.61500 16.19100 40.53700
C  -8.64000 15.19800 40.61700
C  -7.27100 15.71800 40.26000
C  -7.55200 17.27900 40.08900
C  -9.06400 17.37100 40.16100
C  -6.76300 18.05100 41.17000
C  -6.61000 15.10600 38.96000
C  -5.13000 15.08100 38.65300
H  -4.77400 15.42600 37.20000
N  -11.97100 18.07300 40.69700
C  -11.09900 18.91800 40.09300
C  -11.74900 20.19100 39.85100
C  -13.10000 20.03600 40.25400
C  -13.21500 18.62400 40.64300
C  -10.95500 21.35400 39.40200
C  -14.13900 21.08100 40.21200
O  -13.91900 22.15000 39.71500
C  -15.46800 20.90300 40.95600
N  -13.72900 15.56100 41.32300
C  -14.73200 16.60000 41.16800
C  -16.13100 15.94200 41.15800
C  -15.72200 14.54600 41.70200
C  -14.25400 14.42200 41.81800
C  -17.00000 16.80300 42.05700
C  -16.47700 13.38400 40.93100
C  -17.05100 12.24800 41.77800
N  -11.25100 14.04600 41.82400
C  -12.14200 13.02800 42.12900
C  -11.39000 11.86300 42.45700
C  -10.07500 12.15700 42.08000
C  -10.08200 13.47900 41.71700
C  -12.02800 10.56200 42.97000
C  -8.75700 11.59900 41.99600
O  -8.36700 10.49500 42.23300
C  -7.85600 12.81200 41.49600
C  -6.88900 13.29500 42.48400
O  -7.11500 13.74600 43.59600
O  -5.60700 13.18200 42.00300
C  -4.53600 13.61300 42.89500
H  -8.93100 19.37600 39.65700
H  -15.30600 18.44700 40.55100
H  -14.15700 12.46000 42.56900
H  -6.57500 15.58500 41.08700
H  -7.22300 17.68500 39.13200
H  -6.14300 17.39200 41.77800
H  -7.42700 18.58500 41.84900
H  -6.13800 18.78200 40.65600
H  -7.22500 15.49700 38.14900
H  -6.94000 14.06900 39.02500
H  -4.84900 14.04000 38.81000
H  -4.70700 15.95400 39.14900
H  -10.25300 21.59400 40.20100
H  -11.53600 22.25000 39.18500
H  -10.48300 20.98300 38.49300
H  -16.34700 20.62700 40.37200
H  -15.68600 21.89400 41.35500
H  -15.31700 20.33700 41.87500
H  -16.45800 15.82400 40.12500
H  -16.06100 14.49600 42.73700
H  -16.42900 17.53000 42.63500
H  -17.72400 16.22600 42.63200
H  -17.70200 17.41500 41.49200
H  -15.80300 12.90200 40.22200
H  -17.34900 13.79000 40.42000
H  -16.84800 11.30800 41.26600
H  -18.11900 12.31400 41.98400
H  -16.54300 12.24300 42.74300
H  -12.77300 10.88300 43.69800
H  -11.38000 9.81400 43.42500
H  -12.57400 10.07200 42.16300
H  -7.26200 12.54100 40.62300
H  -3.69300 13.71200 42.21100
H  -4.28600 12.81300 43.59100
H  -4.73500 14.60800 43.29500

