158

Mg 0.33300 8.00900 26.75700
C  1.00900 10.15300 29.42700
C  -0.02800 5.41400 29.13000
C  0.00900 5.74500 24.25400
C  1.37300 10.54800 24.56000
N  0.44700 7.88000 29.04700
C  0.54400 8.94900 29.93700
C  0.27300 8.54700 31.37900
C  0.19600 6.94600 31.17500
C  0.11900 6.69100 29.67500
C  1.28500 6.09300 31.88300
C  -0.90600 9.25300 31.99800
C  -0.75500 9.69000 33.46500
H  0.18000 8.84100 34.30700
N  -0.08900 5.89700 26.71800
C  -0.15700 5.03900 27.81900
C  -0.36100 3.68500 27.30200
C  -0.47900 3.82700 25.88500
C  -0.21400 5.19100 25.53600
C  -0.49300 2.41000 28.13000
C  -0.86400 2.70800 24.89800
O  -0.87400 2.92400 23.71800
C  -1.33700 1.31000 25.36900
N  0.77700 8.08900 24.69000
C  0.60800 6.98600 23.87000
C  0.87000 7.40600 22.41200
C  1.11900 8.97100 22.52500
C  1.05800 9.26600 24.07400
C  2.00600 6.69200 21.64700
C  0.12700 9.90400 21.77800
C  0.82900 11.06700 20.92100
N  1.07400 9.95100 26.92600
C  1.51900 10.85100 25.91400
C  1.98500 12.08400 26.57000
C  1.76100 11.82100 27.90200
C  1.25000 10.50700 28.03000
C  2.36000 13.42500 25.98900
C  1.97900 12.43800 29.21400
O  2.54200 13.49900 29.48200
C  1.48500 11.40500 30.27700
C  2.60000 11.08500 31.11300
O  3.72200 10.63500 30.80000
O  2.31700 11.33700 32.41200
C  3.43200 11.31100 33.34400
H  -0.00600 4.71800 29.97100
H  -0.11800 4.99100 23.47500
H  1.52100 11.40500 23.89900
H  1.15000 8.79400 31.97700
H  -0.65400 6.37100 31.54200
H  0.79300 5.17500 32.20500
H  1.72500 6.50800 32.79100
H  2.07000 5.79700 31.18700
H  -1.74900 8.56300 32.02600
H  -1.27600 10.15400 31.50700
H  -1.69400 9.69000 34.01800
H  -0.57300 10.76000 33.36400
H  -0.26100 2.50800 29.19100
H  0.28400 1.77800 27.70200
H  -1.52900 2.07700 28.05800
H  -1.66400 0.60600 24.60300
H  -2.20000 1.50700 26.00400
H  -0.52000 0.78400 25.86300
H  0.00500 7.16600 21.79300
H  2.14300 9.33400 22.43900
H  2.60300 6.12300 22.36000
H  2.73900 7.33600 21.16100
H  1.48000 6.10000 20.89800
H  -0.61300 10.35600 22.43900
H  -0.55600 9.32700 21.15400
H  0.61800 10.81200 19.88200
H  1.87700 11.09000 21.21900
H  0.44800 12.00400 21.32800
H  2.37300 14.17800 26.77700
H  1.59900 13.88400 25.35800
H  3.37900 13.53600 25.61800
H  0.62100 11.82200 30.79500
H  4.37800 11.74400 33.01600
H  3.67300 10.28800 33.63400
H  3.04400 11.74100 34.26700
Mg -10.76800 17.21100 40.13000
C  -7.37000 16.41400 40.10900
C  -10.09900 20.38800 39.27800
C  -13.96000 17.66800 39.71300
C  -11.33400 13.71800 40.65300
N  -8.97700 18.24800 39.87700
C  -7.65000 17.79800 39.89400
C  -6.69800 18.93100 39.73900
C  -7.63900 20.18800 39.87100
C  -9.00700 19.61800 39.68400
C  -7.45800 21.00800 41.22000
C  -5.91600 18.78700 38.44400
C  -4.38700 18.49100 38.49200
H  -3.88600 17.33900 37.66400
N  -11.91800 18.86400 39.55500
C  -11.47100 20.13300 39.16300
C  -12.59300 20.99100 38.79200
C  -13.74300 20.11100 38.81200
C  -13.24400 18.81300 39.36500
C  -12.54800 22.38100 38.39400
C  -15.13500 20.50600 38.51400
O  -15.48400 21.66400 38.40100
C  -16.16900 19.43200 38.28900
N  -12.45900 15.71600 39.75000
C  -13.65200 16.33500 39.91600
C  -14.70900 15.25800 40.19100
C  -13.85700 14.02400 40.58300
C  -12.45300 14.51200 40.30400
C  -15.89200 15.44700 41.17700
C  -14.24100 12.74700 39.77300
C  -14.92000 11.62600 40.55900
N  -9.61200 15.41600 40.19800
C  -10.02100 14.11200 40.48400
C  -8.86400 13.25200 40.65800
C  -7.81000 14.13700 40.53700
C  -8.31300 15.39100 40.22900
C  -8.84500 11.73100 40.87500
C  -6.37800 14.22600 40.55500
O  -5.55200 13.35400 40.84500
C  -6.07500 15.69000 40.28300
C  -5.37800 16.11500 41.45900
O  -5.90100 16.40900 42.56000
O  -4.04000 16.22800 41.20500
C  -3.25100 16.82700 42.31600
H  -9.76600 21.40500 39.06100
H  -15.03600 17.80800 39.59200
H  -11.39400 12.65500 40.89500
H  -6.11900 18.79700 40.65300
H  -7.41700 20.84300 39.02800
H  -6.69000 20.66000 41.91000
H  -8.39100 21.08200 41.77800
H  -7.04600 21.98100 40.95100
H  -6.09400 19.68600 37.85400
H  -6.31400 17.99400 37.81100
H  -4.07000 18.35900 39.52700
H  -3.84600 19.42900 38.36300
H  -13.08000 23.00600 39.11200
H  -12.71600 22.44500 37.31900
H  -11.49400 22.64500 38.47800
H  -15.70000 18.66600 37.67200
H  -16.97100 19.73300 37.61500
H  -16.55000 19.17100 39.27700
H  -15.12900 15.05200 39.20600
H  -13.92900 13.77900 41.64300
H  -15.76000 16.33500 41.79600
H  -16.04100 14.55200 41.78100
H  -16.77700 15.62200 40.56500
H  -13.41100 12.33600 39.19800
H  -14.96000 13.10300 39.03500
H  -14.64100 11.63000 41.61300
H  -14.61200 10.63200 40.23700
H  -15.97300 11.55300 40.29000
H  -8.15200 11.28300 40.16200
H  -9.80800 11.22900 40.78200
H  -8.41200 11.48000 41.84300
H  -5.43100 15.65300 39.40400
H  -3.26700 16.07800 43.10800
H  -3.66900 17.79800 42.58200
H  -2.18900 16.96000 42.11100

