158

Mg 47.85300 16.30100 28.99800
C  45.83100 16.33500 31.92100
C  50.13400 18.18500 30.70000
C  49.55700 16.70600 26.08800
C  45.06300 15.26600 27.14600
N  48.01600 17.11000 31.09300
C  47.05200 17.00500 32.08600
C  47.52600 17.72500 33.37800
C  48.74500 18.49800 32.88500
C  48.96300 17.91300 31.49400
C  48.69500 20.10700 32.95100
C  47.78700 16.73200 34.56600
C  47.38200 17.08700 36.01500
H  47.50600 18.52800 36.45400
N  49.70700 17.20700 28.47300
C  50.53700 17.80900 29.34400
C  51.72500 18.20300 28.68000
C  51.58700 17.77800 27.29900
C  50.27500 17.12000 27.23800
C  52.78600 19.04300 29.32500
C  52.61400 17.88400 26.14700
O  52.25100 17.51600 25.02300
C  53.98500 18.52500 26.29200
N  47.44300 15.89100 26.85100
C  48.33100 16.09900 25.89900
C  47.71100 15.81900 24.53400
C  46.19000 15.41400 24.88200
C  46.25100 15.57000 26.39400
C  47.72900 17.01400 23.44700
C  45.74800 14.02300 24.32300
C  44.67600 14.09100 23.28600
N  45.88800 15.68600 29.41500
C  44.88500 15.23600 28.55600
C  43.79000 14.76500 29.36900
C  44.11100 15.13200 30.73500
C  45.39200 15.75400 30.67100
C  42.54800 14.08600 28.89800
C  43.65300 15.12500 32.10300
O  42.67400 14.60400 32.59400
C  44.66500 16.00600 32.88900
C  44.04500 17.27200 33.39400
O  43.87300 18.29200 32.77900
O  43.77800 17.11000 34.68200
C  43.36200 18.28600 35.43300
H  50.86500 18.92100 31.04200
H  49.88100 16.90500 25.06400
H  44.18100 14.85500 26.65000
H  46.80300 18.42800 33.79100
H  49.59500 18.17400 33.48600
H  48.77300 20.52200 31.94600
H  49.57000 20.51000 33.46000
H  47.80200 20.35500 33.52500
H  48.78200 16.28800 34.52500
H  47.23400 15.80500 34.42000
H  48.01300 16.44000 36.62500
H  46.33400 16.79700 36.08700
H  53.82200 18.76400 29.13400
H  52.70600 18.86600 30.39800
H  52.63700 20.09400 29.07500
H  54.40800 18.85800 25.34500
H  54.55700 17.72000 26.75400
H  53.80000 19.42500 26.87800
H  48.21800 14.93700 24.14200
H  45.48800 16.17100 24.53100
H  48.19900 16.61900 22.54600
H  48.35400 17.83800 23.79000
H  46.76100 17.47200 23.24200
H  45.34700 13.43900 25.15100
H  46.53300 13.43200 23.85100
H  44.75300 13.26500 22.58000
H  44.73300 15.06800 22.80600
H  43.75700 13.93100 23.85000
H  42.39600 14.68400 28.00000
H  41.65100 14.14100 29.51500
H  42.77400 13.04600 28.66700
H  44.99000 15.43500 33.75800
H  42.28400 18.40900 35.33700
H  43.92900 19.15800 35.10700
H  43.65700 18.24100 36.48200
Mg -4.85300 25.58100 25.82200
C  -3.62200 26.87100 28.85200
C  -6.80100 23.38300 27.64700
C  -6.09500 24.32100 23.02500
C  -2.52900 27.50900 24.07100
N  -5.21200 25.25000 27.99100
C  -4.65900 25.89000 29.05700
C  -5.13900 25.41800 30.40600
C  -6.19900 24.28500 29.99200
C  -5.99700 24.17800 28.47200
C  -5.88400 22.90600 30.65000
C  -5.82200 26.62300 31.21100
C  -5.98000 26.41900 32.69800
H  -5.20500 25.28300 33.45300
N  -6.17700 24.09400 25.38400
C  -6.92200 23.36900 26.23500
C  -7.93700 22.59300 25.54600
C  -7.76600 22.91000 24.17400
C  -6.60500 23.75600 24.13100
C  -9.03100 21.71200 26.18800
C  -8.54900 22.35400 22.97300
O  -8.28300 22.64300 21.80300
C  -9.75800 21.45000 23.10900
N  -4.25400 25.68800 23.85000
C  -4.96200 25.21000 22.87000
C  -4.43400 25.53900 21.49800
C  -3.37100 26.58600 21.87800
C  -3.32300 26.60000 23.35900
C  -3.93500 24.25600 20.66600
C  -3.61600 27.98500 21.36000
C  -2.72800 28.50600 20.19700
N  -3.41400 26.86900 26.30300
C  -2.53700 27.66000 25.50800
C  -1.77900 28.50300 26.34600
C  -2.16000 28.23100 27.65700
C  -3.15400 27.21800 27.58600
C  -0.78700 29.56200 25.88000
C  -1.85100 28.57300 29.05100
O  -1.00100 29.35500 29.52700
C  -2.89500 27.74000 29.86100
C  -2.09900 26.93000 30.88100
O  -1.75900 25.71800 30.82100
O  -2.02700 27.77000 32.01700
C  -1.30100 27.20000 33.15900
H  -7.53700 22.74200 28.13600
H  -6.46400 24.06600 22.02900
H  -1.84700 28.03400 23.39900
H  -4.26800 24.92100 30.83300
H  -7.25700 24.37800 30.23600
H  -5.21500 23.11300 31.48500
H  -5.43700 22.19400 29.95500
H  -6.69600 22.27900 31.02000
H  -6.80300 26.68400 30.73900
H  -5.24400 27.54300 31.13100
H  -7.05600 26.41200 32.86900
H  -5.61300 27.32000 33.19000
H  -9.31200 20.81300 25.63800
H  -9.98700 22.20700 26.35700
H  -8.69200 21.44100 27.18800
H  -10.03400 21.18700 22.08900
H  -10.65800 21.95000 23.46800
H  -9.56600 20.53300 23.66600
H  -5.27600 25.97000 20.95600
H  -2.33700 26.33200 21.64400
H  -4.57900 24.07000 19.80700
H  -3.97200 23.47200 21.42200
H  -2.88800 24.36300 20.38100
H  -3.65700 28.75200 22.13300
H  -4.69000 28.05200 21.18500
H  -2.19600 27.71300 19.67100
H  -2.13100 29.34500 20.55400
H  -3.42000 28.92700 19.46700
H  -0.27100 29.23400 24.97800
H  -0.01800 29.57400 26.65200
H  -1.25300 30.52700 25.68000
H  -3.49600 28.47100 30.40200
H  -1.68400 27.74500 34.02200
H  -0.23300 27.26000 32.95000
H  -1.60600 26.17600 33.37000

