158

Mg 24.44600 -6.38200 47.07900
C  27.07400 -4.15400 46.02000
C  22.43800 -4.63300 44.76600
C  22.02900 -8.65600 47.42700
C  26.71400 -8.30300 48.77100
N  24.76800 -4.60500 45.56300
C  25.89600 -3.86200 45.31200
C  25.69300 -2.83700 44.28900
C  24.14100 -2.77800 44.29500
C  23.70700 -4.07800 44.92900
C  23.46600 -1.62800 45.04200
C  26.30400 -3.35200 42.99200
C  27.31500 -2.38800 42.23900
H  27.17300 -1.96300 40.77300
N  22.45300 -6.56900 46.21900
C  21.86600 -5.75400 45.33800
C  20.50300 -6.22300 45.09000
C  20.32900 -7.41500 45.87400
C  21.61100 -7.60300 46.56200
C  19.46900 -5.70300 44.10600
C  19.13300 -8.32000 45.85700
O  18.23300 -8.24600 45.03600
C  18.86900 -9.30000 46.99900
N  24.38000 -8.21200 47.97600
C  23.25800 -8.92000 48.08600
C  23.54700 -10.32500 48.65300
C  24.91500 -10.12700 49.23700
C  25.40200 -8.76600 48.73300
C  22.50400 -10.91800 49.63600
C  25.94000 -11.28800 48.90000
C  26.71500 -11.73900 50.11700
N  26.49600 -6.23900 47.45200
C  27.26400 -7.10100 48.25600
C  28.58500 -6.56200 48.28900
C  28.57000 -5.40600 47.47800
C  27.26300 -5.24900 46.90500
C  29.73400 -7.18200 49.05900
C  29.45100 -4.36700 46.95700
O  30.62500 -4.07400 47.12000
C  28.48700 -3.50800 45.94000
C  28.55000 -2.10900 46.38500
O  28.34200 -1.61400 47.48000
O  28.94400 -1.44000 45.26800
C  28.78300 0.03500 45.29600
H  21.72600 -4.05300 44.17600
H  21.19400 -9.30800 47.69100
H  27.41400 -8.96700 49.28200
H  26.05200 -1.86000 44.61300
H  23.72500 -2.80000 43.28800
H  24.25100 -0.96800 45.41200
H  22.77000 -1.90500 45.83400
H  22.94200 -1.05300 44.28000
H  25.52900 -3.49700 42.24000
H  26.82900 -4.29200 43.15900
H  28.14400 -3.09500 42.23800
H  27.70600 -1.62900 42.91700
H  19.63900 -4.67200 43.79700
H  18.48800 -5.68800 44.58200
H  19.48300 -6.33000 43.21500
H  17.84600 -9.65300 47.12800
H  19.08400 -8.76600 47.92500
H  19.51500 -10.14000 46.74300
H  23.60500 -10.98600 47.78800
H  24.84600 -10.01000 50.31900
H  22.11700 -11.84700 49.21700
H  21.73700 -10.18500 49.88500
H  22.99500 -11.30600 50.52800
H  26.54400 -10.99000 48.04200
H  25.40800 -12.19800 48.62200
H  27.62200 -11.18700 50.36300
H  27.07800 -12.73700 49.86900
H  26.08600 -11.88800 50.99500
H  29.39300 -7.92100 49.78400
H  30.13700 -6.36400 49.65500
H  30.52800 -7.58700 48.43100
H  28.92000 -3.63000 44.94700
H  28.93300 0.34100 44.26100
H  29.35100 0.54600 46.07200
H  27.74100 0.04100 45.61600
Mg -5.38100 25.13100 25.94400
C  -3.86700 26.67600 28.66800
C  -6.80400 22.89200 28.15300
C  -7.09300 23.78000 23.39600
C  -3.66400 27.14700 23.77800
N  -5.32200 24.80600 28.12800
C  -4.74500 25.65800 29.06000
C  -5.13900 25.27300 30.54300
C  -5.66600 23.78300 30.24600
C  -5.94500 23.83400 28.78300
C  -4.74600 22.64000 30.82200
C  -6.28100 26.17700 31.14400
C  -5.94900 26.68400 32.55700
H  -6.90100 26.34100 33.66700
N  -6.76900 23.55700 25.70800
C  -7.29800 22.77800 26.80800
C  -8.43700 21.92300 26.39200
C  -8.56900 22.16300 25.01400
C  -7.48500 23.23300 24.65300
C  -9.09100 21.02900 27.38400
C  -9.47800 21.64200 23.87700
O  -9.36700 22.10100 22.72800
C  -10.36600 20.38700 24.13700
N  -5.17000 25.30700 23.90200
C  -6.07700 24.67800 23.04600
C  -5.74100 24.99000 21.59300
C  -4.70800 26.24200 21.70600
C  -4.42200 26.19500 23.18600
C  -5.33500 23.72700 20.76500
C  -5.27800 27.61000 21.12600
C  -4.93600 27.93800 19.62800
N  -4.01900 26.57200 26.13800
C  -3.33900 27.27700 25.16500
C  -2.46000 28.27300 25.72400
C  -2.69800 28.12200 27.12600
C  -3.61300 27.00800 27.32400
C  -1.57200 29.20700 24.97600
C  -2.32000 28.67700 28.49000
O  -1.65700 29.62200 28.95200
C  -3.11400 27.67800 29.47800
C  -2.09300 27.00800 30.28500
O  -1.21100 26.22700 29.78400
O  -2.06200 27.54900 31.56800
C  -0.92500 27.20700 32.37600
H  -7.19500 22.14300 28.84500
H  -7.72300 23.62200 22.51800
H  -3.05400 27.81200 23.16300
H  -4.36300 25.18400 31.30300
H  -6.65700 23.59900 30.66200
H  -3.84000 22.55400 30.22200
H  -5.36400 21.74200 30.83300
H  -4.52100 22.85000 31.86800
H  -7.27100 25.72200 31.16800
H  -6.19300 27.08500 30.54800
H  -6.19000 27.74700 32.54900
H  -4.92100 26.44700 32.83100
H  -9.38100 21.53100 28.30700
H  -8.31700 20.30300 27.63200
H  -9.97300 20.50800 27.01100
H  -9.71700 19.70100 24.68100
H  -10.69000 20.09400 23.13800
H  -11.14400 20.82000 24.76500
H  -6.70000 25.34900 21.21800
H  -3.78200 25.96400 21.20300
H  -5.40600 22.87100 21.43700
H  -4.30400 23.82400 20.42500
H  -6.06300 23.78500 19.95600
H  -4.86900 28.39100 21.76700
H  -6.35900 27.72900 21.20000
H  -4.06400 27.39300 19.26500
H  -4.71500 29.00400 19.57900
H  -5.78100 27.64700 19.00300
H  -2.09000 29.96000 24.38200
H  -0.83100 28.57700 24.48400
H  -0.96400 29.72300 25.72000
H  -3.74200 28.25700 30.15600
H  -1.28800 26.59500 33.20100
H  -0.70100 28.16800 32.84000
H  -0.03700 26.77600 31.91300

