158

Mg 24.46400 -5.52200 46.43100
C  26.23900 -2.96100 44.61500
C  21.82100 -4.75500 44.48800
C  23.18600 -8.48500 47.39900
C  27.49400 -6.43300 47.97300
N  24.06000 -3.99200 44.70500
C  24.86400 -3.03700 44.22400
C  24.22300 -2.28800 43.07900
C  22.77300 -2.67400 43.28300
C  22.87200 -3.85500 44.15500
C  21.78700 -1.63800 43.87000
C  24.77700 -2.58200 41.68200
C  25.07600 -1.30300 40.88000
H  24.66200 -1.30100 39.41800
N  22.75800 -6.37800 46.00300
C  21.77800 -5.96000 45.18600
C  20.67100 -6.86400 45.19100
C  20.88700 -7.85600 46.13700
C  22.31100 -7.60800 46.56800
C  19.37900 -6.61800 44.42100
C  19.95300 -8.91800 46.47400
O  18.78700 -9.04400 46.02700
C  20.34000 -10.07500 47.42500
N  25.15000 -7.09800 47.68800
C  24.43900 -8.28200 47.86000
C  25.20300 -9.32900 48.79000
C  26.55400 -8.60000 49.00700
C  26.43800 -7.28600 48.15300
C  24.49500 -9.67100 50.14600
C  27.80700 -9.47800 48.87900
C  28.80100 -9.28700 50.09500
N  26.41500 -4.84700 46.39800
C  27.56500 -5.25000 47.08700
C  28.68700 -4.43300 46.78600
C  28.24200 -3.57900 45.78100
C  26.82800 -3.82000 45.60600
C  30.09300 -4.61200 47.34600
C  28.58000 -2.39100 44.87800
O  29.54300 -1.67900 44.76200
C  27.31000 -2.09700 44.06300
C  26.91000 -0.61500 44.08400
O  26.11800 0.01900 44.80500
O  27.67500 0.07600 43.19700
C  27.50500 1.46900 42.90800
H  20.89300 -4.35900 44.06900
H  22.84700 -9.48300 47.68500
H  28.41000 -6.80300 48.43600
H  24.33700 -1.24900 43.38700
H  22.31900 -2.90200 42.31900
H  22.29200 -0.78600 44.32600
H  21.15100 -2.02700 44.66500
H  21.16000 -1.18000 43.10500
H  24.15800 -3.24800 41.08100
H  25.74700 -3.07100 41.77200
H  26.15300 -1.29400 40.71400
H  24.70500 -0.46500 41.47000
H  18.56900 -6.20300 45.02000
H  19.06500 -7.56300 43.97600
H  19.60500 -5.99400 43.55600
H  20.87300 -9.74400 48.31600
H  21.00600 -10.75100 46.88900
H  19.51800 -10.74900 47.66600
H  25.42600 -10.26200 48.27200
H  26.48500 -8.03300 49.93500
H  25.18200 -9.33400 50.92200
H  24.56000 -10.75900 50.18500
H  23.49200 -9.25700 50.25100
H  28.36100 -9.13700 48.00400
H  27.61700 -10.54200 48.74200
H  28.48700 -8.45800 50.73000
H  29.77600 -8.95200 49.74100
H  28.96400 -10.19000 50.68300
H  30.77300 -3.85200 46.95900
H  30.24300 -5.65800 47.08000
H  30.00900 -4.60100 48.43200
H  27.72000 -2.36000 43.08800
H  27.86100 1.74100 41.91400
H  28.01600 2.06900 43.66200
H  26.47500 1.79700 43.04800
Mg 34.53200 2.92500 29.31000
C  32.44000 4.09400 31.98000
C  37.09300 2.67800 31.69100
C  36.51000 1.99800 26.91500
C  31.83500 3.56100 27.13100
N  34.64400 3.18700 31.50800
C  33.67200 3.58500 32.40400
C  34.20100 3.66600 33.84900
C  35.74400 3.58600 33.65500
C  35.83200 3.14600 32.15000
C  36.50300 4.92800 33.93600
C  33.46200 2.64900 34.80900
C  33.82500 2.72600 36.34500
H  34.73100 3.90300 36.96200
N  36.60500 2.39400 29.26300
C  37.46000 2.28700 30.38400
C  38.66600 1.68500 29.90200
C  38.59000 1.55200 28.47500
C  37.16100 1.91400 28.12500
C  39.81200 1.39900 30.86400
C  39.70600 1.14400 27.41600
O  39.53700 1.15500 26.21800
C  40.96200 0.65500 27.90100
N  34.29900 3.03500 27.27000
C  35.25300 2.50600 26.46400
C  34.83300 2.55900 25.01700
C  33.29500 2.95800 25.09600
C  33.15600 3.20000 26.61600
C  35.70500 3.41600 24.12000
C  32.25700 1.87000 24.53000
C  32.02300 0.65500 25.44100
N  32.51500 3.64900 29.52500
C  31.56300 3.84800 28.50500
C  30.35000 4.30700 29.01900
C  30.65300 4.35700 30.40000
C  31.99700 4.09400 30.63500
C  29.11400 4.46600 28.31700
C  30.05000 4.74900 31.60800
O  28.95200 5.22700 31.88200
C  31.18600 4.46500 32.70400
C  31.29300 5.74600 33.48900
O  31.76500 6.79100 33.05900
O  31.24400 5.46400 34.82100
C  31.58200 6.44300 35.89600
H  37.81700 2.51900 32.49300
H  37.06500 1.54900 26.08900
H  31.05900 3.78800 26.39800
H  33.91600 4.66100 34.19200
H  36.08500 2.82900 34.36100
H  37.40500 4.75200 34.52200
H  35.98200 5.64900 34.56500
H  36.76900 5.31000 32.95000
H  34.01100 1.77700 34.45400
H  32.39500 2.60100 34.59000
H  34.30100 1.78400 36.61900
H  33.00100 2.82100 37.05300
H  40.03600 0.34200 30.72200
H  39.43900 1.40300 31.88800
H  40.70600 1.99700 30.68800
H  41.46800 1.29900 28.62000
H  41.68300 0.61700 27.08400
H  40.80200 -0.32200 28.35500
H  35.00600 1.56400 24.60600
H  33.16800 3.87800 24.52600
H  36.54000 3.84800 24.67200
H  35.11900 4.25100 23.73500
H  36.08900 2.93200 23.22200
H  32.62300 1.42300 23.60600
H  31.33100 2.41200 24.33800
H  32.80700 -0.07700 25.24400
H  31.05200 0.30700 25.08700
H  32.06300 0.82800 26.51600
H  29.09500 3.72700 27.51500
H  28.98100 5.47100 27.91500
H  28.29300 4.26100 29.00400
H  30.86400 3.62200 33.31400
H  31.26600 7.42800 35.55200
H  32.66700 6.44600 36.00600
H  31.09100 6.22700 36.84400

