158

Mg 47.38700 24.92100 28.66500
C  48.22400 27.17700 31.18800
C  46.29600 22.74900 30.98900
C  46.84800 22.75500 26.20400
C  48.72400 27.25500 26.25100
N  47.31100 24.98900 30.77600
C  47.64700 25.99800 31.66400
C  47.25600 25.68200 33.11900
C  46.91300 24.19100 32.98400
C  46.91100 23.89900 31.46000
C  47.93000 23.25200 33.73500
C  46.00000 26.60200 33.59100
C  45.92100 27.02300 35.10700
H  46.92900 26.40600 36.10600
N  46.69300 22.97800 28.59800
C  46.25300 22.26700 29.68500
C  45.69500 20.94700 29.22200
C  45.96000 20.94700 27.80400
C  46.53000 22.21600 27.47100
C  45.02800 19.94800 30.22700
C  45.63900 19.86900 26.82900
O  45.86600 19.82700 25.61100
C  45.00800 18.56200 27.34000
N  47.98900 24.94300 26.57800
C  47.52300 23.90600 25.83500
C  47.91800 24.12500 24.28600
C  48.50600 25.60600 24.29000
C  48.39700 25.99900 25.79100
C  48.92900 23.06300 23.74500
C  47.68000 26.57700 23.37800
C  48.42100 27.20100 22.21500
N  48.15300 26.82200 28.64000
C  48.66700 27.60600 27.60800
C  48.94000 28.96700 28.13400
C  48.76800 28.91400 29.52300
C  48.32700 27.56300 29.77900
C  49.51500 30.04400 27.23200
C  48.97000 29.61400 30.83900
O  49.34400 30.73100 31.16300
C  48.62700 28.51000 31.90400
C  49.84200 28.35300 32.86300
O  51.01400 28.14300 32.54600
O  49.42600 28.71500 34.09500
C  50.48900 29.11600 35.03700
H  45.84300 22.10900 31.74800
H  46.44300 22.10000 25.43000
H  49.02600 27.93400 25.45200
H  48.19000 25.89300 33.64000
H  45.94500 24.04200 33.46300
H  48.30900 23.81100 34.59100
H  48.69900 23.08600 32.98100
H  47.33500 22.42700 34.12700
H  45.12000 26.01200 33.33400
H  46.11300 27.48000 32.95500
H  44.89000 26.98300 35.45700
H  46.22000 28.07100 35.10300
H  45.33500 20.01200 31.27100
H  45.24300 18.89000 30.07700
H  43.97000 20.07900 29.99800
H  44.75700 17.88600 26.52200
H  44.16800 18.79300 27.99500
H  45.72000 18.00200 27.94600
H  46.97600 24.09000 23.73800
H  49.57200 25.58900 24.06200
H  48.41200 22.28500 23.18300
H  49.52500 22.75900 24.60500
H  49.59400 23.52200 23.01400
H  47.50000 27.51200 23.90900
H  46.72900 26.19200 23.01300
H  48.06900 26.74500 21.29000
H  49.47300 26.93300 22.11300
H  48.36500 28.28900 22.25400
H  49.51200 30.96700 27.81200
H  48.80500 30.16300 26.41300
H  50.51200 29.75800 26.89900
H  47.80000 29.02200 32.39600
H  50.12600 29.90500 35.69500
H  51.44900 29.32800 34.56600
H  50.54000 28.17200 35.58000
Mg 36.48700 49.92700 26.00900
C  36.86400 47.84100 28.77400
C  35.64800 52.52800 28.19200
C  36.18700 51.91900 23.36000
C  37.30500 47.20900 23.91400
N  36.07000 50.05400 28.24600
C  36.49700 49.15700 29.14900
C  36.34600 49.67100 30.57800
C  35.93800 51.19500 30.31800
C  35.87100 51.27900 28.80700
C  34.56700 51.63200 30.95400
C  37.73300 49.46700 31.24000
C  37.84100 49.27200 32.72800
H  36.49500 49.10400 33.48600
N  35.92400 51.92900 25.77600
C  35.65200 52.82900 26.79900
C  35.30600 54.13200 26.17000
C  35.44200 53.98900 24.77900
C  35.80100 52.57100 24.55000
C  35.05000 55.35700 27.03000
C  35.36900 55.07500 23.71800
O  35.43900 54.88200 22.48500
C  35.17800 56.56300 24.15000
N  36.75600 49.55500 23.89000
C  36.56800 50.57600 23.04000
C  36.91600 50.09800 21.60200
C  37.34900 48.63600 21.77100
C  37.11300 48.44100 23.27700
C  35.83000 50.24000 20.56000
C  38.85300 48.33300 21.45600
C  39.22800 46.84600 21.07100
N  36.88600 47.91100 26.20900
C  37.14800 46.89800 25.29800
C  37.38200 45.64700 26.03500
C  37.17300 45.98300 27.39700
C  36.88500 47.36500 27.45000
C  37.86800 44.36300 25.44000
C  37.40600 45.44700 28.66900
O  37.78500 44.34600 29.03800
C  37.02800 46.64100 29.71500
C  35.76100 46.11200 30.31200
O  34.66000 46.19200 29.79200
O  36.04900 45.41400 31.49500
C  34.96100 44.84400 32.34300
H  35.43500 53.38800 28.83100
H  36.18200 52.59300 22.50000
H  37.45600 46.35800 23.24600
H  35.55800 49.11200 31.08200
H  36.73000 51.77300 30.79400
H  33.99900 52.29800 30.30500
H  34.83600 52.19000 31.85000
H  33.97000 50.73800 31.13300
H  38.33600 50.35000 31.02400
H  38.33100 48.70300 30.74400
H  38.53300 49.98600 33.17500
H  38.28700 48.27900 32.78200
H  34.03800 55.67100 26.77100
H  35.71600 56.16600 26.72900
H  34.93800 55.24300 28.10800
H  35.00100 57.13100 23.23600
H  36.09700 56.85100 24.66000
H  34.22200 56.65800 24.66500
H  37.80500 50.67700 21.35000
H  36.63000 47.92200 21.36800
H  34.82700 50.28600 20.98600
H  35.73300 49.31100 19.99700
H  35.94100 51.11000 19.91200
H  39.43200 48.70200 22.30200
H  39.07500 49.01900 20.63900
H  39.69700 46.84700 20.08700
H  38.34800 46.21000 20.97300
H  39.82500 46.44500 21.89000
H  36.99000 43.89700 24.99300
H  38.26800 43.74700 26.24500
H  38.63800 44.44800 24.67200
H  37.76100 46.63500 30.52200
H  34.12000 44.43600 31.78200
H  34.74700 45.62300 33.07500
H  35.40700 44.02200 32.90400

