158

Mg -1.23500 17.21600 26.46600
C  -1.79200 14.97400 29.04800
C  -1.60500 19.74900 28.87700
C  -1.56900 19.51600 23.91600
C  -1.73200 14.65800 24.12300
N  -1.47400 17.35600 28.75700
C  -1.66100 16.23300 29.57800
C  -1.62100 16.68200 31.06900
C  -1.74300 18.25900 30.94500
C  -1.59300 18.46400 29.41800
C  -3.00600 18.80900 31.48800
C  -0.39100 16.20400 31.95500
C  0.09200 16.97500 33.25100
H  0.07000 16.23000 34.58200
N  -1.46400 19.37400 26.40000
C  -1.60200 20.20000 27.50900
C  -1.75400 21.59900 27.01400
C  -1.77900 21.47000 25.60000
C  -1.58500 20.04700 25.22500
C  -1.86100 22.72100 27.98200
C  -2.02100 22.59000 24.56800
O  -2.24000 22.39500 23.35200
C  -2.00300 23.96500 25.06300
N  -1.46800 17.06800 24.28400
C  -1.58900 18.15000 23.45700
C  -1.60500 17.69300 21.98700
C  -1.84700 16.18100 22.12100
C  -1.68300 15.91900 23.58700
C  -2.46500 18.27800 20.88900
C  -0.93200 15.34400 21.20300
C  0.55600 15.28800 21.64700
N  -1.49300 15.21400 26.50200
C  -1.74000 14.32400 25.47300
C  -1.99000 12.97000 26.12500
C  -2.02200 13.20800 27.50800
C  -1.69300 14.61000 27.65500
C  -2.13100 11.70900 25.23500
C  -2.18300 12.59800 28.74600
O  -2.33500 11.42900 29.12200
C  -2.19600 13.75900 29.76000
C  -1.53800 13.32100 30.99500
O  -0.45800 12.80900 31.05100
O  -2.36500 13.51100 32.02600
C  -1.96300 13.00900 33.37200
H  -1.77100 20.43700 29.70900
H  -1.70200 20.23000 23.10000
H  -1.85800 13.78500 23.47900
H  -2.56100 16.28600 31.45300
H  -0.88500 18.68400 31.46600
H  -3.07200 19.89700 31.50700
H  -3.14000 18.56600 32.54200
H  -3.76700 18.25100 30.94200
H  0.50600 16.24500 31.33800
H  -0.37200 15.15700 32.25900
H  -0.47400 17.90200 33.33400
H  1.11100 17.29300 33.03100
H  -2.92500 22.93700 28.07800
H  -1.32800 23.63800 27.73000
H  -1.53000 22.30800 28.93500
H  -1.08900 24.07800 25.64500
H  -2.84500 24.18900 25.71900
H  -1.93600 24.64000 24.21000
H  -0.60800 17.77900 21.55500
H  -2.87800 15.88700 21.92000
H  -3.30100 18.74700 21.40800
H  -2.82300 17.46900 20.25300
H  -1.90800 19.07600 20.39800
H  -0.90300 15.79000 20.20900
H  -1.36700 14.34700 21.13600
H  1.34300 15.16100 20.90300
H  0.66600 14.44700 22.33200
H  0.93000 16.10500 22.26400
H  -1.34700 11.62900 24.48100
H  -3.14100 11.78900 24.83500
H  -1.93700 10.82800 25.84700
H  -3.26800 13.81600 29.94900
H  -1.97100 13.87800 34.03000
H  -0.98600 12.53300 33.44900
H  -2.71100 12.29200 33.71200
Mg 0.92600 7.64700 25.74900
C  1.75200 9.46000 28.50100
C  0.62500 4.84600 27.70300
C  -0.01900 6.00000 22.95500
C  1.45600 10.52700 23.70000
N  1.29200 7.24500 27.78700
C  1.50000 8.13300 28.79300
C  1.54400 7.39900 30.19000
C  1.55400 5.92700 29.74500
C  1.11700 5.99800 28.29700
C  2.82800 5.11400 29.85800
C  0.28600 7.86800 30.95500
C  0.33500 8.02900 32.52100
H  1.52500 7.38900 33.23000
N  0.38500 5.64500 25.39000
C  0.23700 4.64600 26.38800
C  -0.44400 3.50600 25.80800
C  -0.55200 3.84400 24.38300
C  -0.09600 5.18500 24.18300
C  -0.76600 2.26700 26.61500
C  -1.20400 2.94900 23.26300
O  -1.31700 3.28000 22.09800
C  -1.57900 1.51700 23.52900
N  0.93100 8.20200 23.59600
C  0.54600 7.25100 22.64100
C  0.46600 7.94300 21.22200
C  1.07500 9.31400 21.46100
C  1.15100 9.40100 22.97700
C  1.19700 7.11800 20.16700
C  0.22800 10.50100 20.87200
C  -0.94400 11.03300 21.75700
N  1.54000 9.59000 26.00500
C  1.56200 10.65600 25.12500
C  1.83500 11.83300 25.95200
C  1.88300 11.46500 27.25300
C  1.67100 10.06100 27.24300
C  2.09300 13.23000 25.39600
C  2.10300 11.84800 28.58100
O  2.40100 12.93300 28.96700
C  1.92800 10.57600 29.44100
C  3.07900 10.65000 30.41600
O  4.20600 10.33700 30.19200
O  2.58100 11.23700 31.56300
C  3.51500 11.16500 32.63000
H  0.49700 4.04700 28.43600
H  -0.41500 5.61100 22.01500
H  1.65700 11.30000 22.95500
H  2.44800 7.85200 30.59800
H  0.70900 5.54800 30.32000
H  3.32800 4.84100 28.92800
H  2.77400 4.16400 30.39000
H  3.51100 5.66600 30.50400
H  -0.42600 7.04700 30.87100
H  0.10800 8.87000 30.56600
H  -0.61300 7.71400 32.95500
H  0.35700 9.09100 32.76600
H  -1.79500 1.97000 26.41100
H  -0.53800 2.39200 27.67400
H  -0.10900 1.42600 26.39900
H  -2.30600 1.41000 24.33400
H  -0.64800 0.97000 23.68100
H  -2.06700 1.19500 22.61000
H  -0.60000 7.93300 20.99300
H  2.10400 9.32900 21.10000
H  0.62000 6.19600 20.08900
H  2.20400 6.84900 20.48500
H  1.15800 7.69700 19.24400
H  -0.24200 10.25400 19.92000
H  0.99900 11.25500 20.71200
H  -1.87100 10.94000 21.19200
H  -0.62700 12.07200 21.84900
H  -1.13200 10.49400 22.68600
H  1.92400 13.18900 24.32000
H  3.02700 13.67500 25.74000
H  1.25000 13.85600 25.69000
H  0.97500 10.73200 29.94600
H  3.81200 10.14400 32.87300
H  3.08500 11.39800 33.60500
H  4.34100 11.83200 32.38600

