158

Mg -0.81100 7.66000 25.17200
C  -0.05500 9.47900 28.23400
C  -0.82100 4.75600 27.09600
C  -1.13900 5.94800 22.40900
C  -0.08700 10.61400 23.40800
N  -0.44500 7.20600 27.44500
C  -0.21400 8.11800 28.48300
C  -0.30500 7.49000 29.83700
C  -0.36900 5.88900 29.52500
C  -0.55300 5.92500 27.92600
C  0.80100 5.09000 30.14800
C  -1.42400 7.89100 30.82500
C  -1.08300 7.95900 32.31000
H  0.06600 7.16500 32.95800
N  -0.94500 5.67600 24.77900
C  -0.91600 4.57000 25.68500
C  -1.16500 3.35900 24.99800
C  -1.22900 3.69700 23.65100
C  -1.07500 5.17200 23.51300
C  -1.28300 2.04600 25.73800
C  -1.39300 2.80200 22.40600
O  -1.49400 3.28600 21.30300
C  -1.59100 1.31100 22.63000
N  -0.52700 8.26900 23.25000
C  -0.86900 7.35200 22.25300
C  -0.82200 7.94800 20.86800
C  -0.51400 9.39500 21.16800
C  -0.35200 9.46800 22.69300
C  0.06500 7.27900 19.78500
C  -1.46200 10.49000 20.67000
C  -2.75700 10.68500 21.49500
N  -0.18300 9.72100 25.65500
C  0.05300 10.80000 24.83000
C  0.48100 11.93100 25.62000
C  0.46000 11.47700 26.95500
C  0.02300 10.13900 26.94800
C  0.73900 13.40300 25.20500
C  0.68800 11.87400 28.35900
O  1.05600 12.99400 28.77400
C  0.29300 10.57600 29.25200
C  1.44800 10.29300 30.17000
O  2.31600 9.43900 29.94200
O  1.30900 11.06700 31.31000
C  2.51500 10.98900 32.18500
H  -0.83100 3.83900 27.68800
H  -1.47000 5.57400 21.43800
H  0.09100 11.51200 22.81100
H  0.59900 7.74100 30.39200
H  -1.30600 5.42900 29.84000
H  1.53900 5.69000 30.68000
H  1.24300 4.67000 29.24500
H  0.42900 4.31800 30.82200
H  -2.26000 7.19200 30.79000
H  -1.69000 8.92600 30.61200
H  -2.00400 7.61200 32.77900
H  -0.92200 8.99500 32.60800
H  -0.84100 2.18800 26.72500
H  -0.66500 1.29900 25.24000
H  -2.35100 1.82600 25.73800
H  -2.49800 1.13400 23.20700
H  -0.64800 1.01000 23.08600
H  -1.63800 0.80500 21.66600
H  -1.84900 7.74100 20.56800
H  0.51900 9.68600 20.97900
H  0.70800 6.48000 20.15300
H  0.73500 8.01500 19.34200
H  -0.57700 6.71900 19.10500
H  -1.74200 10.45300 19.61700
H  -0.88900 11.41600 20.69900
H  -2.79900 10.03500 22.36900
H  -3.65900 10.56500 20.89400
H  -2.80900 11.71300 21.85300
H  1.37500 13.78800 26.00300
H  -0.19800 13.94400 25.33700
H  1.21000 13.58300 24.23900
H  -0.68800 10.71400 29.70700
H  2.74900 9.93300 32.32100
H  2.21900 11.36800 33.16300
H  3.30700 11.59600 31.74700
Mg 1.89500 41.57900 26.56100
C  3.99800 41.86100 29.28600
C  -0.55700 40.57400 28.63500
C  -0.01100 40.98500 23.76700
C  4.41400 42.70400 24.47800
N  1.63200 41.69600 28.78300
C  2.65900 41.66200 29.67400
C  2.15000 41.79100 31.10600
C  0.70900 41.20200 30.86100
C  0.53100 41.11800 29.34500
C  0.42300 39.88600 31.66200
C  2.25500 43.22200 31.81000
C  2.49200 43.17000 33.37000
H  2.05300 41.86400 34.13000
N  -0.00500 40.86300 26.22600
C  -0.81800 40.39300 27.19800
C  -1.91300 39.69000 26.64700
C  -1.87400 39.90100 25.25600
C  -0.62400 40.61200 24.99000
C  -3.02400 39.00900 27.50500
C  -2.81700 39.51100 24.19700
O  -2.45500 39.56000 22.95900
C  -4.18400 38.96500 24.53500
N  2.24500 41.62800 24.29400
C  1.27900 41.34700 23.36100
C  1.67100 41.68100 21.90700
C  3.10800 42.33900 22.17000
C  3.30900 42.27000 23.71500
C  1.81500 40.38400 20.96400
C  3.30300 43.76600 21.67300
C  2.23500 44.81800 21.99800
N  3.87100 42.10300 26.81600
C  4.77800 42.61500 25.85200
C  6.05200 42.73300 26.54300
C  5.77300 42.47600 27.90100
C  4.47500 42.12500 27.98000
C  7.36200 42.93600 25.88400
C  6.42800 42.30800 29.18000
O  7.57100 42.35200 29.53300
C  5.22300 42.09000 30.15200
C  5.52400 40.99300 31.14600
O  5.94300 39.86900 30.86600
O  5.29900 41.31000 32.44400
C  5.43900 40.20400 33.40400
H  -1.37200 40.31900 29.31500
H  -0.52800 40.84500 22.81500
H  5.20900 43.09200 23.83800
H  2.69800 41.12300 31.77100
H  -0.00900 41.96900 31.15400
H  -0.34500 40.00900 32.42500
H  1.27100 39.69800 32.32200
H  0.29100 39.07300 30.94800
H  1.29300 43.73100 31.76700
H  2.97000 43.80700 31.23100
H  1.87200 43.94400 33.82300
H  3.53400 43.43900 33.54300
H  -3.65200 38.24300 27.05000
H  -3.54900 39.87600 27.90700
H  -2.37400 38.55800 28.25400
H  -4.61100 39.47900 25.39600
H  -3.93800 37.91600 24.69300
H  -4.92500 39.05900 23.74100
H  0.86700 42.34300 21.58300
H  3.91300 41.71300 21.78700
H  1.03700 40.32700 20.20200
H  1.83100 39.49700 21.59700
H  2.80200 40.39900 20.50200
H  3.34300 43.66900 20.58800
H  4.29400 44.05300 22.02300
H  2.82000 45.66400 22.36100
H  1.55300 44.48500 22.78000
H  1.61100 45.25700 21.22000
H  8.08200 42.17700 26.18900
H  7.68200 43.96200 26.06500
H  7.28500 42.80000 24.80500
H  5.10400 42.96600 30.79000
H  4.66800 39.44400 33.27900
H  5.23800 40.70300 34.35200
H  6.46800 39.84300 33.38300

