158

Mg 24.97900 0.90300 29.66700
C  27.17400 0.54700 32.35000
C  22.38200 1.13400 31.87400
C  22.91800 1.08300 26.89100
C  27.68700 0.31400 27.48600
N  24.89300 0.88300 31.84000
C  25.86100 0.82600 32.76800
C  25.34700 1.09200 34.21600
C  23.78300 0.83900 34.01700
C  23.62800 0.96700 32.45800
C  23.22400 -0.47300 34.65100
C  25.73500 2.47900 34.80700
C  25.05900 2.73800 36.16800
H  25.92300 2.83300 37.47500
N  23.00700 1.04800 29.47000
C  22.07000 1.13500 30.48700
C  20.77700 1.19800 29.86200
C  20.93300 1.13900 28.44200
C  22.34800 1.11900 28.20200
C  19.53700 1.13000 30.74800
C  19.78700 0.97900 27.36600
O  19.99300 0.88000 26.13900
C  18.38300 1.14000 27.80400
N  25.26400 1.00100 27.53600
C  24.26100 1.11900 26.54800
C  24.90600 1.19700 25.13000
C  26.35800 0.77700 25.41200
C  26.48900 0.67400 26.90100
C  24.13800 0.20000 24.13600
C  27.38800 1.79900 24.82500
C  28.31300 1.27000 23.75000
N  26.93900 0.40900 29.83100
C  27.93600 0.20800 28.88000
C  29.21600 -0.13500 29.54700
C  28.96100 0.02300 30.94900
C  27.55000 0.42300 31.00800
C  30.53100 -0.41400 28.81500
C  29.52500 0.00800 32.30000
O  30.67000 -0.17100 32.67800
C  28.40400 0.42200 33.22300
C  28.41000 -0.55300 34.44400
O  27.78800 -1.61800 34.46400
O  29.26600 -0.05100 35.38100
C  29.49200 -0.99500 36.44700
H  21.55200 1.16300 32.58300
H  22.23600 1.28700 26.06300
H  28.39300 0.03900 26.70000
H  25.76100 0.23400 34.74500
H  23.16000 1.67200 34.34100
H  23.27000 -1.24900 33.88700
H  22.16900 -0.32300 34.87800
H  23.82800 -0.74500 35.51700
H  25.68600 3.31000 34.10300
H  26.79300 2.38500 35.05000
H  24.44200 1.85700 36.34500
H  24.47100 3.63300 35.96600
H  19.79800 0.33000 31.44000
H  18.60700 0.71100 30.36200
H  19.32900 2.00500 31.36400
H  18.10600 0.16800 28.21300
H  17.78900 1.31800 26.90800
H  18.24500 1.97700 28.48700
H  24.89600 2.26100 24.89400
H  26.62700 -0.21100 25.03800
H  24.83000 -0.26000 23.43100
H  23.46200 0.78000 23.50700
H  23.58500 -0.61100 24.61000
H  28.00000 2.11400 25.67000
H  27.05800 2.76200 24.43600
H  29.29400 1.26400 24.22600
H  28.30800 1.92400 22.87800
H  28.07600 0.25400 23.43400
H  31.14600 0.43900 29.10200
H  30.34100 -0.41300 27.74100
H  30.94100 -1.32300 29.25400
H  28.66600 1.36400 33.70300
H  29.21000 -2.02600 36.23300
H  28.90700 -0.74600 37.33200
H  30.53500 -0.80800 36.70600
Mg 1.39400 41.24600 26.54400
C  3.95900 41.97300 28.77500
C  -0.39900 39.95000 29.23900
C  -0.95300 40.25600 24.37200
C  3.54600 42.18300 23.92900
N  1.68500 41.04500 28.75700
C  2.79700 41.52900 29.45700
C  2.56700 41.55200 31.03600
C  1.28000 40.63500 31.07300
C  0.81300 40.50500 29.56700
C  1.54200 39.40800 31.92300
C  2.29900 42.96000 31.59800
C  2.52300 43.18700 33.09700
H  2.59300 41.95800 34.09500
N  -0.47800 40.36400 26.76300
C  -0.97300 39.83100 27.94200
C  -2.16800 39.20000 27.61600
C  -2.48500 39.41300 26.20000
C  -1.29100 39.99900 25.69300
C  -2.99200 38.57000 28.66900
C  -3.79400 39.11800 25.34200
O  -3.90700 39.38500 24.12800
C  -4.82800 38.10800 25.80500
N  1.38900 41.10400 24.51700
C  0.21400 40.84800 23.81400
C  0.41100 41.04700 22.28800
C  1.70100 41.84500 22.31200
C  2.33400 41.59100 23.64300
C  0.40500 39.83600 21.38600
C  1.49900 43.35400 21.86100
C  2.48400 43.74000 20.69300
N  3.38000 41.97000 26.30200
C  4.15300 42.29000 25.20500
C  5.51400 42.66400 25.56300
C  5.39500 42.56600 26.94600
C  4.11300 42.18200 27.33900
C  6.64200 43.03800 24.73700
C  6.21300 42.78800 28.12500
O  7.37400 43.09100 28.26400
C  5.30500 42.38000 29.35200
C  5.94900 41.26800 30.09300
O  5.95300 40.13600 29.65900
O  6.32900 41.66900 31.32700
C  6.57000 40.51700 32.22900
H  -0.85600 39.54100 30.14200
H  -1.69400 40.07300 23.59200
H  4.16400 42.41800 23.06000
H  3.47300 41.20900 31.53600
H  0.58000 41.22500 31.66500
H  1.01000 39.55100 32.86400
H  2.60500 39.17100 31.96600
H  1.03600 38.51300 31.56300
H  1.33400 43.30800 31.23100
H  3.10200 43.54400 31.14900
H  1.70800 43.81400 33.45800
H  3.44600 43.76300 33.16800
H  -3.99400 38.54400 28.24000
H  -3.00100 39.09600 29.62300
H  -2.72200 37.51700 28.74700
H  -5.38400 38.53500 26.63900
H  -4.29200 37.22300 26.14700
H  -5.51200 37.79100 25.01900
H  -0.40600 41.70400 21.99000
H  2.45600 41.36300 21.69200
H  1.37300 39.58200 20.95300
H  -0.29900 40.00700 20.57100
H  0.10000 38.94500 21.93400
H  1.67700 44.01700 22.70800
H  0.44200 43.52600 21.65800
H  2.00500 44.42400 19.99300
H  2.79100 42.81000 20.21400
H  3.36000 44.25200 21.09200
H  7.33900 43.51200 25.42800
H  6.39800 43.91700 24.14100
H  6.98300 42.17500 24.16400
H  5.17000 43.23200 30.01800
H  7.49400 39.99500 31.98200
H  5.77100 39.77500 32.25100
H  6.61600 41.03600 33.18700

