158

Mg -1.70900 33.58900 27.29200
C  -3.74500 31.91400 29.60200
C  -0.62400 35.63500 29.80900
C  -0.15800 35.44500 25.01200
C  -3.19600 31.73700 24.68900
N  -2.11500 33.75100 29.46700
C  -2.94000 32.92700 30.19700
C  -2.90600 33.35200 31.66400
C  -2.07600 34.66100 31.62900
C  -1.54700 34.70000 30.21800
C  -2.90700 35.86200 32.09000
C  -2.35500 32.18100 32.53800
C  -3.22800 31.76900 33.69000
H  -2.63300 31.67000 35.10600
N  -0.46900 35.22700 27.43600
C  -0.09000 35.96200 28.53000
C  0.76600 37.04900 28.13300
C  0.93200 36.89400 26.79800
C  0.10200 35.83200 26.33300
C  1.28300 38.15500 29.14600
C  1.80800 37.78000 25.82900
O  2.02700 37.57700 24.65700
C  2.65200 38.89400 26.39700
N  -1.65400 33.57800 25.28200
C  -1.05000 34.52300 24.51000
C  -1.28700 34.36200 22.96100
C  -2.00300 32.98600 22.90200
C  -2.29000 32.70900 24.39200
C  -2.06800 35.47700 22.34600
C  -1.23500 31.89000 22.09000
C  -0.21000 31.07400 22.95400
N  -3.18600 32.09800 27.11400
C  -3.67400 31.40800 25.97500
C  -4.53500 30.35600 26.42400
C  -4.50900 30.53200 27.83700
C  -3.78900 31.62900 28.18600
C  -5.20300 29.37200 25.69500
C  -5.13500 30.02100 29.01500
O  -5.83000 29.04200 29.08300
C  -4.68300 30.93800 30.28900
C  -5.93000 31.55100 30.70400
O  -6.71100 32.21400 30.02800
O  -6.22600 31.20300 31.96200
C  -7.29600 31.76400 32.75400
H  -0.27700 36.37700 30.53200
H  0.24800 36.09700 24.23600
H  -3.52000 31.07200 23.88500
H  -3.93600 33.48400 31.99500
H  -1.30500 34.49800 32.38200
H  -2.54800 36.70800 31.50400
H  -2.80500 36.05100 33.15900
H  -3.97800 35.84500 31.88900
H  -1.40400 32.40600 33.02000
H  -2.13800 31.35800 31.85600
H  -3.54100 30.75700 33.43400
H  -4.14800 32.34000 33.81300
H  2.35300 38.27400 28.97400
H  1.10400 37.98300 30.20800
H  0.67100 39.05100 29.03600
H  2.11400 39.55200 27.07900
H  3.08700 39.46000 25.57400
H  3.46200 38.36200 26.89500
H  -0.33100 34.29000 22.44300
H  -3.01300 33.02600 22.49400
H  -2.73800 35.07800 21.58500
H  -1.37800 36.15600 21.84500
H  -2.58700 35.89700 23.20800
H  -0.70000 32.25700 21.21400
H  -2.00400 31.21900 21.70600
H  0.67900 30.71100 22.44000
H  -0.65500 30.15600 23.33800
H  0.20300 31.76000 23.69400
H  -4.56100 28.90300 24.94900
H  -6.00700 29.83000 25.11900
H  -5.52800 28.58800 26.37900
H  -4.19500 30.30000 31.02600
H  -8.11600 32.23300 32.21000
H  -6.90400 32.56200 33.38500
H  -7.70500 31.04800 33.46600
Mg -13.07800 16.50400 41.82300
C  -10.00600 14.85600 41.22900
C  -11.91900 19.06500 39.83000
C  -16.16500 17.72100 41.78500
C  -14.40200 13.29900 42.69600
N  -11.08800 16.99500 40.82800
C  -10.02900 16.19600 40.71200
C  -8.89200 16.88600 39.89800
C  -9.47500 18.31900 39.63800
C  -10.93700 18.10500 40.12300
C  -8.65100 19.47500 40.30600
C  -8.44700 16.07500 38.61700
C  -6.92800 15.92800 38.64400
H  -6.21900 15.51200 37.31800
N  -13.89800 18.26100 41.15200
C  -13.29600 19.12600 40.26900
C  -14.10500 20.30800 40.12600
C  -15.35000 19.92800 40.74900
C  -15.20900 18.56800 41.21900
C  -13.69800 21.53500 39.28700
C  -16.53500 20.80800 40.69000
O  -16.52700 21.82900 40.04800
C  -17.83700 20.36000 41.41300
N  -15.04000 15.59200 42.14400
C  -16.11600 16.37600 42.20100
C  -17.35100 15.62400 42.68000
C  -16.81100 14.27200 43.12700
C  -15.33500 14.36400 42.67800
C  -18.25100 16.33900 43.75200
C  -17.61600 13.08700 42.61700
C  -17.55300 12.83700 41.09400
N  -12.35800 14.58900 42.11900
C  -13.02300 13.42100 42.42900
C  -12.04700 12.34500 42.40400
C  -10.89800 12.86700 41.98000
C  -11.13800 14.21600 41.82800
C  -12.25600 10.92100 42.80900
C  -9.54300 12.49100 41.63600
O  -8.94400 11.40800 41.54500
C  -8.86900 13.81200 41.28300
C  -7.75200 14.06200 42.23100
O  -7.89400 14.50600 43.37500
O  -6.46400 13.84000 41.70900
C  -5.32700 13.99200 42.58000
H  -11.59600 19.89100 39.19400
H  -17.15700 18.17800 41.81000
H  -14.71600 12.31800 43.05700
H  -8.02300 17.05500 40.53300
H  -9.57600 18.43200 38.55900
H  -7.99100 20.00000 39.61600
H  -7.95700 19.10400 41.06100
H  -9.37900 20.13900 40.77100
H  -8.79100 16.54500 37.69500
H  -8.86700 15.07200 38.54700
H  -6.56200 15.49300 39.57400
H  -6.59700 16.96600 38.67900
H  -14.10500 22.46600 39.68200
H  -14.23700 21.49200 38.34000
H  -12.63600 21.61400 39.05200
H  -18.50500 21.22100 41.44500
H  -17.57300 20.14900 42.44900
H  -18.28900 19.65400 40.71600
H  -17.97300 15.59300 41.78500
H  -16.81800 14.19500 44.21400
H  -18.04300 16.03700 44.77900
H  -19.29300 16.30100 43.43500
H  -17.90800 17.36900 43.65500
H  -18.62200 13.17000 43.02700
H  -17.22300 12.20100 43.11600
H  -17.39000 11.76000 41.06800
H  -16.77000 13.42800 40.61900
H  -18.57700 13.06300 40.79500
H  -12.46900 10.93200 43.87800
H  -11.38500 10.36500 42.46300
H  -13.07500 10.48500 42.23600
H  -8.53200 13.70600 40.25200
H  -4.35100 13.94000 42.09600
H  -5.31100 13.11500 43.22600
H  -5.36300 14.87100 43.22400

