158

Mg 44.41100 5.03800 47.25700
C  42.10900 7.93000 46.90000
C  41.52500 3.01800 46.76000
C  46.37600 2.47500 46.98400
C  46.95700 7.19100 46.55400
N  42.06600 5.45500 47.00100
C  41.45100 6.65200 46.86100
C  39.95400 6.40700 46.61900
C  39.76200 4.85900 46.92300
C  41.24500 4.42100 46.88200
C  38.86900 4.47200 48.17000
C  39.53200 6.78500 45.20300
C  38.42300 7.80300 45.09400
H  37.60700 7.78700 43.81400
N  43.99500 3.02100 47.18800
C  42.81800 2.35300 46.90600
C  43.12400 0.97700 46.71700
C  44.52800 0.71400 46.77300
C  45.00300 2.07600 47.09300
C  42.04200 -0.13100 46.59100
C  45.27200 -0.63500 46.58600
O  44.73200 -1.64300 46.23700
C  46.82000 -0.82600 46.58900
N  46.42400 4.87300 46.75400
C  47.06300 3.69100 46.81300
C  48.56700 3.89800 47.00000
C  48.75500 5.37700 46.49200
C  47.29500 5.89400 46.64100
C  49.05500 3.59200 48.46800
C  49.34900 5.64000 45.01700
C  50.82500 5.99700 44.98100
N  44.57900 7.13200 47.03100
C  45.72200 7.85300 46.75600
C  45.39700 9.32500 46.74800
C  44.04800 9.38500 46.89900
C  43.54100 8.04700 46.93600
C  46.36100 10.42900 46.61500
C  42.85300 10.27600 46.99200
O  42.84100 11.52900 46.95700
C  41.62600 9.38500 46.95900
C  40.70500 9.58500 48.12300
O  40.59300 8.84900 49.11600
O  39.97700 10.66600 47.86300
C  38.88200 10.99500 48.70900
H  40.69900 2.31300 46.64900
H  47.15100 1.70800 46.93400
H  47.84600 7.80200 46.38100
H  39.37000 6.98900 47.33300
H  39.27400 4.21700 46.18900
H  39.54000 4.54200 49.02600
H  38.54400 3.43500 48.09400
H  38.04900 5.18200 48.28900
H  39.19800 5.93000 44.61400
H  40.46600 7.11500 44.74900
H  38.76700 8.79000 45.40300
H  37.77100 7.43300 45.88500
H  41.95900 -0.78400 47.45900
H  42.31700 -0.77400 45.75500
H  40.99300 0.13800 46.46300
H  47.02600 -1.82700 46.21000
H  47.32900 -0.53100 47.50700
H  47.22900 -0.22100 45.77900
H  49.06000 3.15100 46.37900
H  49.33800 5.93400 47.22500
H  48.12700 3.47900 49.03000
H  49.59800 4.46800 48.82100
H  49.69200 2.71200 48.37800
H  48.66500 6.40900 44.65800
H  49.30600 4.75700 44.37900
H  51.07500 6.54000 44.07000
H  51.31500 5.02500 44.92400
H  51.14900 6.48400 45.90200
H  47.35100 10.15400 46.97900
H  45.95700 11.31100 47.11200
H  46.48700 10.82900 45.60900
H  41.08600 9.66200 46.05300
H  38.99600 12.03700 49.00700
H  38.55000 10.46900 49.60400
H  37.91800 11.00300 48.20000
Mg 47.04800 25.87500 28.23200
C  47.98800 27.97800 30.93300
C  46.22500 23.42400 30.54100
C  46.28400 23.89700 25.62300
C  48.46800 28.25300 25.99500
N  46.83300 25.89100 30.44600
C  47.34600 26.84000 31.34400
C  47.12700 26.33200 32.78000
C  46.61100 24.90300 32.64500
C  46.56800 24.65800 31.08500
C  47.45100 23.72700 33.53100
C  46.22200 27.27500 33.63700
C  46.81300 27.88500 34.89100
H  45.80300 28.06200 36.01900
N  46.43400 23.91700 28.14900
C  46.02400 23.06800 29.17300
C  45.54600 21.82400 28.61300
C  45.55000 21.95300 27.19300
C  46.08500 23.29700 26.95100
C  45.03400 20.63400 29.41000
C  45.22400 20.90400 26.07100
O  45.28700 21.12900 24.88000
C  44.76300 19.49900 26.45400
N  47.25100 26.10100 26.10200
C  46.88900 25.09100 25.24400
C  47.11900 25.55000 23.75800
C  47.72900 27.00900 23.86100
C  47.77700 27.19200 25.39200
C  47.91300 24.56900 22.89000
C  46.94700 28.12400 23.20800
C  47.62300 29.39800 22.52400
N  48.00700 27.64700 28.36800
C  48.58800 28.50700 27.38100
C  49.21500 29.63500 28.00700
C  49.05400 29.47100 29.34500
C  48.28100 28.29400 29.58300
C  50.00000 30.71300 27.38200
C  49.41600 30.07000 30.62100
O  50.17600 30.98600 30.90100
C  48.74100 29.04100 31.66300
C  49.87400 28.58100 32.49100
O  50.63800 27.70700 32.27600
O  49.78900 29.19900 33.70300
C  50.82200 28.91200 34.76600
H  46.11800 22.62100 31.27300
H  46.13700 23.22900 24.77200
H  48.99000 28.88700 25.27500
H  48.10100 26.21300 33.25400
H  45.58200 24.91600 33.00500
H  48.39900 24.20000 33.78900
H  47.56900 22.80300 32.96500
H  46.90100 23.44200 34.42800
H  45.30400 26.80800 33.99400
H  45.98500 28.16900 33.06000
H  47.16900 28.89900 34.70700
H  47.60600 27.21500 35.22300
H  43.95200 20.59200 29.28700
H  45.29900 20.84300 30.44600
H  45.62400 19.77200 29.09700
H  43.77400 19.46900 26.91000
H  45.57000 19.13300 27.08900
H  44.81700 18.91000 25.53800
H  46.13700 25.61700 23.29000
H  48.77300 26.91400 23.56400
H  47.35400 24.28000 22.00000
H  48.04000 23.64500 23.45400
H  48.85100 25.01700 22.56300
H  46.26700 28.60500 23.91200
H  46.41300 27.69300 22.36100
H  48.63800 29.16200 22.20500
H  47.59000 30.27200 23.17500
H  47.06600 29.62000 21.61300
H  50.94400 30.80500 27.91900
H  49.42800 31.64000 27.33600
H  50.18400 30.37800 26.36100
H  48.12100 29.67900 32.29200
H  51.60300 28.34800 34.25600
H  50.29100 28.28100 35.48000
H  51.21100 29.81800 35.23200

