158

Mg 47.26900 25.21100 28.60900
C  48.34200 27.23600 31.07800
C  46.39100 22.83900 31.04500
C  46.42500 23.07900 26.14800
C  48.34600 27.49600 26.25000
N  47.30300 25.07400 30.74600
C  47.68800 26.08300 31.63200
C  47.38100 25.82600 33.08600
C  46.85500 24.36100 33.06900
C  46.88200 24.00500 31.56800
C  47.65700 23.28900 33.87600
C  46.36200 26.83200 33.67100
C  46.72000 27.61500 34.97800
H  45.95100 27.46300 36.26800
N  46.58300 23.24100 28.54400
C  46.31300 22.42100 29.66600
C  45.95100 21.11900 29.24800
C  45.82000 21.17000 27.77900
C  46.30900 22.53300 27.45300
C  45.64900 19.96300 30.15300
C  45.31200 20.07400 26.77900
O  45.40100 20.16500 25.54300
C  44.69000 18.79800 27.27300
N  47.39000 25.21300 26.45000
C  47.00900 24.24200 25.68900
C  47.05700 24.68400 24.22700
C  47.88500 25.96700 24.27800
C  47.84000 26.30800 25.72300
C  47.73000 23.65200 23.25900
C  47.29100 27.08200 23.33300
C  48.34000 27.69100 22.41200
N  48.09900 27.03400 28.61000
C  48.54100 27.88000 27.60000
C  49.20800 29.03100 28.17400
C  49.15700 28.90400 29.58100
C  48.51200 27.64800 29.77600
C  49.90400 30.03500 27.29200
C  49.41900 29.47100 30.87700
O  50.05700 30.48700 31.16500
C  48.99200 28.35000 31.90600
C  50.05300 27.98400 32.87600
O  50.76300 26.96500 32.79300
O  50.02800 28.94100 33.89600
C  50.92500 28.61600 34.99800
H  46.15400 22.12200 31.83300
H  46.16500 22.54200 25.23300
H  48.67100 28.23100 25.51100
H  48.34300 25.91900 33.58900
H  45.82900 24.28800 33.43000
H  47.97200 22.42200 33.29500
H  47.21500 22.88800 34.78800
H  48.63600 23.74100 34.03100
H  45.43400 26.28600 33.83900
H  46.04300 27.54900 32.91400
H  46.64700 28.67600 34.73800
H  47.74300 27.28000 35.15100
H  44.57400 19.78100 30.15700
H  46.07000 20.08700 31.15000
H  46.16900 19.13400 29.67200
H  44.18600 18.92900 28.23100
H  45.59400 18.20000 27.39000
H  44.11900 18.20100 26.56100
H  46.03800 24.82500 23.86900
H  48.93700 25.84100 24.02100
H  48.31200 22.92100 23.82100
H  48.34700 24.24600 22.58600
H  47.05400 23.29600 22.48200
H  46.73900 27.82700 23.90700
H  46.62800 26.64400 22.58800
H  48.46500 27.38900 21.37200
H  49.33700 27.36600 22.70900
H  48.26000 28.75900 22.61500
H  49.62900 29.88900 26.24800
H  50.98900 29.92600 27.28100
H  49.65900 31.05300 27.59700
H  48.14400 28.76400 32.45200
H  50.96800 27.55900 35.25700
H  50.75500 29.21600 35.89200
H  51.93200 28.89300 34.68600
Mg 35.17500 48.21800 26.40000
C  35.55800 46.20600 29.08200
C  34.12400 50.70000 28.51400
C  34.62700 50.22400 23.64600
C  36.33000 45.68700 24.33500
N  34.91900 48.38300 28.57800
C  35.20200 47.46600 29.46100
C  35.21700 47.96800 30.86600
C  34.32000 49.31700 30.69800
C  34.51900 49.54500 29.16700
C  32.85800 49.12200 31.06900
C  36.72100 48.17500 31.32300
C  37.05500 47.70100 32.80800
H  36.73300 48.68100 33.96500
N  34.38900 50.17200 26.16400
C  34.02200 51.03400 27.09300
C  33.46700 52.16900 26.57400
C  33.83100 52.15000 25.17900
C  34.34300 50.79100 24.92700
C  32.71300 53.21100 27.31600
C  33.64900 53.27800 24.16000
O  33.97900 53.22200 22.94300
C  33.11800 54.59600 24.62800
N  35.37000 47.97600 24.32600
C  35.02500 48.91800 23.40900
C  35.25000 48.35200 22.03500
C  36.27900 47.12100 22.28300
C  35.80500 46.86100 23.72600
C  33.99900 48.06900 21.22400
C  37.77900 47.42900 22.02800
C  38.59500 46.69500 20.91600
N  35.82600 46.22600 26.60900
C  36.38300 45.36200 25.72400
C  36.70400 44.17500 26.37600
C  36.38800 44.39400 27.73700
C  35.86300 45.68300 27.78400
C  37.17800 42.89500 25.69700
C  36.42300 43.88500 29.09300
O  36.87300 42.82100 29.50100
C  36.04800 45.04200 30.02600
C  35.00600 44.58600 30.93300
O  33.84400 44.32400 30.67200
O  35.57000 44.46100 32.13700
C  34.61400 44.29200 33.25900
H  33.82900 51.50600 29.18900
H  34.55700 50.79700 22.72000
H  36.63800 44.91700 23.62600
H  34.92200 47.29000 31.66700
H  34.66600 50.25200 31.13800
H  32.27200 49.36600 30.18300
H  32.67100 49.86600 31.84400
H  32.65100 48.11200 31.42100
H  37.05800 49.21200 31.31500
H  37.42100 47.62500 30.69400
H  38.12500 47.49800 32.85900
H  36.48000 46.78700 32.95600
H  31.86900 53.48200 26.68300
H  33.27700 54.11000 27.56600
H  32.27200 52.92200 28.27100
H  32.09400 54.39400 24.94300
H  33.19300 55.30400 23.80300
H  33.65700 55.02400 25.47300
H  35.80600 49.01700 21.37400
H  35.91700 46.28900 21.67800
H  33.08000 48.47700 21.64500
H  33.89200 46.98800 21.14500
H  34.19800 48.55400 20.26800
H  38.42500 47.31700 22.89900
H  37.97900 48.49000 21.87700
H  38.85200 47.51000 20.23900
H  37.97900 45.98300 20.36800
H  39.48800 46.17300 21.26200
H  36.52200 42.11800 25.30400
H  37.95800 42.46000 26.32200
H  37.55100 43.23700 24.73100
H  36.98500 45.27700 30.53000
H  34.63300 45.15600 33.92400
H  34.90200 43.39200 33.80400
H  33.59100 44.17600 32.90300

