158

Mg 16.88000 -1.09200 27.15300
C  16.13300 1.08500 29.89900
C  19.22800 -2.60300 29.20800
C  18.32900 -2.56300 24.48400
C  15.58400 1.43600 25.10500
N  17.71900 -0.61200 29.27700
C  17.07600 0.14000 30.24700
C  17.62200 -0.27300 31.66600
C  18.69300 -1.37900 31.37500
C  18.61500 -1.46700 29.84100
C  20.23800 -1.05100 31.73800
C  16.54400 -0.73500 32.69200
C  16.42600 0.06100 33.97400
H  17.62100 0.39100 34.95100
N  18.36100 -2.63400 26.96300
C  19.16400 -3.12300 27.91600
C  19.90200 -4.21600 27.42900
C  19.61400 -4.21300 26.00100
C  18.72800 -3.15500 25.75200
C  20.82800 -4.95600 28.30600
C  20.21800 -5.09000 24.94000
O  19.83400 -5.00600 23.75800
C  21.20200 -6.16500 25.30200
N  16.88800 -0.63700 25.06200
C  17.43900 -1.52600 24.13400
C  17.23800 -1.02500 22.78300
C  16.25200 0.18900 22.92800
C  16.15900 0.31100 24.45100
C  18.48300 -0.54500 21.93800
C  14.85000 0.03700 22.36400
C  14.60700 -0.61800 21.03100
N  15.79400 0.75700 27.40600
C  15.29900 1.63200 26.49400
C  14.53500 2.62700 27.19900
C  14.78700 2.48400 28.54800
C  15.62200 1.33400 28.60800
C  13.69700 3.75400 26.61700
C  14.61000 3.07400 29.87900
O  14.04700 4.10900 30.23300
C  15.41300 2.10000 30.82200
C  16.27300 2.97300 31.71300
O  17.39100 3.37300 31.45600
O  15.66100 3.28100 32.88700
C  16.45300 4.10900 33.81400
H  19.92900 -3.13300 29.85600
H  18.76500 -2.90600 23.54400
H  15.12900 2.11500 24.38000
H  18.06200 0.66000 32.01900
H  18.50600 -2.35600 31.82200
H  20.09300 -0.44200 32.63000
H  20.61900 -0.38800 30.96000
H  20.90200 -1.89100 31.93700
H  16.59400 -1.78300 32.98700
H  15.56100 -0.66200 32.22700
H  15.81400 -0.50800 34.67400
H  15.83800 0.93200 33.68300
H  21.19600 -5.93100 27.98900
H  20.60500 -5.21500 29.34100
H  21.73100 -4.35100 28.38400
H  21.67000 -6.67000 24.45700
H  20.57600 -6.91400 25.78700
H  21.89000 -5.74400 26.03600
H  16.71400 -1.85300 22.30500
H  16.70600 1.11900 22.58500
H  19.46000 -0.73700 22.38200
H  18.54400 0.50400 21.64500
H  18.41000 -1.16900 21.04800
H  14.52700 1.06200 22.18600
H  14.20500 -0.41300 23.11900
H  13.84400 -0.14900 20.41000
H  14.33000 -1.65100 21.24300
H  15.50700 -0.51000 20.42600
H  12.64500 3.51800 26.45800
H  14.12600 4.04400 25.65800
H  13.84500 4.68000 27.17300
H  14.71800 1.67300 31.54600
H  16.42600 5.14800 33.48600
H  17.44300 3.66200 33.90700
H  16.10600 4.04600 34.84500
Mg 30.55100 58.69600 41.03200
C  27.78800 56.89700 39.93600
C  32.55600 56.28800 39.65300
C  33.08500 60.99600 41.01800
C  28.31300 61.40500 41.77700
N  30.12000 56.88400 39.81100
C  28.96600 56.23500 39.65300
C  29.11200 54.76500 39.27700
C  30.64600 54.58400 39.34500
C  31.16700 55.98200 39.67400
C  31.17400 53.39700 40.17900
C  28.40300 54.26700 38.03300
C  28.20200 55.22000 36.80900
H  28.36100 54.82800 35.37800
N  32.53300 58.61900 40.55400
C  33.15300 57.56000 39.92700
C  34.57800 57.88400 39.83100
C  34.78100 59.20800 40.15200
C  33.46400 59.66500 40.59600
C  35.64000 56.94800 39.27800
C  36.13000 59.92400 40.08900
O  37.07600 59.38900 39.49600
C  36.40400 61.29700 40.65200
N  30.61000 60.81000 41.59400
C  31.81700 61.49200 41.52800
C  31.71600 62.98000 41.88000
C  30.18500 63.10400 42.21200
C  29.65700 61.74400 41.81500
C  32.65600 63.39900 43.03300
C  29.35700 64.29000 41.68100
C  29.08600 65.49200 42.69300
N  28.43000 59.06500 41.08200
C  27.64800 60.18500 41.37200
C  26.26800 59.91600 41.15100
C  26.32400 58.61300 40.59400
C  27.62300 58.16900 40.48000
C  25.18600 60.90800 41.35800
C  25.43500 57.54900 40.07600
O  24.23200 57.56700 39.92900
C  26.39200 56.36700 39.76300
C  26.10000 55.32100 40.78100
O  26.58800 55.16800 41.87600
O  25.14800 54.43700 40.26300
C  24.70500 53.22900 41.05300
H  33.24600 55.53600 39.26400
H  33.74900 61.85300 40.89000
H  27.59100 62.21400 41.90600
H  28.68100 54.33100 40.17900
H  31.07300 54.44700 38.35200
H  31.92200 53.72900 40.89800
H  31.55000 52.69100 39.43800
H  30.44700 52.89100 40.81400
H  27.43700 53.88700 38.36500
H  29.00700 53.48100 37.58000
H  28.92800 56.02200 36.94200
H  27.18000 55.57900 36.92600
H  35.68000 57.22400 38.22500
H  35.33700 55.90600 39.38800
H  36.57600 57.08800 39.81800
H  35.92900 61.54600 41.60200
H  36.14200 62.01600 39.87500
H  37.47900 61.36700 40.81400
H  31.80000 63.54000 40.94900
H  30.15700 63.07300 43.30200
H  33.16300 62.52200 43.43600
H  32.19000 63.90200 43.88000
H  33.32700 64.17300 42.66200
H  28.47400 63.91300 41.16500
H  29.93000 64.61200 40.81100
H  29.32000 65.24700 43.72900
H  28.00600 65.63800 42.66200
H  29.56600 66.40300 42.33600
H  25.40500 61.47400 42.26300
H  24.30600 60.29300 41.54800
H  25.04600 61.45500 40.42600
H  26.09600 56.08700 38.75100
H  24.26900 53.60500 41.97900
H  25.51900 52.57500 41.36600
H  24.00200 52.68100 40.42600

