158

Mg 16.33800 -1.05900 27.40800
C  15.42200 1.04800 29.92400
C  18.22600 -2.89300 29.60600
C  17.43300 -2.91900 24.89600
C  14.76600 1.10500 25.15300
N  16.93000 -0.81600 29.49400
C  16.23200 -0.00900 30.31300
C  16.60100 -0.33000 31.76700
C  17.71800 -1.45800 31.63000
C  17.70000 -1.70500 30.12400
C  19.10000 -1.14000 32.20800
C  15.40900 -0.63500 32.77700
C  15.40900 -0.03600 34.19200
H  16.82500 0.31900 34.80300
N  17.75200 -2.70400 27.29100
C  18.28200 -3.41100 28.30300
C  18.99300 -4.56300 27.76700
C  18.79700 -4.51500 26.38000
C  17.97100 -3.34900 26.13700
C  19.73600 -5.51200 28.65000
C  19.48100 -5.38700 25.32400
O  19.25600 -5.25600 24.14400
C  20.52400 -6.35100 25.78900
N  15.97100 -1.05900 25.31000
C  16.68300 -1.83900 24.45200
C  16.53900 -1.51100 22.97400
C  15.66000 -0.23900 23.06000
C  15.35700 -0.03000 24.58500
C  17.93000 -1.16700 22.34000
C  14.31700 -0.44200 22.28000
C  14.15600 0.71800 21.26600
N  15.04100 0.53700 27.47400
C  14.55000 1.38300 26.49200
C  14.02100 2.58000 27.12100
C  14.25600 2.41400 28.44800
C  14.95000 1.23500 28.65300
C  13.30400 3.67800 26.41200
C  14.13500 3.05100 29.71200
O  13.61500 4.07000 29.98900
C  14.74100 2.12700 30.80300
C  15.59700 2.87800 31.68400
O  16.80700 3.17800 31.54500
O  14.92800 3.22000 32.82900
C  15.56000 3.84000 34.02600
H  18.89100 -3.34500 30.34500
H  17.86000 -3.45400 24.04500
H  14.40300 1.83000 24.42200
H  17.21600 0.50000 32.11400
H  17.31000 -2.37200 32.06100
H  19.86800 -1.06400 31.43800
H  19.49200 -1.88700 32.89800
H  19.02000 -0.24700 32.82800
H  15.35300 -1.69200 33.03700
H  14.51000 -0.35100 32.22900
H  14.99600 -0.77500 34.87900
H  14.83100 0.88800 34.16500
H  20.75300 -5.16200 28.82700
H  19.71400 -6.55000 28.31800
H  19.36400 -5.41800 29.67000
H  21.11900 -6.69200 24.94200
H  20.04000 -7.24500 26.18400
H  21.10600 -5.75600 26.49300
H  16.08300 -2.34600 22.44200
H  16.25700 0.59200 22.68400
H  18.82300 -1.62900 22.76200
H  18.16300 -0.11600 22.51100
H  17.89900 -1.41900 21.28000
H  13.48400 -0.48100 22.98200
H  14.35400 -1.41800 21.79600
H  14.98700 0.97300 20.60900
H  13.78900 1.59800 21.79400
H  13.35000 0.45100 20.58200
H  12.30700 3.36200 26.10500
H  13.80700 4.09600 25.54000
H  13.22500 4.50900 27.11300
H  13.87200 1.71700 31.31800
H  15.41500 3.25400 34.93400
H  15.02400 4.73100 34.35100
H  16.62500 4.04700 33.92300
Mg 44.16700 4.90500 46.78200
C  42.25200 7.93900 46.44600
C  41.13800 3.29300 45.96000
C  45.92400 2.24200 46.19400
C  47.01800 6.95700 46.48200
N  41.93300 5.56100 46.35900
C  41.45600 6.87000 46.36200
C  39.98100 6.91700 46.01700
C  39.55300 5.40800 45.89100
C  40.91300 4.69500 46.06800
C  38.51600 4.87900 46.91400
C  39.68600 7.73400 44.75600
C  40.59000 7.48700 43.52100
H  39.91900 7.79600 42.17500
N  43.56200 3.01300 46.33700
C  42.27900 2.48800 45.99300
C  42.44200 1.04700 45.63200
C  43.87200 0.78600 45.61500
C  44.54800 2.04100 46.13400
C  41.31900 0.13800 45.28100
C  44.49200 -0.54900 45.24500
O  43.84200 -1.55200 44.95800
C  45.96800 -0.74800 45.22000
N  46.16700 4.59000 46.38700
C  46.67000 3.37300 46.44500
C  48.18900 3.39700 46.28300
C  48.53100 4.86500 46.43800
C  47.16400 5.57400 46.47500
C  48.97200 2.37600 47.09300
C  49.56600 5.48500 45.42300
C  50.93200 5.78400 46.09600
N  44.58600 6.98500 46.70100
C  45.82200 7.70800 46.61100
C  45.61300 9.14800 46.55600
C  44.22100 9.27800 46.57500
C  43.67100 8.00100 46.57000
C  46.66300 10.24500 46.51500
C  43.10700 10.26500 46.54600
O  43.07600 11.46700 46.44600
C  41.85100 9.41600 46.40300
C  40.94700 9.69600 47.53400
O  41.14800 9.43700 48.69100
O  39.78600 10.32100 47.06200
C  38.66200 10.47300 48.06100
H  40.25700 2.73200 45.64200
H  46.53300 1.33700 46.13800
H  47.94400 7.53400 46.45700
H  39.43000 7.41100 46.81800
H  39.10400 5.07400 44.95500
H  38.25100 5.70700 47.57200
H  38.89100 4.06800 47.53900
H  37.64400 4.46000 46.41100
H  39.65100 8.78700 45.03500
H  38.71600 7.33800 44.45500
H  40.97300 6.46700 43.49600
H  41.46700 8.12400 43.63800
H  41.48900 -0.13300 44.23900
H  40.39300 0.71200 45.31700
H  41.25700 -0.69100 45.98600
H  46.15000 -1.75900 44.85500
H  46.37700 -0.77300 46.23000
H  46.48200 -0.02800 44.58400
H  48.36200 3.12100 45.24300
H  48.75000 4.91700 47.50400
H  48.33900 1.60700 47.53600
H  49.47000 2.94700 47.87600
H  49.73300 1.79000 46.57800
H  49.20900 6.42400 44.99900
H  49.75100 4.92000 44.51000
H  51.10800 5.53400 47.14200
H  51.46400 6.73500 46.06400
H  51.67200 5.23800 45.51200
H  47.57800 9.71400 46.25200
H  46.75300 10.70800 47.49700
H  46.40800 10.98200 45.75300
H  41.28900 9.82200 45.56200
H  38.04200 11.23300 47.58500
H  38.86700 10.65100 49.11700
H  38.04900 9.57800 47.95400

