158

Mg 0.49800 43.00600 25.56700
C  2.61500 42.72900 28.42800
C  -2.00400 41.84600 27.36400
C  -1.10900 42.59000 22.63100
C  3.45900 43.51600 23.59100
N  0.39200 42.36900 27.62000
C  1.26500 42.53700 28.66900
C  0.61200 42.59400 29.99300
C  -0.84200 42.06000 29.68400
C  -0.84300 42.01400 28.13200
C  -1.12400 40.66000 30.40900
C  0.74700 44.05100 30.65700
C  1.25700 44.00300 32.13900
H  1.16600 42.70500 32.97500
N  -1.31700 42.45500 25.06000
C  -2.26300 41.92900 25.97400
C  -3.44200 41.49800 25.28600
C  -3.22700 41.91100 23.95200
C  -1.81900 42.31200 23.81800
C  -4.58600 40.92100 26.00200
C  -4.23000 41.98100 22.73400
O  -4.00100 42.38300 21.60600
C  -5.66300 41.54800 22.97400
N  1.02200 43.24200 23.34800
C  0.21800 42.97700 22.31000
C  0.86000 43.21300 20.95600
C  2.29200 43.72800 21.30400
C  2.25600 43.47700 22.84100
C  0.89500 41.87600 20.13400
C  2.49900 45.22400 21.03000
C  3.63500 45.50700 20.05800
N  2.62600 43.13400 25.83200
C  3.62900 43.33400 24.99100
C  4.91000 43.19400 25.68100
C  4.54300 43.09500 27.01700
C  3.14400 42.97800 27.10200
C  6.31200 43.24100 25.07200
C  5.06000 43.00400 28.41200
O  6.17300 43.15900 28.81100
C  3.78200 42.87100 29.35700
C  3.92700 41.72100 30.31500
O  3.39100 40.57000 30.19100
O  4.84500 42.03400 31.21600
C  5.12300 41.23700 32.46900
H  -2.92200 41.71400 27.94000
H  -1.69800 42.33000 21.74900
H  4.40500 43.70700 23.07900
H  1.25400 41.96000 30.60500
H  -1.65600 42.74500 29.92200
H  -0.21200 40.06600 30.46300
H  -1.78500 40.04300 29.80000
H  -1.58700 40.79100 31.38800
H  -0.17200 44.63500 30.69500
H  1.44600 44.66900 30.09400
H  0.73800 44.82200 32.63600
H  2.32800 44.20200 32.18500
H  -4.26900 40.33000 26.86200
H  -5.17300 40.25900 25.36500
H  -5.23100 41.73900 26.32200
H  -5.73200 40.47000 22.83400
H  -6.34800 42.09400 22.32500
H  -5.96100 41.80800 23.99000
H  0.28900 44.01900 20.49600
H  3.08700 43.13300 20.85300
H  1.79300 41.37400 20.49400
H  1.08300 42.06500 19.07700
H  0.07300 41.19500 20.35400
H  2.74000 45.83100 21.90200
H  1.60000 45.72400 20.66900
H  4.18600 44.70300 19.57100
H  4.36100 46.09200 20.62300
H  3.27200 46.15100 19.25700
H  6.35500 42.87800 24.04500
H  7.00600 42.63800 25.65700
H  6.69100 44.26000 24.99000
H  3.60700 43.76600 29.95500
H  4.45000 40.38000 32.50300
H  5.05900 41.77700 33.41400
H  6.14600 40.86300 32.46400
Mg -6.14300 25.26000 25.67800
C  -4.61900 26.59700 28.45600
C  -7.86700 23.28300 27.58000
C  -6.97900 23.54900 22.86000
C  -4.06100 27.25200 23.63100
N  -6.15200 24.89100 27.79800
C  -5.58500 25.63700 28.78700
C  -6.03900 25.28500 30.21100
C  -6.91900 23.96700 29.82300
C  -6.97600 24.04400 28.25700
C  -6.33900 22.68700 30.22600
C  -6.91900 26.30700 30.92400
C  -6.78900 26.47700 32.43500
H  -6.52600 25.30600 33.46100
N  -7.34800 23.73300 25.27400
C  -8.03200 23.05800 26.20500
C  -8.86400 22.06000 25.58900
C  -8.52500 22.04000 24.15700
C  -7.57500 23.15000 24.07400
C  -10.05400 21.32300 26.37100
C  -9.11200 21.13700 23.07700
O  -8.75000 21.31500 21.93500
C  -10.05300 20.01400 23.34900
N  -5.61900 25.37700 23.54000
C  -6.18900 24.62400 22.57800
C  -5.64000 24.85600 21.14100
C  -4.92000 26.22000 21.36000
C  -4.79600 26.28800 22.94200
C  -4.76900 23.66000 20.70100
C  -5.69800 27.49500 20.89700
C  -5.01700 28.16900 19.71400
N  -4.65700 26.67800 25.91300
C  -3.82100 27.34100 25.01800
C  -2.92600 28.27800 25.79600
C  -3.18800 27.88300 27.14000
C  -4.24100 26.91400 27.17700
C  -1.93100 29.26700 25.29000
C  -2.76400 28.16900 28.50500
O  -2.04300 28.97200 29.03900
C  -3.76400 27.32700 29.42100
C  -2.99400 26.47900 30.33100
O  -2.40800 25.44400 30.10700
O  -2.93300 27.13900 31.52800
C  -2.37300 26.37500 32.64500
H  -8.48800 22.66400 28.23200
H  -7.25200 23.04300 21.93200
H  -3.46400 27.97800 23.07500
H  -5.23300 25.07200 30.91400
H  -7.91900 23.94500 30.25700
H  -6.18100 22.01200 29.38400
H  -6.98900 22.18800 30.94500
H  -5.44200 22.78900 30.83700
H  -7.93400 26.14000 30.56100
H  -6.59800 27.30400 30.62100
H  -7.67200 26.98900 32.81700
H  -6.03900 27.23800 32.65200
H  -11.04300 21.30600 25.91300
H  -10.25500 21.77800 27.34100
H  -9.86000 20.25300 26.44600
H  -10.13300 19.44800 22.42100
H  -11.05500 20.33500 23.63300
H  -9.70600 19.32000 24.11400
H  -6.44200 24.93000 20.40700
H  -3.94300 26.09800 20.89300
H  -4.14300 23.89800 19.84100
H  -5.38400 22.87400 20.26300
H  -4.16400 23.27200 21.52100
H  -5.73200 28.27900 21.65400
H  -6.72900 27.29200 20.60700
H  -5.34400 27.77700 18.75100
H  -3.93500 28.04300 19.75200
H  -5.06000 29.24800 19.86500
H  -1.96500 29.46800 24.21900
H  -0.92700 29.05900 25.65900
H  -2.25900 30.21800 25.71000
H  -4.37400 28.05000 29.96300
H  -2.88300 26.66800 33.56300
H  -1.31900 26.58600 32.82700
H  -2.43200 25.29800 32.49500

