158

Mg 0.57500 7.72100 25.53300
C  1.30700 9.76200 28.29800
C  0.51600 5.09000 27.62200
C  0.27900 5.76300 22.71100
C  1.16600 10.59000 23.42200
N  0.97300 7.47300 27.61200
C  1.17600 8.42100 28.60300
C  1.18900 7.84700 30.05300
C  1.07100 6.32000 29.82400
C  0.74300 6.29200 28.25100
C  2.36700 5.37400 30.18400
C  0.07900 8.32800 30.98000
C  0.43200 8.46300 32.44500
H  1.70300 7.62200 32.83900
N  0.35200 5.69900 25.20300
C  0.42400 4.76500 26.24300
C  0.34300 3.43200 25.62100
C  0.19900 3.65000 24.16400
C  0.34200 5.06800 23.99900
C  0.27400 2.15900 26.44500
C  0.05700 2.54700 23.09800
O  0.08200 2.82800 21.89700
C  -0.06900 1.12900 23.48700
N  0.84800 8.04700 23.41100
C  0.47300 7.12700 22.50400
C  0.27800 7.71600 21.09600
C  0.33600 9.29400 21.44000
C  0.83100 9.38200 22.83100
C  1.29200 7.26400 20.06000
C  -1.04200 10.03100 21.49100
C  -1.16500 11.24100 20.59800
N  1.12700 9.73700 25.76700
C  1.25100 10.80700 24.85200
C  1.48900 12.04800 25.51300
C  1.40200 11.69800 26.84100
C  1.24400 10.29700 27.00100
C  1.80100 13.28600 24.90000
C  1.63300 12.28800 28.18900
O  1.87000 13.43800 28.53300
C  1.40300 11.07700 29.17400
C  2.66200 11.08400 30.03800
O  3.83400 10.94700 29.60400
O  2.31700 11.36500 31.38000
C  3.42200 11.19000 32.24400
H  0.29700 4.22800 28.25600
H  0.08200 5.25700 21.76400
H  1.20900 11.51100 22.83800
H  2.17900 8.11800 30.41900
H  0.25400 5.81700 30.34200
H  2.10400 4.58200 30.88600
H  3.12300 6.06600 30.55400
H  2.83400 4.86500 29.34200
H  -0.78600 7.68300 30.83000
H  -0.06900 9.33500 30.59000
H  -0.38900 8.33500 33.15000
H  0.81400 9.48400 32.48300
H  0.96700 1.37000 26.15300
H  -0.77400 1.86500 26.38400
H  0.60400 2.27100 27.47800
H  -0.21500 0.52300 22.59300
H  -0.94200 1.16200 24.13800
H  0.81400 0.70700 23.96800
H  -0.72000 7.51900 20.70500
H  1.00600 9.84800 20.78200
H  1.69800 6.26700 20.22600
H  2.15400 7.91100 19.89400
H  0.75900 7.24000 19.11000
H  -1.38000 10.19500 22.51400
H  -1.81700 9.30600 21.24500
H  -0.25300 11.47400 20.04800
H  -1.38900 12.09700 21.23500
H  -1.97100 11.13300 19.87300
H  1.37100 13.53200 23.92900
H  2.86800 13.31900 24.67900
H  1.44500 14.04400 25.59800
H  0.53300 11.37300 29.76100
H  3.93800 10.24500 32.07600
H  3.04100 11.13200 33.26300
H  4.21300 11.91000 32.03200
Mg 42.33600 41.43000 26.50600
C  41.71600 43.65100 29.13800
C  43.24900 38.95900 28.79200
C  43.23900 39.53600 23.90100
C  41.37800 43.95300 24.39600
N  42.53000 41.35500 28.72400
C  42.18400 42.39900 29.63900
C  42.13100 41.84300 31.07800
C  42.85900 40.47100 30.91700
C  42.82300 40.16700 29.39300
C  44.16000 40.34800 31.60600
C  40.67300 41.71600 31.62000
C  40.36000 42.81500 32.72600
H  39.79600 42.34700 34.08000
N  43.22000 39.51900 26.40900
C  43.44200 38.60700 27.41300
C  43.98100 37.38900 26.80700
C  43.95700 37.53700 25.36900
C  43.38000 38.86800 25.15300
C  44.38900 36.08700 27.63300
C  44.43000 36.66100 24.29000
O  44.36200 36.94200 23.10300
C  45.18800 35.42000 24.63500
N  42.50800 41.73500 24.41900
C  42.78300 40.78400 23.53400
C  42.56700 41.25400 22.06300
C  41.86600 42.59700 22.25900
C  41.94000 42.74900 23.74800
C  43.81300 41.15900 21.18400
C  40.41000 42.66200 21.75500
C  39.29900 42.06900 22.62000
N  41.64500 43.37000 26.69700
C  41.39900 44.32300 25.72200
C  40.97100 45.59100 26.31700
C  41.06500 45.36100 27.68300
C  41.52900 44.03400 27.83600
C  40.39300 46.81400 25.58500
C  40.75100 45.91500 28.92400
O  40.19900 46.94500 29.29800
C  41.16300 44.82100 29.97400
C  42.15900 45.38600 30.98000
O  43.37200 45.36900 30.87400
O  41.49300 45.75300 32.17200
C  42.30400 46.29800 33.22500
H  43.42000 38.17800 29.53500
H  43.47400 39.01300 22.97100
H  41.16500 44.76100 23.69300
H  42.64800 42.56100 31.71600
H  42.25300 39.72800 31.43500
H  44.50300 41.37200 31.75100
H  44.86900 39.91200 30.90300
H  44.11600 39.86500 32.58300
H  40.54100 40.75600 32.11800
H  39.96100 41.89300 30.81300
H  39.55500 43.38000 32.25600
H  41.18100 43.50200 32.92800
H  43.65700 35.29700 27.46300
H  44.25200 36.46800 28.64500
H  45.45100 35.86800 27.52100
H  44.50900 34.63400 24.96500
H  45.99800 35.67000 25.32000
H  45.70100 35.09300 23.73100
H  41.85300 40.52500 21.68000
H  42.43900 43.35300 21.72300
H  43.85200 42.13900 20.70800
H  43.67500 40.27600 20.55900
H  44.73100 41.07900 21.76700
H  40.39600 42.18400 20.77600
H  40.25800 43.73700 21.65900
H  39.09700 42.76900 23.43100
H  39.62200 41.19400 23.18400
H  38.42100 41.63300 22.14200
H  40.70000 46.79500 24.53900
H  40.81900 47.64800 26.14300
H  39.30600 46.88900 25.57100
H  40.34700 44.41100 30.56800
H  43.19300 46.85700 32.93100
H  42.61900 45.63200 34.02800
H  41.71200 47.11000 33.64700

