158

Mg 36.33900 49.97800 25.54700
C  36.35300 48.28200 28.51600
C  35.17500 52.82600 27.17400
C  36.00700 51.44900 22.49800
C  37.32400 47.12700 23.98500
N  35.74400 50.42500 27.57300
C  35.91500 49.60500 28.60900
C  35.77400 50.49800 29.91700
C  35.27700 51.89700 29.47300
C  35.39300 51.74600 27.98800
C  34.05500 52.43400 30.17500
C  37.10300 50.47000 30.70900
C  37.04000 50.21000 32.18000
H  35.75400 50.17200 33.04300
N  35.77800 51.85300 24.91300
C  35.34500 52.89700 25.71200
C  35.01800 54.04800 24.89700
C  35.22800 53.61400 23.55600
C  35.72900 52.26700 23.58900
C  34.31200 55.29100 25.41100
C  34.94900 54.50200 22.29500
O  35.10400 54.16000 21.16300
C  34.31900 55.88800 22.35600
N  36.67400 49.39800 23.59400
C  36.46600 50.17400 22.49800
C  36.80900 49.50200 21.18100
C  37.66800 48.30800 21.72500
C  37.21100 48.25200 23.17400
C  35.70400 49.01400 20.17600
C  39.23100 48.44200 21.65500
C  40.06700 47.15400 21.28800
N  36.68100 48.02200 26.06400
C  37.11000 46.91900 25.36200
C  37.29900 45.71400 26.17100
C  37.08400 46.22600 27.44600
C  36.73000 47.62900 27.29700
C  37.87800 44.35200 25.74300
C  37.21800 45.97100 28.91100
O  37.67100 45.01800 29.48200
C  36.66200 47.22400 29.63400
C  35.51400 46.87700 30.44200
O  34.36000 46.80900 29.99900
O  35.90100 46.43300 31.66000
C  34.82300 45.88000 32.56800
H  34.77000 53.65200 27.76300
H  35.99100 51.80600 21.46600
H  37.59900 46.17100 23.53500
H  34.99900 50.00000 30.49800
H  36.05000 52.63300 29.69100
H  34.39700 53.29200 30.75400
H  33.55000 51.74200 30.84900
H  33.32200 52.76200 29.43700
H  37.50600 51.47200 30.56500
H  37.85700 49.88400 30.18300
H  37.76100 50.87300 32.65600
H  37.50500 49.22800 32.27200
H  33.29900 55.25700 25.00800
H  34.85100 56.21900 25.22000
H  34.26800 55.14500 26.49000
H  34.43300 56.30800 21.35700
H  34.92300 56.58800 22.93400
H  33.29000 55.82900 22.71200
H  37.50900 50.17000 20.67900
H  37.35600 47.40000 21.20800
H  34.77200 49.56900 20.28500
H  35.45300 47.97600 20.39200
H  36.05300 49.10600 19.14700
H  39.64300 49.01200 22.48800
H  39.51700 49.18700 20.91200
H  40.47900 46.76300 22.21700
H  40.86200 47.41000 20.58800
H  39.29800 46.52600 20.83700
H  38.45600 44.02500 26.60700
H  38.55300 44.38000 24.88700
H  37.07400 43.64700 25.53500
H  37.39900 47.55100 30.36700
H  33.91100 46.47700 32.58200
H  35.14600 45.73800 33.59900
H  34.61500 44.89000 32.16300
Mg -6.12100 24.67300 25.83800
C  -4.65300 26.30600 28.57300
C  -7.99400 22.78200 28.09500
C  -7.18900 22.83600 23.25200
C  -3.84600 26.29300 23.81000
N  -6.27100 24.65500 28.03000
C  -5.63600 25.37700 28.95900
C  -6.06200 24.98900 30.35700
C  -6.85200 23.67500 30.24200
C  -7.10200 23.69300 28.68600
C  -6.09600 22.50900 30.90600
C  -6.87100 26.14900 31.05600
C  -6.64200 26.49900 32.59000
H  -5.80500 25.52600 33.51100
N  -7.54000 23.16700 25.66500
C  -8.20800 22.55000 26.69700
C  -9.17900 21.64100 26.12900
C  -8.93300 21.61300 24.70800
C  -7.82800 22.54200 24.50100
C  -10.28700 21.03100 26.90200
C  -9.74000 20.87000 23.61300
O  -9.43600 20.88000 22.39200
C  -10.89000 20.08900 24.03600
N  -5.62500 24.56600 23.87000
C  -6.12800 23.67400 22.96600
C  -5.70100 23.87500 21.51300
C  -4.61000 24.99200 21.66500
C  -4.68000 25.34400 23.20100
C  -5.27900 22.52400 20.81400
C  -4.92900 26.22400 20.77600
C  -3.72200 26.70600 20.08600
N  -4.55700 26.05300 26.16000
C  -3.76900 26.66200 25.19400
C  -2.82700 27.65800 25.77700
C  -3.16900 27.56200 27.17400
C  -4.23200 26.61100 27.34300
C  -1.91600 28.54700 25.04100
C  -2.78400 28.05900 28.44900
O  -2.01300 28.91100 28.78000
C  -3.78300 27.27300 29.44700
C  -2.91900 26.52300 30.35700
O  -2.51700 25.34600 30.18300
O  -2.51400 27.28300 31.36100
C  -1.62900 26.72400 32.39500
H  -8.62700 22.15400 28.72600
H  -7.58800 22.27100 22.40700
H  -3.23400 26.80400 23.06400
H  -5.10800 24.80200 30.85000
H  -7.85100 23.65600 30.67700
H  -6.50200 22.43800 31.91500
H  -5.01200 22.62100 30.94900
H  -6.44700 21.60600 30.40800
H  -7.93400 25.92900 30.95200
H  -6.64400 27.03900 30.47000
H  -7.62800 26.56200 33.05100
H  -6.30300 27.52900 32.70100
H  -10.27800 21.51000 27.88200
H  -10.14000 19.98700 27.17800
H  -11.31700 21.12300 26.55700
H  -10.60900 19.31000 24.74500
H  -11.11200 19.40100 23.22000
H  -11.75700 20.68300 24.32400
H  -6.58200 24.21100 20.96600
H  -3.64800 24.54300 21.41500
H  -4.22400 22.64300 20.56700
H  -5.94700 22.31200 19.97900
H  -5.29900 21.76500 21.59700
H  -5.36200 27.05000 21.34100
H  -5.72100 26.02400 20.05400
H  -3.80600 27.25900 19.15000
H  -2.90800 26.02400 19.84100
H  -3.30700 27.45800 20.75700
H  -2.41400 29.45200 24.69400
H  -1.48000 27.90800 24.27300
H  -1.12100 28.73700 25.76100
H  -4.47400 27.98400 29.89900
H  -1.30200 27.61000 32.93900
H  -0.74800 26.26300 31.94700
H  -2.20900 25.97900 32.93900

