158

Mg 9.06300 3.41900 27.02200
C  10.35100 2.14200 30.07700
C  7.40900 5.86100 28.96400
C  7.78300 4.87600 24.21800
C  10.58600 0.92600 25.29400
N  8.80000 3.72800 29.23100
C  9.46200 3.16200 30.28400
C  9.20600 3.95400 31.62900
C  8.07900 4.92000 31.21600
C  8.07900 4.82500 29.65800
C  6.76300 4.74300 31.92900
C  10.37900 4.56600 32.40800
C  10.75200 4.04400 33.74700
H  11.19100 5.03900 34.82500
N  7.80500 5.04900 26.62700
C  7.29600 5.95000 27.61300
C  6.51800 6.92100 26.95000
C  6.74600 6.78600 25.58100
C  7.41100 5.49900 25.39600
C  5.67200 7.93900 27.64900
C  6.37400 7.69100 24.42400
O  6.66400 7.39400 23.28000
C  5.68700 9.03400 24.72500
N  8.98200 2.80200 24.98500
C  8.51100 3.65000 23.99800
C  8.89800 3.01400 22.60200
C  9.64200 1.66700 22.99300
C  9.79800 1.80700 24.50500
C  7.63900 2.82800 21.67200
C  10.91900 1.33100 22.23400
C  10.89900 0.00400 21.40500
N  10.17200 1.79800 27.51900
C  10.76400 0.89500 26.74100
C  11.57800 -0.01700 27.53900
C  11.39500 0.43100 28.83700
C  10.60300 1.54400 28.80400
C  12.39200 -1.22300 27.04500
C  11.85900 0.19400 30.22200
O  12.61100 -0.61400 30.71900
C  11.21500 1.34100 31.10200
C  10.39800 0.64400 32.16800
O  9.25900 0.28800 32.07300
O  11.32800 0.44600 33.18300
C  10.65500 -0.03300 34.43800
H  6.93900 6.62500 29.58700
H  7.46700 5.32800 23.27600
H  10.98200 0.13700 24.65200
H  8.91100 3.08100 32.21100
H  8.32600 5.97600 31.32500
H  6.27200 3.80900 31.65700
H  6.14400 5.61900 31.73400
H  7.03500 4.82700 32.98200
H  10.14300 5.62000 32.55400
H  11.30900 4.60700 31.84100
H  11.60700 3.38300 33.60800
H  9.86800 3.51000 34.09600
H  6.13100 8.89600 27.89600
H  5.42800 7.55100 28.63800
H  4.77100 8.00200 27.04000
H  6.28200 9.67800 25.37300
H  4.74500 8.79300 25.21900
H  5.33800 9.54800 23.82900
H  9.66400 3.63500 22.13600
H  8.97700 0.80500 22.92900
H  7.45700 1.78100 21.42800
H  7.80700 3.30500 20.70700
H  6.72700 3.25500 22.08800
H  11.88200 1.34900 22.74400
H  11.05200 2.09300 21.46600
H  10.84700 0.25000 20.34500
H  9.94500 -0.50300 21.55200
H  11.67600 -0.70000 21.70500
H  12.45500 -1.27900 25.95900
H  12.03600 -2.13500 27.52400
H  13.42000 -1.04000 27.35900
H  11.94300 2.08700 31.42200
H  9.93600 -0.83800 34.28400
H  10.17800 0.77100 34.99900
H  11.50600 -0.37000 35.02900
Mg 35.17400 1.49200 29.50000
C  33.16300 3.00500 31.89900
C  37.78200 1.92900 31.55300
C  37.09800 0.81700 26.82100
C  32.48300 1.90500 27.19400
N  35.50400 2.42400 31.46800
C  34.47100 2.75800 32.30500
C  35.01700 2.78900 33.73800
C  36.53600 2.54800 33.60800
C  36.63000 2.24200 32.12100
C  37.38800 3.68200 34.05700
C  34.34100 1.77100 34.67400
C  33.87800 2.26500 36.06400
H  34.73000 3.13500 36.88800
N  37.23300 1.22300 29.28100
C  38.14900 1.47600 30.24200
C  39.47300 1.05000 29.72400
C  39.23300 0.83000 28.33900
C  37.78900 0.95800 28.08500
C  40.72800 1.00300 30.59900
C  40.26500 0.41300 27.23800
O  39.96400 0.25000 26.03900
C  41.73400 0.25400 27.52600
N  34.76200 1.22300 27.27300
C  35.70700 0.87500 26.44400
C  35.16400 0.54900 24.95400
C  33.64800 0.76600 25.06900
C  33.53200 1.19900 26.63000
C  35.85200 1.39200 23.82200
C  32.74000 -0.42000 24.78600
C  32.86000 -1.09800 23.43300
N  33.18800 2.13000 29.49000
C  32.31400 2.32500 28.50400
C  31.18200 3.08700 29.06300
C  31.43800 3.19600 30.42500
C  32.69600 2.69100 30.61900
C  30.00500 3.49300 28.30600
C  30.81700 3.65500 31.65900
O  29.72100 4.12200 31.80300
C  31.92100 3.33400 32.72400
C  32.06900 4.54000 33.59100
O  32.64900 5.54600 33.28800
O  31.30500 4.35700 34.71800
C  31.03500 5.60500 35.52800
H  38.60100 1.96100 32.27400
H  37.71500 0.34000 26.05500
H  31.77600 1.96000 26.36400
H  34.75000 3.78300 34.09800
H  36.91100 1.59600 33.98300
H  37.65000 4.23300 33.15400
H  38.19600 3.22800 34.63000
H  37.00300 4.28400 34.88000
H  34.97100 0.88800 34.78100
H  33.42800 1.39300 34.21500
H  33.77900 1.42700 36.75400
H  32.84400 2.60500 35.99800
H  41.38400 1.86600 30.47800
H  41.19500 0.02300 30.49700
H  40.43000 1.05400 31.64600
H  42.21200 -0.02500 26.58800
H  41.82700 -0.47200 28.33400
H  42.04800 1.20400 27.95800
H  35.34000 -0.48300 24.65100
H  33.38800 1.66600 24.51100
H  36.75700 0.85600 23.53800
H  36.17600 2.31600 24.30100
H  35.18300 1.63600 22.99700
H  31.76600 -0.05500 25.11200
H  33.04800 -1.14000 25.54500
H  31.93800 -1.54600 23.06100
H  33.50500 -1.97700 23.45200
H  33.24200 -0.43000 22.66200
H  30.37600 3.96600 27.39700
H  29.48700 4.29700 28.82800
H  29.32200 2.66700 28.10800
H  31.56500 2.42700 33.21200
H  31.19900 6.51100 34.94600
H  31.77600 5.70900 36.32000
H  30.08700 5.62500 36.06600

