158

Mg 27.49700 50.26900 26.98500
C  25.31700 51.44000 29.40500
C  29.77600 49.61100 29.40900
C  29.65000 49.56500 24.50200
C  25.33300 51.51700 24.58500
N  27.54900 50.56200 29.24500
C  26.43100 50.82600 30.01900
C  26.73300 50.68800 31.52700
C  28.28800 50.18500 31.47800
C  28.54200 50.11600 29.95500
C  29.38200 50.89900 32.34200
C  25.78700 49.64600 32.25400
C  25.12600 50.21900 33.45000
H  24.82900 49.31100 34.66000
N  29.40800 49.51400 26.96800
C  30.20100 49.36100 28.06200
C  31.52500 48.91900 27.66900
C  31.50900 48.99600 26.19800
C  30.17900 49.34500 25.81600
C  32.62700 48.64600 28.61800
C  32.71000 48.77900 25.26600
O  32.56300 48.83500 24.06400
C  34.08600 48.42400 25.78800
N  27.50500 50.46700 24.80700
C  28.46500 50.06800 24.00400
C  28.18900 50.43600 22.58300
C  26.68800 50.92600 22.60300
C  26.46300 50.92500 24.14200
C  29.29700 51.43800 22.08600
C  25.58200 50.11000 21.84600
C  24.90300 50.99000 20.72200
N  25.69900 51.24400 26.92000
C  24.94900 51.71300 25.91600
C  23.72700 52.26800 26.42700
C  23.81300 52.17600 27.78700
C  25.01000 51.54100 28.01900
C  22.61100 52.82400 25.57300
C  23.16500 52.47300 28.98800
O  22.05300 52.87500 29.25600
C  24.10600 52.03200 30.09700
C  24.36100 53.24700 30.90300
O  25.29800 54.02500 30.74500
O  23.43500 53.36000 31.97000
C  23.73200 54.35600 32.93100
H  30.47900 49.44000 30.22700
H  30.31700 49.40400 23.65200
H  24.59800 51.74400 23.81000
H  26.63800 51.65600 32.01900
H  28.31700 49.15500 31.83400
H  29.90000 51.58600 31.67400
H  30.05700 50.19400 32.82700
H  29.08800 51.53900 33.17400
H  26.28800 48.76300 32.65100
H  24.96700 49.37500 31.59000
H  24.15800 50.66500 33.22200
H  25.69400 51.09700 33.75900
H  32.44800 49.22700 29.52300
H  33.57300 49.01700 28.22400
H  32.72800 47.57300 28.77900
H  34.07000 47.62300 26.52700
H  34.42600 49.31800 26.31100
H  34.65900 48.21400 24.88400
H  28.30300 49.52000 22.00300
H  26.74000 51.96900 22.29300
H  28.78200 52.38800 21.94700
H  29.76300 51.12500 21.15200
H  30.07200 51.43100 22.85300
H  24.84100 49.87900 22.61100
H  25.81400 49.16900 21.34700
H  25.30600 51.99800 20.82600
H  23.84500 50.86100 20.94600
H  25.03700 50.67000 19.68900
H  22.89900 52.61400 24.54300
H  22.68100 53.91100 25.61200
H  21.60000 52.61600 25.92200
H  23.50700 51.34600 30.69500
H  23.81800 55.35000 32.49100
H  24.59800 54.15300 33.56000
H  22.82800 54.34800 33.54100
Mg 7.49300 52.95800 40.90700
C  6.95300 49.43500 40.87200
C  10.67100 52.22400 39.66500
C  7.98400 56.21300 40.51300
C  4.14900 53.48800 41.49700
N  8.63000 51.05800 40.32800
C  8.20700 49.74800 40.41200
C  9.29000 48.79400 39.88500
C  10.54500 49.68800 39.92600
C  9.88000 51.11600 39.85800
C  11.38400 49.44100 41.17700
C  9.05400 48.24500 38.48600
C  8.54200 49.20900 37.41800
H  8.03200 48.53200 36.14900
N  9.10700 54.10000 40.15000
C  10.32100 53.53200 39.84100
C  11.19600 54.68700 39.50700
C  10.47200 55.91300 39.82100
C  9.11800 55.41200 40.11700
C  12.60800 54.54100 38.90400
C  11.04800 57.29000 39.72000
O  12.06400 57.53200 39.04400
C  10.42600 58.43400 40.38700
N  6.17600 54.71000 40.76100
C  6.66100 55.93400 40.86700
C  5.65800 56.91400 41.47500
C  4.41800 56.00300 41.47400
C  4.89400 54.65400 41.28600
C  6.07500 57.48700 42.80400
C  3.32800 56.34000 40.34700
C  2.33900 57.38700 40.71100
N  5.86200 51.79300 41.15900
C  4.57800 52.12900 41.53500
C  3.82100 50.93000 41.82800
C  4.71800 49.83600 41.54900
C  5.95200 50.40800 41.17100
C  2.31300 50.84400 42.14300
C  4.82900 48.40600 41.54600
O  3.91400 47.66600 41.85600
C  6.35500 48.06000 41.12800
C  6.16400 47.19200 39.92800
O  5.83600 47.55400 38.86800
O  6.67400 45.88900 40.15400
C  6.56500 44.89600 39.08100
H  11.69500 52.02400 39.34400
H  8.06700 57.29400 40.64100
H  3.12300 53.60700 41.85300
H  9.32300 47.96600 40.59300
H  11.23900 49.64000 39.08700
H  12.39500 49.26200 40.81200
H  11.26200 48.45600 41.62600
H  11.35000 50.27300 41.88000
H  8.56400 47.27600 38.39300
H  10.08900 48.05300 38.20100
H  9.30400 49.94200 37.15100
H  7.75200 49.84300 37.82200
H  12.82400 55.02700 37.95300
H  12.93600 53.50200 38.88500
H  13.32300 55.02900 39.56600
H  9.68500 58.97500 39.79800
H  11.23800 59.12300 40.61800
H  9.94900 58.11700 41.31500
H  5.61400 57.74700 40.77400
H  3.97500 56.03300 42.47000
H  6.95800 56.94700 43.14800
H  5.30800 57.46900 43.57700
H  6.29000 58.55100 42.70600
H  2.82700 55.48800 39.88700
H  3.96300 56.84800 39.62100
H  2.20400 57.38100 41.79300
H  1.41200 57.33200 40.14000
H  2.64900 58.37300 40.36500
H  2.32700 50.57700 43.20000
H  1.84600 50.07000 41.53400
H  1.93400 51.86400 42.08700
H  6.85000 47.48900 41.91300
H  7.23000 45.08700 38.23800
H  5.52400 44.74900 38.79200
H  6.89400 43.95300 39.51800

