158

Mg 46.47700 17.02700 29.00400
C  44.83500 16.48300 31.98300
C  48.80600 18.97900 30.68000
C  47.80000 18.11500 25.98700
C  43.82600 15.58500 27.28500
N  46.80800 17.56800 31.13200
C  46.04100 17.16100 32.15400
C  46.56600 17.68900 33.47400
C  47.73300 18.71700 32.98700
C  47.82000 18.42400 31.52500
C  47.45600 20.24900 33.18500
C  47.13400 16.51100 34.34200
C  47.40500 16.82400 35.78100
H  46.99600 18.19100 36.34700
N  48.20000 18.13500 28.46800
C  49.09900 18.79500 29.26300
C  50.17900 19.28000 28.51300
C  49.83600 19.12900 27.11100
C  48.54600 18.45600 27.13800
C  51.37600 19.85000 29.18500
C  50.62800 19.49800 25.84800
O  50.12500 19.41900 24.69700
C  52.04100 20.09200 26.00800
N  45.96300 16.86300 26.99800
C  46.59000 17.42100 25.91500
C  45.97500 17.04400 24.62500
C  44.80300 16.14500 25.00500
C  44.89600 16.12300 26.53500
C  45.46300 18.12300 23.64100
C  44.82400 14.72800 24.44600
C  45.53400 13.75800 25.29800
N  44.77400 16.08700 29.47500
C  43.83100 15.49900 28.70300
C  42.72800 14.98200 29.48700
C  43.09000 15.38200 30.81800
C  44.29400 16.07800 30.75300
C  41.51900 14.28600 29.02100
C  42.72900 15.38800 32.20000
O  41.70700 15.09200 32.78500
C  43.79700 16.15500 32.99300
C  43.08400 17.32600 33.66000
O  42.67600 18.32200 33.13000
O  43.10900 17.13200 35.03200
C  42.47400 18.20700 35.86400
H  49.51500 19.63100 31.19500
H  48.09700 18.30200 24.95300
H  43.01800 15.09500 26.73700
H  45.77700 18.28100 33.93800
H  48.71100 18.53000 33.43000
H  46.59100 20.31600 33.84500
H  47.29100 20.66700 32.19200
H  48.22800 20.80700 33.71400
H  48.09600 16.30300 33.87500
H  46.45100 15.67600 34.18700
H  48.48300 16.78900 35.93800
H  46.97900 15.98400 36.32900
H  51.52800 19.56000 30.22500
H  51.43000 20.93800 29.22300
H  52.25100 19.43800 28.68300
H  52.01700 21.06800 26.49400
H  52.61300 20.12500 25.08100
H  52.65800 19.37600 26.55100
H  46.77700 16.44400 24.19500
H  43.83000 16.56600 24.75300
H  46.15400 18.96500 23.61000
H  44.47800 18.56600 23.78900
H  45.39800 17.65700 22.65800
H  45.23100 14.62300 23.44000
H  43.78400 14.44000 24.29100
H  46.47500 14.20400 25.62000
H  45.95400 13.02900 24.60500
H  45.00000 13.27100 26.11400
H  41.70800 13.26200 28.69800
H  41.01200 14.94200 28.31300
H  40.90800 14.12100 29.90800
H  44.16400 15.39000 33.67700
H  41.40000 18.03100 35.92100
H  42.77700 19.19700 35.52300
H  42.85200 18.26600 36.88400
Mg 47.81300 35.49600 27.83500
C  46.06100 33.82800 30.22800
C  48.04500 38.16700 29.91700
C  48.92500 37.19700 25.17800
C  46.98200 32.83600 25.50900
N  47.10700 35.93600 29.85300
C  46.59500 35.01100 30.66900
C  46.66700 35.61800 32.14300
C  46.87000 37.11200 31.93200
C  47.36800 37.12600 30.51500
C  45.53800 37.77400 32.24200
C  47.74400 34.86500 33.07100
C  48.63200 35.56800 34.02300
H  47.92700 36.40300 35.12300
N  48.48500 37.32800 27.61100
C  48.53700 38.31300 28.60300
C  49.18500 39.43800 28.08600
C  49.50300 39.28700 26.71000
C  48.96600 37.86800 26.43200
C  49.41300 40.60800 28.96800
C  50.11300 40.20600 25.62400
O  50.47200 39.84800 24.53400
C  50.39800 41.56700 26.11500
N  47.96000 35.07500 25.62700
C  48.43500 35.95000 24.73800
C  48.21900 35.50600 23.28700
C  47.76400 34.08900 23.45700
C  47.68200 33.90700 24.97600
C  47.26600 36.57200 22.58200
C  48.67400 33.00000 22.75200
C  48.02400 31.97800 21.84600
N  46.83900 33.62400 27.86600
C  46.61800 32.62500 26.89500
C  45.87100 31.52300 27.47400
C  45.56200 31.99200 28.76400
C  46.25800 33.23700 28.98400
C  45.50700 30.21000 26.89500
C  44.87500 31.60600 29.94400
O  44.24600 30.61000 30.21700
C  45.10500 32.87500 30.87100
C  45.46500 32.41900 32.22700
O  46.37100 31.63300 32.50000
O  44.58400 32.88400 33.15500
C  44.75300 32.42800 34.53900
H  48.21900 38.96800 30.63800
H  49.28300 37.65100 24.25200
H  46.59200 31.97600 24.96000
H  45.69400 35.35500 32.55800
H  47.61200 37.58900 32.57200
H  45.65500 38.85600 32.19400
H  45.29400 37.67300 33.30000
H  44.77400 37.45100 31.53500
H  48.45000 34.25900 32.50200
H  47.15700 34.16000 33.66100
H  49.25100 36.21300 33.40000
H  49.30500 34.83900 34.47500
H  50.36700 41.11900 28.83700
H  49.45100 40.27000 30.00300
H  48.62600 41.35600 28.86900
H  51.30200 41.55900 26.72500
H  49.57200 41.89900 26.74400
H  50.50500 42.32100 25.33400
H  49.20700 35.35000 22.85200
H  46.69900 33.92500 23.29000
H  47.26300 37.44800 23.23100
H  46.27600 36.12800 22.47500
H  47.61300 36.66800 21.55300
H  49.19800 32.33100 23.43500
H  49.48000 33.44100 22.16600
H  48.01500 32.41600 20.84700
H  46.96400 31.87700 22.07600
H  48.49800 31.00000 21.92300
H  45.91200 30.13500 25.88600
H  44.44400 29.98400 26.80500
H  46.09100 29.49000 27.46900
H  44.16600 33.38900 31.07300
H  43.73400 32.36100 34.91900
H  45.34800 33.17000 35.07300
H  45.24500 31.45800 34.60400

