158

Mg 36.13200 49.46700 24.76300
C  36.40500 47.58900 27.75700
C  34.69400 52.04900 26.59400
C  35.64100 50.96900 21.84000
C  37.20800 46.58700 23.06900
N  35.50400 49.64400 26.94800
C  35.81200 48.81800 27.99300
C  35.59600 49.61100 29.30800
C  34.84400 50.89800 28.92100
C  35.00600 50.90300 27.40700
C  33.40100 51.01200 29.40200
C  36.87200 49.81000 30.13200
C  36.84700 49.62100 31.64000
H  35.54600 49.56800 32.42000
N  35.40300 51.28100 24.31800
C  34.89200 52.23100 25.20800
C  34.45300 53.41600 24.38400
C  34.74100 53.11700 23.00200
C  35.28800 51.74800 23.04500
C  33.65400 54.60300 24.95000
C  34.32700 53.90000 21.68800
O  34.57600 53.44400 20.59400
C  33.64200 55.31900 21.80700
N  36.12000 48.76400 22.77000
C  36.00300 49.63800 21.77300
C  36.46400 49.08200 20.41100
C  37.08200 47.69900 20.80800
C  36.83800 47.70300 22.30700
C  35.49300 48.79200 19.32200
C  38.55300 47.38200 20.33700
C  39.67900 48.23600 20.94800
N  36.74200 47.50900 25.22900
C  37.12200 46.47600 24.44400
C  37.50600 45.39200 25.24300
C  37.23900 45.77600 26.54400
C  36.79400 47.09400 26.48800
C  38.20800 44.17800 24.75500
C  37.33900 45.32700 27.92300
O  37.72300 44.28800 28.38800
C  36.80800 46.57700 28.76700
C  35.71600 46.18900 29.73200
O  34.50600 46.14600 29.53900
O  36.23600 45.65500 30.82100
C  35.46600 45.06800 31.95200
H  34.22000 52.93200 27.02800
H  35.69900 51.48700 20.88100
H  37.74700 45.76600 22.59200
H  34.97800 49.03600 29.99900
H  35.38000 51.69000 29.44400
H  32.87200 50.77200 28.47900
H  33.22400 52.04000 29.71700
H  33.11300 50.28200 30.15800
H  37.28500 50.80100 29.94500
H  37.59100 49.11000 29.70500
H  37.50800 50.36400 32.08500
H  37.21800 48.60400 31.76300
H  33.27600 54.42400 25.95700
H  32.75200 54.64000 24.33900
H  34.16900 55.56300 24.97900
H  32.69600 55.20400 22.33600
H  33.40800 55.76900 20.84200
H  34.19400 56.08700 22.34900
H  37.20300 49.78200 20.02300
H  36.44400 46.89800 20.43600
H  34.85800 47.96300 19.63600
H  36.13900 48.61300 18.46200
H  34.94900 49.67500 18.98700
H  38.72600 47.30400 19.26400
H  38.73900 46.32800 20.54400
H  40.17400 48.84900 20.19500
H  40.50100 47.61900 21.30800
H  39.30100 48.86000 21.75800
H  37.70500 43.71000 23.90900
H  38.43700 43.52200 25.59500
H  39.10400 44.52000 24.23600
H  37.62000 47.00000 29.35800
H  34.88400 44.23900 31.54800
H  34.77400 45.83000 32.30900
H  35.94800 44.55200 32.78300
Mg 0.65900 43.19700 25.81200
C  2.28600 43.08900 29.11900
C  -2.06800 41.86000 27.29100
C  -0.53200 42.72100 22.76300
C  3.82700 43.71600 24.50600
N  0.22000 42.56600 27.95400
C  0.88100 42.82600 29.15600
C  -0.03800 42.76300 30.35300
C  -1.26200 42.08400 29.77700
C  -1.08900 42.14500 28.22400
C  -1.29200 40.58000 30.28000
C  -0.21400 44.18300 30.99100
C  0.45200 44.50600 32.43500
H  -0.45500 44.33600 33.69600
N  -1.09700 42.52200 25.17100
C  -2.13300 41.96600 25.86300
C  -3.27800 41.78200 24.99900
C  -2.77900 42.03500 23.65200
C  -1.42700 42.44100 23.84300
C  -4.69100 41.29300 25.38700
C  -3.60900 41.93000 22.38700
O  -3.26800 42.24300 21.27500
C  -4.97000 41.20800 22.40800
N  1.54200 43.16900 23.95300
C  0.84900 42.91000 22.81600
C  1.67700 42.98500 21.53100
C  2.92400 43.70600 22.13500
C  2.77000 43.54000 23.62800
C  1.97700 41.62600 20.86200
C  3.03200 45.23300 21.76300
C  3.42700 45.44200 20.27700
N  2.64000 43.43600 26.56800
C  3.86000 43.50700 25.89500
C  4.95800 43.55800 26.87400
C  4.35800 43.36500 28.03100
C  2.98600 43.25600 27.86800
C  6.41600 43.92500 26.69900
C  4.65100 43.00400 29.44700
O  5.72800 42.73800 29.90300
C  3.36000 43.04700 30.24200
C  3.37000 41.76500 31.01100
O  3.01800 40.66500 30.68800
O  3.96700 42.04800 32.22800
C  4.00700 41.07500 33.35800
H  -2.96900 41.57500 27.83900
H  -0.92600 42.55500 21.75800
H  4.82200 43.91100 24.10200
H  0.48400 42.18400 31.11600
H  -2.20400 42.50100 30.13200
H  -0.64000 40.22000 31.07600
H  -1.05700 39.94000 29.43000
H  -2.32600 40.40200 30.57500
H  -1.29800 44.28900 30.94100
H  0.29600 44.86100 30.30700
H  0.86900 45.51200 32.38000
H  1.28800 43.81000 32.51100
H  -5.51300 41.95900 25.12400
H  -4.72100 41.23400 26.47500
H  -4.85700 40.28600 25.00500
H  -4.83500 40.27700 22.95900
H  -5.38100 41.14700 21.40100
H  -5.61400 41.86000 22.99900
H  1.14700 43.65700 20.85600
H  3.72000 43.15800 21.63100
H  1.50900 40.80200 21.40100
H  3.04300 41.39800 20.85200
H  1.70900 41.60700 19.80500
H  3.85000 45.71900 22.29500
H  2.08800 45.77600 21.81100
H  3.45100 44.39700 19.96800
H  4.37100 45.97000 20.14200
H  2.62400 45.97200 19.76300
H  6.91000 43.76100 27.65600
H  6.52200 44.98800 26.47900
H  6.89600 43.34100 25.91400
H  3.44500 43.89700 30.91900
H  5.04000 40.72900 33.33900
H  3.28600 40.25800 33.33800
H  3.91000 41.59600 34.31000

