158

Mg 26.73700 49.18500 25.78400
C  24.79100 50.66800 28.33400
C  28.95600 48.23400 28.24200
C  28.91600 48.36000 23.34000
C  24.77000 50.84400 23.38500
N  26.83800 49.53600 28.02700
C  25.88100 50.03000 28.89200
C  26.18200 49.75000 30.36800
C  27.56400 48.93100 30.21800
C  27.85600 48.93800 28.70300
C  28.77500 49.38600 31.16400
C  24.98800 48.92400 31.09000
C  24.45800 49.49900 32.42000
H  24.37300 48.65300 33.68700
N  28.60100 48.37100 25.80100
C  29.32800 47.90700 26.89900
C  30.45000 47.10100 26.44200
C  30.61800 47.29400 25.03600
C  29.33700 48.01500 24.67200
C  31.38700 46.37300 27.34400
C  31.72600 46.89300 24.05700
O  31.63700 47.01100 22.86300
C  33.02400 46.40500 24.57800
N  26.72800 49.41100 23.56600
C  27.74900 48.95100 22.82400
C  27.52500 49.20700 21.32900
C  26.14600 49.98400 21.30500
C  25.74500 50.00200 22.82600
C  28.61900 50.05100 20.58000
C  25.09600 49.26700 20.42000
C  24.48600 47.99400 20.98400
N  25.06800 50.39200 25.77500
C  24.35300 51.03600 24.74600
C  23.27700 51.76000 25.27900
C  23.44400 51.60000 26.65600
C  24.56600 50.81800 26.94700
C  22.23200 52.42400 24.50000
C  22.82300 52.02000 27.93100
O  21.93100 52.85000 28.14200
C  23.70900 51.37800 29.06600
C  24.13500 52.32800 30.13500
O  24.97700 53.21600 30.03600
O  23.25600 52.24600 31.15500
C  23.61400 52.96000 32.40000
H  29.60100 47.76100 28.98500
H  29.67300 48.10400 22.59500
H  24.23600 51.39400 22.60700
H  26.30500 50.72800 30.83300
H  27.42500 47.86400 30.39400
H  29.53500 49.66100 30.43300
H  29.14300 48.51600 31.70900
H  28.38400 50.16500 31.81900
H  25.43100 47.97500 31.39200
H  24.15500 48.67200 30.43300
H  23.41700 49.74000 32.20600
H  25.03500 50.37800 32.70500
H  31.77600 45.44600 26.92100
H  30.90500 46.23000 28.31100
H  32.22500 46.99400 27.66200
H  33.44000 47.24300 25.13800
H  33.53600 46.22200 23.63400
H  32.82600 45.46000 25.08500
H  27.35500 48.31900 20.71900
H  26.26200 51.05300 21.12400
H  29.35200 50.28200 21.35300
H  28.18400 50.93600 20.11700
H  29.08100 49.52900 19.74200
H  25.63100 49.12300 19.48200
H  24.25300 49.94700 20.28700
H  24.89500 47.69600 21.95000
H  24.73900 47.13800 20.35900
H  23.40000 48.02600 21.06600
H  22.01600 53.36800 24.99900
H  21.42500 51.75200 24.20800
H  22.65300 52.68700 23.53000
H  23.09800 50.62500 29.56500
H  24.58900 52.64500 32.77000
H  22.99200 52.49800 33.16700
H  23.53100 54.04700 32.41600
Mg 9.71800 48.69500 25.32700
C  7.49700 49.45300 27.92700
C  12.20000 50.07000 27.37700
C  11.71300 47.77900 23.04600
C  6.97800 47.80300 23.45100
N  9.82700 49.59700 27.46300
C  8.82600 49.78300 28.31300
C  9.28400 50.36700 29.59500
C  10.51300 51.19800 29.08300
C  10.91300 50.24800 27.89000
C  10.26800 52.62900 28.58700
C  9.67900 49.18600 30.64100
C  9.47900 49.52800 32.08100
H  9.00000 48.37600 33.01400
N  11.66200 48.90200 25.24300
C  12.58300 49.33000 26.18100
C  13.91800 49.06700 25.73700
C  13.83600 48.45800 24.44700
C  12.34900 48.31900 24.22600
C  15.15000 49.65800 26.38500
C  14.90800 47.91100 23.51800
O  14.63400 47.35700 22.46400
C  16.34300 47.94900 23.91200
N  9.33600 48.09700 23.35200
C  10.40600 47.66300 22.58700
C  10.01100 46.95300 21.28100
C  8.43600 47.14800 21.31800
C  8.20100 47.67600 22.80200
C  10.66200 47.48700 19.98400
C  7.60600 45.89500 21.02100
C  6.34000 46.06700 20.21000
N  7.57900 48.72100 25.49400
C  6.60300 48.21000 24.72300
C  5.34400 48.17000 25.40800
C  5.65800 48.64100 26.68500
C  7.01400 48.93300 26.68300
C  3.96600 47.75800 24.83800
C  5.05300 49.03300 27.92000
O  3.92100 48.93000 28.27900
C  6.27100 49.48000 28.81000
C  6.28600 48.78900 30.06800
O  6.67500 47.66000 30.24500
O  5.73900 49.60700 31.04800
C  5.47500 48.92400 32.34300
H  12.94600 50.56700 28.00100
H  12.38400 47.27800 22.34500
H  6.19500 47.29000 22.88900
H  8.48600 51.03700 29.91500
H  11.33000 51.12000 29.80100
H  9.19600 52.82200 28.56300
H  10.70800 52.67800 27.59100
H  10.73700 53.40200 29.19500
H  10.69700 48.81100 30.54300
H  9.12000 48.31400 30.30100
H  8.89800 50.43900 32.22300
H  10.45300 49.86000 32.44100
H  15.68000 48.76400 26.71200
H  14.98700 50.38600 27.18000
H  15.78400 50.18200 25.67000
H  16.85800 48.90700 23.98400
H  16.85800 47.45900 23.08500
H  16.43200 47.34400 24.81500
H  10.21400 45.90500 21.49900
H  8.15000 47.99100 20.69100
H  10.36800 46.77900 19.20800
H  11.71800 47.43700 20.24800
H  10.28900 48.49500 19.80400
H  7.32200 45.40400 21.95200
H  8.18400 45.13100 20.50200
H  6.49700 45.58300 19.24600
H  6.15600 47.14000 20.14900
H  5.40900 45.68100 20.62400
H  4.02800 46.67900 24.69500
H  3.76300 48.39400 23.97600
H  3.23100 47.90700 25.62900
H  6.16300 50.53600 29.05900
H  5.59100 47.84300 32.42800
H  4.47700 49.20200 32.68200
H  6.02200 49.39500 33.15900

