158

Mg 49.76200 46.05400 43.36400
C  46.59600 46.87600 42.12900
C  49.65500 43.05500 41.51200
C  53.12100 45.67900 43.77300
C  50.02400 49.42500 44.44100
N  48.31000 45.20000 41.85600
C  47.05200 45.63500 41.58600
C  46.33300 44.72400 40.67000
C  47.14000 43.38300 40.88800
C  48.48700 43.87000 41.47300
C  46.47600 42.22300 41.71400
C  46.15300 45.14200 39.14300
C  44.69800 44.86900 38.59200
H  44.68800 43.77000 37.52000
N  51.18300 44.60500 42.79700
C  50.88400 43.42600 42.09400
C  52.14300 42.65300 41.87700
C  53.18400 43.52900 42.38200
C  52.52800 44.68300 43.03100
C  52.33700 41.37500 41.16200
C  54.66800 43.20100 42.32900
O  55.02800 42.15300 41.82000
C  55.83200 44.05200 42.84700
N  51.39400 47.41800 43.92400
C  52.66300 46.95300 44.15900
C  53.46900 48.08500 44.82600
C  52.51000 49.30700 44.91600
C  51.19800 48.66000 44.51800
C  54.11100 47.65100 46.17000
C  52.81200 50.58300 44.00100
C  52.43700 51.90500 44.74500
N  48.54600 47.76000 43.38800
C  48.74400 49.02300 43.92000
C  47.52600 49.82700 43.76300
C  46.66600 48.99200 43.10400
C  47.35900 47.79200 42.88500
C  47.29400 51.27000 44.25400
C  45.27500 48.85400 42.59400
O  44.30200 49.64000 42.58800
C  45.22500 47.44100 41.90900
C  44.12500 46.75400 42.66100
O  44.01500 46.55200 43.85700
O  43.26100 46.17500 41.75400
C  42.32300 45.16300 42.31900
H  49.57600 42.02900 41.14500
H  54.18700 45.54400 43.97000
H  49.98500 50.40300 44.92600
H  45.31400 44.55400 41.01900
H  47.45600 42.90100 39.96400
H  47.13700 41.94000 42.53300
H  46.39400 41.30500 41.13200
H  45.56500 42.56300 42.20600
H  46.88800 44.63700 38.51700
H  46.33300 46.21700 39.12500
H  44.15300 45.77600 38.33100
H  44.11100 44.39500 39.37900
H  51.32800 41.08500 40.87100
H  52.60000 40.58600 41.86600
H  52.98700 41.44400 40.28900
H  56.81700 43.61400 42.68400
H  55.62000 44.19600 43.90700
H  55.76600 44.97900 42.27800
H  54.25100 48.28900 44.09500
H  52.46500 49.60100 45.96400
H  53.56800 48.04600 47.02800
H  55.16400 47.93000 46.12500
H  54.15500 46.56300 46.20900
H  52.38900 50.60100 42.99600
H  53.89600 50.68600 43.96200
H  53.34600 52.48800 44.89500
H  51.99300 51.67500 45.71400
H  51.55000 52.38700 44.33700
H  47.92800 51.96200 43.69900
H  47.62100 51.23900 45.29300
H  46.23200 51.47900 44.12100
H  45.03600 47.46600 40.83600
H  41.65000 45.75000 42.94300
H  42.84500 44.44700 42.95500
H  41.85000 44.74200 41.43200
Mg 30.95100 57.68600 40.11300
C  28.51900 55.34900 39.01100
C  33.29800 55.27200 39.64200
C  33.25500 60.07500 40.25600
C  28.39400 60.12800 40.13000
N  30.85600 55.49000 39.35200
C  29.80300 54.82600 38.90800
C  30.29800 53.43000 38.41600
C  31.71400 53.25700 39.03700
C  32.00900 54.77900 39.38600
C  31.94400 52.18800 40.14900
C  30.22900 53.27100 36.80700
C  28.97700 52.49400 36.28400
H  28.08300 53.18600 35.15900
N  32.95500 57.63000 40.03600
C  33.75600 56.54600 39.86700
C  35.14300 56.93700 39.84800
C  35.21000 58.26600 40.10800
C  33.75700 58.73400 40.17700
C  36.34000 55.92200 39.61700
C  36.43400 59.08100 40.34300
O  37.52600 58.51700 40.40200
C  36.34200 60.52400 40.70700
N  30.80900 59.93200 40.05500
C  31.93000 60.60200 40.28000
C  31.55800 62.13900 40.54300
C  29.98700 62.11900 40.77900
C  29.67100 60.66200 40.35700
C  32.30000 62.97800 41.60800
C  29.18000 63.26500 40.09300
C  28.04200 63.86500 40.97900
N  28.84000 57.82500 39.73100
C  27.92900 58.86900 39.91800
C  26.62800 58.40300 39.39100
C  26.79200 56.98800 39.19200
C  28.14500 56.65600 39.41900
C  25.44600 59.25100 39.02600
C  26.13400 55.80500 38.79500
O  24.93900 55.65100 38.62100
C  27.22200 54.63900 38.66100
C  26.86800 53.36400 39.34900
O  27.13500 53.17000 40.49600
O  26.18300 52.41900 38.63400
C  25.70300 51.29300 39.32500
H  34.06900 54.50300 39.55600
H  34.09400 60.75600 40.41300
H  27.64500 60.92100 40.17900
H  29.65600 52.72600 38.94600
H  32.43400 53.08600 38.23600
H  32.44600 52.59000 41.02900
H  32.59300 51.38900 39.78900
H  31.00100 51.70200 40.39800
H  31.08300 52.64700 36.54200
H  30.32700 54.24500 36.32800
H  28.27600 52.31200 37.09800
H  29.32600 51.56300 35.83500
H  37.18100 56.42600 39.14000
H  36.12200 54.99300 39.08900
H  36.58800 55.51900 40.59900
H  37.26200 60.93400 41.12200
H  35.65300 60.56800 41.55100
H  36.03200 61.17000 39.88600
H  31.68600 62.69800 39.61600
H  29.83500 62.06500 41.85700
H  32.77500 62.28800 42.30500
H  31.56500 63.51100 42.21200
H  32.96900 63.69400 41.13000
H  28.58800 62.80500 39.30100
H  29.77300 64.07000 39.66000
H  28.06900 64.95400 41.02100
H  28.15000 63.50400 42.00200
H  27.09300 63.67600 40.47800
H  24.63300 59.26900 39.75200
H  24.96600 58.72400 38.20100
H  25.61900 60.29200 38.75200
H  27.12300 54.53000 37.58100
H  24.99400 50.72400 38.72300
H  25.19800 51.71900 40.19300
H  26.54900 50.69900 39.67100

