158

Mg 34.92300 3.32600 29.89800
C  32.76600 4.34500 32.45200
C  37.66700 3.51800 32.36100
C  37.24800 2.64400 27.53000
C  32.55400 3.72500 27.57600
N  35.20300 3.82700 32.18200
C  34.08800 4.06700 32.99900
C  34.51800 3.99600 34.44700
C  36.10700 4.08600 34.42400
C  36.43200 3.81800 32.89700
C  36.63000 5.50500 34.83800
C  34.01500 2.72600 35.21500
C  33.87900 2.87800 36.71100
H  34.76900 3.98300 37.55000
N  37.09900 2.90900 29.99300
C  38.00100 2.99200 31.06300
C  39.29100 2.56900 30.61700
C  39.23200 2.22400 29.25900
C  37.83400 2.53500 28.86000
C  40.49900 2.47400 31.60600
C  40.29300 1.56100 28.36000
O  40.03600 1.24400 27.24200
C  41.70700 1.46900 28.81700
N  35.01300 3.39700 27.87500
C  36.03600 3.05900 27.06500
C  35.60200 2.98900 25.57100
C  34.05600 3.07800 25.60600
C  33.87100 3.39700 27.14100
C  36.33300 4.08300 24.69200
C  33.33800 1.74000 25.30000
C  32.21700 1.68500 24.33700
N  33.05500 3.91900 29.92200
C  32.19600 4.05500 28.89100
C  30.91700 4.42100 29.35300
C  31.06800 4.55100 30.76000
C  32.44000 4.21800 31.06500
C  29.71000 4.68200 28.48900
C  30.42500 4.91900 31.99700
O  29.25900 5.42800 32.09400
C  31.46600 4.66100 33.19300
C  31.56200 5.81500 34.11700
O  32.39400 6.68900 33.96300
O  30.70800 5.61800 35.20600
C  30.71900 6.71400 36.24000
H  38.51600 3.60100 33.04200
H  37.86000 2.45400 26.64600
H  31.83600 3.85200 26.76300
H  34.15600 4.80200 35.08400
H  36.55400 3.42400 35.16600
H  36.06800 6.10900 35.55000
H  36.84200 6.04900 33.91800
H  37.59600 5.39900 35.33100
H  34.68000 1.90100 34.96200
H  32.97000 2.54800 34.96200
H  34.03400 1.92000 37.20800
H  32.86200 3.16400 36.97900
H  41.31800 3.05400 31.17900
H  40.70600 1.40400 31.64800
H  40.25000 2.73800 32.63300
H  41.74700 0.75200 29.63700
H  41.96900 2.43200 29.25500
H  42.44600 1.30700 28.03200
H  35.91600 2.00300 25.22800
H  33.62300 3.85700 24.97900
H  36.97300 4.75500 25.26400
H  35.70800 4.73900 24.08700
H  36.92300 3.49600 23.98900
H  32.84700 1.33600 26.18500
H  34.04400 0.92600 25.13200
H  32.08000 2.65600 23.86000
H  31.29000 1.44700 24.85800
H  32.50300 0.84900 23.69900
H  29.41600 3.78800 27.94000
H  29.89600 5.45400 27.74100
H  28.88100 5.05300 29.09200
H  31.10300 3.77300 33.71100
H  31.63500 6.79200 36.82600
H  29.83400 6.65400 36.87400
H  30.50700 7.59300 35.63100
Mg 36.45500 49.08200 24.61200
C  36.50700 47.40300 27.68600
C  35.27100 51.91300 26.12900
C  36.06300 50.60500 21.54500
C  37.69800 46.18100 23.11600
N  36.00200 49.64200 26.68300
C  36.06800 48.75300 27.82700
C  35.74500 49.57600 29.07200
C  35.40900 51.00100 28.49100
C  35.56300 50.82700 26.99200
C  34.11600 51.64700 29.08600
C  36.67700 49.50400 30.28800
C  35.98200 49.10500 31.63100
H  34.53200 49.31300 31.83700
N  35.88400 50.99800 23.90200
C  35.39000 52.00800 24.76200
C  35.09100 53.16100 23.98400
C  35.20400 52.74100 22.57100
C  35.74400 51.45400 22.62900
C  34.24300 54.30400 24.49600
C  34.78800 53.40600 21.26300
O  34.76900 52.90100 20.15700
C  34.41400 54.92800 21.30900
N  36.89600 48.46300 22.62400
C  36.56300 49.25100 21.53200
C  36.81800 48.50800 20.23100
C  37.53000 47.22100 20.74000
C  37.44100 47.24100 22.22600
C  35.49700 48.33200 19.28800
C  38.83400 46.82500 20.05600
C  40.05700 46.96000 20.90000
N  36.81500 47.02900 25.22200
C  37.40400 46.02300 24.47300
C  37.56700 44.87200 25.37600
C  37.24100 45.41000 26.65600
C  36.81700 46.76800 26.48100
C  38.04600 43.49800 25.04500
C  37.08500 45.07600 28.00300
O  37.32000 43.99500 28.56700
C  36.68100 46.30700 28.77500
C  35.37200 46.00200 29.51500
O  34.27100 46.37500 29.14100
O  35.57700 45.12500 30.55000
C  34.44500 44.48400 31.10300
H  35.02000 52.80200 26.71100
H  36.02200 50.99300 20.52500
H  38.14000 45.32600 22.60000
H  34.78600 49.12100 29.32000
H  36.22500 51.66300 28.78000
H  33.67500 51.07000 29.89900
H  33.35500 51.67000 28.30600
H  34.37100 52.66300 29.38700
H  37.06000 50.52400 30.29500
H  37.39600 48.69900 30.13800
H  36.47100 49.74100 32.36900
H  36.07200 48.02500 31.74200
H  34.09800 55.17400 23.85600
H  34.65700 54.73800 25.40600
H  33.34900 53.80900 24.87300
H  35.04500 55.47300 22.01200
H  33.36800 54.87400 21.60900
H  34.35600 55.30300 20.28800
H  37.48900 49.17200 19.68500
H  36.98500 46.30900 20.49600
H  35.22000 47.30400 19.05200
H  35.94300 48.60500 18.33200
H  34.59800 48.89300 19.54200
H  38.88800 47.45700 19.16900
H  38.78900 45.86500 19.54200
H  40.95800 47.07200 20.29700
H  40.21500 46.08400 21.52900
H  39.98400 47.86800 21.49900
H  38.91700 43.39000 24.39900
H  37.16700 42.97600 24.66700
H  38.24400 42.97400 25.98000
H  37.36400 46.56500 29.58400
H  33.98700 45.10500 31.87200
H  34.79600 43.57000 31.58300
H  33.66100 44.12600 30.43500

