158

Mg -3.20400 16.99900 26.45400
C  -3.72400 14.80300 29.18800
C  -4.06400 19.54100 28.54600
C  -3.19800 18.99300 23.83300
C  -3.61200 14.19100 24.40700
N  -3.72100 17.12900 28.66500
C  -3.63100 16.09700 29.57800
C  -3.82600 16.65300 31.04400
C  -4.14400 18.16500 30.82900
C  -3.97400 18.31400 29.20600
C  -5.62700 18.53500 31.22800
C  -2.52700 16.21700 31.87700
C  -1.79600 17.26300 32.81500
H  -1.30100 16.85200 34.25200
N  -3.28400 18.96900 26.29400
C  -3.54000 19.89900 27.29700
C  -3.33400 21.23200 26.77000
C  -2.99200 21.01400 25.36300
C  -3.15500 19.59200 25.12600
C  -3.52200 22.50700 27.57900
C  -2.62100 22.14400 24.37200
O  -2.56300 21.90900 23.16500
C  -2.41700 23.51500 24.73400
N  -3.37400 16.57300 24.45400
C  -3.17800 17.61700 23.48800
C  -3.28200 16.97300 22.03900
C  -3.42500 15.48500 22.33500
C  -3.35500 15.38700 23.81700
C  -4.37700 17.60600 21.07200
C  -2.35400 14.57000 21.65000
C  -2.84600 14.11200 20.23500
N  -3.52200 14.94100 26.69400
C  -3.60000 13.97800 25.81400
C  -3.83100 12.71500 26.44500
C  -3.94400 13.01400 27.79800
C  -3.72300 14.36000 27.89900
C  -4.02400 11.42900 25.73900
C  -4.27900 12.40500 29.05000
O  -4.62700 11.24300 29.27300
C  -4.08200 13.54900 30.00500
C  -3.14300 13.14500 31.07800
O  -1.91300 13.05100 30.93100
O  -3.82500 12.98000 32.29400
C  -3.01900 12.54800 33.43500
H  -4.17000 20.45100 29.14100
H  -3.30300 19.64100 22.96000
H  -3.76900 13.31800 23.76900
H  -4.73900 16.23800 31.47100
H  -3.57200 18.87500 31.42700
H  -5.58300 19.00000 32.21300
H  -6.16400 17.61000 31.43900
H  -6.30500 19.14900 30.63600
H  -1.72200 15.82500 31.25600
H  -2.88300 15.44400 32.55800
H  -2.51400 18.06900 32.96700
H  -0.93500 17.78900 32.40400
H  -2.50400 22.77900 27.85700
H  -4.03600 22.26900 28.51100
H  -4.13300 23.23800 27.04900
H  -1.88100 24.07800 23.97000
H  -1.71000 23.45700 25.56200
H  -3.33200 24.04700 24.99200
H  -2.32100 17.29400 21.63700
H  -4.42800 15.14700 22.07200
H  -4.81200 18.58200 21.28500
H  -5.31000 17.06400 21.22500
H  -4.14500 17.46300 20.01700
H  -2.11100 13.75900 22.33600
H  -1.50300 15.24900 21.57900
H  -3.86800 14.39700 19.98500
H  -2.82600 13.02800 20.35300
H  -2.19400 14.37200 19.40100
H  -4.77200 10.85400 26.28500
H  -3.13900 10.80000 25.64800
H  -4.47700 11.70100 24.78600
H  -5.01500 13.82400 30.49700
H  -3.24500 11.48300 33.49800
H  -3.32900 13.14600 34.29200
H  -1.93400 12.64400 33.38300
Mg 1.78900 -2.87200 44.84300
C  5.09500 -2.21700 44.45500
C  1.00300 -0.33800 42.81000
C  -1.41500 -3.99200 44.75300
C  2.74500 -5.87100 46.46400
N  2.90000 -1.52800 43.52600
C  4.21900 -1.46200 43.56900
C  4.74100 -0.42500 42.47300
C  3.38600 0.29900 42.13500
C  2.35800 -0.54700 42.89000
C  3.25300 1.79800 42.42100
C  5.42200 -1.02500 41.18900
C  6.95000 -0.65700 41.10400
H  7.55100 -0.31900 39.74400
N  0.04700 -2.16500 44.01000
C  -0.08200 -1.01100 43.26500
C  -1.50000 -0.75500 43.04900
C  -2.23600 -1.75200 43.71700
C  -1.26500 -2.64400 44.19900
C  -2.00800 0.43200 42.26500
C  -3.74200 -1.83700 43.89100
O  -4.48800 -0.95600 43.47500
C  -4.34700 -2.88400 44.76200
N  0.79500 -4.83000 45.31900
C  -0.51900 -4.94800 45.37900
C  -0.94000 -6.38200 45.77200
C  0.38700 -6.94200 46.37700
C  1.40000 -5.78600 46.03500
C  -2.15200 -6.53800 46.74600
C  0.77600 -8.37300 45.86000
C  -0.22600 -9.47900 46.07700
N  3.56700 -3.80300 45.53500
C  3.79700 -4.92600 46.24000
C  5.27800 -5.00600 46.48800
C  5.81900 -3.91800 45.87000
C  4.76800 -3.28500 45.21900
C  6.03500 -6.25200 46.94200
C  7.04100 -3.19400 45.59800
O  8.18000 -3.48800 45.86700
C  6.56700 -2.12700 44.53600
C  7.13000 -0.82000 44.87400
O  8.11600 -0.39400 44.37600
O  6.26900 -0.08100 45.67400
C  6.59300 1.31100 45.81500
H  0.78600 0.53700 42.19300
H  -2.44200 -4.35700 44.81900
H  3.19800 -6.71600 46.98700
H  5.37400 0.16200 43.13800
H  3.15500 0.15700 41.07900
H  4.25000 2.23500 42.37000
H  2.80600 1.92100 43.40800
H  2.61300 2.26100 41.66900
H  4.91800 -0.75500 40.26100
H  5.29900 -2.10000 41.32700
H  7.53800 -1.46600 41.53800
H  7.14300 0.20300 41.74500
H  -2.90200 0.19500 41.68800
H  -1.23000 0.77000 41.58100
H  -2.35200 1.18300 42.97700
H  -4.58100 -3.75500 44.15000
H  -5.29900 -2.40600 44.99600
H  -3.80900 -3.08200 45.68900
H  -1.20000 -6.94600 44.87600
H  0.30500 -7.00800 47.46200
H  -1.83300 -6.64100 47.78300
H  -2.70500 -7.42800 46.44600
H  -2.80000 -5.66300 46.80800
H  1.75800 -8.58700 46.28200
H  1.02200 -8.21600 44.81000
H  -0.48600 -9.91500 45.11200
H  -1.14700 -9.15800 46.56400
H  0.16000 -10.31600 46.65900
H  6.75300 -5.83600 47.64800
H  6.50000 -6.71300 46.07000
H  5.35300 -6.90700 47.48400
H  6.95400 -2.44500 43.56800
H  7.50000 1.42500 46.40800
H  5.75300 1.83800 46.26800
H  6.75200 1.87100 44.89300

