158

Mg 54.80700 24.48400 43.47800
C  52.42200 27.15700 43.27100
C  52.48800 22.31300 42.42400
C  57.31000 22.24900 43.32600
C  57.24000 27.01000 44.17100
N  52.68500 24.83500 42.68900
C  51.92800 25.88800 42.76100
C  50.58900 25.48300 42.16500
C  50.51900 23.97100 42.40800
C  52.01800 23.64700 42.52300
C  49.82800 23.48000 43.70000
C  50.19800 25.96700 40.76500
C  51.37100 26.28400 39.82900
H  51.33300 25.67200 38.36300
N  54.86200 22.62500 42.93900
C  53.84400 21.81800 42.68300
C  54.17400 20.50700 42.67000
C  55.56000 20.43900 42.75300
C  55.95100 21.85600 42.99100
C  53.12700 19.44100 42.47700
C  56.38500 19.15400 42.69100
O  55.82200 18.04100 42.56300
C  57.82100 19.13700 43.04600
N  57.00400 24.64600 43.68600
C  57.81700 23.51200 43.52800
C  59.34200 23.89500 43.58300
C  59.28900 25.43500 43.95600
C  57.75000 25.75800 43.83200
C  60.43700 23.04600 44.37600
C  60.24100 26.44400 43.16200
C  59.58500 27.16800 41.96800
N  54.78400 26.56100 43.78100
C  55.86400 27.36200 44.19200
C  55.30000 28.65600 44.58100
C  53.95400 28.61600 44.20600
C  53.71100 27.36400 43.72600
C  56.01000 29.83700 45.09600
C  52.75900 29.42400 44.15900
O  52.56500 30.54200 44.55900
C  51.63900 28.48900 43.51000
C  51.07100 29.06900 42.23900
O  51.74100 29.42200 41.29000
O  49.69400 29.05400 42.26600
C  48.95100 29.52500 41.09100
H  51.72000 21.60500 42.10600
H  58.17100 21.59800 43.49000
H  58.05800 27.69700 44.39600
H  49.74100 25.83500 42.75200
H  50.29300 23.26500 41.61000
H  50.49000 22.87100 44.31600
H  48.97600 22.84300 43.46300
H  49.46500 24.29400 44.32800
H  49.63500 26.88100 40.95100
H  49.62600 25.16800 40.29400
H  52.34400 25.99000 40.22300
H  51.45700 27.34800 39.60800
H  53.47000 18.89500 41.59800
H  52.09700 19.74500 42.28900
H  53.11400 18.77700 43.34100
H  58.35300 18.19100 42.94700
H  57.83400 19.42500 44.09700
H  58.40800 19.81700 42.42800
H  59.62500 23.71700 42.54500
H  59.40100 25.74900 44.99400
H  60.47500 23.22200 45.45100
H  61.45600 23.24300 44.04500
H  60.28800 21.96800 44.31500
H  60.98200 25.79900 42.69000
H  60.79800 26.96100 43.94300
H  59.58500 28.22600 42.23100
H  58.71600 26.59500 41.64600
H  60.29800 27.12000 41.14500
H  55.28100 30.60900 45.34400
H  56.75600 30.19900 44.38800
H  56.48800 29.53500 46.02700
H  50.82100 28.32400 44.21200
H  49.12000 30.60100 41.05400
H  47.88000 29.32500 41.05200
H  49.36300 28.99600 40.23200
Mg 49.71800 47.41700 43.16400
C  46.33400 47.36600 42.31500
C  50.01700 44.24800 42.03800
C  53.15600 47.68300 43.36600
C  49.51400 50.89300 43.70300
N  48.25800 46.05400 42.23000
C  46.96900 46.14800 42.01500
C  46.33900 44.90300 41.46900
C  47.49300 43.85400 41.65800
C  48.71100 44.75800 42.02800
C  47.14700 42.69300 42.65400
C  46.01200 45.00700 39.93500
C  44.65800 44.36400 39.60500
H  44.73600 43.36800 38.47300
N  51.32500 46.15100 42.78500
C  51.16800 44.85700 42.31900
C  52.46400 44.23900 42.22200
C  53.47500 45.20000 42.65200
C  52.64500 46.40500 42.94400
C  52.73600 42.84000 41.70200
C  54.99500 45.01400 42.73500
O  55.45400 43.99500 42.24000
C  55.95000 45.97700 43.30000
N  51.17300 49.12900 43.48400
C  52.50500 48.91800 43.56100
C  53.19900 50.18200 44.06200
C  52.08400 51.25200 44.15800
C  50.82200 50.40500 43.81100
C  54.11500 49.99900 45.22500
C  52.21800 52.43000 43.14000
C  53.24700 53.48300 43.60900
N  48.28100 48.83300 43.22500
C  48.29100 50.21500 43.36700
C  46.94400 50.73100 43.24700
C  46.19200 49.63700 42.87800
C  47.01000 48.49700 42.86500
C  46.49400 52.14100 43.47900
C  44.85500 49.33900 42.50900
O  43.84400 50.01200 42.39500
C  44.92400 47.89500 42.07400
C  44.07100 47.01600 42.85200
O  43.99400 47.16700 44.08300
O  43.38600 46.09100 42.05400
C  42.51400 45.24500 42.79800
H  50.12800 43.22200 41.68200
H  54.24300 47.71400 43.46300
H  49.48800 51.96800 43.89000
H  45.44900 44.60400 42.02300
H  47.67400 43.31700 40.72600
H  46.81400 41.78900 42.14300
H  46.39500 43.08300 43.33900
H  47.98000 42.44800 43.31200
H  46.82800 44.57400 39.35600
H  45.96300 46.08300 39.77300
H  43.99400 45.17200 39.29900
H  44.12700 43.96800 40.47100
H  53.55000 42.83700 40.97600
H  51.92400 42.31000 41.20400
H  53.02200 42.33500 42.62400
H  55.71700 45.99600 44.36500
H  55.90900 46.92300 42.76000
H  56.96500 45.59300 43.19400
H  53.83600 50.62800 43.29700
H  51.81500 51.59600 45.15600
H  53.50500 49.65900 46.06200
H  54.54700 50.95300 45.52800
H  54.90800 49.27400 45.04300
H  51.23400 52.87600 43.00000
H  52.46600 51.95400 42.19200
H  54.13100 53.33100 42.99000
H  53.45400 53.45600 44.67900
H  52.81300 54.45400 43.37200
H  47.18200 52.69400 44.11900
H  45.49800 52.02700 43.90700
H  46.55800 52.61500 42.50000
H  44.74800 47.84700 40.99900
H  42.93400 44.79600 43.69900
H  42.23700 44.35500 42.23300
H  41.55900 45.70700 43.04900

