158

Mg 23.32300 -6.26400 45.18500
C  25.59000 -3.98000 43.70800
C  20.78200 -4.72500 43.41200
C  21.26200 -8.86200 46.03100
C  25.98700 -7.80700 46.73200
N  23.17300 -4.47200 43.81400
C  24.24600 -3.72500 43.38200
C  23.78700 -2.54700 42.49600
C  22.23500 -2.64100 42.64700
C  22.00900 -3.95500 43.34500
C  21.49600 -1.44300 43.38400
C  24.23100 -2.83900 41.05600
C  24.61100 -1.57100 40.21100
H  23.98700 -1.43900 38.87900
N  21.31700 -6.71900 44.71700
C  20.43600 -5.92100 44.01700
C  19.11200 -6.52900 43.97200
C  19.24400 -7.70700 44.77700
C  20.65600 -7.78500 45.24600
C  17.90300 -5.92300 43.25400
C  18.08300 -8.66100 45.03900
O  16.93900 -8.37600 44.59400
C  18.26300 -9.88200 45.94100
N  23.54800 -8.07700 46.36800
C  22.59400 -9.00400 46.48500
C  23.05600 -10.15200 47.38900
C  24.52300 -9.74600 47.78700
C  24.74400 -8.50400 46.86000
C  22.19200 -10.49800 48.58500
C  25.54600 -10.96400 47.69000
C  26.18300 -11.34100 49.06900
N  25.41600 -6.03500 45.24400
C  26.34400 -6.70000 45.95300
C  27.61600 -6.04100 45.81300
C  27.40100 -5.05700 44.88900
C  26.00400 -5.09500 44.55200
C  28.85600 -6.32500 46.54400
C  28.07200 -3.92300 44.22500
O  29.24400 -3.52100 44.25700
C  26.87800 -3.15200 43.39400
C  26.89100 -1.72800 43.82700
O  26.26100 -1.29200 44.75800
O  27.79500 -1.01500 43.14000
C  27.95800 0.39000 43.55000
H  19.97900 -4.26800 42.82900
H  20.70100 -9.73700 46.36500
H  26.82700 -8.36500 47.15100
H  24.22400 -1.61500 42.85500
H  21.70700 -2.73200 41.69800
H  22.15700 -0.60700 43.61600
H  21.22400 -1.71900 44.40300
H  20.59500 -1.11200 42.86800
H  23.40400 -3.23100 40.46500
H  25.09000 -3.50900 41.02500
H  25.68100 -1.64300 40.01700
H  24.38600 -0.62000 40.69400
H  17.25800 -6.64200 42.74900
H  18.09900 -5.13100 42.53200
H  17.33200 -5.42900 44.04100
H  17.24600 -10.26600 46.02600
H  18.59800 -9.57800 46.93300
H  18.93900 -10.63500 45.53800
H  22.98000 -11.02200 46.73600
H  24.51400 -9.36800 48.80900
H  22.01100 -11.56700 48.47300
H  21.23400 -9.98400 48.66100
H  22.75400 -10.39600 49.51300
H  26.29200 -10.91600 46.89700
H  24.96400 -11.80100 47.30500
H  25.76400 -12.27500 49.44500
H  26.01400 -10.50700 49.74900
H  27.27000 -11.26800 49.09700
H  29.19600 -5.35100 46.89700
H  29.64600 -6.82600 45.98600
H  28.69600 -6.83500 47.49500
H  27.07600 -3.09000 42.32400
H  27.04900 0.90300 43.23600
H  28.84200 0.88300 43.14500
H  28.07600 0.34300 44.63200
Mg -6.36800 24.99700 25.96900
C  -4.45500 26.27200 28.68600
C  -7.72500 22.65400 28.16600
C  -7.30600 23.18300 23.34300
C  -4.47100 27.02100 23.90000
N  -5.95400 24.46600 28.12300
C  -5.29600 25.20800 29.08600
C  -5.71800 24.81700 30.50100
C  -6.52000 23.46800 30.21900
C  -6.75300 23.49300 28.73100
C  -5.88100 22.14700 30.83000
C  -6.71100 25.95000 31.06700
C  -6.50700 26.24800 32.57100
H  -5.76500 25.17800 33.38300
N  -7.51500 23.33400 25.77200
C  -8.11000 22.59200 26.79700
C  -8.91700 21.53200 26.21000
C  -8.70600 21.55100 24.80600
C  -7.84800 22.68200 24.58700
C  -9.86600 20.78100 27.06400
C  -9.30100 20.72600 23.68500
O  -9.12800 21.04600 22.49400
C  -9.94000 19.47500 24.05000
N  -5.94200 25.12000 23.89100
C  -6.43700 24.17600 23.03500
C  -5.96100 24.47800 21.58800
C  -5.28000 25.88700 21.77600
C  -5.26000 26.07900 23.26500
C  -4.94800 23.36800 21.12300
C  -6.13900 27.00600 21.08600
C  -5.62000 27.55500 19.76300
N  -4.85500 26.54500 26.20600
C  -4.24900 27.24000 25.22300
C  -3.32500 28.19100 25.80300
C  -3.42500 27.87900 27.19300
C  -4.37500 26.83000 27.32600
C  -2.35700 29.20800 25.17400
C  -2.97200 28.18800 28.54700
O  -2.12800 28.99900 28.95200
C  -3.64700 27.11700 29.56500
C  -2.54200 26.37800 30.24700
O  -1.51100 26.03600 29.67800
O  -2.73000 26.43200 31.59200
C  -1.57300 26.09500 32.40800
H  -8.18800 21.94300 28.85300
H  -7.37700 22.51500 22.48200
H  -4.05200 27.73100 23.18400
H  -4.88300 24.49700 31.12400
H  -7.47300 23.56600 30.74000
H  -5.91500 21.37700 30.05900
H  -6.39400 21.87200 31.75200
H  -4.82300 22.27700 31.05600
H  -7.72500 25.62900 30.82800
H  -6.55400 26.90300 30.56200
H  -7.49500 26.57700 32.89100
H  -5.82700 27.09500 32.66900
H  -10.86300 20.67700 26.63600
H  -9.93400 21.32700 28.00500
H  -9.40300 19.83500 27.34600
H  -10.79400 19.55600 24.72300
H  -9.17700 18.83700 24.49600
H  -10.36500 18.97200 23.18200
H  -6.72500 24.45000 20.81100
H  -4.25800 25.93100 21.40000
H  -3.95400 23.76300 20.91000
H  -5.36800 22.86800 20.25000
H  -4.83800 22.54800 21.83300
H  -6.28300 27.80400 21.81400
H  -7.13500 26.57600 20.98400
H  -6.33100 27.25300 18.99400
H  -4.59600 27.26000 19.53500
H  -5.75100 28.63700 19.77400
H  -2.23600 30.07100 25.82900
H  -2.72200 29.57700 24.21600
H  -1.42900 28.71800 24.88000
H  -4.20800 27.52300 30.40700
H  -1.96500 26.23200 33.41600
H  -0.67200 26.69000 32.26400
H  -1.39100 25.02100 32.40300

