158

Mg 17.20600 -1.70800 27.67800
C  16.01100 0.20800 30.36500
C  18.69300 -3.86400 29.78700
C  18.64100 -3.15400 24.90900
C  15.44900 0.49500 25.61800
N  17.31000 -1.80600 29.82500
C  16.76400 -0.96200 30.73900
C  17.17500 -1.36000 32.19500
C  18.10000 -2.64600 32.03700
C  18.05700 -2.76200 30.44600
C  19.48300 -2.39700 32.65400
C  15.88500 -1.44900 33.13900
C  16.00900 -0.75100 34.46900
H  17.33500 -0.25200 34.97700
N  18.44200 -3.25600 27.42900
C  18.96400 -4.04300 28.42600
C  19.66300 -5.19400 27.87300
C  19.70200 -4.95300 26.45200
C  18.89200 -3.79300 26.13800
C  20.26900 -6.24900 28.72200
C  20.43700 -5.76000 25.35400
O  20.51500 -5.44300 24.17000
C  21.15400 -7.06600 25.66400
N  16.89600 -1.49100 25.57700
C  17.74600 -2.10200 24.65800
C  17.52700 -1.63000 23.21000
C  16.36900 -0.57800 23.47400
C  16.20800 -0.49000 24.92900
C  18.68400 -1.05100 22.44200
C  15.11900 -0.77500 22.64100
C  14.77600 0.31700 21.61700
N  15.97300 0.02700 27.90400
C  15.29900 0.76200 26.99000
C  14.59000 1.86100 27.68500
C  14.87500 1.64200 28.99400
C  15.81100 0.60200 29.03700
C  13.73700 2.91700 27.01400
C  14.61200 2.25700 30.25400
O  13.92200 3.22800 30.51600
C  15.48000 1.37200 31.19000
C  16.51000 2.17400 31.71100
O  17.61700 2.27200 31.20600
O  16.06700 2.87600 32.82000
C  16.93500 3.95200 33.36600
H  19.23300 -4.56000 30.43200
H  19.21800 -3.55800 24.07600
H  15.04900 1.32800 25.03400
H  17.80500 -0.54200 32.54500
H  17.60700 -3.55800 32.37500
H  19.57800 -1.59900 33.39000
H  20.15900 -2.24700 31.81200
H  19.82200 -3.30000 33.16000
H  15.86900 -2.50400 33.41100
H  14.94300 -1.15400 32.67600
H  15.50700 -1.29700 35.26900
H  15.34600 0.11400 34.46600
H  19.83500 -6.45500 29.70100
H  21.31400 -6.01700 28.92700
H  20.32200 -7.14100 28.09800
H  21.70300 -6.91200 26.59300
H  21.81300 -7.25900 24.81700
H  20.45600 -7.90400 25.65900
H  17.19000 -2.45300 22.58100
H  16.74600 0.40800 23.20100
H  18.62900 -0.07300 21.96400
H  18.92700 -1.71900 21.61600
H  19.59200 -1.08900 23.04400
H  14.29500 -0.95900 23.33100
H  15.22800 -1.73600 22.13800
H  13.71300 0.26700 21.38000
H  15.39200 0.06000 20.75500
H  15.15100 1.26900 21.99300
H  14.11900 3.92200 27.19800
H  12.73300 2.82600 27.42800
H  13.76200 2.84700 25.92600
H  14.87600 1.04400 32.03700
H  16.40500 4.41700 34.19700
H  17.14900 4.74700 32.65200
H  17.86700 3.43300 33.58800
Mg 47.04200 44.68300 42.35900
C  43.60700 44.18500 42.63700
C  47.28800 41.23800 41.51100
C  50.24800 45.08100 41.90200
C  46.52500 48.10200 42.58700
N  45.64100 42.93900 42.11100
C  44.29900 42.96100 42.28300
C  43.74200 41.54400 42.18400
C  44.92900 40.64100 42.10100
C  46.05300 41.66800 41.87300
C  45.23100 39.70100 43.36600
C  42.50400 41.39000 41.22600
C  42.49500 42.27700 39.94100
H  43.41700 41.79300 38.74900
N  48.60600 43.38700 41.81900
C  48.48400 42.01800 41.54900
C  49.79600 41.55700 41.35100
C  50.77000 42.60800 41.42800
C  49.89100 43.78200 41.72800
C  50.03900 40.08700 41.16100
C  52.26400 42.53800 41.12100
O  52.74800 41.46000 40.81400
C  53.03800 43.76900 40.96400
N  48.13700 46.26900 41.96500
C  49.50300 46.19000 42.04000
C  50.19700 47.58300 42.20000
C  48.98000 48.57400 42.25700
C  47.82100 47.62100 42.33100
C  51.21300 47.68700 43.42300
C  48.79200 49.68400 41.15300
C  49.88200 49.73500 40.04500
N  45.45200 45.95900 42.48900
C  45.30800 47.36600 42.57500
C  43.93500 47.74900 42.72500
C  43.18400 46.52000 42.70100
C  44.15300 45.48700 42.65800
C  43.50100 49.16200 42.79800
C  41.78300 45.92500 42.74700
O  40.61600 46.35900 42.75600
C  42.08800 44.35600 42.79900
C  41.68300 43.67500 44.02600
O  40.70800 42.96600 44.10300
O  42.44100 44.16800 45.11100
C  41.96800 43.81100 46.49800
H  47.44600 40.16800 41.36100
H  51.30800 45.32200 42.00800
H  46.56700 49.17000 42.81300
H  43.22700 41.38300 43.13100
H  44.75900 39.93200 41.29000
H  46.20500 39.86700 43.82600
H  45.25600 38.63800 43.12700
H  44.43200 39.91100 44.07700
H  41.57300 41.52900 41.77500
H  42.65300 40.33600 40.99200
H  42.89800 43.27100 40.13400
H  41.48300 42.40600 39.55800
H  50.91300 39.83600 40.55900
H  49.23500 39.61600 40.59500
H  50.00900 39.67200 42.16800
H  52.64600 44.50800 40.26500
H  53.97900 43.42200 40.53700
H  53.09700 44.25400 41.93900
H  50.72700 47.74700 41.26200
H  49.00100 49.10900 43.20600
H  51.32100 46.78000 44.01800
H  51.04600 48.56200 44.05200
H  52.11200 47.93800 42.86100
H  48.80500 50.71800 41.50000
H  47.84800 49.50700 40.63700
H  49.89800 50.74400 39.63300
H  49.76000 48.99200 39.25700
H  50.84900 49.67700 40.54500
H  42.47600 49.32000 43.13200
H  43.50000 49.62300 41.81000
H  44.16100 49.72600 43.45700
H  41.46200 43.91100 42.02600
H  42.62200 43.09700 46.99900
H  41.06900 43.19800 46.56200
H  41.74700 44.71400 47.06700

