158

Mg 16.80300 -1.64200 28.33800
C  15.58900 0.40500 30.97600
C  19.11600 -2.94200 30.59700
C  18.34600 -3.25700 25.81000
C  14.92600 0.17900 26.13000
N  17.39500 -1.22000 30.48200
C  16.61800 -0.48600 31.31900
C  17.11100 -0.72300 32.77900
C  18.23100 -1.75300 32.66000
C  18.31100 -1.97000 31.16300
C  19.52700 -1.40100 33.44400
C  15.94100 -1.24000 33.76800
C  16.00000 -0.62900 35.19300
H  17.17300 0.16800 35.75600
N  18.42500 -2.86500 28.22700
C  19.19200 -3.37100 29.27900
C  19.98600 -4.52300 28.77800
C  19.91400 -4.49900 27.35000
C  18.86200 -3.53600 27.06700
C  20.75700 -5.40700 29.69200
C  20.66700 -5.39000 26.44100
O  20.56700 -5.34400 25.25000
C  21.64600 -6.40400 26.93600
N  16.93500 -1.28500 26.24600
C  17.64700 -2.09900 25.39800
C  17.27900 -1.71600 23.91500
C  16.08200 -0.73500 24.07900
C  15.91900 -0.62300 25.57800
C  18.58200 -1.02600 23.39600
C  14.74900 -1.22800 23.36400
C  13.92400 -0.17300 22.61600
N  15.45400 -0.01000 28.51800
C  14.74700 0.63000 27.51400
C  13.87100 1.54100 28.14700
C  14.13000 1.54000 29.52400
C  15.12600 0.54200 29.66200
C  12.91400 2.39800 27.45200
C  13.87300 2.16700 30.76700
O  13.15000 3.05200 31.08400
C  14.70700 1.36200 31.83000
C  15.54800 2.29700 32.70300
O  16.60600 2.74700 32.41900
O  14.85100 2.68300 33.80900
C  15.42500 3.61200 34.83400
H  19.71800 -3.47800 31.33400
H  18.77400 -3.77800 24.95100
H  14.24600 0.58800 25.37900
H  17.47400 0.22900 33.16400
H  18.02900 -2.77400 32.98700
H  19.83500 -2.00500 34.29800
H  19.25000 -0.44800 33.89500
H  20.39300 -1.33600 32.78500
H  15.99900 -2.32200 33.88400
H  15.00800 -1.05900 33.23300
H  15.66900 -1.36300 35.92800
H  15.23500 0.14700 35.21800
H  20.29400 -6.36700 29.91700
H  20.78800 -5.00500 30.70500
H  21.80800 -5.56900 29.45000
H  21.19500 -7.17600 27.55800
H  22.48300 -5.87900 27.39600
H  22.21600 -6.92400 26.16500
H  16.98400 -2.58100 23.32100
H  16.29600 0.25700 23.67900
H  18.33600 -0.05500 22.96600
H  19.08500 -1.61000 22.62500
H  19.26200 -0.86900 24.23300
H  14.16600 -1.79800 24.08700
H  15.00600 -2.03200 22.67500
H  14.37400 0.80300 22.80000
H  12.98900 -0.09100 23.17100
H  13.70200 -0.38100 21.56900
H  12.70400 1.89700 26.50800
H  13.51000 3.28400 27.23200
H  12.07100 2.46300 28.14000
H  13.98700 0.84300 32.46200
H  15.43500 3.02200 35.75100
H  14.77100 4.48400 34.82500
H  16.42300 3.92300 34.52600
Mg 0.86600 42.59200 26.10100
C  2.45900 42.51200 29.23800
C  -2.11000 41.88700 27.63000
C  -0.50100 41.87200 23.05200
C  4.00000 43.00000 24.62600
N  0.27400 42.38700 28.20300
C  1.08800 42.31900 29.31700
C  0.24800 42.00100 30.62100
C  -1.20900 41.70200 30.03100
C  -1.04900 42.01300 28.51000
C  -1.65100 40.27700 30.35000
C  0.30400 43.17700 31.65800
C  0.88900 42.80800 32.99200
H  0.54000 41.52600 33.74000
N  -1.03700 42.12000 25.43600
C  -2.10900 42.00700 26.27400
C  -3.25600 41.94600 25.43500
C  -2.85500 41.92300 24.04300
C  -1.41200 41.88800 24.10500
C  -4.64900 41.87000 26.06500
C  -3.62100 41.77700 22.76900
O  -3.16200 41.61100 21.68900
C  -5.08400 41.91800 22.84900
N  1.58400 42.46200 24.19800
C  0.85800 42.10600 23.12800
C  1.73800 41.98500 21.88400
C  3.08800 42.73600 22.30300
C  2.88600 42.76300 23.83100
C  1.98200 40.49000 21.57000
C  3.23200 44.13100 21.62900
C  2.63400 45.35000 22.46600
N  2.82700 42.74000 26.80300
C  3.97000 42.99400 26.07300
C  5.06100 43.21800 26.93200
C  4.49600 43.01900 28.22000
C  3.16600 42.75200 28.05200
C  6.48000 43.53500 26.56100
C  4.84200 42.96800 29.55800
O  6.01100 43.06600 30.03400
C  3.51300 42.63500 30.33600
C  3.75400 41.31100 30.93500
O  3.75200 40.24100 30.34500
O  4.06300 41.43000 32.23700
C  4.44900 40.24100 33.09500
H  -2.97600 41.42600 28.10800
H  -0.88800 41.88300 22.03100
H  5.00900 43.09700 24.22100
H  0.73800 41.11000 31.01300
H  -1.95100 42.41300 30.39400
H  -1.69400 39.63800 29.46800
H  -2.66000 40.54000 30.67100
H  -1.13100 39.69200 31.10900
H  -0.72500 43.52400 31.75500
H  0.93700 44.00400 31.33500
H  0.51100 43.55600 33.68900
H  1.97300 42.90200 32.93500
H  -4.54100 42.36200 27.03200
H  -4.97200 40.84500 26.24500
H  -5.33400 42.47600 25.47100
H  -5.44300 41.12500 23.50600
H  -5.39700 41.77300 21.81500
H  -5.43800 42.83100 23.32800
H  1.26400 42.46400 21.02700
H  4.02500 42.22500 22.08400
H  1.48000 40.31700 20.61800
H  1.66000 39.82200 22.36900
H  3.03300 40.21100 21.48800
H  2.74200 44.18200 20.65700
H  4.26000 44.29200 21.30500
H  3.41500 45.99800 22.86300
H  1.95600 44.98900 23.24000
H  2.11300 45.98500 21.74900
H  6.47100 44.26900 25.75500
H  7.00100 42.70200 26.09000
H  7.05300 43.91200 27.40900
H  3.17500 43.38600 31.05100
H  5.51400 40.31800 33.31700
H  4.41600 39.30200 32.54300
H  3.75800 39.92100 33.87500

