158

Mg 0.54100 7.97700 25.08200
C  1.04500 10.01500 27.80400
C  0.74900 5.26400 27.10800
C  0.14700 6.00000 22.38900
C  0.69200 10.78400 22.93200
N  0.85500 7.71300 27.22900
C  0.99500 8.65600 28.17400
C  1.10500 8.10100 29.55600
C  1.23100 6.51600 29.29300
C  0.95900 6.46600 27.77400
C  2.58600 5.82900 29.69000
C  -0.11000 8.48500 30.40400
C  0.00100 8.63300 31.93600
H  1.20200 8.04900 32.61700
N  0.42600 5.86900 24.78400
C  0.45600 4.98100 25.79000
C  0.18200 3.66500 25.20800
C  0.19200 3.80900 23.79500
C  0.21200 5.23200 23.58400
C  0.12600 2.35900 26.08800
C  -0.02700 2.67200 22.66300
O  0.03600 2.84900 21.47800
C  -0.19600 1.21000 23.03600
N  0.43300 8.37300 23.00500
C  0.18600 7.33600 22.14000
C  -0.17000 7.90600 20.83000
C  -0.11500 9.45500 20.96200
C  0.32900 9.58000 22.36800
C  0.71300 7.21200 19.77300
C  -1.54000 10.13400 20.75900
C  -1.61500 11.61200 20.22700
N  0.88100 10.02600 25.25800
C  0.81900 11.03900 24.34500
C  1.06100 12.33700 25.06300
C  1.15900 11.95200 26.43200
C  0.98600 10.53500 26.48300
C  1.05700 13.70700 24.47100
C  1.36700 12.46600 27.80500
O  1.74800 13.56300 28.16800
C  1.21300 11.26300 28.66900
C  2.39900 11.19700 29.47600
O  3.47700 10.68200 29.18900
O  2.06300 11.57200 30.74700
C  3.11100 11.54900 31.80000
H  0.69100 4.37700 27.74200
H  -0.04200 5.50000 21.43700
H  0.72000 11.68700 22.31900
H  2.02500 8.54900 29.93100
H  0.43500 5.99500 29.82500
H  3.05700 5.59200 28.73600
H  2.48400 4.87300 30.20300
H  3.14600 6.45800 30.38200
H  -0.88500 7.73100 30.27000
H  -0.53600 9.46300 30.18000
H  -0.86200 8.24400 32.47700
H  0.15300 9.67000 32.23700
H  1.02100 1.74100 26.01200
H  -0.74600 1.87300 25.65100
H  0.08100 2.53900 27.16300
H  0.72500 0.87900 23.51500
H  -0.16500 0.65400 22.09900
H  -1.03900 1.02400 23.70100
H  -1.19700 7.58700 20.65300
H  0.50300 9.98100 20.23400
H  1.61000 6.80300 20.23800
H  0.96600 7.81000 18.89800
H  0.21600 6.37500 19.28300
H  -2.07400 10.12500 21.70900
H  -2.13800 9.49600 20.10800
H  -1.96800 11.54700 19.19800
H  -0.60300 12.01800 20.21200
H  -2.18300 12.21100 20.94000
H  1.08100 13.69400 23.38200
H  1.97700 14.13800 24.86600
H  0.18900 14.32600 24.69800
H  0.29000 11.38800 29.23500
H  3.92100 10.84700 31.60000
H  2.70400 11.08600 32.69900
H  3.33100 12.60000 31.98500
Mg 8.68800 4.33500 27.43000
C  10.12500 2.77500 30.28800
C  6.88200 6.33900 29.49600
C  7.32200 5.63700 24.74500
C  10.23900 1.72900 25.47000
N  8.49500 4.50200 29.64100
C  9.22700 3.81600 30.57800
C  8.79900 4.25800 31.94600
C  7.57400 5.14600 31.67600
C  7.63500 5.38800 30.18800
C  6.17700 4.81200 32.26500
C  9.93200 4.90900 32.72600
C  10.24000 4.33400 34.16500
H  10.86700 5.29400 35.18700
N  7.39900 5.84600 27.17400
C  6.69500 6.53000 28.10600
C  5.78300 7.35100 27.38400
C  6.04700 7.32000 26.02500
C  6.98200 6.24300 25.92300
C  4.78700 8.14700 28.13600
C  5.50800 8.13500 24.81300
O  5.93800 8.16600 23.63200
C  4.34400 9.11100 25.12200
N  8.61800 3.61100 25.42400
C  8.08500 4.47900 24.48700
C  8.52800 4.16000 23.08100
C  9.50400 2.86400 23.25500
C  9.40500 2.65800 24.78800
C  7.31800 3.89900 22.15500
C  10.94800 3.05100 22.63900
C  11.12800 2.62200 21.06600
N  9.86500 2.55700 27.71100
C  10.46700 1.62500 26.87100
C  11.29500 0.75900 27.57500
C  11.25200 1.21600 28.92500
C  10.32600 2.26900 28.96600
C  12.22200 -0.36000 26.94500
C  11.79700 1.08100 30.20100
O  12.63700 0.30000 30.64000
C  11.01700 1.98100 31.22100
C  10.31600 1.08500 32.24400
O  9.22500 0.61100 32.12500
O  11.09200 1.03100 33.35100
C  10.44100 0.49900 34.54500
H  6.08500 6.72100 30.13700
H  6.96600 6.08000 23.81300
H  10.81200 1.03600 24.85000
H  8.43500 3.36900 32.46000
H  7.73300 6.12300 32.13000
H  6.12200 4.05800 33.05100
H  5.51500 4.56700 31.43400
H  5.72300 5.65900 32.77800
H  9.75600 5.97600 32.86200
H  10.79200 4.86800 32.05800
H  10.91700 3.48600 34.06900
H  9.25900 4.05400 34.54900
H  4.77700 9.15300 27.71700
H  5.02000 8.13200 29.20100
H  3.83900 7.64800 27.93200
H  3.52700 8.55800 25.58500
H  3.96500 9.61200 24.23100
H  4.62000 9.95700 25.75200
H  9.19100 4.91300 22.65200
H  9.06400 1.94500 22.86800
H  6.39500 4.18900 22.65700
H  7.38100 2.83400 21.93300
H  7.41100 4.53600 21.27500
H  11.61800 2.42300 23.22600
H  11.23500 4.09600 22.75200
H  10.27600 2.04500 20.70600
H  11.90200 1.86400 20.94300
H  11.17200 3.50100 20.42200
H  11.65800 -1.28600 26.83400
H  13.18400 -0.56200 27.41700
H  12.51000 -0.09500 25.92700
H  11.75800 2.54000 31.79300
H  10.19000 1.37800 35.14000
H  11.14000 -0.17000 35.04900
H  9.47200 0.01200 34.44200

