158

Mg 24.39900 -5.01600 45.19600
C  26.71600 -2.57000 43.89900
C  21.96600 -3.50200 43.29800
C  22.38700 -7.78000 45.68700
C  27.00000 -6.66600 46.69000
N  24.40500 -3.31500 43.62300
C  25.39000 -2.44300 43.35200
C  24.96700 -1.53000 42.23000
C  23.42900 -1.60900 42.37600
C  23.22600 -2.84400 43.18000
C  22.94500 -0.31700 43.14100
C  25.42100 -1.94500 40.75500
C  26.39800 -0.94200 40.07700
H  26.28700 -0.95700 38.49300
N  22.40500 -5.52400 44.62100
C  21.57300 -4.68900 43.94200
C  20.30100 -5.24600 43.87300
C  20.37600 -6.55100 44.46800
C  21.78000 -6.65700 44.99300
C  19.11400 -4.62400 43.18200
C  19.32900 -7.65400 44.49300
O  18.23000 -7.37000 44.03100
C  19.58100 -9.07400 44.85300
N  24.66100 -6.97200 46.05500
C  23.64700 -7.89600 46.16900
C  24.06200 -9.17100 46.95700
C  25.50300 -8.76600 47.40600
C  25.73300 -7.35700 46.76500
C  23.11200 -9.41600 48.19700
C  26.62900 -9.77300 47.03200
C  27.60400 -10.14900 48.18300
N  26.41500 -4.67400 45.30100
C  27.33500 -5.47100 45.91200
C  28.66300 -4.93100 45.71100
C  28.48000 -3.74300 44.97600
C  27.08400 -3.64600 44.73500
C  29.88100 -5.39900 46.30100
C  29.10400 -2.62500 44.27400
O  30.26700 -2.24000 44.32100
C  27.99300 -1.90300 43.49900
C  28.04100 -0.38700 43.89200
O  27.80700 0.01900 44.99100
O  28.51000 0.35000 42.86900
C  28.68700 1.78400 43.06500
H  21.13400 -2.96100 42.84200
H  21.75200 -8.62900 45.95200
H  27.90200 -7.06500 47.15900
H  25.34800 -0.53300 42.45300
H  22.85600 -1.64300 41.45000
H  23.75900 0.11000 43.72700
H  22.17400 -0.53200 43.88100
H  22.61800 0.48600 42.48000
H  24.53500 -1.93200 40.11900
H  25.83800 -2.95200 40.77900
H  27.36900 -1.36900 40.32900
H  26.33800 0.06100 40.50200
H  19.20600 -3.53800 43.16400
H  18.16800 -4.87800 43.66200
H  19.06800 -5.10800 42.20700
H  20.43300 -9.53200 44.35000
H  18.70800 -9.68600 44.62700
H  19.73400 -9.25600 45.91700
H  24.06500 -9.98700 46.23400
H  25.57200 -8.60600 48.48200
H  22.15100 -8.94900 47.98000
H  23.60700 -9.01200 49.08000
H  22.94800 -10.45200 48.49400
H  27.28000 -9.29500 46.30000
H  26.17600 -10.70300 46.68800
H  27.51200 -9.60000 49.12000
H  28.66100 -10.19400 47.92100
H  27.34800 -11.16500 48.48300
H  29.91900 -5.27300 47.38300
H  30.77100 -4.84900 45.99700
H  30.10700 -6.44200 46.08000
H  28.07300 -2.01400 42.41700
H  29.76600 1.85400 42.92500
H  28.36100 2.08400 44.06100
H  28.09700 2.38900 42.37600
Mg 25.08600 1.85900 29.26500
C  27.32700 1.38100 32.01600
C  22.54000 1.75300 31.46000
C  23.02100 1.74100 26.61400
C  27.92200 1.34100 27.18600
N  25.02300 1.67500 31.54500
C  26.04100 1.51700 32.46200
C  25.54000 1.69800 33.88500
C  23.98900 1.68300 33.56600
C  23.79100 1.65300 32.07500
C  23.23100 0.64100 34.36300
C  26.02500 2.95900 34.62300
C  25.15900 3.44100 35.78700
H  25.90500 4.22100 36.92700
N  23.03100 1.88400 29.10100
C  22.16200 1.84500 30.07700
C  20.88100 2.08500 29.55400
C  20.92100 1.95500 28.11400
C  22.31500 1.80000 27.89500
C  19.65400 2.05300 30.49900
C  19.84300 1.81700 27.01700
O  20.10100 1.69400 25.80400
C  18.39600 1.74400 27.47400
N  25.43500 1.40300 27.25900
C  24.41600 1.60000 26.33900
C  24.91300 1.55200 24.88300
C  26.51600 1.72000 25.14600
C  26.65900 1.41200 26.59200
C  24.45400 0.40000 24.01500
C  27.08000 3.14600 24.76700
C  26.82600 4.33100 25.65500
N  27.21400 1.48000 29.47000
C  28.16200 1.34900 28.54100
C  29.43100 1.07600 29.18900
C  29.15500 1.11400 30.55300
C  27.77200 1.37300 30.63700
C  30.82800 0.83300 28.64100
C  29.68200 1.02400 31.91100
O  30.81300 0.90900 32.32700
C  28.54600 1.21900 32.89000
C  28.47700 0.23700 34.03100
O  27.67500 -0.73200 34.05400
O  29.37800 0.51000 35.05500
C  29.59200 -0.61300 35.90100
H  21.76400 1.75500 32.22800
H  22.37100 1.90500 25.75200
H  28.73900 1.46200 26.47100
H  25.63600 0.86600 34.58400
H  23.64400 2.66000 33.90400
H  23.64600 -0.33700 34.11900
H  22.15100 0.65200 34.21400
H  23.34400 0.78400 35.43800
H  26.12500 3.73400 33.86400
H  27.05900 2.85200 34.94900
H  24.77800 2.51600 36.21900
H  24.33900 4.10200 35.50600
H  19.20600 3.02000 30.73100
H  19.96500 1.65900 31.46700
H  18.88300 1.36500 30.15300
H  17.93300 0.76200 27.57000
H  17.91300 2.29000 26.66300
H  18.18600 2.32700 28.37100
H  24.59600 2.48100 24.40900
H  27.15200 0.99800 24.63400
H  25.15600 0.18200 23.21000
H  23.45900 0.62100 23.63000
H  24.39500 -0.44900 24.69500
H  26.46900 3.46200 23.92100
H  28.11200 3.02800 24.43700
H  26.82300 3.91900 26.66400
H  25.89500 4.89000 25.56400
H  27.60300 5.08900 25.55400
H  31.02000 -0.16700 29.03200
H  31.57900 1.58300 28.89000
H  30.83300 0.73000 27.55600
H  28.70300 2.16900 33.40100
H  28.79900 -0.65200 36.64800
H  30.51600 -0.54300 36.47400
H  29.64300 -1.50800 35.28000

