158

Mg 16.80800 53.84200 26.46700
C  18.93600 52.06300 28.71900
C  14.75300 54.48400 29.15200
C  14.75800 55.33300 24.36700
C  18.96900 52.95900 23.89800
N  16.85400 53.33700 28.68200
C  17.83900 52.66000 29.33100
C  17.47900 52.57800 30.79600
C  15.97600 53.03600 30.86600
C  15.79000 53.63900 29.47000
C  14.93900 51.90400 31.22600
C  18.53700 53.49600 31.53800
C  18.83200 53.16500 32.98800
H  17.78000 52.36900 33.78100
N  15.05300 54.92400 26.67900
C  14.38300 55.10700 27.89700
C  13.27400 56.03600 27.67800
C  13.27300 56.35500 26.32700
C  14.42300 55.52200 25.66700
C  12.30800 56.40900 28.70300
C  12.26800 57.12900 25.55000
O  12.27300 57.16700 24.32600
C  11.22500 57.93000 26.24100
N  16.83600 54.05000 24.43800
C  15.82700 54.65400 23.72500
C  16.21700 54.79900 22.25200
C  17.74300 54.58400 22.30000
C  17.88500 53.79700 23.60300
C  15.29300 53.89000 21.39200
C  18.57400 55.91100 22.28800
C  19.91700 55.93000 21.49400
N  18.54700 52.66800 26.26400
C  19.31100 52.42000 25.16400
C  20.49200 51.66200 25.51700
C  20.29900 51.41300 26.88400
C  19.13500 52.11200 27.30400
C  21.66200 51.37000 24.76800
C  20.89900 50.74700 28.04600
O  21.89400 50.06400 28.19800
C  20.00400 51.17000 29.26900
C  19.36700 49.94700 29.92400
O  18.43800 49.23100 29.52100
O  19.98500 49.68800 31.13500
C  19.29800 48.81800 32.02900
H  14.14200 54.77000 30.01100
H  14.03900 55.72200 23.64300
H  19.63000 52.66600 23.08000
H  17.48000 51.55000 31.15800
H  15.91000 53.86700 31.57000
H  14.50200 52.23400 32.16900
H  15.46300 50.98200 31.47900
H  14.24200 51.81100 30.39400
H  18.17200 54.52200 31.48800
H  19.50100 53.66400 31.05800
H  19.06300 54.10200 33.49400
H  19.64700 52.44700 32.89600
H  11.34700 55.89600 28.73900
H  12.16100 57.48500 28.79700
H  12.76700 56.20500 29.67100
H  10.94100 58.74900 25.57900
H  11.63200 58.44900 27.10800
H  10.26300 57.42500 26.33200
H  16.12700 55.86000 22.02000
H  18.16500 53.89900 21.56400
H  14.66700 53.34300 22.09800
H  15.92100 53.20100 20.82800
H  14.69500 54.45100 20.67400
H  18.92600 56.18200 23.28400
H  18.02100 56.77200 21.91400
H  19.95700 56.67800 20.70200
H  20.04800 54.96100 21.01100
H  20.72400 55.97800 22.22500
H  22.54200 51.38800 25.41100
H  21.83900 52.09800 23.97600
H  21.59900 50.39100 24.29100
H  20.63200 51.69000 29.99300
H  19.69500 48.87600 33.04300
H  19.29700 47.81200 31.60800
H  18.23300 49.04100 32.09800
Mg -10.14600 17.24500 41.28400
C  -6.61600 16.65700 41.48600
C  -9.38300 20.56800 40.22400
C  -13.41500 17.73200 40.66500
C  -10.54400 13.79400 41.52100
N  -8.22400 18.50000 40.89400
C  -6.91400 18.00600 41.05600
C  -6.02400 19.06800 40.46700
C  -6.84700 20.33000 40.72700
C  -8.22100 19.76400 40.46500
C  -6.68700 20.96500 42.07900
C  -5.58700 18.91900 39.06200
C  -4.13400 18.52100 38.88200
H  -3.83200 17.24400 38.04500
N  -11.21400 18.91200 40.57600
C  -10.75500 20.16500 40.25600
C  -11.85800 21.01600 39.92200
C  -13.08400 20.21200 40.09100
C  -12.62100 18.91000 40.51500
C  -11.81300 22.47700 39.41900
C  -14.55700 20.79500 39.84500
O  -14.79100 21.95100 39.42800
C  -15.76100 19.97600 40.18200
N  -11.68300 15.95400 40.85900
C  -12.96300 16.42300 40.88000
C  -14.01000 15.30400 40.98300
C  -13.06700 14.06100 41.17400
C  -11.66000 14.65200 41.04900
C  -15.06000 15.41100 42.11900
C  -13.31000 12.95400 40.14600
C  -12.88300 13.20700 38.67500
N  -8.91000 15.57500 41.59300
C  -9.21700 14.27000 41.73800
C  -7.98000 13.47600 41.88800
C  -6.94200 14.42200 41.91300
C  -7.55800 15.67700 41.68800
C  -7.92800 11.97300 42.01100
C  -5.44200 14.53000 41.86100
O  -4.58300 13.64800 41.80900
C  -5.14900 16.02100 41.66500
C  -4.36900 16.60900 42.74900
O  -3.72600 17.65500 42.66300
O  -4.52100 15.93000 43.93700
C  -3.75600 16.45700 45.06900
H  -9.02700 21.58600 40.05200
H  -14.50000 17.76200 40.54500
H  -10.71500 12.71700 41.57700
H  -5.16700 19.22100 41.12300
H  -6.77400 21.19800 40.07100
H  -6.35200 22.00100 42.03600
H  -5.92500 20.52900 42.72400
H  -7.60800 21.07200 42.65200
H  -5.78300 19.84100 38.51300
H  -6.17100 18.17300 38.52400
H  -3.66800 18.31000 39.84400
H  -3.42200 19.21100 38.42800
H  -11.01300 23.06200 39.87200
H  -12.73700 23.04600 39.51500
H  -11.46200 22.34300 38.39600
H  -15.62400 19.49400 41.15100
H  -15.95900 19.20200 39.44000
H  -16.65000 20.59900 40.27700
H  -14.47800 15.22000 40.00200
H  -13.24200 13.59000 42.14100
H  -14.88300 16.38000 42.58700
H  -15.04800 14.58000 42.82400
H  -16.00500 15.55600 41.59400
H  -14.37100 12.70400 40.13700
H  -12.78400 12.08300 40.53900
H  -13.75900 13.38200 38.05000
H  -12.28500 12.39600 38.25900
H  -12.27900 14.11200 38.72900
H  -8.58200 11.73200 42.84800
H  -6.95900 11.51700 42.21400
H  -8.31700 11.69900 41.03000
H  -4.63500 15.95800 40.70500
H  -3.11100 17.31800 44.89400
H  -3.06900 15.64000 45.29500
H  -4.29700 16.56200 46.01000

