158

Mg 16.97200 -1.74600 28.26800
C  15.66400 0.24800 30.63900
C  18.87400 -3.37300 30.60400
C  18.07600 -3.51300 25.72400
C  15.06900 0.21000 25.80100
N  17.29900 -1.53700 30.37200
C  16.55000 -0.67900 31.14800
C  16.96700 -0.75600 32.57200
C  18.16200 -1.80100 32.54400
C  18.10100 -2.34100 31.14900
C  19.54900 -1.23500 32.91200
C  15.81700 -1.13100 33.49300
C  15.92800 -0.58100 34.91900
H  17.32200 0.08900 35.34000
N  18.33100 -3.26000 28.20400
C  19.02800 -3.81500 29.28300
C  19.93800 -4.82500 28.75700
C  19.62200 -4.93100 27.32300
C  18.65300 -3.89600 26.99000
C  20.95200 -5.61600 29.65400
C  20.18700 -5.97100 26.41400
O  19.93400 -5.94800 25.21900
C  21.06900 -7.06300 26.85300
N  16.63200 -1.63800 26.05400
C  17.28800 -2.48600 25.23900
C  16.91000 -2.26400 23.76100
C  15.87200 -1.06200 23.85900
C  15.77700 -0.88000 25.38200
C  18.11800 -2.03600 22.81100
C  14.51000 -1.21800 23.09900
C  14.16900 -0.13000 22.06500
N  15.66200 -0.10200 28.22300
C  14.99700 0.62500 27.17800
C  14.35500 1.78600 27.76400
C  14.70100 1.72000 29.13700
C  15.32600 0.46800 29.32000
C  13.48000 2.85800 27.01900
C  14.47800 2.34500 30.39600
O  13.86300 3.41400 30.60500
C  15.08100 1.50400 31.42400
C  15.97500 2.45500 32.14900
O  17.14500 2.69000 31.84100
O  15.37400 2.94800 33.27400
C  16.16000 3.93800 34.00300
H  19.49900 -3.86200 31.35400
H  18.34000 -4.18400 24.90400
H  14.60500 0.88300 25.07800
H  17.35900 0.21000 32.89300
H  18.01800 -2.72700 33.10100
H  19.64100 -0.16200 32.74500
H  20.35400 -1.66500 32.31500
H  19.83100 -1.53500 33.92100
H  15.82100 -2.22100 33.50500
H  14.86100 -0.82400 33.06900
H  15.66100 -1.27700 35.71500
H  15.19600 0.22700 34.89100
H  21.20200 -4.88800 30.42600
H  21.72200 -5.92400 28.94800
H  20.42600 -6.47400 30.07200
H  21.10600 -7.88200 26.13400
H  20.48000 -7.48400 27.66800
H  22.07500 -6.70300 27.06800
H  16.34900 -3.16300 23.50400
H  16.34200 -0.14600 23.50100
H  18.90200 -2.66600 23.23200
H  18.44500 -0.99600 22.81400
H  17.81300 -2.20200 21.77800
H  13.65000 -1.28200 23.76500
H  14.49100 -2.14400 22.52300
H  13.83400 -0.66700 21.17800
H  15.12200 0.34100 21.82400
H  13.44200 0.61200 22.39400
H  13.81800 2.89100 25.98300
H  13.74800 3.86000 27.35600
H  12.40600 2.67900 26.97300
H  14.20700 1.23600 32.01800
H  16.62000 4.72700 33.40800
H  16.98700 3.51600 34.57500
H  15.40000 4.29200 34.69900
Mg 46.67900 16.73900 28.55100
C  44.93200 16.20400 31.40000
C  49.08200 18.31400 30.34100
C  48.17800 17.61500 25.58000
C  44.08000 15.21400 26.61100
N  46.89400 17.37500 30.60600
C  46.04000 16.94600 31.66400
C  46.54900 17.44200 33.01500
C  47.78100 18.34800 32.50400
C  47.95500 18.02400 31.02200
C  47.73000 19.91300 32.59200
C  47.13800 16.31400 33.92200
C  47.65600 16.85600 35.30500
H  47.27700 18.29400 35.70900
N  48.34000 17.91000 28.09500
C  49.25500 18.39500 28.94000
C  50.35000 18.96800 28.17700
C  50.10300 18.80800 26.76300
C  48.81700 18.10000 26.76100
C  51.62100 19.52700 28.96400
C  50.90200 19.24700 25.55400
O  50.38400 19.24000 24.46200
C  52.29900 19.79100 25.71000
N  46.24000 16.48900 26.36500
C  47.01800 16.88400 25.40000
C  46.34700 16.72000 24.06800
C  45.04200 15.91600 24.40300
C  45.14700 15.76000 25.88600
C  46.07400 18.06900 23.27700
C  44.97000 14.49100 23.73800
C  45.71600 13.35900 24.47700
N  44.88200 15.87900 28.86900
C  43.95000 15.28900 28.01300
C  42.88200 14.72800 28.81400
C  43.21900 15.05000 30.13500
C  44.45400 15.76400 30.09500
C  41.74000 13.90500 28.34600
C  42.80100 14.99500 31.53800
O  41.68600 14.74300 32.05800
C  43.96800 15.67800 32.40700
C  43.43200 16.92200 33.18700
O  43.19600 17.99300 32.73800
O  43.15000 16.55500 34.51400
C  42.79600 17.57700 35.44600
H  49.95000 18.73800 30.85000
H  48.68000 17.71800 24.61600
H  43.30900 14.68200 26.05000
H  45.72400 17.98900 33.47200
H  48.75000 18.12100 32.94900
H  46.92100 20.24000 33.24600
H  47.46600 20.29700 31.60700
H  48.74100 20.22000 32.85800
H  48.03100 15.92100 33.43400
H  46.38100 15.55900 34.13400
H  48.72800 16.65900 35.27300
H  47.21800 16.16400 36.02400
H  51.72500 18.92500 29.86600
H  51.56900 20.57700 29.25400
H  52.58300 19.40800 28.46500
H  52.24000 20.69600 26.31400
H  52.75200 20.12700 24.77800
H  52.89800 18.98300 26.13100
H  46.99000 16.08800 23.45500
H  44.21600 16.58500 24.15900
H  45.03200 18.10000 22.96000
H  46.62800 18.03600 22.33800
H  46.39100 18.92300 23.87600
H  45.50400 14.56300 22.79100
H  43.93200 14.22700 23.53800
H  46.33900 12.80000 23.77900
H  44.89200 12.82700 24.95200
H  46.39300 13.78500 25.21800
H  42.21000 13.40600 27.49800
H  40.93200 14.54700 27.99500
H  41.59700 13.11600 29.08400
H  44.33800 14.85200 33.01500
H  41.73300 17.65200 35.67400
H  43.08200 18.55500 35.05800
H  43.35200 17.37900 36.36200

