158

Mg 34.71500 3.38400 29.72800
C  32.47100 4.35200 32.26700
C  37.22000 3.44000 32.22200
C  36.99700 2.81900 27.35800
C  32.29300 3.77300 27.37800
N  34.81100 3.72400 32.04900
C  33.76100 4.06000 32.84900
C  34.14600 4.26100 34.30500
C  35.72500 4.28700 34.20200
C  36.00600 3.83100 32.72200
C  36.31100 5.70700 34.61800
C  33.63400 3.14400 35.26000
C  33.36600 3.76500 36.64000
H  34.27400 4.93900 37.21400
N  36.80000 3.03500 29.82100
C  37.62300 2.99800 30.93300
C  38.94900 2.46900 30.50900
C  38.87000 2.32800 29.08200
C  37.54300 2.78100 28.68900
C  40.02300 2.19900 31.51300
C  39.90000 1.75500 28.18900
O  39.70600 1.46100 26.99000
C  41.17000 1.26300 28.74800
N  34.61500 3.25700 27.69900
C  35.71000 3.05600 26.88300
C  35.30600 2.99700 25.37200
C  33.74800 3.12200 25.39200
C  33.50900 3.37800 26.93600
C  35.91300 4.14900 24.56000
C  33.04200 1.74800 25.00200
C  31.77500 1.97500 24.25500
N  32.86600 3.92300 29.74900
C  31.97400 4.02800 28.75000
C  30.69300 4.29000 29.20400
C  30.81900 4.55600 30.53200
C  32.16700 4.23900 30.88700
C  29.40100 4.42200 28.33600
C  30.13600 5.00800 31.66800
O  28.95000 5.33000 31.80200
C  31.14700 4.76200 32.87900
C  31.18200 6.05800 33.70200
O  31.62200 7.10700 33.29200
O  30.74600 5.88900 35.01700
C  31.00900 6.96200 35.88100
H  38.03900 3.56800 32.93300
H  37.60500 2.53100 26.49800
H  31.57700 3.94200 26.57100
H  33.76000 5.26500 34.48400
H  36.23800 3.50800 34.76700
H  36.60100 6.21000 33.69500
H  37.14700 5.38000 35.23600
H  35.60500 6.32300 35.17500
H  34.43300 2.41500 35.39300
H  32.71100 2.68500 34.90600
H  33.30700 2.99700 37.41100
H  32.32900 4.08200 36.52400
H  40.98000 2.53800 31.11700
H  40.22400 1.15300 31.74700
H  39.79400 2.81600 32.38100
H  41.71900 0.80100 27.92700
H  41.02500 0.62900 29.62300
H  41.80100 2.12000 28.98200
H  35.65500 2.06600 24.92600
H  33.26200 3.87000 24.76700
H  36.14000 4.90400 25.31200
H  35.16000 4.53900 23.87500
H  36.84500 3.89100 24.05800
H  32.78000 1.23700 25.92800
H  33.77400 1.12500 24.48700
H  31.83400 1.40600 23.32700
H  31.57800 3.02000 24.01500
H  30.95300 1.51700 24.80500
H  28.60400 3.96400 28.92200
H  29.32000 3.98800 27.33900
H  29.16600 5.48500 28.27800
H  30.78200 3.98700 33.55400
H  30.83100 6.56000 36.87900
H  30.20900 7.65600 35.62100
H  32.01900 7.36100 35.79000
Mg 43.40200 42.58200 26.26800
C  42.19200 44.62300 28.83500
C  44.89300 40.66100 28.60400
C  44.30500 40.56400 23.68400
C  42.21500 45.00200 23.98200
N  43.66800 42.81100 28.46200
C  42.88800 43.53100 29.24300
C  43.05000 43.09200 30.78700
C  43.82800 41.73700 30.70100
C  44.23300 41.78200 29.15300
C  45.10100 41.59700 31.61100
C  41.64800 42.92700 31.51400
C  41.53500 41.85900 32.67800
H  40.74800 42.21600 33.93300
N  44.52500 40.88200 26.12500
C  45.10400 40.27700 27.24200
C  45.90400 39.14100 26.76000
C  45.58800 38.95100 25.33700
C  44.75400 40.16700 24.98300
C  46.78900 38.27100 27.75300
C  46.08900 37.88000 24.38000
O  45.88600 38.03100 23.17300
C  46.97200 36.79100 24.84200
N  43.43900 42.85600 24.03500
C  43.70300 41.74700 23.25400
C  43.38500 42.10500 21.81900
C  42.66300 43.50600 21.93300
C  42.62400 43.79400 23.42900
C  44.58400 42.16000 20.85400
C  41.20600 43.62100 21.24100
C  40.00700 43.05000 22.00400
N  42.51900 44.46400 26.33100
C  42.05900 45.31900 25.36000
C  41.47500 46.49700 25.92900
C  41.40900 46.20200 27.28100
C  42.07900 44.99400 27.44900
C  41.00400 47.66900 25.19900
C  40.92500 46.76400 28.54400
O  40.25800 47.78800 28.74100
C  41.40400 45.74800 29.64100
C  42.10300 46.49500 30.66100
O  43.27000 46.85200 30.54100
O  41.37600 46.67200 31.86700
C  42.11000 47.33600 32.91100
H  45.34500 39.97000 29.31900
H  44.75700 39.87200 22.97100
H  41.76400 45.69800 23.27100
H  43.72500 43.85800 31.16900
H  43.24100 40.82400 30.80800
H  45.15600 42.28600 32.45300
H  45.98500 41.75100 30.99200
H  45.12300 40.62300 32.10100
H  40.80600 42.74900 30.84500
H  41.58800 43.87700 32.04400
H  42.58300 41.77300 32.96400
H  41.22300 40.88300 32.30400
H  46.26900 37.34400 27.99400
H  46.90000 38.84600 28.67200
H  47.75500 38.09600 27.27800
H  46.58200 36.15000 25.63300
H  47.91800 37.25800 25.11500
H  47.02200 36.18900 23.93500
H  42.69500 41.41300 21.33700
H  43.22900 44.34800 21.53500
H  44.82800 43.14200 20.44800
H  44.58200 41.48300 20.00000
H  45.49200 42.01400 21.44000
H  41.25600 43.19600 20.23800
H  40.89600 44.65300 21.07300
H  39.49200 42.21900 21.52000
H  39.29800 43.84100 22.24800
H  40.40100 42.59300 22.91100
H  40.10500 47.40900 24.64000
H  41.76000 47.99400 24.48400
H  40.81300 48.50900 25.86600
H  40.53600 45.29400 30.11900
H  42.80500 46.62000 33.35000
H  41.41000 47.80000 33.60500
H  42.74700 48.14200 32.54800

