158

Mg 24.91000 -5.83700 46.73800
C  27.08500 -3.61200 45.13400
C  22.37000 -4.51600 44.79700
C  23.05000 -8.48600 47.51200
C  27.65900 -7.27000 48.30800
N  24.74700 -4.22200 45.42200
C  25.74300 -3.49700 44.88900
C  25.23000 -2.42300 43.84000
C  23.63900 -2.50100 44.05900
C  23.57400 -3.80000 44.83000
C  23.02600 -1.35000 44.81300
C  25.74200 -2.59200 42.31800
C  26.41000 -1.40500 41.69800
H  25.99900 -0.92800 40.29800
N  22.87800 -6.39900 46.25400
C  22.05200 -5.69500 45.45100
C  20.78600 -6.39700 45.42300
C  20.90100 -7.64700 46.20800
C  22.31200 -7.56400 46.65400
C  19.59700 -5.97900 44.60000
C  19.80600 -8.64700 46.49300
O  18.67700 -8.48500 46.02600
C  20.06600 -9.84500 47.27300
N  25.30600 -7.72500 47.70100
C  24.32200 -8.58500 47.99700
C  24.88100 -9.74400 48.82300
C  26.27600 -9.31900 49.31100
C  26.46300 -8.05800 48.37400
C  23.85200 -10.11200 50.01600
C  27.36500 -10.38700 49.14000
C  27.87300 -10.66400 47.74000
N  27.04800 -5.51200 46.78900
C  28.02100 -6.18100 47.51900
C  29.33600 -5.54100 47.23000
C  29.01800 -4.48400 46.35000
C  27.63800 -4.60100 46.03900
C  30.63400 -6.06600 47.74400
C  29.52600 -3.42600 45.52500
O  30.68600 -3.04300 45.27000
C  28.29000 -2.75700 44.71700
C  28.24700 -1.29500 45.09600
O  27.88300 -0.84200 46.17900
O  28.71000 -0.58000 44.03700
C  28.93800 0.87700 44.25900
H  21.60300 -4.16400 44.10400
H  22.39400 -9.32100 47.76500
H  28.47000 -7.73400 48.87400
H  25.63700 -1.48400 44.21300
H  23.05200 -2.66300 43.15500
H  23.66200 -0.85000 45.54400
H  22.13900 -1.76200 45.29300
H  22.76400 -0.63600 44.03200
H  24.91500 -2.80200 41.64000
H  26.34200 -3.48600 42.14800
H  27.49100 -1.54400 41.66800
H  26.28000 -0.54800 42.35900
H  19.39300 -6.79000 43.90100
H  19.78400 -5.07600 44.01800
H  18.70000 -5.87800 45.21100
H  19.15200 -10.43700 47.32000
H  20.28500 -9.38400 48.23600
H  20.91100 -10.47200 46.98800
H  24.94300 -10.55700 48.10000
H  26.29200 -8.94700 50.33500
H  23.14600 -9.29600 50.16800
H  24.40100 -10.23600 50.94900
H  23.20900 -10.96400 49.79400
H  26.95400 -11.33300 49.49300
H  28.16500 -10.11800 49.82900
H  28.74300 -10.02000 47.60700
H  27.14400 -10.37100 46.98500
H  28.08500 -11.73000 47.66300
H  30.87300 -6.99700 47.22900
H  30.54700 -6.25400 48.81400
H  31.41500 -5.34400 47.50700
H  28.46800 -2.76800 43.64100
H  29.00300 1.04200 45.33500
H  28.02200 1.27700 43.82400
H  29.80900 1.26600 43.73200
Mg 10.20100 48.68300 26.44800
C  8.34900 48.44000 29.43200
C  12.77300 50.12500 28.21800
C  11.84900 48.66600 23.51000
C  7.20200 47.66400 24.65900
N  10.48200 49.28500 28.56800
C  9.67200 48.91900 29.61700
C  10.28000 49.42700 30.95300
C  11.53200 50.28200 30.54100
C  11.60800 49.93600 29.03500
C  11.37800 51.84700 30.90100
C  10.62900 48.21200 31.91600
C  9.78500 48.12500 33.22900
H  10.21600 49.01200 34.47600
N  12.15400 49.34100 25.99100
C  13.03400 49.84900 26.84100
C  14.20100 50.09900 26.04600
C  14.04600 49.53700 24.70900
C  12.64600 49.12600 24.69900
C  15.43200 50.80400 26.59400
C  14.93800 49.47700 23.43200
O  14.58400 49.05200 22.33800
C  16.33300 49.94600 23.51500
N  9.49800 48.36400 24.30400
C  10.47200 48.38100 23.35700
C  9.87500 47.93600 21.99000
C  8.51400 47.37900 22.45700
C  8.35900 47.83300 23.83900
C  9.82800 49.01200 20.86700
C  8.42900 45.90100 22.25100
C  9.53000 45.09700 23.03400
N  8.21700 48.27400 26.89200
C  7.12000 47.89100 26.08700
C  5.99700 47.60400 26.89500
C  6.42000 47.81100 28.18000
C  7.76300 48.16700 28.15400
C  4.62600 47.21400 26.45600
C  5.96600 47.78500 29.53100
O  4.81300 47.46700 29.93700
C  7.22800 48.19700 30.46200
C  7.51100 47.01200 31.33700
O  8.17500 46.05300 31.04000
O  6.78400 47.11000 32.51500
C  6.95100 46.05300 33.54400
H  13.67800 50.50600 28.69700
H  12.26000 48.55300 22.50500
H  6.35700 47.14700 24.20000
H  9.54100 50.07900 31.41900
H  12.42300 49.82400 30.97000
H  11.42500 52.46200 30.00200
H  12.30300 52.09600 31.42100
H  10.63400 52.15000 31.63800
H  11.68300 48.27900 32.18900
H  10.47000 47.28200 31.37100
H  9.75900 47.07100 33.50400
H  8.75600 48.40500 33.00500
H  16.26500 50.10100 26.57900
H  15.33500 51.10200 27.63800
H  15.67700 51.71900 26.05500
H  16.70200 50.05100 24.53500
H  16.28800 50.88200 22.95800
H  16.88700 49.13200 23.04800
H  10.52400 47.15800 21.58800
H  7.67700 47.79200 21.89400
H  8.88500 49.54500 20.74400
H  10.14700 48.60700 19.90700
H  10.66900 49.68600 21.03300
H  8.50800 45.70500 21.18200
H  7.47000 45.50100 22.57800
H  10.19100 45.64300 23.70700
H  10.04300 44.47000 22.30400
H  8.97900 44.52200 23.77800
H  3.89400 47.38800 27.24400
H  4.63900 46.16300 26.16700
H  4.32400 47.80900 25.59400
H  7.13100 49.10100 31.06300
H  7.70700 45.28400 33.38800
H  6.06800 45.46200 33.29800
H  6.92700 46.43800 34.56300

