158

Mg 24.92200 -5.49600 45.69400
C  26.84600 -2.82800 44.01300
C  22.38400 -4.86600 43.60700
C  23.66700 -8.19400 46.81300
C  28.01900 -6.16500 47.30000
N  24.77100 -4.13900 43.83000
C  25.57300 -3.09000 43.42700
C  24.87400 -2.38400 42.27500
C  23.38800 -2.85600 42.38700
C  23.49000 -4.03800 43.32300
C  22.37900 -1.71500 42.81300
C  25.56200 -2.55100 40.90500
C  25.35700 -1.41000 39.89200
H  26.21100 -1.42400 38.62200
N  23.14300 -6.40600 45.32700
C  22.20600 -6.04000 44.38900
C  21.05400 -6.90900 44.64200
C  21.40800 -7.94800 45.55600
C  22.84300 -7.54100 45.95400
C  19.75600 -6.71300 43.84800
C  20.48100 -9.06600 46.12200
O  19.35800 -9.20700 45.73300
C  20.91800 -9.94300 47.34400
N  25.74300 -6.97000 46.84300
C  24.97500 -8.01300 47.18700
C  25.78800 -9.09200 47.90800
C  27.16400 -8.39000 48.17000
C  26.97600 -7.10400 47.36300
C  25.17100 -9.58500 49.27100
C  28.42800 -9.17800 47.69400
C  29.57300 -9.23100 48.74200
N  26.98800 -4.50100 45.94200
C  28.09300 -4.89900 46.61700
C  29.13300 -3.98800 46.44100
C  28.78300 -3.18500 45.38600
C  27.43500 -3.52100 45.14800
C  30.42800 -4.10700 47.08400
C  29.22700 -2.15200 44.44800
O  30.40400 -1.76800 44.25900
C  27.97300 -1.92400 43.45000
C  27.66600 -0.46600 43.26600
O  26.94700 0.18900 44.00900
O  28.53800 0.07800 42.32500
C  28.50500 1.53400 41.98500
H  21.45900 -4.63300 43.07600
H  23.18800 -9.14300 47.06600
H  28.92400 -6.40600 47.86200
H  24.95800 -1.35400 42.62100
H  23.09300 -3.17400 41.38700
H  21.88300 -1.52500 41.86100
H  22.79000 -0.74400 43.09000
H  21.68400 -2.11700 43.55000
H  25.10000 -3.44100 40.47700
H  26.60900 -2.78000 41.10400
H  25.70100 -0.52600 40.43000
H  24.29800 -1.25800 39.68500
H  19.38300 -7.66400 43.47000
H  19.88400 -6.10700 42.95100
H  18.97800 -6.12300 44.33200
H  20.01700 -10.33700 47.81400
H  21.33800 -9.33400 48.14500
H  21.57200 -10.76900 47.06400
H  25.86100 -9.97300 47.27000
H  27.19700 -8.05900 49.20800
H  24.16000 -9.19900 49.40600
H  25.83600 -9.42900 50.12100
H  24.98300 -10.65400 49.18000
H  28.81100 -8.78600 46.75200
H  28.09900 -10.17100 47.38700
H  29.54800 -10.18400 49.27000
H  29.33100 -8.55900 49.56500
H  30.54500 -9.05500 48.28100
H  31.05500 -3.22300 46.96300
H  30.83800 -5.01600 46.64500
H  30.26700 -4.20800 48.15700
H  28.33900 -2.15300 42.44800
H  28.04500 1.73700 41.01800
H  29.49900 1.97200 41.89100
H  28.02100 2.12900 42.75900
Mg 1.50600 41.75000 25.49300
C  3.68500 42.07000 28.18600
C  -0.84500 40.58500 27.60400
C  -0.19400 40.55900 22.83500
C  4.28900 42.34100 23.28000
N  1.41500 41.57100 27.67400
C  2.37900 41.86200 28.59900
C  1.75300 41.83300 29.96300
C  0.41000 41.09300 29.81100
C  0.28200 41.09000 28.26800
C  0.35300 39.72300 30.46900
C  1.63400 43.32300 30.62000
C  1.33700 43.54200 32.11700
H  1.22200 42.28500 33.01800
N  -0.26300 40.74800 25.29000
C  -1.12800 40.37500 26.22500
C  -2.18300 39.58400 25.70300
C  -1.93500 39.37700 24.31000
C  -0.80800 40.25800 24.06500
C  -3.25500 39.06600 26.63800
C  -2.74200 38.53000 23.30700
O  -2.42600 38.47100 22.13400
C  -3.92600 37.87000 23.79000
N  1.93400 41.64900 23.31800
C  0.97500 41.20100 22.49200
C  1.47800 41.38800 20.98000
C  2.93700 42.01500 21.11700
C  3.10200 41.96800 22.69000
C  1.38800 40.12800 20.10000
C  3.25900 43.36700 20.40400
C  2.45500 44.53700 20.98700
N  3.57800 42.22700 25.59000
C  4.53800 42.38200 24.68700
C  5.83500 42.55300 25.26800
C  5.55000 42.42800 26.70300
C  4.13600 42.19900 26.83000
C  7.12500 42.79100 24.63700
C  6.10100 42.37900 28.02300
O  7.28700 42.33600 28.41300
C  4.91200 42.39500 29.07500
C  5.19200 41.28700 29.94100
O  5.63200 40.19800 29.63600
O  4.92800 41.68300 31.23900
C  5.06100 40.67800 32.25100
H  -1.51200 40.16100 28.35800
H  -0.81000 40.17100 22.02100
H  5.15800 42.65500 22.69900
H  2.54600 41.31800 30.50500
H  -0.44200 41.62600 30.23300
H  -0.23700 39.91600 31.36500
H  1.35700 39.44300 30.79000
H  -0.20800 38.90100 30.02700
H  0.93500 43.87700 29.99200
H  2.62100 43.77100 30.50300
H  0.45100 44.15800 32.27500
H  2.06400 44.28400 32.44800
H  -3.10900 37.99700 26.79300
H  -4.23700 39.28000 26.21400
H  -3.28600 39.54700 27.61600
H  -4.42100 37.35500 22.96600
H  -4.52700 38.68200 24.19900
H  -3.68800 37.16700 24.58800
H  0.85300 42.18100 20.57000
H  3.63800 41.31100 20.66900
H  1.00700 39.37200 20.78700
H  2.36900 39.91900 19.67300
H  0.74000 40.43500 19.28000
H  3.25400 43.19600 19.32700
H  4.32900 43.43000 20.60400
H  1.66000 44.86000 20.31500
H  3.07700 45.40100 21.22000
H  2.04500 44.24000 21.95200
H  7.31900 41.88800 24.05800
H  7.90400 42.97800 25.37700
H  7.13100 43.67100 23.99400
H  4.79900 43.35300 29.58200
H  4.66800 39.70100 31.97000
H  4.71300 40.96300 33.24300
H  6.11700 40.42900 32.35900

