158

Mg 25.47200 1.28900 29.95300
C  27.61600 0.77400 32.70100
C  22.82300 1.37000 32.06500
C  23.53300 1.57600 27.27900
C  28.20900 0.24100 27.83800
N  25.29300 0.98400 32.18900
C  26.29700 1.05500 33.10100
C  25.80300 1.38900 34.49200
C  24.23300 1.39600 34.25400
C  24.07600 1.27600 32.74500
C  23.50400 0.19200 34.92500
C  26.40600 2.73000 34.89600
C  27.23100 2.77800 36.17700
H  26.79800 3.83300 37.19600
N  23.47100 1.48100 29.76100
C  22.54400 1.46500 30.73400
C  21.24000 1.70600 30.12000
C  21.39500 1.65000 28.74000
C  22.82800 1.57000 28.47100
C  19.95100 1.63300 30.90000
C  20.42100 1.64400 27.54500
O  20.74400 1.78300 26.37600
C  18.98300 1.28400 27.93200
N  25.91000 1.00400 27.84400
C  24.88900 1.25700 26.96200
C  25.34800 0.95800 25.48100
C  26.88300 0.60000 25.74600
C  27.00900 0.60100 27.23100
C  24.65600 -0.20800 24.62000
C  27.92400 1.57000 25.08000
C  27.83000 3.03400 25.51900
N  27.56500 0.68700 30.20500
C  28.52100 0.28900 29.25500
C  29.77900 -0.07300 29.96400
C  29.44700 0.19100 31.29700
C  28.10600 0.53400 31.38400
C  31.08100 -0.46300 29.35800
C  29.94400 0.26800 32.64800
O  31.07300 0.03200 33.14700
C  28.75600 0.65600 33.61600
C  28.73300 -0.27700 34.81200
O  27.98500 -1.26200 34.83600
O  29.44300 0.24900 35.82100
C  29.19000 -0.24900 37.18000
H  22.02400 1.53900 32.79100
H  23.03100 1.65500 26.31300
H  29.04100 -0.02200 27.18200
H  26.09400 0.58000 35.16300
H  23.76900 2.31400 34.61400
H  23.09600 0.47100 35.89600
H  24.28300 -0.56700 34.99900
H  22.73200 -0.16800 34.24500
H  25.58200 3.42600 35.05400
H  27.04900 3.07900 34.08800
H  28.28200 2.88500 35.90900
H  27.15600 1.79800 36.64700
H  19.22700 2.31300 30.45200
H  20.16000 1.92400 31.92900
H  19.41000 0.68700 30.87100
H  18.37800 0.92200 27.10100
H  18.51000 2.20800 28.26700
H  18.88000 0.50400 28.68600
H  25.28500 1.90100 24.93800
H  27.13400 -0.40100 25.39600
H  25.45300 -0.72700 24.08700
H  24.09300 0.29700 23.83600
H  24.05300 -0.82800 25.28300
H  27.59500 1.49700 24.04400
H  28.97500 1.28000 25.07300
H  27.41000 3.09400 26.52300
H  27.22300 3.60200 24.81400
H  28.79800 3.53500 25.49300
H  31.17300 -1.52600 29.13800
H  31.94700 -0.26100 29.98800
H  31.12200 0.04800 28.39600
H  28.95200 1.66900 33.96800
H  28.47400 -1.07100 37.20800
H  28.84200 0.56200 37.82000
H  30.15200 -0.64700 37.50100
Mg -2.07700 34.76500 27.22500
C  -3.55900 33.00400 30.00400
C  -0.57300 36.73500 29.24100
C  -0.75700 36.04300 24.44000
C  -3.98600 32.50500 25.17600
N  -2.21400 34.87700 29.29000
C  -2.81100 34.21700 30.28900
C  -2.50000 34.77100 31.70700
C  -1.72500 36.07700 31.38600
C  -1.51500 35.86100 29.88600
C  -2.30800 37.46200 31.74100
C  -1.64300 33.68700 32.49700
C  -2.35300 33.04800 33.68200
H  -1.77900 33.30100 35.13000
N  -0.88700 36.16600 26.90200
C  -0.21300 36.85300 27.88900
C  0.74100 37.75300 27.28400
C  0.74200 37.49900 25.92300
C  -0.34200 36.56200 25.68300
C  1.51800 38.69000 28.19200
C  1.55300 38.23800 24.78100
O  1.29800 38.17600 23.63600
C  2.58700 39.29200 25.22800
N  -2.49300 34.44100 25.05100
C  -1.69000 35.05300 24.13900
C  -2.21700 34.71100 22.74900
C  -2.98700 33.34500 23.02200
C  -3.17800 33.41000 24.53400
C  -3.08900 35.89500 22.23600
C  -2.38500 32.04600 22.50400
C  -1.02300 31.57900 23.08000
N  -3.48200 33.11100 27.45400
C  -4.15000 32.31800 26.53600
C  -4.94200 31.32300 27.13500
C  -4.68000 31.50500 28.48400
C  -3.83500 32.63500 28.68000
C  -5.74600 30.22200 26.46800
C  -4.84400 30.96800 29.83700
O  -5.40300 29.96400 30.19500
C  -4.23700 31.97500 30.84300
C  -5.36500 32.48300 31.67400
O  -6.05200 33.41800 31.31100
O  -5.55300 31.70600 32.75600
C  -6.52800 32.22600 33.68700
H  -0.07900 37.29700 30.03600
H  -0.40100 36.59900 23.57000
H  -4.33400 31.70500 24.52000
H  -3.41600 35.00200 32.24900
H  -0.75800 36.06700 31.88900
H  -2.75100 37.85700 30.82700
H  -1.50500 38.14600 32.01500
H  -3.03700 37.36600 32.54600
H  -0.69700 34.19200 32.69100
H  -1.49100 32.85200 31.81200
H  -2.49400 31.98000 33.52100
H  -3.35600 33.47100 33.62200
H  2.53500 38.47000 27.86500
H  1.36900 38.63300 29.27100
H  1.35300 39.70900 27.84200
H  3.40700 38.65000 25.55000
H  2.30100 39.92100 26.07200
H  2.98800 39.92200 24.43400
H  -1.37400 34.56900 22.07200
H  -4.01700 33.34700 22.66500
H  -2.86100 36.79100 22.81300
H  -4.15800 35.70500 22.32400
H  -2.75800 36.06800 21.21200
H  -2.18000 32.23500 21.45000
H  -3.10600 31.22800 22.51400
H  -0.89400 32.10100 24.02800
H  -0.29500 31.90500 22.33600
H  -1.05500 30.51000 23.29300
H  -5.33200 30.01200 25.48200
H  -6.77300 30.55800 26.32600
H  -5.70300 29.34700 27.11700
H  -3.61000 31.39900 31.52300
H  -6.25000 33.13800 34.21500
H  -6.80000 31.45000 34.40200
H  -7.45600 32.48500 33.17800

