158

Mg 9.22100 3.00200 27.70100
C  10.60600 1.44000 30.44100
C  7.45500 5.02500 29.82200
C  7.69800 4.24200 24.95500
C  10.56300 0.43100 25.68400
N  8.83100 3.07500 29.91900
C  9.75600 2.50100 30.85400
C  9.56600 3.02300 32.29400
C  8.46800 4.10800 32.03900
C  8.16400 4.06100 30.52300
C  7.21900 3.98800 32.94800
C  10.84200 3.69700 32.88200
C  10.73700 4.20100 34.29600
H  11.59600 3.64500 35.40800
N  7.86400 4.45600 27.46900
C  7.27000 5.22100 28.44200
C  6.49000 6.26700 27.82400
C  6.51000 6.02700 26.43000
C  7.37000 4.84200 26.24500
C  5.95500 7.48300 28.52900
C  5.74900 6.74600 25.32400
O  5.81300 6.41800 24.11800
C  4.89600 7.89600 25.63400
N  9.27800 2.52300 25.64200
C  8.56500 3.17700 24.72900
C  8.78500 2.66900 23.32200
C  9.71900 1.49600 23.55600
C  10.00800 1.51200 25.05400
C  7.44400 2.20500 22.60200
C  11.06400 1.58400 22.70200
C  11.04700 1.09000 21.23800
N  10.33900 1.35400 27.98100
C  10.75200 0.36800 27.06600
C  11.46400 -0.71900 27.73700
C  11.44700 -0.27800 29.06600
C  10.72400 0.97600 29.12000
C  11.94400 -2.03200 27.17200
C  11.84300 -0.56500 30.42200
O  12.43000 -1.53500 30.87700
C  11.46700 0.59900 31.29200
C  10.84300 0.03000 32.52100
O  9.81400 -0.62300 32.61900
O  11.58200 0.36600 33.58400
C  11.14600 -0.21200 34.84000
H  7.01700 5.86400 30.36600
H  7.24500 4.70200 24.07500
H  10.92000 -0.46200 25.16700
H  9.23000 2.17700 32.89300
H  9.02500 5.02600 32.23100
H  7.00300 4.89300 33.51500
H  7.43600 3.20100 33.67000
H  6.38400 3.57200 32.38400
H  11.21300 4.45300 32.19000
H  11.61600 2.92900 32.87800
H  9.68100 4.08200 34.54100
H  10.84000 5.28400 34.35400
H  6.22800 8.30800 27.87100
H  6.24200 7.53000 29.57900
H  4.87000 7.38400 28.57400
H  3.99300 7.68500 26.20700
H  4.54300 8.34300 24.70500
H  5.41600 8.75800 26.05200
H  9.22300 3.41900 22.66300
H  9.32900 0.50400 23.32800
H  7.45700 1.11900 22.51200
H  7.46600 2.49300 21.55100
H  6.57200 2.45000 23.20900
H  11.75100 0.92800 23.23700
H  11.52800 2.56900 22.73900
H  10.04800 0.86700 20.86400
H  11.69400 0.21800 21.13800
H  11.41400 1.77600 20.47500
H  12.73300 -2.46400 27.78800
H  12.30000 -2.07100 26.14300
H  11.25300 -2.87500 27.20900
H  12.28000 1.14400 31.77100
H  12.06200 -0.58400 35.29900
H  10.46000 -1.05200 34.73000
H  10.64100 0.54300 35.44300
Mg 53.24600 23.20300 44.25600
C  50.91000 25.56200 43.42600
C  51.02700 20.79000 43.09800
C  55.66400 20.88800 44.77200
C  55.45300 25.78300 45.00400
N  51.28500 23.22900 43.03900
C  50.53000 24.29600 42.92700
C  49.18100 23.87700 42.32600
C  48.99000 22.37800 42.65600
C  50.51600 22.11000 43.05500
C  48.08700 22.06700 43.83000
C  49.18100 24.12600 40.70900
C  47.74000 24.33600 40.11800
H  47.15800 23.24700 39.25700
N  53.36800 21.15900 43.90600
C  52.35500 20.35300 43.46200
C  52.71200 18.98100 43.52900
C  54.06400 18.97300 43.94000
C  54.44200 20.37900 44.25700
C  51.75000 17.79400 43.14800
C  54.86600 17.73500 43.90500
O  54.37700 16.70500 43.56300
C  56.27900 17.71100 44.27700
N  55.35500 23.26800 44.71500
C  56.11700 22.20800 44.96400
C  57.54600 22.64800 45.41400
C  57.42100 24.23400 45.55300
C  56.01800 24.48100 45.04800
C  58.20200 22.00100 46.61300
C  58.51600 25.08800 44.83800
C  59.70900 25.39400 45.80000
N  53.26500 25.23200 44.32000
C  54.21700 26.15700 44.72200
C  53.71100 27.44200 44.61100
C  52.38400 27.25800 44.17000
C  52.19700 25.91500 43.94200
C  54.35000 28.76400 44.89400
C  51.17900 27.93800 43.82000
O  50.90600 29.10900 43.92300
C  50.11800 26.86900 43.41700
C  49.57900 27.12700 42.05700
O  50.18200 27.32800 41.04600
O  48.21300 27.10500 42.18900
C  47.41500 27.78100 41.14900
H  50.22700 20.09100 42.84700
H  56.50200 20.18800 44.77400
H  56.05500 26.57100 45.46100
H  48.22700 24.31400 42.62000
H  48.77700 21.81900 41.74400
H  48.70000 21.59700 44.59900
H  47.30800 21.41700 43.43100
H  47.65900 22.96600 44.27500
H  49.57700 23.25100 40.19300
H  49.78000 24.98400 40.40100
H  47.75700 25.30700 39.62500
H  47.03500 24.45700 40.94100
H  52.10200 17.06300 42.42100
H  50.76800 18.12900 42.81400
H  51.49800 17.41400 44.13800
H  56.77000 17.94800 43.33400
H  56.51800 16.65700 44.42200
H  56.55600 18.25700 45.17900
H  58.20100 22.37000 44.58800
H  57.42200 24.43900 46.62300
H  57.70500 21.09000 46.94500
H  58.44500 22.58900 47.49900
H  59.23700 21.77600 46.35600
H  58.00400 26.01900 44.59400
H  58.85300 24.71300 43.87200
H  59.54000 24.90900 46.76100
H  59.79400 26.47500 45.91100
H  60.58400 24.97600 45.30300
H  54.10300 29.08100 45.90700
H  54.01500 29.55500 44.22200
H  55.43700 28.68600 44.87400
H  49.35300 26.80600 44.19000
H  46.90100 27.09300 40.47800
H  47.92600 28.59600 40.63500
H  46.60100 28.20400 41.73800

