158

Mg 47.45400 34.80000 25.96700
C  45.54400 33.47300 28.66400
C  48.01700 37.60200 28.03300
C  48.88600 36.25300 23.36700
C  46.46000 32.07000 24.03500
N  46.87200 35.37100 28.14200
C  46.18400 34.63400 29.03700
C  46.40100 35.27100 30.46900
C  46.74500 36.71500 30.15300
C  47.23100 36.58900 28.64400
C  45.71500 37.87100 30.31300
C  47.55500 34.47400 31.10400
C  47.71300 34.60900 32.65100
H  46.60200 35.36300 33.34700
N  48.25000 36.67800 25.74100
C  48.49800 37.62700 26.69500
C  49.46100 38.61600 26.20300
C  49.77600 38.17400 24.88700
C  48.92700 36.98900 24.61500
C  50.04700 39.78400 27.06300
C  50.79000 38.81500 23.83100
O  51.06200 38.17800 22.78000
C  51.30100 40.13300 24.13100
N  47.52500 34.23800 23.94000
C  48.24900 35.05800 23.07900
C  48.24700 34.38900 21.72000
C  47.52900 32.97300 21.91700
C  47.09500 33.08600 23.41700
C  47.64600 35.23600 20.61000
C  48.23100 31.68000 21.51900
C  47.59800 30.87400 20.35300
N  46.24400 33.03400 26.22000
C  45.99900 31.99500 25.35300
C  45.19600 31.07800 26.09800
C  44.93200 31.61600 27.30000
C  45.70500 32.82000 27.40900
C  44.65000 29.74900 25.61000
C  44.26100 31.36000 28.56700
O  43.54700 30.44700 28.96600
C  44.62500 32.60200 29.48500
C  45.25200 31.97000 30.66000
O  46.22500 31.28900 30.69100
O  44.36500 32.05300 31.77200
C  44.87900 31.31800 32.90600
H  48.25400 38.43000 28.70500
H  49.43400 36.76300 22.57200
H  46.08400 31.29700 23.36200
H  45.56900 35.09400 31.15000
H  47.66000 36.87800 30.72100
H  45.65000 38.37800 29.35000
H  46.06600 38.63900 31.00200
H  44.69600 37.66800 30.64500
H  48.49600 34.93900 30.81300
H  47.54100 33.40000 30.91900
H  48.73700 34.91000 32.87300
H  47.52300 33.66500 33.16400
H  49.52200 39.86600 28.01400
H  49.88100 40.71500 26.51900
H  51.12100 39.71200 27.23700
H  51.71500 40.69800 23.29500
H  51.97500 40.05200 24.98400
H  50.60100 40.89600 24.47100
H  49.29600 34.20000 21.49400
H  46.64200 32.95200 21.28300
H  46.83300 34.72200 20.09700
H  48.40200 35.43900 19.85100
H  47.33200 36.15400 21.10600
H  48.29700 30.92200 22.30000
H  49.25400 31.92100 21.22900
H  48.38300 30.54800 19.67100
H  47.03800 31.62100 19.79100
H  46.93700 30.12500 20.78800
H  44.76700 28.90500 26.29000
H  45.04500 29.61100 24.60400
H  43.59400 29.98800 25.48000
H  43.70100 33.14600 29.68000
H  45.74600 31.75700 33.40000
H  45.07000 30.26300 32.71200
H  44.02900 31.34200 33.58900
Mg 26.86700 50.86100 26.47000
C  25.04200 51.84000 29.22400
C  29.28000 49.58400 28.52700
C  28.55300 49.82400 23.68800
C  24.59300 52.39300 24.34500
N  27.04600 50.63900 28.66200
C  26.22200 51.08600 29.60800
C  26.72800 50.72800 31.00200
C  28.13000 50.00800 30.73700
C  28.10500 50.06900 29.23700
C  29.35800 50.58600 31.49400
C  25.79900 49.76200 31.90600
C  25.50000 50.38400 33.22900
H  26.65100 50.43400 34.22300
N  28.68700 49.79500 26.19000
C  29.52700 49.30500 27.13800
C  30.64500 48.61100 26.55400
C  30.40500 48.59900 25.15100
C  29.15400 49.38300 24.94800
C  31.82000 47.92400 27.31900
C  31.20300 47.88100 24.06400
O  30.92100 47.97100 22.87400
C  32.36100 46.98300 24.34100
N  26.63700 51.12200 24.26300
C  27.43800 50.55700 23.35500
C  26.97500 50.81300 21.89600
C  25.55300 51.51100 22.15700
C  25.55500 51.66600 23.67300
C  28.05200 51.75800 21.20500
C  24.24800 50.84600 21.58800
C  23.25800 51.95400 21.08500
N  25.22800 52.05000 26.71600
C  24.33900 52.56200 25.76500
C  23.24400 53.18700 26.50500
C  23.56800 53.00100 27.84200
C  24.63900 52.21700 27.90800
C  22.14600 53.82900 25.86100
C  23.01800 53.19500 29.21700
O  21.95300 53.79800 29.46500
C  24.02100 52.48000 30.15600
C  24.54200 53.59600 31.03100
O  25.33200 54.46500 30.67700
O  23.89200 53.54900 32.25100
C  24.16500 54.63700 33.19200
H  30.05500 49.21300 29.20100
H  29.26400 49.59200 22.89200
H  23.89200 52.89200 23.67300
H  27.00600 51.67400 31.46500
H  28.12800 48.95100 31.00500
H  30.02400 49.90400 32.02400
H  29.07100 51.37800 32.18600
H  29.94200 51.09000 30.72300
H  26.24700 48.77700 32.03000
H  24.85500 49.71100 31.36400
H  24.63300 49.86300 33.63500
H  25.26800 51.42100 32.98300
H  31.75700 48.19000 28.37500
H  32.75100 48.21100 26.83200
H  31.79400 46.83700 27.25500
H  33.08200 47.16400 23.54300
H  31.95700 45.98400 24.18000
H  32.98600 47.04700 25.23200
H  26.92600 49.82700 21.43400
H  25.56500 52.55200 21.83200
H  28.79000 51.13200 20.70300
H  28.51900 52.28500 22.03700
H  27.71000 52.59600 20.59700
H  23.79000 50.19000 22.32900
H  24.51600 50.24600 20.71900
H  22.69400 51.48800 20.27600
H  23.79500 52.85100 20.77700
H  22.61600 52.17800 21.93700
H  22.43400 54.86500 25.67800
H  21.21500 53.78800 26.42500
H  22.06800 53.29700 24.91300
H  23.51100 51.70800 30.73200
H  23.23900 55.08600 33.55200
H  24.77300 55.41200 32.72500
H  24.74800 54.19400 33.99900

