158

Mg 44.75700 4.06700 48.10000
C  42.63100 6.75500 47.76400
C  41.98200 1.91900 47.76400
C  46.81000 1.62800 47.63800
C  47.43800 6.45800 47.78300
N  42.58100 4.28300 47.81700
C  41.98500 5.51000 47.65000
C  40.50000 5.30700 47.26100
C  40.28800 3.80500 47.65900
C  41.67000 3.29800 47.76300
C  39.49500 3.59300 49.01300
C  40.25700 5.53300 45.76900
C  39.08700 6.39200 45.26200
H  39.42500 7.30800 43.95900
N  44.45500 2.03100 47.88000
C  43.24700 1.33300 47.82300
C  43.55700 -0.05500 47.72300
C  44.96700 -0.14400 47.61700
C  45.50300 1.19900 47.68300
C  42.57900 -1.18900 47.49900
C  45.72100 -1.48300 47.35600
O  45.11500 -2.55500 47.47000
C  47.17600 -1.61400 47.19100
N  46.79500 4.09000 47.76400
C  47.43400 2.88400 47.75300
C  48.95000 3.00600 47.65700
C  49.14400 4.55100 47.67600
C  47.72600 5.09700 47.79200
C  49.84200 2.28400 48.69400
C  49.90100 5.01300 46.40500
C  49.25700 5.24900 45.03800
N  45.06500 6.23000 47.95200
C  46.16100 7.03800 47.84600
C  45.72200 8.45900 47.64600
C  44.33600 8.33400 47.72200
C  43.98700 7.03800 47.91700
C  46.56600 9.66500 47.47100
C  43.10600 9.12600 47.74000
O  42.94800 10.33300 47.71800
C  41.93600 8.12600 47.61100
C  40.99000 8.47600 48.67000
O  40.95300 7.94800 49.78800
O  40.04400 9.35200 48.22200
C  39.01700 9.94900 49.14300
H  41.20100 1.16100 47.67200
H  47.54700 0.83700 47.48700
H  48.27300 7.15900 47.71800
H  39.89900 6.02000 47.82600
H  39.76200 3.32300 46.83500
H  40.19800 3.32800 49.80200
H  38.85800 2.70900 48.99700
H  38.92100 4.50400 49.18500
H  40.06000 4.57000 45.29800
H  41.11800 5.89100 45.20400
H  38.58800 6.89800 46.08900
H  38.23900 5.82100 44.88300
H  42.80100 -1.53300 46.48800
H  41.55900 -0.86000 47.69300
H  42.99100 -2.02300 48.06800
H  47.80100 -1.45400 48.06900
H  47.44200 -0.87200 46.43800
H  47.46600 -2.59900 46.82500
H  49.22000 2.54300 46.70800
H  49.75100 5.03200 48.44300
H  50.68500 2.91100 48.98500
H  50.25600 1.32700 48.37400
H  49.14900 2.06000 49.50500
H  50.54600 4.18600 46.10800
H  50.52900 5.85900 46.68400
H  49.86300 4.77200 44.26800
H  49.08200 6.30800 44.85200
H  48.31800 4.69600 45.08300
H  47.09300 9.83400 48.41100
H  46.13700 10.63300 47.21400
H  47.41600 9.54100 46.79900
H  41.44100 8.48500 46.70800
H  38.64300 10.88300 48.72400
H  39.43100 10.13700 50.13400
H  38.22000 9.21700 49.27500
Mg -10.26800 17.12300 41.05300
C  -6.77500 17.14300 41.13900
C  -10.18400 20.60200 40.24100
C  -13.53800 16.90100 40.36300
C  -10.23700 13.70300 41.74300
N  -8.69800 18.63800 40.63200
C  -7.35200 18.35700 40.73300
C  -6.57800 19.68700 40.52500
C  -7.64100 20.81500 40.62600
C  -8.94700 20.01600 40.49700
C  -7.59800 21.80400 41.89100
C  -5.81700 19.66000 39.16200
C  -4.38400 19.42600 39.14300
H  -3.81000 18.45700 38.04900
N  -11.70000 18.52400 40.41900
C  -11.46500 19.92500 40.18500
C  -12.68200 20.48300 39.75800
C  -13.61100 19.45300 39.66400
C  -13.01800 18.22100 40.16700
C  -12.85200 21.99100 39.38900
C  -15.03700 19.59600 39.15100
O  -15.43800 20.69000 38.74500
C  -16.07000 18.60200 39.12800
N  -11.65800 15.47800 40.86700
C  -12.95700 15.77600 40.82000
C  -13.81000 14.47200 41.17300
C  -12.77200 13.45200 41.62600
C  -11.49600 14.23100 41.43900
C  -14.94000 14.78700 42.26000
C  -12.70500 12.07700 40.82800
C  -13.07300 10.89100 41.72900
N  -8.81300 15.62900 41.46400
C  -8.96100 14.30000 41.78400
C  -7.58000 13.76100 41.98600
C  -6.69800 14.85800 41.84100
C  -7.46600 15.95600 41.46700
C  -7.36400 12.33000 42.37700
C  -5.23900 15.27700 41.87900
O  -4.24200 14.68400 42.15100
C  -5.25300 16.83500 41.45200
C  -4.70000 17.53200 42.68500
O  -3.49600 17.65800 42.98200
O  -5.71000 18.21900 43.34900
C  -5.19000 18.96400 44.49400
H  -10.11700 21.69000 40.19300
H  -14.60200 16.67000 40.28400
H  -10.29900 12.74000 42.25400
H  -5.71500 19.76400 41.18600
H  -7.67300 21.53900 39.81200
H  -7.20300 22.71600 41.44300
H  -6.81800 21.51800 42.59600
H  -8.55900 22.05200 42.34000
H  -6.09900 20.55700 38.61000
H  -6.19200 18.79500 38.61600
H  -4.21600 18.89400 40.07900
H  -3.75200 20.30800 39.24700
H  -11.87200 22.44500 39.24400
H  -13.33200 22.40100 40.27800
H  -13.41400 22.16200 38.47100
H  -15.77300 17.79600 38.45800
H  -17.01300 19.06700 38.83900
H  -16.11400 18.20700 40.14300
H  -14.31300 14.16200 40.25700
H  -12.90000 13.17100 42.67100
H  -14.95700 15.81200 42.62900
H  -14.91000 14.06700 43.07800
H  -15.87100 14.59600 41.72500
H  -11.80300 11.85300 40.25800
H  -13.47700 12.09100 40.05800
H  -14.13300 10.64000 41.76600
H  -12.73000 11.19100 42.71900
H  -12.63700 9.98900 41.29900
H  -7.86100 12.17700 43.33500
H  -6.33400 11.97600 42.34800
H  -7.93400 11.69700 41.69600
H  -4.59600 16.93600 40.58800
H  -4.36300 19.61500 44.21200
H  -4.80800 18.29600 45.26700
H  -5.97700 19.56700 44.94800

