158

Mg 41.47200 9.13800 29.85800
C  43.27200 10.30300 32.72400
C  39.10900 7.93500 32.06000
C  39.72100 8.15100 27.27400
C  44.01000 10.40100 27.89300
N  41.23400 9.14300 32.16800
C  42.07700 9.66700 33.09200
C  41.52700 9.59000 34.48800
C  40.42000 8.52200 34.25200
C  40.21300 8.50300 32.75800
C  40.62800 7.11100 34.84700
C  40.91200 10.87500 35.04700
C  40.92400 10.89100 36.59400
H  41.71700 11.93100 37.43900
N  39.70900 8.18100 29.70900
C  38.83600 7.84900 30.70800
C  37.64600 7.22100 30.14600
C  37.74400 7.44900 28.74700
C  39.09000 7.88700 28.50500
C  36.64600 6.59500 31.05700
C  36.69200 7.34500 27.62800
O  36.93700 7.60300 26.42900
C  35.20100 7.10100 28.08200
N  41.92000 9.24300 27.92000
C  41.02100 8.69000 27.00200
C  41.46500 8.97300 25.54400
C  42.72800 9.81400 25.72600
C  42.90400 9.87200 27.25300
C  41.54000 7.72700 24.65400
C  42.62300 11.28900 25.08400
C  41.64600 12.25100 25.73800
N  43.33800 10.03700 30.19600
C  44.28100 10.49400 29.28700
C  45.46600 10.98800 29.89200
C  45.04400 11.02800 31.27100
C  43.75600 10.45300 31.42300
C  46.71000 11.42100 29.21100
C  45.44000 11.40300 32.63900
O  46.41000 12.00300 33.04800
C  44.33000 10.97200 33.60300
C  44.90000 10.15200 34.79700
O  45.34400 9.03100 34.72500
O  44.69100 10.88900 35.99500
C  45.13600 10.11000 37.14300
H  38.31500 7.90100 32.80900
H  39.22400 7.95800 26.32100
H  44.84500 10.67100 27.24200
H  42.28400 9.02800 35.03500
H  39.47700 8.87300 34.67100
H  39.69600 6.81200 35.32600
H  41.35300 7.20200 35.65600
H  41.06700 6.40900 34.13700
H  39.89100 11.12100 34.75600
H  41.46200 11.74000 34.67600
H  41.23500 9.91900 36.97800
H  39.84700 10.97700 36.74100
H  35.71500 7.13400 30.88100
H  36.70000 6.73600 32.13600
H  36.61400 5.51500 30.91400
H  34.84000 7.94300 28.67200
H  35.34700 6.18300 28.65200
H  34.64600 6.84900 27.17800
H  40.67100 9.59900 25.13700
H  43.56400 9.28100 25.27300
H  42.48600 7.68800 24.11300
H  40.75900 7.82600 23.90000
H  41.37900 6.80500 25.21100
H  42.24900 11.12900 24.07300
H  43.64300 11.66900 25.03200
H  41.48600 11.89000 26.75400
H  40.75300 12.17400 25.11800
H  42.05800 13.25900 25.77600
H  46.87300 10.82300 28.31500
H  47.47700 11.51700 29.98000
H  46.47200 12.42200 28.85200
H  43.97300 11.93800 33.95800
H  46.21500 9.97200 37.07600
H  44.65900 9.14800 37.33300
H  44.93800 10.66300 38.06200
Mg 30.70800 57.94300 39.47000
C  28.05000 56.02900 38.45000
C  32.81200 55.24900 38.52600
C  33.34000 59.82100 40.01400
C  28.42400 60.61300 39.73600
N  30.44400 55.97100 38.36300
C  29.22600 55.34300 38.18300
C  29.36700 53.85400 37.77400
C  30.88000 53.61300 38.11100
C  31.42000 55.07200 38.34700
C  31.16200 52.70100 39.35000
C  28.98200 53.49800 36.32000
C  29.35700 54.51900 35.17400
H  28.21700 55.08300 34.34300
N  32.73900 57.61400 39.37200
C  33.42800 56.45100 38.90600
C  34.80900 56.69400 39.04200
C  35.00900 57.94300 39.64800
C  33.66600 58.52200 39.75700
C  35.73100 55.54400 38.82300
C  36.37900 58.49900 40.07100
O  37.41300 57.86600 39.88800
C  36.56100 59.85300 40.73800
N  30.79300 59.97800 39.89500
C  32.05700 60.52400 40.05000
C  31.94000 62.12000 40.11300
C  30.38100 62.26900 40.14500
C  29.79300 60.87900 39.85600
C  32.75300 62.81800 41.32400
C  29.89100 63.31500 39.10200
C  29.91000 62.84100 37.55900
N  28.61400 58.27500 39.31200
C  27.83700 59.38400 39.55300
C  26.47600 58.99700 39.47200
C  26.46100 57.69500 39.05000
C  27.83700 57.30600 38.93400
C  25.27100 59.77700 39.80100
C  25.62700 56.57200 38.63900
O  24.43800 56.49300 38.55400
C  26.64200 55.41100 38.20200
C  26.19700 54.29500 39.16000
O  26.82600 53.92700 40.13200
O  25.00100 53.81000 38.66900
C  24.37000 52.82800 39.51800
H  33.38600 54.32300 38.45700
H  34.11500 60.58200 40.12100
H  27.73300 61.45800 39.72900
H  28.65800 53.35400 38.43400
H  31.40600 53.14000 37.28200
H  30.22000 52.32600 39.75100
H  31.77400 53.18700 40.11000
H  31.69000 51.77800 39.10900
H  27.91500 53.28100 36.26700
H  29.53500 52.58200 36.11300
H  30.04000 53.98200 34.51500
H  30.00200 55.25600 35.65100
H  36.78300 55.79500 38.96000
H  35.62900 55.15100 37.81100
H  35.48600 54.84200 39.62000
H  35.74000 60.04400 41.42900
H  36.52300 60.62000 39.96500
H  37.55300 59.75100 41.17900
H  32.29400 62.60000 39.20000
H  30.04600 62.43200 41.16900
H  33.50000 62.19300 41.81300
H  32.06000 63.03700 42.13700
H  33.20700 63.72900 40.93600
H  30.48000 64.23200 39.12100
H  28.89400 63.50500 39.49900
H  30.12200 63.72400 36.95500
H  28.91700 62.41100 37.43400
H  30.69400 62.12000 37.32700
H  25.16200 60.68800 39.21300
H  25.19900 59.95900 40.87400
H  24.46200 59.11000 39.50500
H  26.47900 55.08400 37.17500
H  24.01200 52.05000 38.84400
H  23.62300 53.37200 40.09600
H  25.01200 52.34600 40.25500

