158

Mg 35.61200 0.82800 29.73500
C  33.42100 2.54400 31.97400
C  38.05600 1.20900 32.32900
C  37.90200 -0.17900 27.56600
C  33.25500 1.29900 27.32700
N  35.72300 1.71600 31.90400
C  34.63700 2.26900 32.55700
C  34.88900 2.34500 34.03900
C  36.46600 2.26400 34.10100
C  36.77200 1.62500 32.74900
C  37.25000 3.71600 34.31300
C  34.14300 1.11100 34.78600
C  33.67500 1.41700 36.24100
H  34.15400 2.65500 36.96700
N  37.69100 0.39100 29.95700
C  38.49100 0.63500 31.07800
C  39.86800 0.18000 30.78400
C  39.79200 -0.23600 29.41900
C  38.40700 -0.00000 28.94000
C  40.83900 0.02600 31.90100
C  40.81600 -0.79200 28.49200
O  40.61600 -1.12600 27.33900
C  42.08300 -1.16800 29.08600
N  35.57800 0.64800 27.73300
C  36.64500 0.14200 27.07500
C  36.35400 0.19300 25.54700
C  34.80000 0.47600 25.56600
C  34.48500 0.77700 26.96100
C  37.05600 1.28800 24.71700
C  33.95000 -0.66300 24.92500
C  32.85000 -0.14800 23.87400
N  33.67400 1.67000 29.64800
C  32.82400 1.72200 28.62300
C  31.49100 2.25300 29.01500
C  31.70300 2.66000 30.31000
C  33.02700 2.22400 30.63300
C  30.20900 2.16500 28.22200
C  31.07600 3.25000 31.46000
O  29.92200 3.64400 31.60900
C  32.20600 3.20900 32.63300
C  32.41500 4.61600 32.94700
O  33.24700 5.35400 32.52700
O  31.59200 4.89600 34.02400
C  31.68000 6.25400 34.60500
H  38.81500 1.27700 33.11100
H  38.60500 -0.50400 26.79600
H  32.58400 1.29100 26.46500
H  34.54900 3.33300 34.34900
H  36.82300 1.56900 34.86100
H  36.54200 4.47900 34.63300
H  37.61900 4.07300 33.35100
H  38.01400 3.67500 35.08900
H  34.76800 0.21800 34.75000
H  33.21500 0.84000 34.28100
H  33.94300 0.48800 36.74400
H  32.59100 1.52900 36.26900
H  41.64000 0.75600 32.01800
H  41.48900 -0.83000 31.72000
H  40.52100 -0.11800 32.93400
H  41.95900 -2.08200 29.66800
H  42.57700 -0.39200 29.67100
H  42.73500 -1.49300 28.27500
H  36.48500 -0.80700 25.13400
H  34.53100 1.39600 25.04800
H  37.90800 1.75400 25.21200
H  36.37300 2.12100 24.55200
H  37.27000 0.71200 23.81700
H  33.52500 -1.34200 25.66500
H  34.66300 -1.24200 24.33800
H  33.25900 -0.34000 22.88200
H  32.55700 0.89700 23.97000
H  31.87100 -0.57300 24.09500
H  30.38300 1.26200 27.63700
H  30.03100 3.03000 27.58300
H  29.36100 2.16500 28.90700
H  31.76400 2.59000 33.41400
H  32.13000 6.17800 35.59500
H  30.65900 6.63200 34.65500
H  32.33900 6.94100 34.07400
Mg 53.65400 23.82500 44.18400
C  51.24800 26.15100 43.23600
C  51.55300 21.32900 43.17900
C  56.34400 21.74700 43.87800
C  55.85600 26.45500 44.86800
N  51.62900 23.81800 43.17300
C  50.80700 24.85400 42.95700
C  49.45500 24.36600 42.39100
C  49.52400 22.83900 42.64000
C  50.99200 22.61200 43.05100
C  48.44900 22.08000 43.54200
C  49.28600 24.83900 40.89400
C  47.86200 25.25200 40.46500
H  47.40400 24.58300 39.10000
N  53.82400 21.75400 43.72200
C  52.82500 20.89000 43.48300
C  53.35800 19.56100 43.44600
C  54.77600 19.69900 43.41000
C  55.06500 21.13100 43.63500
C  52.49800 18.31500 43.18400
C  55.72900 18.49100 43.11400
O  55.29100 17.31900 42.88400
C  57.16800 18.73100 43.04400
N  55.83600 24.05500 44.24200
C  56.71400 23.05400 44.18600
C  58.11600 23.43500 44.28900
C  57.97500 24.97500 44.75200
C  56.45500 25.20500 44.64600
C  58.89300 22.58400 45.35000
C  58.89300 25.96400 43.96500
C  59.28300 27.28800 44.70600
N  53.59300 25.92900 44.14700
C  54.47900 26.86700 44.56400
C  53.93200 28.15900 44.59900
C  52.62700 27.90900 44.14900
C  52.50200 26.57200 43.76500
C  54.57100 29.51000 44.95800
C  51.39100 28.53900 43.77300
O  51.07100 29.72000 43.71900
C  50.50400 27.44200 43.14200
C  50.42300 27.82200 41.75600
O  51.32000 27.77900 40.90700
O  49.25500 28.38300 41.49600
C  49.01300 28.95800 40.16700
H  50.85600 20.50700 42.99900
H  57.17200 21.03500 43.89600
H  56.52500 27.23300 45.24100
H  48.68400 24.71200 43.07900
H  49.35000 22.45700 41.63400
H  47.74800 22.77800 43.99900
H  48.98200 21.44800 44.25200
H  47.84400 21.43800 42.90000
H  49.51700 24.02300 40.20900
H  49.92700 25.69200 40.67000
H  47.94800 26.33200 40.34600
H  47.16600 25.12500 41.29500
H  52.70100 17.97600 42.16800
H  51.45900 18.44600 43.48600
H  52.85000 17.52900 43.85300
H  57.63900 18.89900 44.01300
H  57.34800 19.67600 42.53200
H  57.80700 17.97100 42.59500
H  58.71300 23.28500 43.39000
H  58.03600 25.17500 45.82100
H  59.88800 22.38500 44.95300
H  58.38600 21.67100 45.66300
H  59.10500 23.17200 46.24300
H  58.51200 26.27000 42.99000
H  59.82600 25.44100 43.75500
H  60.36400 27.43200 44.69700
H  59.04100 27.23800 45.76700
H  58.82000 28.14200 44.21100
H  54.50800 29.46300 46.04500
H  53.98800 30.35100 44.58400
H  55.60100 29.52000 44.60000
H  49.52800 27.43100 43.62800
H  49.91800 29.14400 39.58800
H  48.33500 29.80100 40.30100
H  48.34400 28.33300 39.57500

