158

Mg -2.12100 17.49400 26.65200
C  -2.58300 15.30600 29.56500
C  -2.31900 20.11300 28.85100
C  -2.15800 19.62700 24.06200
C  -2.44400 14.81900 24.64900
N  -2.29200 17.65100 29.02600
C  -2.39700 16.65500 29.92800
C  -2.53400 17.29300 31.36700
C  -2.45600 18.81300 31.10000
C  -2.33000 18.89700 29.56000
C  -3.62300 19.72900 31.66300
C  -1.51900 16.72800 32.40100
C  -0.93500 17.60900 33.57200
H  -0.56300 16.81700 34.86000
N  -1.99900 19.62600 26.47300
C  -2.11600 20.48900 27.44100
C  -1.94700 21.81900 26.88900
C  -1.79300 21.78200 25.51200
C  -2.00300 20.30000 25.33300
C  -1.80300 23.04800 27.73100
C  -1.52500 22.78200 24.48100
O  -1.52200 22.54300 23.27100
C  -1.15300 24.19700 24.75400
N  -2.36800 17.23300 24.65600
C  -2.33000 18.26700 23.72400
C  -2.51200 17.76800 22.29400
C  -2.18700 16.23300 22.53800
C  -2.32700 16.06200 24.04700
C  -3.85400 18.13700 21.71300
C  -0.81800 15.73900 21.99100
C  0.46400 15.80100 22.91100
N  -2.43400 15.44400 27.01200
C  -2.58200 14.45000 26.03200
C  -2.64900 13.16700 26.65600
C  -2.60700 13.48700 28.05700
C  -2.54300 14.83900 28.18500
C  -2.70800 11.88400 25.94000
C  -2.60700 12.91300 29.42000
O  -2.55300 11.76200 29.75900
C  -2.65400 14.06000 30.44000
C  -1.45000 13.72700 31.26900
O  -0.32500 14.05200 30.93600
O  -1.85400 13.25400 32.50600
C  -0.71900 12.86100 33.32900
H  -2.19300 20.95100 29.53900
H  -2.07300 20.23900 23.16100
H  -2.41700 13.91800 24.03200
H  -3.51000 16.99700 31.75100
H  -1.50600 19.31800 31.27500
H  -3.33500 20.77000 31.51300
H  -3.57900 19.47300 32.72100
H  -4.55600 19.32600 31.27000
H  -0.68700 16.34700 31.80800
H  -1.87700 15.86000 32.95400
H  -1.44200 18.55300 33.77200
H  0.03600 17.98600 33.25000
H  -0.88600 23.62400 27.60200
H  -1.96900 22.82400 28.78500
H  -2.66100 23.67000 27.47600
H  -0.16500 24.09200 25.20300
H  -1.90200 24.62100 25.42300
H  -1.06200 24.70100 23.79100
H  -1.68000 18.25200 21.78200
H  -2.98500 15.63700 22.09500
H  -4.34900 18.80800 22.41500
H  -4.36100 17.18900 21.53400
H  -3.67100 18.58200 20.73500
H  -0.64800 16.31300 21.07900
H  -0.94700 14.68400 21.75000
H  0.69200 14.77000 23.17800
H  0.33000 16.33100 23.85400
H  1.34300 16.20000 22.40500
H  -1.85900 11.21300 25.81000
H  -3.21100 11.94400 24.97400
H  -3.44300 11.34900 26.54200
H  -3.55900 14.21300 31.02800
H  -0.49700 11.81700 33.11100
H  -0.97500 13.01500 34.37700
H  0.23600 13.37600 33.22400
Mg 36.29600 49.29700 24.85400
C  36.39300 47.45900 27.80300
C  34.87800 51.93400 26.72800
C  35.83700 51.00600 22.00700
C  37.30200 46.53900 23.11900
N  35.66100 49.63700 26.95100
C  36.02600 48.81600 27.97600
C  35.82800 49.41900 29.37000
C  35.06400 50.79000 29.02100
C  35.22500 50.81100 27.45300
C  33.57800 50.81600 29.45700
C  37.18500 49.71200 30.04500
C  37.27800 49.60800 31.57300
H  35.95900 49.66400 32.43500
N  35.49400 51.27100 24.43200
C  35.04200 52.16200 25.31400
C  34.86800 53.41400 24.61900
C  35.18000 53.27500 23.27300
C  35.53800 51.80700 23.15900
C  34.49900 54.68000 25.38000
C  35.33000 54.27400 22.21000
O  35.70100 53.97200 21.11300
C  34.78600 55.63700 22.43800
N  36.33900 48.71600 22.78900
C  36.23800 49.66900 21.78700
C  36.58300 49.11600 20.37000
C  37.29100 47.82500 20.85800
C  36.98400 47.65100 22.32200
C  35.28400 48.92900 19.50600
C  38.82000 47.74100 20.75900
C  39.57400 48.22700 19.50400
N  36.76600 47.33400 25.29100
C  37.15200 46.32000 24.53600
C  37.51100 45.20700 25.34200
C  37.17700 45.55600 26.64100
C  36.75800 46.90000 26.51800
C  38.18900 44.01900 24.90200
C  37.03100 45.10200 27.96100
O  37.20100 43.98400 28.48900
C  36.68800 46.37500 28.83100
C  35.53500 46.01600 29.70100
O  34.38100 45.63200 29.41800
O  35.89000 46.02900 31.02900
C  34.96200 45.25600 31.87300
H  34.49100 52.73800 27.35700
H  35.78000 51.45000 21.01100
H  37.74200 45.69800 22.57800
H  35.31900 48.73900 30.05300
H  35.61200 51.64500 29.41600
H  32.87400 51.04500 28.65600
H  33.33500 51.54100 30.23300
H  33.36100 49.81100 29.82000
H  37.54300 50.70400 29.77200
H  37.80400 48.95100 29.56900
H  37.91900 50.41300 31.93100
H  37.77400 48.64500 31.70100
H  34.14700 54.45800 26.38700
H  33.67800 55.15900 24.84600
H  35.41500 55.26700 25.30600
H  35.47200 56.02200 23.19200
H  33.73900 55.44900 22.67800
H  34.93600 56.36300 21.63900
H  37.36000 49.72300 19.90500
H  36.87100 46.93600 20.38700
H  34.44700 49.00700 20.20100
H  35.37300 47.98700 18.96500
H  35.34700 49.78400 18.83300
H  38.90900 46.65600 20.71100
H  39.29600 48.04400 21.69200
H  38.99900 48.50500 18.62100
H  40.23400 47.41900 19.18600
H  40.27200 49.03600 19.71900
H  37.96800 43.14400 25.51400
H  39.26100 44.20900 24.95900
H  37.72300 43.86800 23.92900
H  37.56000 46.72600 29.38200
H  35.64900 45.01500 32.68300
H  34.58700 44.33300 31.43000
H  34.21000 45.96200 32.22600

