158

Mg 2.41600 -1.01500 44.42000
C  5.64500 -0.09200 43.37500
C  1.17300 1.61900 42.65500
C  -0.68500 -2.34400 44.68400
C  3.89000 -3.87000 45.80700
N  3.34100 0.57500 43.26800
C  4.65200 0.76900 42.92500
C  4.81100 2.05300 42.14900
C  3.48500 2.78800 42.33700
C  2.56300 1.50800 42.69500
C  3.51500 3.90600 43.36800
C  5.10700 1.81700 40.59600
C  6.51100 2.16500 40.10100
H  6.58600 2.89000 38.74000
N  0.46400 -0.42000 43.76800
C  0.18700 0.79200 43.16800
C  -1.29400 0.95200 43.12700
C  -1.85700 -0.22600 43.72800
C  -0.68100 -1.03600 44.08900
C  -1.91200 2.11500 42.49000
C  -3.33100 -0.52600 43.82900
O  -4.18600 0.25000 43.40800
C  -3.90000 -1.72500 44.53900
N  1.72900 -2.85900 45.24600
C  0.43200 -3.15800 45.19100
C  0.21200 -4.53000 45.81700
C  1.60100 -4.98700 46.33600
C  2.48000 -3.87100 45.76500
C  -1.00900 -4.71000 46.77700
C  2.04900 -6.50900 46.10200
C  2.50400 -7.42100 47.24300
N  4.29700 -1.85300 44.59300
C  4.73800 -2.93800 45.29200
C  6.17300 -2.97300 45.35700
C  6.57100 -1.89000 44.57400
C  5.42300 -1.26800 44.07400
C  7.07900 -4.03900 45.98700
C  7.68900 -1.24200 44.07800
O  8.89100 -1.51300 44.14800
C  7.14500 0.04800 43.36600
C  7.63700 1.31700 43.96000
O  7.45600 1.69800 45.11700
O  8.45500 1.89300 43.10400
C  9.24500 3.05500 43.58600
H  0.73900 2.55400 42.29500
H  -1.64800 -2.84700 44.79000
H  4.37000 -4.78300 46.16500
H  5.54500 2.70400 42.62400
H  2.99600 3.28700 41.49900
H  4.51200 4.31200 43.54000
H  3.19800 3.47500 44.31800
H  2.99900 4.78000 42.97300
H  4.35100 2.36200 40.03100
H  5.01300 0.74900 40.39900
H  7.10400 1.25500 40.00800
H  7.06700 2.76200 40.82400
H  -2.34400 2.86200 43.15500
H  -2.74100 1.76900 41.87200
H  -1.18700 2.74900 41.98000
H  -3.63000 -2.58200 43.92100
H  -4.97700 -1.67300 44.70100
H  -3.52000 -1.74900 45.56100
H  -0.00200 -5.20800 44.99200
H  1.66900 -4.82600 47.41200
H  -1.69900 -3.86600 46.79500
H  -0.68800 -4.81100 47.81300
H  -1.62300 -5.53800 46.42100
H  2.94600 -6.44100 45.48700
H  1.13700 -6.85000 45.61200
H  2.66200 -6.91400 48.19400
H  3.46200 -7.90000 47.04100
H  1.80800 -8.25900 47.23100
H  6.43800 -4.51200 46.73100
H  7.89300 -3.51100 46.48300
H  7.57100 -4.62000 45.20700
H  7.59700 -0.05900 42.38000
H  8.60100 3.93400 43.56700
H  10.10900 3.10500 42.92300
H  9.54400 2.97100 44.63100
Mg 0.07000 43.29600 26.67000
C  2.21700 42.69800 29.39100
C  -2.62700 41.96100 28.48200
C  -1.80400 43.64400 23.91800
C  2.93800 44.14800 24.85800
N  -0.15800 42.41800 28.71000
C  0.84500 42.53000 29.66700
C  0.22000 42.23000 31.02600
C  -1.21200 41.75800 30.59500
C  -1.35000 42.04100 29.15800
C  -1.61800 40.29900 30.74600
C  0.26100 43.24400 32.15500
C  0.61600 42.76600 33.58200
H  0.00800 41.50300 34.12200
N  -1.96800 42.88200 26.29400
C  -2.88100 42.30300 27.11500
C  -4.18400 42.21300 26.47200
C  -3.98300 42.76300 25.14500
C  -2.51800 43.09000 25.08100
C  -5.44100 41.73400 27.09000
C  -4.94200 42.99500 24.01800
O  -4.56500 43.44500 22.93100
C  -6.52600 42.79700 24.23400
N  0.48600 43.84700 24.73900
C  -0.47700 43.99300 23.79900
C  0.01900 44.85000 22.58500
C  1.46100 45.13400 23.03700
C  1.70800 44.24300 24.28300
C  -0.10500 44.19800 21.23200
C  1.69600 46.63700 23.42900
C  1.45400 47.67500 22.39400
N  2.17300 43.41800 27.01400
C  3.18800 43.67800 26.17500
C  4.44300 43.50000 26.83900
C  4.10100 43.11600 28.17200
C  2.75800 43.01100 28.14400
C  5.79400 43.76000 26.32500
C  4.68400 42.77000 29.45700
O  5.88000 42.66100 29.77000
C  3.47100 42.70500 30.36200
C  3.51300 41.49200 31.28400
O  3.18400 40.32600 31.06000
O  3.96300 41.87200 32.52700
C  4.19200 40.84700 33.56000
H  -3.52500 41.63900 29.01400
H  -2.34000 43.85000 22.99000
H  3.85900 44.48100 24.37500
H  0.67700 41.33400 31.44600
H  -1.95500 42.44900 30.99300
H  -0.89100 39.78500 31.37500
H  -1.72100 39.73300 29.82000
H  -2.58500 40.24700 31.24700
H  -0.72800 43.66800 32.32900
H  0.92900 44.06900 31.90700
H  0.55500 43.55700 34.33000
H  1.67100 42.57600 33.38400
H  -6.01000 41.07200 26.43800
H  -6.08700 42.54900 27.41600
H  -5.24000 41.09500 27.95000
H  -6.96100 43.20000 25.14800
H  -6.70200 41.73300 24.07600
H  -7.05500 43.36500 23.46800
H  -0.52500 45.79300 22.54700
H  2.16800 44.92700 22.23400
H  0.90500 44.13800 20.82500
H  -0.64500 44.75500 20.46600
H  -0.50200 43.18500 21.17300
H  2.73200 46.67000 23.76700
H  1.16100 46.98300 24.31400
H  1.05300 47.13100 21.53900
H  2.40300 48.13300 22.11700
H  0.66100 48.37200 22.66800
H  5.77900 43.95100 25.25200
H  6.53000 42.96800 26.46500
H  6.13800 44.63600 26.87400
H  3.32700 43.60800 30.95700
H  5.18600 41.03200 33.96600
H  4.21700 39.78500 33.31400
H  3.51800 41.02500 34.39800

