158

Mg 16.05300 -3.16800 27.73300
C  15.04100 -1.07600 30.27100
C  17.91800 -4.99100 29.99800
C  17.48400 -4.95500 25.13600
C  14.64100 -1.09900 25.27600
N  16.48200 -2.88900 29.90900
C  15.96700 -1.98000 30.79600
C  16.52400 -2.07800 32.25300
C  17.59400 -3.30200 32.03200
C  17.34500 -3.74900 30.54700
C  19.14600 -2.93600 32.27400
C  15.43500 -2.45700 33.23000
C  15.43100 -1.61900 34.49100
H  16.78200 -0.92900 34.91600
N  17.38100 -4.77300 27.61600
C  18.00500 -5.41500 28.68200
C  18.78300 -6.54300 28.17100
C  18.71500 -6.46600 26.74900
C  17.86900 -5.33800 26.43500
C  19.53200 -7.49900 29.11800
C  19.30200 -7.43800 25.78400
O  19.11000 -7.42400 24.58400
C  20.32600 -8.55400 26.31000
N  16.03800 -3.04900 25.47500
C  16.69700 -3.86200 24.69200
C  16.34600 -3.72500 23.17500
C  15.19900 -2.57700 23.26600
C  15.25300 -2.23700 24.76200
C  17.55800 -3.34700 22.31000
C  13.77400 -3.14200 22.82200
C  13.38700 -2.78100 21.41700
N  14.95200 -1.54800 27.73100
C  14.44900 -0.83200 26.68300
C  13.69300 0.33200 27.26100
C  13.89000 0.28000 28.68500
C  14.69400 -0.84400 28.89800
C  12.80600 1.30600 26.48500
C  13.53300 0.89800 29.94200
O  12.82700 1.87500 30.21000
C  14.31000 0.08700 31.00700
C  15.20600 1.19900 31.52500
O  16.11400 1.66900 30.89100
O  14.77200 1.61500 32.71600
C  15.42900 2.81000 33.27500
H  18.57700 -5.46600 30.72800
H  17.85500 -5.57700 24.31900
H  14.08000 -0.42700 24.62400
H  16.99500 -1.11500 32.44900
H  17.26600 -4.15500 32.62500
H  19.56900 -3.59500 33.03200
H  19.33000 -1.90700 32.58200
H  19.71600 -3.07400 31.35500
H  15.43600 -3.53200 33.40700
H  14.50500 -2.15500 32.74800
H  15.08600 -2.20100 35.34600
H  14.71600 -0.80200 34.39300
H  19.38600 -8.52800 28.78800
H  19.27000 -7.36700 30.16700
H  20.60900 -7.33200 29.10600
H  20.81800 -8.94600 25.42000
H  19.83700 -9.41200 26.77100
H  21.16700 -8.14400 26.86900
H  15.85100 -4.64600 22.86800
H  15.49900 -1.78700 22.57800
H  18.36000 -3.99600 22.66000
H  17.96500 -2.35100 22.48400
H  17.30800 -3.60700 21.28100
H  13.10000 -2.67900 23.54200
H  13.65600 -4.22500 22.84800
H  13.75000 -3.62800 20.83500
H  13.85800 -1.83600 21.14800
H  12.29800 -2.75400 21.36500
H  12.46900 0.92000 25.52400
H  13.31700 2.24400 26.27000
H  11.93000 1.57600 27.07500
H  13.63400 -0.26700 31.78500
H  15.71700 3.58800 32.56700
H  16.28300 2.53400 33.89400
H  14.54800 3.02600 33.87900
Mg 39.73300 9.68900 30.47400
C  41.78500 10.90800 33.02200
C  37.52900 8.93500 32.99100
C  37.94100 8.20900 28.17300
C  42.30800 10.25200 28.18900
N  39.72600 9.88200 32.83000
C  40.65000 10.50600 33.61400
C  40.11200 10.76400 35.06300
C  38.73900 9.92300 35.02600
C  38.67400 9.49500 33.55800
C  38.54800 8.63800 35.97800
C  39.86000 12.19000 35.57900
C  40.57900 12.62400 36.93000
H  39.64800 13.16700 38.02400
N  37.94400 8.74200 30.56400
C  37.18200 8.44800 31.73800
C  36.00500 7.69200 31.32400
C  36.05400 7.62000 29.90000
C  37.31500 8.19500 29.46100
C  34.92800 7.22500 32.30100
C  35.01200 7.02400 28.90400
O  35.06000 7.09500 27.69100
C  33.69100 6.48500 29.48700
N  40.08500 9.14300 28.47000
C  39.12100 8.71100 27.64200
C  39.45900 8.74500 26.13900
C  40.95200 9.30000 26.27000
C  41.08900 9.70000 27.72300
C  39.35100 7.33300 25.50500
C  41.23400 10.40400 25.15600
C  40.61400 11.81500 25.50400
N  41.60700 10.46800 30.54500
C  42.55900 10.60800 29.54100
C  43.74500 11.30500 30.00500
C  43.43800 11.45300 31.37400
C  42.14400 10.84600 31.64900
C  44.82300 11.89600 29.25500
C  43.94500 12.14100 32.63400
O  44.99900 12.72200 32.90800
C  42.83100 11.75100 33.73400
C  43.46300 10.83800 34.81100
O  43.98600 9.78400 34.57000
O  43.53400 11.36700 36.06900
C  44.39800 10.60200 36.99100
H  36.91600 8.60900 33.83400
H  37.31000 7.78700 27.38700
H  42.94300 10.64800 27.39400
H  40.74500 10.21900 35.76300
H  37.87000 10.57000 35.14600
H  38.22300 7.68300 35.56500
H  37.80100 8.91400 36.72200
H  39.43700 8.43400 36.57600
H  38.82600 12.53000 35.63600
H  40.21600 12.66600 34.66500
H  41.30800 13.37800 36.63300
H  40.98700 11.71100 37.36400
H  34.71200 6.16800 32.15100
H  33.96700 7.73400 32.21400
H  35.26700 7.33800 33.33100
H  33.25600 6.10900 28.56000
H  33.18700 7.30500 29.99800
H  33.82200 5.65000 30.17600
H  38.85400 9.52300 25.67200
H  41.72600 8.56500 26.04500
H  38.98600 6.68100 26.29900
H  40.27600 6.92400 25.09900
H  38.59600 7.35200 24.72000
H  40.74500 10.09200 24.23400
H  42.29000 10.47500 24.89300
H  40.12400 12.15100 24.59100
H  41.41800 12.53100 25.67400
H  39.83600 11.83200 26.26700
H  44.67200 12.90100 28.85900
H  45.10900 11.24100 28.43300
H  45.61900 11.78400 29.99100
H  42.46000 12.69300 34.13700
H  44.06500 9.61000 37.29800
H  44.79900 11.15400 37.84100
H  45.31400 10.36500 36.45000

