158

Mg 1.92400 -3.11600 45.08200
C  5.14900 -2.27700 44.35400
C  0.80400 -0.79800 42.76600
C  -1.18500 -4.64900 45.04200
C  3.20800 -6.28100 46.38300
N  2.89200 -1.81700 43.66100
C  4.20200 -1.46500 43.71000
C  4.60000 -0.45200 42.65000
C  3.21500 0.27800 42.44900
C  2.21900 -0.82000 42.94600
C  3.02800 1.65100 43.20500
C  5.23700 -1.02200 41.31900
C  6.47100 -0.28000 40.74600
H  6.18800 0.60300 39.54900
N  0.04700 -2.67500 44.15300
C  -0.20800 -1.61500 43.31100
C  -1.65200 -1.59000 43.00000
C  -2.22900 -2.61700 43.81600
C  -1.07000 -3.38800 44.32400
C  -2.29200 -0.47200 42.19700
C  -3.70000 -2.87300 43.95100
O  -4.50200 -2.10300 43.52700
C  -4.32800 -4.08300 44.55600
N  1.19300 -5.16800 45.48700
C  -0.15400 -5.40300 45.64300
C  -0.43000 -6.52600 46.53700
C  0.92600 -7.33000 46.63600
C  1.87400 -6.22000 46.13700
C  -1.09400 -5.92200 47.80100
C  0.93600 -8.60300 45.78200
C  1.70000 -9.77800 46.35800
N  3.76900 -4.02100 45.55200
C  4.14400 -5.24700 46.07700
C  5.54800 -5.26000 46.27300
C  5.99400 -4.13000 45.58700
C  4.86000 -3.44600 45.11200
C  6.28000 -6.33800 47.03700
C  7.21300 -3.30800 45.30100
O  8.32500 -3.42200 45.77300
C  6.64400 -2.22500 44.35300
C  7.07000 -0.90500 44.75600
O  6.54300 -0.23600 45.61400
O  8.10900 -0.43900 43.98700
C  8.41400 0.97000 44.25900
H  0.55600 -0.03000 42.03100
H  -2.19300 -4.97500 45.30500
H  3.53200 -7.21400 46.84900
H  5.26500 0.25500 43.14500
H  3.04800 0.49400 41.39400
H  2.67800 2.42200 42.51900
H  3.80800 2.01000 43.87700
H  2.21700 1.49600 43.91600
H  4.44300 -0.90800 40.58100
H  5.50900 -2.06200 41.49800
H  7.32200 -0.94500 40.60100
H  6.68300 0.52900 41.44600
H  -2.26500 -0.90300 41.19600
H  -1.82500 0.51200 42.22200
H  -3.37000 -0.44100 42.35300
H  -3.96800 -4.97200 44.03800
H  -5.37500 -4.11000 44.25600
H  -4.21600 -4.12400 45.64000
H  -1.20700 -7.13000 46.06900
H  1.10800 -7.55300 47.68700
H  -2.10100 -6.29900 47.97700
H  -1.19800 -4.84800 47.95900
H  -0.50100 -6.29800 48.63600
H  1.20400 -8.37500 44.75000
H  -0.10700 -8.88400 45.92900
H  0.96700 -10.36300 46.91400
H  2.45800 -9.44800 47.06700
H  2.26500 -10.45700 45.71900
H  6.70400 -7.18300 46.49500
H  5.63500 -6.70000 47.83600
H  7.11400 -5.85600 47.54800
H  7.01700 -2.30500 43.33200
H  8.80200 0.99200 45.27800
H  7.53400 1.57100 44.02900
H  9.16600 1.24700 43.52000
Mg 8.16000 2.54500 27.11400
C  9.74300 1.51600 30.05900
C  6.11500 4.52200 29.15400
C  6.98900 3.86100 24.33000
C  9.97400 0.14700 25.27500
N  7.84800 2.86300 29.40800
C  8.81700 2.46700 30.39600
C  8.45800 3.09100 31.77200
C  7.14800 3.94600 31.46000
C  6.94000 3.73100 29.93300
C  5.90800 3.45100 32.18800
C  9.65500 3.87500 32.40700
C  9.28500 4.45500 33.78100
H  10.26400 4.31300 34.88300
N  6.70600 3.96100 26.71000
C  5.98500 4.66400 27.68800
C  5.15000 5.68400 26.99700
C  5.48000 5.52500 25.57300
C  6.39200 4.40700 25.47900
C  4.32700 6.68500 27.63200
C  5.02100 6.39600 24.40900
O  5.24200 6.16500 23.21300
C  4.38000 7.71100 24.63200
N  8.32700 1.93700 25.07900
C  7.82900 2.75200 24.17500
C  8.18700 2.23300 22.76300
C  9.33300 1.15000 23.01600
C  9.14400 0.98200 24.50700
C  6.96200 1.50600 22.07100
C  10.69500 1.73300 22.62000
C  11.81200 0.73800 22.13100
N  9.52000 1.02400 27.56000
C  10.15600 0.14200 26.70500
C  11.22600 -0.53400 27.43100
C  10.98300 -0.11300 28.78500
C  10.00800 0.93100 28.76500
C  12.37900 -1.37800 26.87000
C  11.58700 -0.07000 30.06600
O  12.52300 -0.74000 30.48200
C  10.84300 0.93700 30.94700
C  10.34500 0.13800 32.10700
O  9.37900 -0.53800 32.17500
O  11.20800 0.35800 33.22400
C  10.84000 -0.01500 34.57300
H  5.70100 5.40300 29.65000
H  6.77900 4.37500 23.39000
H  10.72600 -0.36900 24.67400
H  8.31300 2.29700 32.50400
H  7.27600 5.00400 31.68700
H  5.31900 4.23400 32.66600
H  6.21100 2.83100 33.03200
H  5.14200 3.03800 31.53200
H  10.03900 4.66200 31.75800
H  10.43500 3.14500 32.62200
H  8.25000 4.27200 34.06800
H  9.40400 5.53200 33.66800
H  3.35900 6.58900 27.14000
H  4.76600 7.66400 27.44300
H  4.36500 6.54100 28.71200
H  5.07000 8.34800 25.18500
H  3.38200 7.63600 25.06500
H  4.20400 8.18200 23.66500
H  8.52000 3.01300 22.07700
H  9.18500 0.18300 22.53600
H  6.02800 1.88500 22.48500
H  6.96400 0.42500 22.21100
H  6.99700 1.77500 21.01600
H  11.10500 2.13800 23.54500
H  10.56700 2.60400 21.97800
H  12.15900 0.78300 21.09800
H  11.38200 -0.26300 22.17900
H  12.67000 0.83700 22.79700
H  13.10800 -0.77300 26.33200
H  11.99400 -1.90900 26.00000
H  12.78500 -2.15300 27.52200
H  11.56200 1.71500 31.20500
H  10.71900 0.95600 35.05200
H  11.64900 -0.52900 35.09200
H  9.87700 -0.51100 34.69100

