158

Mg 43.38200 3.31400 47.20000
C  41.31800 5.97600 46.59900
C  40.60600 1.29100 47.35900
C  45.48300 0.73800 47.52400
C  46.20600 5.55400 46.86600
N  41.22100 3.57700 46.85700
C  40.63000 4.74700 46.59400
C  39.15200 4.61400 46.63100
C  38.91000 3.16700 47.20900
C  40.29800 2.64700 47.17300
C  38.38800 3.15800 48.71600
C  38.53900 4.85300 45.22100
C  37.26200 5.79400 45.06900
H  36.76800 6.12000 43.70500
N  43.03000 1.24600 47.14100
C  41.84900 0.63600 47.26800
C  42.03900 -0.79200 47.25200
C  43.48600 -0.94300 47.27300
C  44.10800 0.41800 47.30500
C  40.98900 -1.94100 47.26000
C  44.24100 -2.29200 47.14200
O  43.56000 -3.35500 46.91700
C  45.76900 -2.41900 47.18100
N  45.52200 3.11400 47.09400
C  46.14800 1.92300 47.42500
C  47.68200 2.07700 47.56100
C  47.91900 3.64500 47.29400
C  46.48900 4.18500 47.06700
C  48.26200 1.68000 48.98600
C  48.92200 3.95500 46.15000
C  50.35300 4.50500 46.41900
N  43.71700 5.36300 46.92800
C  44.88500 6.13000 46.80300
C  44.47100 7.54900 46.66200
C  43.08000 7.49200 46.58700
C  42.67900 6.14600 46.72700
C  45.38800 8.70600 46.40100
C  41.84400 8.33300 46.40000
O  41.70800 9.50200 45.97500
C  40.65600 7.33500 46.53800
C  39.86200 7.85900 47.74100
O  39.93400 7.39400 48.87500
O  39.08000 8.93300 47.42700
C  38.19900 9.54000 48.45200
H  39.85400 0.56700 47.68200
H  46.22200 0.01500 47.87500
H  47.11500 6.15900 46.84200
H  38.62500 5.36000 47.22600
H  38.26100 2.54500 46.59200
H  38.04400 4.14600 49.02500
H  39.09600 2.68200 49.39400
H  37.52700 2.49000 48.73900
H  38.21100 3.86600 44.89400
H  39.28100 5.05600 44.44800
H  37.53100 6.67100 45.65800
H  36.49400 5.32900 45.68700
H  40.92100 -2.36200 46.25600
H  39.99900 -1.50600 47.39100
H  41.17500 -2.76600 47.94800
H  46.19200 -1.77300 46.41100
H  46.14300 -3.43700 47.08200
H  46.10900 -2.28200 48.20800
H  48.23600 1.53800 46.79300
H  48.30200 4.23100 48.13000
H  47.68700 0.89400 49.47500
H  48.25900 2.47600 49.73100
H  49.31000 1.38000 48.96200
H  48.58400 4.69700 45.42800
H  49.15100 3.06800 45.56000
H  50.46700 4.64500 47.49400
H  50.44300 5.43000 45.84900
H  51.14000 3.89600 45.97600
H  44.80500 9.61600 46.54000
H  45.74500 8.56100 45.38100
H  46.27000 8.63000 47.03700
H  40.03100 7.50200 45.66000
H  38.56900 9.27800 49.44300
H  37.21900 9.14000 48.19000
H  38.16900 10.62700 48.37700
Mg 30.91900 59.80200 39.44900
C  27.98900 58.32200 38.20200
C  32.71700 56.88600 38.48900
C  33.83400 61.46700 39.90000
C  29.19900 62.81700 39.71600
N  30.37200 57.90700 38.33700
C  29.10600 57.46800 38.04000
C  29.14200 56.17300 37.28500
C  30.62700 55.65100 37.56700
C  31.29300 56.84200 38.29100
C  30.75100 54.36800 38.49700
C  28.79700 56.08900 35.74900
C  27.50500 55.32600 35.40100
H  26.64400 55.83800 34.33500
N  33.05900 59.27000 39.15800
C  33.49400 58.00500 38.83600
C  34.87700 58.06800 38.80500
C  35.30400 59.43300 39.06600
C  34.08800 60.19200 39.41000
C  35.77400 56.85600 38.53400
C  36.77700 59.85500 39.13100
O  37.69700 59.12300 38.81500
C  37.09700 61.23500 39.57100
N  31.40800 61.65300 39.72200
C  32.65500 62.14200 39.99200
C  32.76600 63.68800 40.09400
C  31.24600 64.04800 39.99100
C  30.57100 62.74600 39.82000
C  33.44300 64.15800 41.44200
C  30.95200 65.13900 38.94800
C  30.22700 66.43200 39.46300
N  28.90900 60.52200 39.12400
C  28.38100 61.76500 39.19400
C  27.00300 61.68100 39.05200
C  26.74800 60.36200 38.57700
C  28.01100 59.67800 38.64700
C  26.07100 62.77300 39.46700
C  25.71900 59.35600 38.19000
O  24.51900 59.45500 38.17800
C  26.52600 58.06700 37.84900
C  25.95700 57.00200 38.68000
O  26.20100 56.83000 39.84200
O  25.23300 56.14600 37.87000
C  24.64000 55.03400 38.57000
H  33.23200 55.97800 38.16700
H  34.77000 62.00400 40.07100
H  28.70600 63.78000 39.86600
H  28.48200 55.50900 37.84200
H  31.09900 55.50500 36.59500
H  31.07300 53.46900 37.97300
H  29.81900 54.09900 38.99500
H  31.41500 54.63600 39.31800
H  29.58100 55.59800 35.17400
H  28.64900 57.12900 35.45500
H  27.00900 55.02100 36.32200
H  27.95500 54.42400 34.98800
H  36.48200 56.66400 39.34100
H  36.38500 57.23300 37.71400
H  35.28300 55.92400 38.25200
H  38.15200 61.50600 39.53400
H  36.61600 61.48600 40.51600
H  36.72200 61.89900 38.79200
H  33.30900 64.14400 39.26600
H  31.01300 64.34200 41.01500
H  33.81100 63.34700 42.07000
H  32.77000 64.78100 42.03200
H  34.27400 64.81800 41.19100
H  30.53400 64.54400 38.13500
H  31.91700 65.48200 38.57500
H  29.27100 66.21800 38.98500
H  30.70700 67.33200 39.07700
H  30.03600 66.33100 40.53200
H  26.54500 63.73200 39.67600
H  25.53600 62.46600 40.36500
H  25.26100 62.92800 38.75400
H  26.42300 57.76600 36.80600
H  23.88500 55.35000 39.28900
H  25.42000 54.40600 39.00000
H  24.24400 54.31900 37.84800

