158

Mg 43.84400 3.90000 47.55800
C  41.50100 6.48500 46.90400
C  41.33400 1.56100 47.51600
C  46.28700 1.66000 47.51700
C  46.35300 6.39200 46.91300
N  41.63700 4.01800 47.10000
C  40.93300 5.14900 46.86600
C  39.44000 4.66500 46.64600
C  39.41800 3.20700 47.36400
C  40.86000 2.89200 47.31000
C  38.92900 3.24500 48.85000
C  39.12200 4.71400 45.18200
C  37.84600 5.46600 44.76700
H  37.99500 6.59400 43.66200
N  43.78700 1.92100 47.66100
C  42.70400 1.12300 47.54400
C  43.11400 -0.24200 47.53300
C  44.49400 -0.31700 47.56600
C  44.91200 1.12400 47.59000
C  42.10800 -1.38100 47.42400
C  45.36200 -1.59900 47.54400
O  44.78100 -2.69200 47.57000
C  46.83100 -1.65000 47.46800
N  45.97900 3.95000 47.23400
C  46.72900 2.92900 47.44100
C  48.21900 3.28500 47.62800
C  48.19100 4.74400 47.13700
C  46.74800 5.06600 47.12400
C  48.65400 3.01400 49.15400
C  48.88300 5.02300 45.83700
C  47.97100 4.49100 44.64800
N  43.95800 6.05900 47.16800
C  45.05300 6.87700 46.83500
C  44.61800 8.25600 46.64400
C  43.23000 8.14800 46.76700
C  42.86600 6.75700 46.92400
C  45.42500 9.46500 46.36000
C  41.95100 8.90400 46.66100
O  41.77200 10.13900 46.49800
C  40.74600 7.79400 46.79500
C  40.00100 8.10800 47.97400
O  40.26000 7.90400 49.13500
O  38.85900 8.81300 47.61200
C  38.04200 9.32900 48.71800
H  40.60900 0.74500 47.48100
H  46.96900 0.81200 47.60800
H  47.14300 7.13900 46.81800
H  38.76100 5.38700 47.10000
H  38.92000 2.37300 46.87000
H  38.35700 4.16200 48.99100
H  39.71000 3.11200 49.59900
H  38.12200 2.52800 48.99800
H  38.96900 3.66500 44.92700
H  39.95500 4.98300 44.53300
H  37.50000 6.07700 45.60000
H  37.04300 4.80700 44.43500
H  42.61100 -2.21600 46.93400
H  41.16500 -1.18700 46.91300
H  41.74300 -1.50600 48.44300
H  47.14500 -1.36000 48.47100
H  47.19100 -0.96900 46.69700
H  47.21500 -2.65600 47.30000
H  48.90000 2.77800 46.94400
H  48.64900 5.28500 47.96500
H  49.39600 2.21700 49.11300
H  47.77800 2.75900 49.75000
H  49.01000 3.90300 49.67300
H  49.79800 4.44100 45.73100
H  49.20400 6.06500 45.80600
H  47.56600 5.35500 44.12100
H  47.25000 3.69200 44.82100
H  48.62700 3.95900 43.95900
H  45.92500 9.43600 45.39100
H  46.16900 9.59800 47.14500
H  44.84500 10.38800 46.33600
H  40.05000 7.88100 45.96000
H  37.15700 9.81500 48.30700
H  38.63200 9.99600 49.34500
H  37.76800 8.49000 49.35800
Mg 47.56000 45.30000 43.79100
C  44.19600 44.96500 43.03200
C  48.06900 42.13200 42.70900
C  50.76600 45.94600 43.93800
C  46.98000 48.72300 44.54000
N  46.32800 43.85300 42.91800
C  44.98900 43.89700 42.65300
C  44.53700 42.65400 41.90200
C  45.56000 41.59600 42.43600
C  46.73500 42.55900 42.74100
C  45.05100 40.83700 43.69600
C  44.51100 42.82700 40.36700
C  43.10600 42.72000 39.64600
H  43.11200 41.84700 38.29300
N  49.24800 44.11900 43.45700
C  49.25800 42.90700 42.88600
C  50.68700 42.44800 42.83000
C  51.49600 43.52100 43.34100
C  50.50600 44.59000 43.57200
C  51.03300 41.05100 42.35800
C  52.95000 43.42000 43.67800
O  53.63800 42.48800 43.30300
C  53.73800 44.56300 44.41300
N  48.65800 47.13600 44.00700
C  50.02300 47.13500 44.05000
C  50.65300 48.43000 44.47500
C  49.46400 49.33100 44.62700
C  48.27500 48.37600 44.42500
C  51.61200 48.42900 45.72400
C  49.42300 50.54000 43.59300
C  49.28900 51.90300 44.23300
N  45.92200 46.63600 43.88300
C  45.84200 47.91500 44.15800
C  44.42500 48.41300 44.13500
C  43.71500 47.26100 43.73300
C  44.70000 46.19100 43.56200
C  43.86900 49.74500 44.41900
C  42.38900 46.71100 43.32700
O  41.32100 47.31500 43.28000
C  42.69400 45.14500 42.91800
C  42.04100 44.35500 44.06100
O  41.15900 43.56600 43.89100
O  42.57300 44.67400 45.29900
C  42.32800 43.89500 46.47900
H  48.23400 41.05800 42.60000
H  51.83000 46.12100 44.11000
H  46.65400 49.74700 44.73200
H  43.54600 42.46800 42.31600
H  45.83000 40.89400 41.64700
H  44.00300 40.97200 43.96400
H  45.61800 41.19000 44.55700
H  45.27600 39.79800 43.45400
H  45.22900 42.12900 39.93700
H  44.89600 43.79800 40.05700
H  42.76600 43.65700 39.20600
H  42.30100 42.24300 40.20600
H  51.88700 40.92300 41.69300
H  50.23500 40.49500 41.86400
H  51.30100 40.47000 43.24000
H  54.00500 45.37000 43.73100
H  54.68000 44.19700 44.82100
H  53.13700 45.07300 45.16700
H  51.17600 48.81200 43.59800
H  49.43800 49.71400 45.64700
H  51.46200 49.24400 46.43200
H  52.59600 48.54800 45.27000
H  51.46500 47.44200 46.16200
H  48.58400 50.27300 42.95100
H  50.37200 50.56700 43.05700
H  48.28300 52.12100 44.59300
H  49.60100 52.59600 43.45300
H  49.95500 51.96200 45.09400
H  43.98000 50.38100 43.54100
H  44.54200 50.07900 45.20900
H  42.80800 49.60500 44.62600
H  42.31000 44.90800 41.92600
H  41.85500 44.58300 47.17900
H  43.22300 43.68600 47.06500
H  41.83900 42.93300 46.32600

