158

Mg 9.22100 3.00200 27.70100
C  10.60600 1.44000 30.44100
C  7.45500 5.02500 29.82200
C  7.69800 4.24200 24.95500
C  10.56300 0.43100 25.68400
N  8.83100 3.07500 29.91900
C  9.75600 2.50100 30.85400
C  9.56600 3.02300 32.29400
C  8.46800 4.10800 32.03900
C  8.16400 4.06100 30.52300
C  7.21900 3.98800 32.94800
C  10.84200 3.69700 32.88200
C  10.73700 4.20100 34.29600
H  11.59600 3.64500 35.40800
N  7.86400 4.45600 27.46900
C  7.27000 5.22100 28.44200
C  6.49000 6.26700 27.82400
C  6.51000 6.02700 26.43000
C  7.37000 4.84200 26.24500
C  5.95500 7.48300 28.52900
C  5.74900 6.74600 25.32400
O  5.81300 6.41800 24.11800
C  4.89600 7.89600 25.63400
N  9.27800 2.52300 25.64200
C  8.56500 3.17700 24.72900
C  8.78500 2.66900 23.32200
C  9.71900 1.49600 23.55600
C  10.00800 1.51200 25.05400
C  7.44400 2.20500 22.60200
C  11.06400 1.58400 22.70200
C  11.04700 1.09000 21.23800
N  10.33900 1.35400 27.98100
C  10.75200 0.36800 27.06600
C  11.46400 -0.71900 27.73700
C  11.44700 -0.27800 29.06600
C  10.72400 0.97600 29.12000
C  11.94400 -2.03200 27.17200
C  11.84300 -0.56500 30.42200
O  12.43000 -1.53500 30.87700
C  11.46700 0.59900 31.29200
C  10.84300 0.03000 32.52100
O  9.81400 -0.62300 32.61900
O  11.58200 0.36600 33.58400
C  11.14600 -0.21200 34.84000
H  7.01700 5.86400 30.36600
H  7.24500 4.70200 24.07500
H  10.92000 -0.46200 25.16700
H  9.23000 2.17700 32.89300
H  9.02500 5.02600 32.23100
H  7.00300 4.89300 33.51500
H  7.43600 3.20100 33.67000
H  6.38400 3.57200 32.38400
H  11.21300 4.45300 32.19000
H  11.61600 2.92900 32.87800
H  9.68100 4.08200 34.54100
H  10.84000 5.28400 34.35400
H  6.22800 8.30800 27.87100
H  6.24200 7.53000 29.57900
H  4.87000 7.38400 28.57400
H  3.99300 7.68500 26.20700
H  4.54300 8.34300 24.70500
H  5.41600 8.75800 26.05200
H  9.22300 3.41900 22.66300
H  9.32900 0.50400 23.32800
H  7.45700 1.11900 22.51200
H  7.46600 2.49300 21.55100
H  6.57200 2.45000 23.20900
H  11.75100 0.92800 23.23700
H  11.52800 2.56900 22.73900
H  10.04800 0.86700 20.86400
H  11.69400 0.21800 21.13800
H  11.41400 1.77600 20.47500
H  12.73300 -2.46400 27.78800
H  12.30000 -2.07100 26.14300
H  11.25300 -2.87500 27.20900
H  12.28000 1.14400 31.77100
H  12.06200 -0.58400 35.29900
H  10.46000 -1.05200 34.73000
H  10.64100 0.54300 35.44300
Mg 41.97100 41.15000 26.63300
C  41.04000 43.46000 28.91300
C  42.92600 39.09100 29.07700
C  42.86700 38.81000 24.26400
C  41.74400 43.50700 24.10000
N  41.90400 41.23000 28.73800
C  41.48400 42.27400 29.47300
C  41.59700 42.02600 30.91900
C  42.39100 40.66500 30.97200
C  42.50400 40.32500 29.48100
C  43.71100 40.51000 31.69900
C  40.21100 42.13600 31.65800
C  40.24800 41.48700 33.09000
H  39.70900 42.36700 34.29300
N  42.56700 39.16600 26.65500
C  42.91900 38.51600 27.79700
C  43.39700 37.10300 27.50200
C  43.27900 36.99700 26.05900
C  42.87200 38.35800 25.61700
C  43.64500 36.03300 28.59500
C  43.49100 35.67500 25.23700
O  43.61100 35.71300 24.00100
C  43.52400 34.29700 25.83000
N  42.46800 41.17600 24.42300
C  42.66000 40.05000 23.68300
C  42.49200 40.34200 22.11100
C  42.02600 41.83800 22.14900
C  42.10100 42.22900 23.62200
C  43.76700 39.98700 21.32100
C  40.58000 41.95500 21.60200
C  39.55000 41.25900 22.46000
N  41.45200 43.12400 26.48600
C  41.39200 43.95500 25.38200
C  40.76400 45.19600 25.87400
C  40.66900 45.08500 27.25200
C  41.11000 43.75900 27.58100
C  40.53900 46.45100 25.11900
C  40.42800 45.78600 28.43900
O  40.07000 47.01800 28.46600
C  40.54500 44.81200 29.59800
C  41.59200 45.29600 30.62500
O  42.69200 45.76200 30.43800
O  40.93200 45.41700 31.87900
C  41.74400 45.85100 33.03600
H  43.42300 38.56300 29.89400
H  43.02200 38.07500 23.47100
H  41.47300 44.14800 23.25900
H  42.23600 42.83600 31.26900
H  41.79700 39.87800 31.43800
H  43.96700 39.47700 31.93500
H  43.55800 41.00100 32.66000
H  44.49000 40.98800 31.10500
H  39.42900 41.73400 31.01500
H  39.93600 43.17100 31.86500
H  41.28200 41.23700 33.32500
H  39.71700 40.53500 33.13300
H  43.62200 36.48100 29.58900
H  44.69300 35.74500 28.51100
H  43.13900 35.08300 28.42200
H  44.39500 34.15200 26.46900
H  43.62300 33.51800 25.07300
H  42.50300 34.27200 26.21200
H  41.65200 39.79000 21.68900
H  42.77600 42.52600 21.75900
H  44.47600 39.62300 22.06500
H  44.08600 40.90800 20.83300
H  43.57000 39.29100 20.50600
H  40.52700 41.44100 20.64200
H  40.33900 43.00100 21.41300
H  39.32200 41.93400 23.28600
H  39.86300 40.29800 22.86800
H  38.65800 40.97400 21.90300
H  41.41700 47.08400 24.99200
H  39.88700 46.96600 25.82500
H  40.08000 46.23800 24.15400
H  39.63100 44.72700 30.18600
H  42.79500 45.60400 32.88600
H  41.31400 45.39000 33.92500
H  41.70200 46.93800 33.10900

