158

Mg 41.85800 41.52500 26.04800
C  41.58800 43.85100 28.67000
C  42.67900 39.14800 28.26700
C  43.09500 39.72800 23.41400
C  41.33800 44.26600 23.86600
N  42.12300 41.52100 28.27300
C  41.76600 42.53600 29.14800
C  41.71900 41.99600 30.55600
C  42.04100 40.43500 30.38900
C  42.28900 40.37500 28.86100
C  43.26500 39.94400 31.28500
C  40.29500 42.26100 31.21000
C  40.09500 41.73200 32.60800
H  39.73800 42.91600 33.56700
N  42.61300 39.54900 25.82400
C  42.88700 38.73700 26.86200
C  43.42300 37.50900 26.36700
C  43.53200 37.65900 24.94900
C  43.09300 39.03800 24.61600
C  43.80500 36.34000 27.27900
C  44.15100 36.73900 23.90400
O  44.14500 37.02400 22.73900
C  44.80100 35.46500 24.42900
N  42.17600 41.95300 23.89900
C  42.55900 40.99200 23.07300
C  42.18400 41.46500 21.55500
C  41.34300 42.78900 21.79000
C  41.57800 42.99600 23.28200
C  43.47600 41.67200 20.71400
C  39.85500 42.49500 21.43200
C  39.02000 41.42500 22.25600
N  41.41700 43.53400 26.19300
C  41.21100 44.55300 25.24100
C  40.80600 45.75000 25.81100
C  41.01500 45.56000 27.15200
C  41.44300 44.22200 27.32300
C  40.34400 47.02600 25.08600
C  40.83600 46.19200 28.42900
O  40.39800 47.27100 28.79400
C  41.17400 45.09800 29.48300
C  42.16300 45.59000 30.59500
O  43.36700 45.78100 30.41400
O  41.54700 45.75500 31.81600
C  42.39200 45.96200 32.96200
H  42.86200 38.30000 28.93100
H  43.49600 39.19800 22.54800
H  41.03700 44.97100 23.08800
H  42.41800 42.56500 31.17000
H  41.18400 39.84900 30.72000
H  43.14900 38.93000 31.66500
H  43.41800 40.65600 32.09600
H  44.09700 40.01800 30.58400
H  39.51800 41.95800 30.50700
H  40.12800 43.33300 31.31500
H  41.06500 41.40800 32.98700
H  39.31400 40.99400 32.79200
H  43.41900 36.43400 28.29400
H  44.89300 36.29100 27.31400
H  43.45600 35.34000 27.02300
H  44.01000 34.80500 24.78400
H  45.36300 35.64800 25.34500
H  45.43000 35.07700 23.62800
H  41.47700 40.78800 21.07600
H  41.62900 43.65100 21.18800
H  43.35200 41.39300 19.66800
H  44.31400 41.11600 21.13500
H  43.80500 42.70000 20.86600
H  39.77900 42.16800 20.39500
H  39.50900 43.52600 21.50700
H  38.13000 41.93700 22.62100
H  39.61800 40.99100 23.05700
H  38.67000 40.62800 21.60000
H  41.12200 47.71400 24.75700
H  39.74500 47.58200 25.80800
H  39.81500 46.71300 24.18600
H  40.15900 44.97700 29.86100
H  42.34500 45.02700 33.51900
H  42.00900 46.73500 33.62900
H  43.38100 46.29600 32.64900
Mg 17.03600 52.81600 27.10400
C  18.86500 50.85800 29.46000
C  14.63800 53.34900 29.58900
C  14.85800 53.74100 24.70100
C  19.19800 51.49100 24.64000
N  16.70200 52.04200 29.20200
C  17.68900 51.45300 29.96100
C  17.48700 51.68600 31.46300
C  15.93900 52.18700 31.51800
C  15.65200 52.51100 29.99400
C  14.88100 51.16600 31.92900
C  18.53200 52.81700 31.98000
C  19.33000 52.38200 33.22600
H  18.51900 51.56200 34.23500
N  15.12400 53.66600 27.16900
C  14.29200 53.75900 28.30100
C  13.06600 54.46900 27.87500
C  13.11500 54.61700 26.45900
C  14.38400 53.93400 26.06400
C  11.95100 54.78100 28.85900
C  12.07600 55.26600 25.53700
O  12.20800 55.14700 24.32800
C  10.97500 55.99000 26.10700
N  16.94400 52.44300 24.97700
C  15.97600 53.10000 24.18200
C  16.33400 53.15700 22.71400
C  17.81700 52.61200 22.73900
C  18.07900 52.25200 24.21900
C  15.16100 52.30400 22.05000
C  18.82800 53.68300 22.32100
C  19.66300 53.34200 21.11900
N  18.78000 51.54900 27.05300
C  19.50600 51.09600 25.97900
C  20.56300 50.26600 26.36400
C  20.45500 50.20800 27.73900
C  19.25800 50.92300 28.06900
C  21.68400 49.56000 25.61400
C  21.04200 49.64800 28.98900
O  22.01300 48.92600 29.18800
C  20.10400 50.22300 30.12100
C  19.79900 49.10800 31.09300
O  18.86300 48.30600 31.00300
O  20.71400 49.21400 32.11900
C  20.56600 48.22500 33.20600
H  13.87100 53.51700 30.34800
H  14.30600 54.09700 23.82900
H  19.92700 51.01900 23.97700
H  17.72300 50.78700 32.03200
H  15.86100 53.07500 32.14500
H  14.30300 51.42900 32.81500
H  15.20900 50.14200 32.10800
H  14.08800 51.01700 31.19600
H  18.04700 53.76200 32.22500
H  19.22300 52.84700 31.13700
H  19.77200 53.12200 33.89300
H  20.13000 51.71700 32.90200
H  11.78700 55.83000 28.61100
H  12.17000 54.68000 29.92200
H  10.97800 54.32600 28.67300
H  10.42300 55.41000 26.84700
H  10.28100 56.19100 25.29200
H  11.40700 56.86200 26.59800
H  16.18900 54.20100 22.43400
H  17.97700 51.67700 22.20300
H  14.79000 51.56100 22.75600
H  15.48400 51.81800 21.13000
H  14.27900 52.91700 21.86400
H  19.66300 53.77600 23.01600
H  18.40800 54.67300 22.14700
H  20.71400 53.25100 21.39200
H  19.65800 54.02300 20.26700
H  19.33700 52.40800 20.66000
H  21.48800 49.41300 24.55200
H  22.03300 48.75600 26.26100
H  22.46400 50.31400 25.72100
H  20.68800 51.00600 30.60500
H  19.55900 48.28100 33.61800
H  21.30700 48.50100 33.95600
H  20.60600 47.19200 32.86000

