158

Mg -11.70600 38.73000 42.32600
C  -9.45100 36.17400 41.25800
C  -9.87500 40.91900 40.36500
C  -14.08200 40.99600 43.00600
C  -13.81800 36.22000 43.35700
N  -9.92200 38.54500 40.99100
C  -9.10300 37.43600 40.71600
C  -7.98400 37.72200 39.77200
C  -8.05800 39.28000 39.72500
C  -9.39300 39.59000 40.32800
C  -6.94200 40.29300 40.08100
C  -8.18800 36.89900 38.41700
C  -7.12400 35.76800 38.13500
H  -6.25500 35.93400 36.91000
N  -11.87000 40.73300 41.87300
C  -11.01400 41.42100 41.01400
C  -11.49300 42.76500 40.98000
C  -12.59300 42.88600 41.85800
C  -12.86300 41.51500 42.35000
C  -10.89800 43.73900 40.06600
C  -13.33500 44.20400 42.10300
O  -12.95200 45.27600 41.62900
C  -14.57100 44.28900 42.97500
N  -13.65200 38.58700 43.16600
C  -14.39200 39.67000 43.37900
C  -15.80800 39.36800 43.67800
C  -15.80600 37.78100 43.51600
C  -14.34200 37.47700 43.35400
C  -16.40200 40.03300 45.00000
C  -16.71300 37.25400 42.35100
C  -18.19700 37.06900 42.72400
N  -11.66700 36.63700 42.46800
C  -12.57900 35.73300 42.91400
C  -12.07700 34.40000 42.98400
C  -10.80900 34.53000 42.32900
C  -10.59900 35.90200 42.08100
C  -12.67100 33.22600 43.65800
C  -9.64000 33.83900 41.89300
O  -9.37100 32.65800 41.92000
C  -8.69500 34.84400 41.21900
C  -7.32100 34.80200 41.82300
O  -6.43100 34.00300 41.69200
O  -7.18900 35.91400 42.69500
C  -6.03000 35.91300 43.56300
H  -9.28800 41.66100 39.81900
H  -14.88900 41.70500 43.20200
H  -14.59100 35.53500 43.71100
H  -7.07600 37.29500 40.19800
H  -8.15300 39.48800 38.65900
H  -6.13600 39.66100 40.45400
H  -7.31600 41.08800 40.72600
H  -6.73700 40.69900 39.09100
H  -8.20600 37.59400 37.57700
H  -9.14100 36.37200 38.45800
H  -7.65100 34.82400 37.99500
H  -6.53500 35.65200 39.04500
H  -10.29200 43.31200 39.26600
H  -10.15600 44.28400 40.64900
H  -11.52300 44.46400 39.54400
H  -15.34800 43.79500 42.39200
H  -14.71000 45.34700 43.20000
H  -14.49200 43.79700 43.94400
H  -16.42200 39.76300 42.86900
H  -16.15500 37.31100 44.43600
H  -16.94000 39.23300 45.50900
H  -17.08500 40.83000 44.70700
H  -15.52400 40.27500 45.59900
H  -16.23900 36.41400 41.84400
H  -16.63900 37.96200 41.52600
H  -18.57800 37.79300 43.44400
H  -18.34100 36.02900 43.01600
H  -18.78200 37.27000 41.82600
H  -13.35000 32.65600 43.02400
H  -13.23700 33.68500 44.46900
H  -11.83800 32.58400 43.94300
H  -8.51000 34.35400 40.26200
H  -6.28700 36.48700 44.45300
H  -5.19200 36.47100 43.14400
H  -5.54400 35.02400 43.96300
Mg -1.44000 34.46600 27.44100
C  -3.19400 32.56100 29.82200
C  -0.01600 36.21300 29.91200
C  -0.13900 36.40600 25.05000
C  -3.23200 32.70400 25.03100
N  -1.70600 34.41200 29.55100
C  -2.37500 33.57800 30.37500
C  -2.16900 33.89000 31.88700
C  -1.31000 35.18400 31.80100
C  -1.01900 35.31500 30.32300
C  -2.00900 36.38900 32.49900
C  -1.38700 32.70800 32.63800
C  -2.12900 32.03700 33.91400
H  -1.47600 32.08400 35.28200
N  -0.15300 36.07300 27.50000
C  0.36700 36.60100 28.63100
C  1.38000 37.52200 28.25600
C  1.41800 37.62200 26.79500
C  0.30800 36.69800 26.38600
C  2.28800 38.14500 29.21700
C  2.26200 38.46900 25.87100
O  2.29300 38.33200 24.63800
C  3.17900 39.44200 26.44400
N  -1.91300 34.76100 25.31800
C  -1.10800 35.57600 24.58600
C  -1.51500 35.41900 23.04400
C  -2.35000 34.06500 23.07800
C  -2.54200 33.86100 24.55300
C  -2.20900 36.60900 22.42300
C  -1.54300 32.91600 22.48400
C  -1.75700 32.58600 20.99000
N  -2.88600 32.88700 27.40800
C  -3.39000 32.25000 26.35300
C  -4.17600 31.12700 26.80800
C  -4.14600 31.25700 28.18100
C  -3.27700 32.28600 28.47800
C  -4.89800 30.16800 25.95000
C  -4.64900 30.63800 29.33500
O  -5.33500 29.58700 29.43200
C  -4.02400 31.49400 30.48300
C  -5.13600 32.12900 31.22800
O  -5.67500 33.20300 30.96800
O  -5.43400 31.43300 32.40500
C  -6.39500 32.03600 33.31700
H  0.52300 36.69000 30.73300
H  0.31400 36.94200 24.21300
H  -3.54300 32.00500 24.25100
H  -3.15300 34.07200 32.32000
H  -0.36100 35.11600 32.33300
H  -3.01500 36.10300 32.80400
H  -2.11200 37.35300 31.99900
H  -1.49300 36.63900 33.42600
H  -0.47800 33.15200 33.04200
H  -1.02200 32.02100 31.87400
H  -2.22700 30.96700 33.73200
H  -3.19100 32.27000 33.99200
H  1.83600 38.08200 30.20700
H  2.41400 39.21100 29.02700
H  3.23500 37.60600 29.20300
H  2.57300 40.09500 27.07200
H  3.57200 39.97700 25.57900
H  4.04700 38.97100 26.90500
H  -0.65200 35.20200 22.41400
H  -3.35900 34.17800 22.68100
H  -2.15200 37.50400 23.04300
H  -3.27700 36.39600 22.39900
H  -1.86300 36.90500 21.43300
H  -1.71200 31.96300 22.98500
H  -0.47900 33.14300 22.55100
H  -2.53300 33.24500 20.59900
H  -2.11900 31.57000 20.83200
H  -0.79500 32.81000 20.53000
H  -5.32200 29.40300 26.60100
H  -4.26400 29.61900 25.25300
H  -5.70700 30.56600 25.33800
H  -3.50000 30.83200 31.17300
H  -6.58800 33.10000 33.17900
H  -5.87700 32.00000 34.27500
H  -7.34000 31.50100 33.21900

