158

Mg 39.85600 10.42300 29.91900
C  42.02500 11.32100 32.51700
C  37.78400 9.04900 32.36500
C  38.09400 9.14200 27.45800
C  42.55700 11.12000 27.69400
N  39.90500 10.29200 32.19100
C  40.80800 10.80100 32.99700
C  40.45400 10.62200 34.45800
C  39.16300 9.71600 34.35400
C  38.93700 9.67600 32.87500
C  39.30300 8.24200 34.86400
C  40.27900 11.98000 35.28600
C  40.01500 11.62000 36.73400
H  40.03400 12.78500 37.63900
N  38.07400 9.42600 29.89500
C  37.35100 8.96800 30.99300
C  36.21300 8.33900 30.49000
C  36.20500 8.41700 29.03800
C  37.51400 8.99100 28.73400
C  35.08600 7.77300 31.37300
C  35.21300 7.92800 28.09000
O  35.37900 8.00600 26.86100
C  33.87700 7.37800 28.48000
N  40.27300 10.15300 27.83100
C  39.35800 9.64000 27.03900
C  39.91100 9.46700 25.58000
C  41.21400 10.38400 25.67300
C  41.31600 10.64000 27.20000
C  40.23500 8.08400 24.89800
C  41.09100 11.63900 24.77300
C  40.43900 12.97100 25.33700
N  41.86700 11.03600 29.97600
C  42.84300 11.28200 29.07300
C  44.05600 11.73600 29.65000
C  43.73500 11.85900 30.98900
C  42.38200 11.41400 31.15200
C  45.37400 11.92900 28.93400
C  44.24600 12.28500 32.28800
O  45.36700 12.72300 32.51400
C  43.16900 12.01300 33.32200
C  43.71100 11.13200 34.38600
O  44.26100 10.06300 34.29100
O  43.43900 11.66600 35.60200
C  43.97300 11.02900 36.81800
H  37.17300 8.61700 33.16000
H  37.50800 8.82700 26.59100
H  43.38000 11.25200 26.98800
H  41.27600 10.15600 35.00100
H  38.25400 10.01500 34.87600
H  39.21500 7.47900 34.09000
H  38.51100 8.06000 35.59000
H  40.19800 8.07900 35.46400
H  39.36700 12.37200 34.83700
H  41.16800 12.61200 35.27700
H  40.82600 10.97300 37.06700
H  39.10900 11.01500 36.76600
H  35.36100 7.76900 32.42700
H  34.86100 6.78000 30.98200
H  34.19200 8.35800 31.15400
H  33.25400 8.07200 29.04300
H  34.05000 6.45800 29.03800
H  33.35200 7.01300 27.59700
H  39.16300 9.93000 24.93700
H  42.08700 9.82200 25.34200
H  40.24400 7.36000 25.71400
H  41.22300 8.13200 24.44000
H  39.43200 7.96600 24.17100
H  40.44200 11.27400 23.97700
H  42.08000 11.86600 24.37700
H  41.18600 13.75700 25.23000
H  40.04300 12.90900 26.35000
H  39.52500 13.26300 24.81800
H  45.29400 12.79900 28.28200
H  45.58100 11.05100 28.32200
H  46.16300 12.16300 29.64900
H  42.77700 12.94400 33.73000
H  45.00600 11.37600 36.79500
H  43.94500 9.93900 36.81700
H  43.44900 11.46700 37.66700
Mg 16.90800 52.34400 26.52600
C  19.14200 51.13400 28.90700
C  14.57600 52.93700 28.86100
C  14.87800 53.50500 24.04000
C  19.21900 51.27500 24.05200
N  16.97200 52.10100 28.66200
C  17.96800 51.66100 29.44800
C  17.57300 51.80400 30.89700
C  16.04400 52.02100 30.84200
C  15.80100 52.33800 29.37100
C  15.19400 50.83900 31.46900
C  18.35900 52.95800 31.63100
C  18.52400 52.72500 33.18000
H  17.44900 51.76700 33.82500
N  14.99100 53.10300 26.44100
C  14.23400 53.36200 27.56700
C  13.07300 54.13300 27.20300
C  13.08700 54.24500 25.82100
C  14.37900 53.63400 25.34700
C  12.07200 54.66000 28.31000
C  12.05300 54.89400 24.90300
O  12.18900 54.95700 23.71500
C  10.88400 55.51000 25.60700
N  16.99600 52.34000 24.35000
C  16.06300 52.89900 23.52800
C  16.45200 52.68800 22.01300
C  17.93400 52.32000 22.10000
C  18.13200 52.03200 23.60700
C  15.49300 51.66300 21.40700
C  19.11300 53.30600 21.60500
C  19.80300 54.23100 22.60200
N  18.74100 51.35700 26.45800
C  19.51600 50.97700 25.40800
C  20.71000 50.22700 25.86500
C  20.57900 50.34100 27.23500
C  19.37800 51.05100 27.54900
C  21.91700 49.68600 25.07200
C  21.19800 49.98300 28.42700
O  22.26500 49.45200 28.63400
C  20.34900 50.50600 29.55600
C  19.96100 49.37100 30.40500
O  19.28800 48.34700 30.03600
O  20.50600 49.48200 31.66800
C  20.35600 48.33000 32.54800
H  13.92900 53.20300 29.70000
H  14.25200 53.86300 23.21900
H  20.08500 51.01000 23.44000
H  17.80200 50.86000 31.39000
H  15.73700 52.93900 31.34300
H  14.40600 51.16400 32.14800
H  15.79800 50.06200 31.93600
H  14.73200 50.27600 30.65800
H  17.85300 53.92400 31.63400
H  19.36500 52.93900 31.21300
H  18.41100 53.69500 33.66600
H  19.48600 52.28400 33.44100
H  11.74500 55.68700 28.14600
H  12.59100 54.64600 29.26800
H  11.26600 53.95100 28.50000
H  11.02600 56.43900 26.15900
H  10.40200 54.72300 26.18700
H  10.13700 55.76700 24.85600
H  16.33000 53.67400 21.56500
H  18.12600 51.35500 21.63100
H  16.03800 50.93700 20.80300
H  14.89900 52.24600 20.70400
H  14.80300 51.19900 22.11100
H  18.62000 53.89900 20.83500
H  19.84800 52.64700 21.14200
H  20.88900 54.22700 22.51000
H  19.51400 54.03500 23.63500
H  19.46200 55.24100 22.37600
H  21.55400 49.24400 24.14400
H  22.29700 48.88600 25.70800
H  22.60200 50.51600 24.89900
H  20.89000 51.24900 30.14300
H  20.58100 47.38600 32.05200
H  19.30100 48.22500 32.79900
H  20.90400 48.47700 33.47900

