158

Mg 29.31600 58.16100 40.94200
C  26.31500 56.77200 39.75000
C  31.06200 55.45100 39.58500
C  32.10600 59.93200 41.27900
C  27.42700 61.26200 41.39000
N  28.73900 56.37700 39.75700
C  27.43700 55.99100 39.36500
C  27.39100 54.65200 38.66600
C  28.92400 54.16600 38.88100
C  29.61500 55.38000 39.50700
C  29.05200 53.02100 39.93600
C  26.99700 54.79100 37.19800
C  26.03800 53.79500 36.67700
H  26.25400 53.48100 35.18800
N  31.32000 57.74100 40.48900
C  31.84100 56.53300 39.99700
C  33.33200 56.65000 40.07900
C  33.66500 57.94200 40.57900
C  32.34900 58.59300 40.87500
C  34.25700 55.45100 39.74600
C  35.08900 58.51000 40.77200
O  36.05200 57.78900 40.50300
C  35.35100 59.90900 41.32000
N  29.74000 60.31400 41.29800
C  31.02000 60.73600 41.44200
C  31.04100 62.25900 41.85200
C  29.56700 62.69600 41.76200
C  28.83800 61.35400 41.56800
C  31.70500 62.69300 43.25800
C  29.22600 63.80100 40.73400
C  28.71700 65.11400 41.37100
N  27.33100 58.84200 40.87900
C  26.71800 60.08500 41.02200
C  25.32200 60.00300 40.83500
C  25.08500 58.66500 40.43700
C  26.39700 58.04700 40.37800
C  24.34200 61.14300 41.04900
C  24.08900 57.68400 40.09600
O  22.87400 57.70400 40.09700
C  24.86600 56.44200 39.57100
C  24.56100 55.24800 40.39700
O  24.78300 55.19100 41.61100
O  24.01200 54.25200 39.63800
C  23.52100 52.99600 40.32000
H  31.64600 54.56400 39.33200
H  32.95100 60.60400 41.44600
H  26.87600 62.20500 41.35200
H  26.61200 54.02200 39.09500
H  29.51600 53.95600 37.99000
H  28.26900 52.28300 39.76100
H  28.99100 53.49600 40.91500
H  29.95100 52.44200 39.72500
H  27.94400 54.83200 36.66000
H  26.55200 55.74800 36.92500
H  24.99200 54.07700 36.79700
H  26.22700 52.81200 37.10800
H  34.86800 55.64100 38.86400
H  33.69900 54.51800 39.66500
H  34.90200 55.29900 40.61100
H  35.09800 60.74500 40.66700
H  36.42600 59.98600 41.48000
H  34.92100 59.98400 42.31900
H  31.59400 62.80900 41.09100
H  29.22000 63.07700 42.72300
H  32.72200 62.31400 43.35900
H  31.15100 62.35000 44.13200
H  31.79400 63.77800 43.30600
H  28.64200 63.42100 39.89600
H  30.11400 64.16900 40.22000
H  29.42500 65.27400 42.18500
H  27.70300 64.99800 41.75400
H  28.71700 65.97900 40.70800
H  23.31200 60.79000 40.99300
H  24.48200 61.88600 40.26300
H  24.44400 61.48500 42.07900
H  24.54600 56.19900 38.55800
H  22.54200 53.23800 40.73300
H  24.12900 52.82600 41.20900
H  23.44400 52.14500 39.64300
Mg 15.89000 51.08800 25.43900
C  17.62200 49.96300 28.33000
C  13.24300 52.05600 27.57000
C  14.30400 52.12700 22.79100
C  18.65500 50.18400 23.63500
N  15.57500 50.99400 27.74900
C  16.48400 50.61300 28.70700
C  15.95000 50.94700 30.05400
C  14.38400 51.23500 29.76400
C  14.42900 51.49100 28.26600
C  13.47900 49.99300 30.10200
C  16.67300 52.32700 30.54100
C  16.93400 52.49700 32.07000
H  16.14300 51.49800 32.91000
N  14.03600 52.04000 25.23300
C  13.07300 52.28400 26.23700
C  11.86400 52.85600 25.49600
C  12.14400 52.84800 24.10100
C  13.57400 52.32800 24.02400
C  10.59000 53.10500 26.30600
C  11.29000 53.34000 22.94700
O  11.78800 53.44400 21.84300
C  9.91500 53.71600 23.23200
N  16.33200 50.94600 23.54500
C  15.51700 51.47900 22.60800
C  16.21800 51.57100 21.17600
C  17.65800 51.07400 21.57700
C  17.58100 50.80300 22.99300
C  15.49400 50.68600 20.15900
C  18.77600 52.05900 21.13300
C  19.07000 52.12600 19.55000
N  17.70300 50.14300 25.81500
C  18.72100 49.82900 24.94500
C  19.81900 49.22300 25.66500
C  19.47600 49.26700 27.05500
C  18.10200 49.70700 27.05000
C  21.10100 48.54800 25.08000
C  19.82200 48.80300 28.41200
O  20.79600 48.27100 28.82800
C  18.65200 49.35500 29.26800
C  18.07300 48.36300 30.28400
O  17.02800 47.73300 30.13000
O  18.86600 48.37800 31.35100
C  18.46700 47.49700 32.49000
H  12.50600 52.31900 28.33100
H  13.68700 52.28800 21.90400
H  19.58200 50.09500 23.06600
H  15.93700 50.17900 30.82800
H  13.92000 52.04000 30.33500
H  13.07900 50.12700 31.10700
H  14.02400 49.05000 30.15600
H  12.67400 49.83000 29.38500
H  15.98900 53.12200 30.24400
H  17.58300 52.41700 29.94700
H  16.51500 53.47100 32.32300
H  17.98900 52.29500 32.25500
H  9.74900 52.61700 25.81300
H  10.36900 54.16600 26.42300
H  10.68300 52.72900 27.32500
H  9.28800 52.83800 23.38300
H  9.43900 53.98100 22.28800
H  9.75000 54.51800 23.95200
H  16.24600 52.62900 20.91400
H  17.98200 50.15200 21.09500
H  16.17600 49.89500 19.84700
H  15.30200 51.34900 19.31600
H  14.53000 50.24000 20.40600
H  19.75300 51.87200 21.57900
H  18.45400 53.08000 21.33800
H  20.15600 52.18500 19.47500
H  18.56000 53.01400 19.17500
H  18.76400 51.22000 19.02600
H  21.73500 49.32200 24.64600
H  20.71700 47.91900 24.27700
H  21.55700 47.91600 25.84200
H  19.05100 50.24400 29.75700
H  19.19400 46.75100 32.81000
H  17.70100 46.75100 32.27700
H  18.14800 48.11800 33.32700

