158

Mg 24.98600 -5.14700 46.33700
C  27.26700 -2.83200 44.69100
C  22.75200 -4.49200 43.95300
C  23.40500 -7.86500 47.32200
C  27.83900 -6.04100 48.25800
N  25.06100 -3.82500 44.55300
C  25.98900 -2.88800 44.18700
C  25.44100 -2.03600 42.97600
C  23.93800 -2.41900 43.02800
C  23.89800 -3.65800 43.87300
C  22.92000 -1.36000 43.55500
C  26.07500 -2.43000 41.63900
C  26.34600 -1.31500 40.51800
H  25.79400 -1.57200 39.08600
N  23.18900 -5.95300 45.90200
C  22.42400 -5.50900 44.84800
C  21.23400 -6.27700 44.84900
C  21.32500 -7.22900 45.94400
C  22.67200 -7.10500 46.44500
C  20.00800 -6.00100 43.94800
C  20.31100 -8.21500 46.50500
O  19.24900 -8.43700 45.88500
C  20.57500 -9.15500 47.70900
N  25.56200 -6.75400 47.53600
C  24.73000 -7.76400 47.85200
C  25.35700 -8.92100 48.58000
C  26.81200 -8.24300 48.85600
C  26.76200 -6.94500 48.17300
C  24.49800 -9.42800 49.74600
C  28.01900 -9.08100 48.46200
C  28.18000 -10.46800 49.20200
N  27.06900 -4.48900 46.63000
C  27.99600 -4.84700 47.53800
C  29.21200 -4.06200 47.42500
C  28.94700 -3.27500 46.31900
C  27.64600 -3.59600 45.83000
C  30.56400 -4.25200 48.11700
C  29.55200 -2.32200 45.40800
O  30.69400 -1.87600 45.39900
C  28.48900 -2.03000 44.30800
C  28.11400 -0.63700 44.40800
O  27.83200 0.07000 45.35600
O  28.23500 -0.08400 43.04900
C  28.09800 1.42400 42.87500
H  22.05200 -4.25000 43.15000
H  23.00200 -8.83400 47.62300
H  28.74400 -6.37200 48.77000
H  25.63100 -0.98000 43.17000
H  23.66300 -2.77000 42.03300
H  23.39500 -0.38200 43.63400
H  22.57800 -1.59400 44.56400
H  22.04200 -1.32200 42.91000
H  25.53000 -3.25300 41.17600
H  27.03700 -2.90400 41.83300
H  27.39900 -1.07200 40.37100
H  25.89300 -0.42500 40.95400
H  19.39100 -5.22900 44.40800
H  19.44600 -6.92800 43.83500
H  20.42800 -5.73000 42.98000
H  20.89700 -8.58100 48.57800
H  21.25500 -9.91700 47.32900
H  19.60800 -9.61600 47.91100
H  25.59100 -9.73300 47.89100
H  26.80000 -8.18900 49.94500
H  23.41600 -9.29600 49.72900
H  24.94600 -9.17800 50.70800
H  24.47000 -10.51800 49.74700
H  28.92800 -8.58700 48.80600
H  28.13700 -9.46000 47.44700
H  28.03700 -11.27100 48.47900
H  27.48700 -10.48100 50.04400
H  29.21400 -10.52000 49.54200
H  30.93300 -5.21200 47.75500
H  30.40500 -4.30400 49.19400
H  31.22300 -3.41300 47.89100
H  28.81300 -2.40600 43.33700
H  28.62600 1.97900 43.65100
H  27.02900 1.63400 42.84500
H  28.55700 1.68500 41.92200
Mg 26.91700 50.70100 27.16200
C  24.68800 51.78300 29.74800
C  28.96600 49.48200 29.77800
C  28.93000 49.52100 24.81100
C  24.90700 52.05600 24.75700
N  26.88800 50.77500 29.58700
C  25.78800 51.13400 30.30900
C  25.96300 50.65400 31.85000
C  27.38200 49.96400 31.76500
C  27.79300 50.09000 30.27600
C  28.54400 50.69400 32.56100
C  24.80000 49.69000 32.37900
C  24.27200 50.11200 33.78400
H  25.22900 50.43800 34.96100
N  28.63800 49.73700 27.24600
C  29.35000 49.36400 28.38800
C  30.64600 48.83400 27.95100
C  30.65600 48.83500 26.58200
C  29.36700 49.37500 26.16700
C  31.68400 48.49600 28.95400
C  31.84000 48.34700 25.61900
O  31.70900 48.48400 24.39900
C  32.97800 47.62100 26.15500
N  26.96200 50.85800 25.05200
C  27.82500 50.16300 24.29400
C  27.54300 50.34800 22.81000
C  26.20100 51.03600 22.78800
C  25.97000 51.36100 24.25400
C  28.66300 51.09900 22.11800
C  25.03400 50.21400 22.22600
C  24.79300 48.79300 22.77900
N  25.19300 51.73000 27.23600
C  24.48300 52.16000 26.14900
C  23.25100 52.79700 26.63100
C  23.27400 52.57900 28.02500
C  24.51500 52.04000 28.34600
C  22.08700 53.34700 25.78400
C  22.51700 52.84300 29.27700
O  21.42500 53.36100 29.54100
C  23.41900 52.26400 30.40300
C  23.64400 53.38100 31.31100
O  24.27900 54.37500 30.94000
O  23.03700 53.14400 32.54400
C  23.08600 54.17900 33.58600
H  29.67300 49.12700 30.53000
H  29.57400 48.96700 24.12300
H  24.25700 52.56400 24.04100
H  26.12400 51.55700 32.43900
H  27.34400 48.91000 32.03800
H  28.76200 50.15500 33.48300
H  28.24200 51.71900 32.78000
H  29.49600 50.80800 32.04300
H  25.08600 48.64700 32.51400
H  23.86700 49.59900 31.82200
H  23.63500 49.28400 34.09700
H  23.51000 50.88300 33.67400
H  31.51500 48.54100 30.03000
H  32.51000 49.17600 28.74400
H  32.03400 47.46500 28.92400
H  33.58600 48.22300 26.83000
H  33.50900 47.47400 25.21400
H  32.75100 46.71500 26.71600
H  27.51000 49.33200 22.41500
H  26.25400 51.97400 22.23700
H  28.85500 50.49800 21.22900
H  29.53300 51.16700 22.77100
H  28.37000 52.05500 21.68500
H  25.03400 50.15100 21.13800
H  24.05500 50.56900 22.54900
H  25.04200 48.69300 23.83600
H  25.49200 48.17600 22.21400
H  23.80900 48.37200 22.57000
H  21.80500 52.43400 25.25900
H  22.40300 54.18200 25.15900
H  21.25900 53.64700 26.42500
H  22.87700 51.44300 30.87300
H  24.13200 54.25700 33.88200
H  22.43800 53.91700 34.42200
H  22.67900 55.14300 33.27900

