158

Mg -1.94000 16.82200 27.40600
C  -2.55100 14.76800 30.26200
C  -2.15500 19.41300 29.34100
C  -1.78800 18.53700 24.52400
C  -1.75500 13.76200 25.52400
N  -2.15000 16.92900 29.56700
C  -2.24800 16.01700 30.58600
C  -2.11700 16.73300 31.98500
C  -1.97000 18.27300 31.57600
C  -2.07000 18.19500 30.04600
C  -2.83200 19.26800 32.33200
C  -0.92200 16.33800 32.94100
C  -0.41300 17.29700 34.06600
H  -0.37700 16.84200 35.57700
N  -2.03600 18.77700 26.99900
C  -2.14900 19.77100 27.94500
C  -2.12400 21.07200 27.29600
C  -2.10500 20.75200 25.91800
C  -1.97000 19.26200 25.74300
C  -2.17500 22.40300 27.95300
C  -2.13200 21.78600 24.80600
O  -2.19200 21.52100 23.63700
C  -2.20900 23.27200 25.05200
N  -1.72900 16.19300 25.30600
C  -1.69800 17.15700 24.34900
C  -1.71700 16.52000 22.94800
C  -1.36300 15.02700 23.27300
C  -1.49800 14.96100 24.81700
C  -3.12400 16.70300 22.23500
C  0.13600 14.81500 22.79500
C  1.18300 15.84100 23.26000
N  -2.22500 14.68800 27.72000
C  -2.09500 13.59000 26.88000
C  -2.53500 12.44600 27.60600
C  -2.65800 12.83100 28.96200
C  -2.41800 14.21700 28.95100
C  -2.71300 11.07200 26.99500
C  -2.91100 12.33800 30.27600
O  -3.17300 11.26800 30.78100
C  -2.69900 13.59900 31.23800
C  -1.37000 13.33100 31.84800
O  -0.35700 13.27700 31.15400
O  -1.39700 12.93800 33.22100
C  -0.16300 12.58400 33.92200
H  -2.17000 20.32600 29.93900
H  -1.79900 19.14800 23.61900
H  -1.44800 12.85900 24.99200
H  -3.03400 16.56600 32.54900
H  -0.90800 18.51400 31.62000
H  -3.71900 19.69100 31.86000
H  -2.20300 20.07500 32.70900
H  -3.21900 18.85500 33.26300
H  -0.02500 16.14900 32.35200
H  -1.21900 15.42200 33.45100
H  -1.07200 18.15800 33.94900
H  0.60900 17.49800 33.74200
H  -1.38500 23.06400 27.59500
H  -2.16100 22.28800 29.03700
H  -3.09900 22.90100 27.66000
H  -2.08100 23.77600 24.09400
H  -1.49900 23.78800 25.69800
H  -3.25300 23.51900 25.24400
H  -0.95900 16.93200 22.28100
H  -1.96700 14.25700 22.79200
H  -3.82000 17.23400 22.88400
H  -3.54100 15.75800 21.88800
H  -3.02100 17.36500 21.37600
H  0.06400 14.87000 21.70900
H  0.51600 13.80400 22.94400
H  1.55300 16.24800 22.31900
H  1.95500 15.31700 23.82300
H  0.91500 16.67100 23.91300
H  -3.70100 10.96100 26.54800
H  -2.60700 10.36800 27.82100
H  -1.97200 10.90800 26.21200
H  -3.48200 13.66700 31.99300
H  0.73800 12.75700 33.33300
H  -0.16600 11.50900 34.10200
H  -0.09400 13.02700 34.91500
Mg 1.05400 41.84100 25.78300
C  2.52300 42.15400 28.99200
C  -1.78900 40.72100 27.29800
C  -0.11400 41.06700 22.78800
C  4.07100 42.97800 24.44200
N  0.48000 41.54300 27.88900
C  1.19500 41.74300 29.05400
C  0.30300 41.77500 30.29900
C  -1.06200 41.12900 29.81800
C  -0.80900 41.10600 28.24400
C  -1.46900 39.75800 30.49600
C  0.16100 43.15500 30.90800
C  0.42700 43.30800 32.40000
H  0.03600 42.10000 33.20200
N  -0.76400 41.03800 25.10600
C  -1.76900 40.61500 25.87900
C  -2.81500 40.11500 24.98500
C  -2.35700 40.34600 23.61300
C  -1.02400 40.88500 23.79900
C  -4.08300 39.29900 25.41600
C  -2.98500 39.96600 22.36800
O  -2.42800 40.00100 21.29300
C  -4.50500 39.62200 22.32900
N  1.83100 42.01800 23.93200
C  1.20300 41.43300 22.88900
C  2.00100 41.44200 21.59100
C  3.19100 42.50000 21.97700
C  3.06900 42.52100 23.57100
C  2.60600 40.02300 21.22900
C  3.00300 43.89400 21.31000
C  4.24300 44.52300 20.63800
N  2.88100 42.50300 26.50600
C  4.02200 42.89400 25.83500
C  5.09700 43.17100 26.75900
C  4.50900 42.90800 27.97400
C  3.20700 42.51600 27.81000
C  6.56900 43.53600 26.49200
C  4.81900 42.75200 29.40700
O  5.90200 42.83800 29.98200
C  3.49900 42.39200 30.10900
C  3.70000 41.15900 30.97200
O  3.31800 40.01800 30.55100
O  4.06500 41.46800 32.26900
C  4.22900 40.32100 33.25800
H  -2.66900 40.29800 27.78800
H  -0.44600 40.90800 21.76000
H  4.85800 43.45100 23.85000
H  0.84000 41.06100 30.92300
H  -1.92600 41.78300 29.93700
H  -1.20600 38.89000 29.89100
H  -2.54600 39.65100 30.62600
H  -1.04300 39.43000 31.44400
H  -0.84200 43.57000 30.80800
H  0.92100 43.73100 30.38000
H  -0.11300 44.18600 32.75500
H  1.51100 43.40700 32.44700
H  -4.01500 38.94700 26.44600
H  -4.23400 38.38700 24.83800
H  -4.91900 39.90200 25.06200
H  -4.71800 38.56800 22.50400
H  -4.81700 39.89300 21.32100
H  -4.95500 40.32900 23.02700
H  1.31800 41.80700 20.82300
H  4.21500 42.15900 21.82900
H  2.65500 39.27900 22.02400
H  3.61600 40.15800 20.84200
H  2.00000 39.58200 20.43700
H  2.69000 44.66100 22.01800
H  2.25200 43.83000 20.52200
H  4.54900 45.35100 21.27700
H  4.01800 44.88400 19.63500
H  5.07700 43.82400 20.57900
H  6.82300 44.53300 26.85400
H  6.75300 43.30300 25.44300
H  7.18200 42.81300 27.03000
H  3.32500 43.25100 30.75600
H  4.17100 40.61300 34.30600
H  5.24600 39.98600 33.05300
H  3.58700 39.47500 33.01300

