158

Mg 6.58000 56.60200 42.28700
C  5.85100 53.16900 42.49800
C  9.55700 55.74900 40.82000
C  6.90300 59.79800 41.37100
C  3.60800 57.29600 43.94200
N  7.57400 54.66500 41.75600
C  7.10600 53.37300 41.90700
C  8.09500 52.38200 41.16500
C  9.47700 53.13100 41.10400
C  8.86600 54.62700 41.21100
C  10.51200 52.73700 42.24000
C  7.58900 52.09100 39.66700
C  7.78200 50.57800 39.27300
H  6.77100 50.04300 38.36100
N  8.05100 57.65600 41.20900
C  9.18500 57.15200 40.74400
C  10.00600 58.22700 40.23200
C  9.17800 59.42700 40.33300
C  7.92000 59.00000 40.94100
C  11.35000 57.93500 39.66200
C  9.66300 60.84300 39.85900
O  10.75800 60.89700 39.33300
C  8.82200 62.05400 39.94800
N  5.27500 58.23000 42.37200
C  5.74800 59.51200 42.09200
C  4.95000 60.64000 42.82000
C  4.05800 59.79100 43.78900
C  4.35300 58.36000 43.35200
C  5.80600 61.72700 43.51600
C  2.49500 60.13100 43.80300
C  1.88900 60.36300 45.22100
N  4.93600 55.50900 42.97300
C  3.78600 55.94400 43.62800
C  2.85800 54.77800 43.80000
C  3.70300 53.62400 43.42000
C  4.91300 54.15300 42.97400
C  1.58600 54.79900 44.51800
C  3.77400 52.22700 43.27600
O  2.89500 51.37700 43.48400
C  5.25400 51.88800 42.93100
C  5.26600 50.75600 41.93500
O  4.67500 50.76300 40.86900
O  6.04200 49.67900 42.35400
C  5.97000 48.40600 41.67600
H  10.57800 55.49200 40.53200
H  6.97400 60.86400 41.14900
H  2.76800 57.63600 44.55100
H  8.23500 51.50100 41.79200
H  10.07600 53.12100 40.19300
H  10.56500 53.58400 42.92400
H  11.38600 52.46000 41.65100
H  10.14500 51.93700 42.88400
H  8.25800 52.62200 38.98900
H  6.53100 52.34200 39.59200
H  7.90600 49.97700 40.17300
H  8.76100 50.50200 38.80000
H  11.19900 57.73700 38.60000
H  11.84800 57.09500 40.14700
H  11.95900 58.83900 39.65500
H  8.37500 62.11300 40.94100
H  8.13300 61.85500 39.12800
H  9.49100 62.90200 39.79900
H  4.36100 61.20300 42.09600
H  4.40200 59.85600 44.82100
H  5.74700 62.72000 43.07200
H  6.86700 61.52200 43.37600
H  5.64000 61.81600 44.59000
H  2.02400 59.23300 43.40400
H  2.35700 61.01600 43.18200
H  1.22900 61.21600 45.06400
H  2.69900 60.66400 45.88400
H  1.31900 59.48500 45.52400
H  1.67400 55.36700 45.44500
H  1.32000 53.75800 44.70200
H  0.77600 55.20400 43.91200
H  5.65500 51.44200 43.84100
H  6.15100 47.69700 42.48400
H  6.78700 48.27500 40.96600
H  4.99400 48.16300 41.25400
Mg -6.23500 24.72100 26.06800
C  -4.49100 26.21800 28.72500
C  -7.41000 22.34700 28.42400
C  -7.68700 23.13800 23.51900
C  -4.54100 26.80600 23.87300
N  -5.92500 24.31800 28.28100
C  -5.32800 25.20500 29.18700
C  -5.69600 24.87700 30.66600
C  -6.19300 23.40800 30.45800
C  -6.56800 23.34700 28.96900
C  -5.23400 22.27400 30.80700
C  -6.80200 25.86700 31.22900
C  -6.34200 26.56600 32.53200
H  -5.61400 25.78300 33.65000
N  -7.35200 22.90600 25.94100
C  -7.69000 22.12100 26.99400
C  -8.42900 20.97900 26.39000
C  -8.56900 21.15900 24.97600
C  -7.91600 22.45600 24.74400
C  -8.95600 19.80900 27.29700
C  -9.29700 20.35600 23.84600
O  -9.36600 20.74000 22.69400
C  -10.21600 19.21600 24.29500
N  -6.17400 24.97900 24.00200
C  -6.99700 24.30800 23.15700
C  -6.92000 24.78600 21.69200
C  -5.81200 25.87600 21.87100
C  -5.53600 25.92500 23.34400
C  -6.69700 23.84000 20.49600
C  -6.09700 27.28900 21.27400
C  -4.97200 27.72900 20.25600
N  -4.73700 26.16500 26.15700
C  -4.10300 26.98300 25.20200
C  -3.17800 27.84000 25.81200
C  -3.21000 27.55500 27.17100
C  -4.17400 26.53200 27.34900
C  -2.34800 28.83900 25.03400
C  -2.74500 27.94000 28.41800
O  -1.81600 28.73600 28.79400
C  -3.58900 27.14700 29.50200
C  -2.52100 26.52300 30.37800
O  -1.74000 25.65000 30.07800
O  -2.60000 27.02800 31.66100
C  -1.68000 26.40000 32.68300
H  -7.64000 21.59600 29.18200
H  -8.12400 22.66400 22.63700
H  -4.16900 27.48000 23.09800
H  -4.83800 24.81800 31.33500
H  -7.05300 23.32200 31.12300
H  -5.87800 21.70800 31.48200
H  -4.43100 22.69700 31.41000
H  -4.96500 21.75800 29.88600
H  -7.75300 25.38100 31.44700
H  -6.87700 26.66200 30.48700
H  -7.22300 27.04900 32.95500
H  -5.74500 27.43700 32.26200
H  -8.82600 18.84300 26.81100
H  -10.01700 20.05900 27.29700
H  -8.57600 19.67600 28.31100
H  -9.47300 18.46800 24.57100
H  -10.70100 18.78600 23.41900
H  -10.98100 19.51200 25.01300
H  -7.87400 25.26800 21.47700
H  -4.95100 25.54800 21.28800
H  -6.31100 22.92200 20.93700
H  -5.98300 24.21000 19.76000
H  -7.64300 23.59400 20.01300
H  -6.16300 28.07800 22.02400
H  -7.03600 27.20700 20.72800
H  -4.83600 28.80400 20.37100
H  -5.48600 27.61400 19.30200
H  -4.03200 27.17700 20.29400
H  -2.29500 29.75000 25.63000
H  -2.78100 29.06300 24.05900
H  -1.36100 28.44700 24.79000
H  -4.20500 27.84800 30.06600
H  -1.87100 25.32800 32.72300
H  -1.84400 26.95200 33.60900
H  -0.65500 26.48700 32.32200

