158

Mg 47.15500 45.21400 43.53000
C  43.81700 44.24800 43.14200
C  47.97000 41.94000 42.89500
C  50.28600 46.22700 43.13900
C  46.03300 48.57200 43.43800
N  45.94600 43.32600 42.96700
C  44.63800 43.13500 42.90100
C  44.23700 41.72500 42.64400
C  45.55400 40.95800 42.78500
C  46.59000 42.13300 42.90900
C  45.68900 39.91800 43.90800
C  43.43500 41.29600 41.34800
C  43.66100 42.10900 40.04400
H  43.22500 41.61000 38.58100
N  48.91700 44.26300 43.10600
C  49.04400 42.85800 43.00100
C  50.43800 42.53800 42.92600
C  51.20700 43.76100 42.76600
C  50.19300 44.82000 43.03200
C  50.95600 41.09500 42.89300
C  52.70000 43.88400 42.51700
O  53.32800 42.84600 42.22600
C  53.40300 45.15100 42.41700
N  47.98000 47.09100 43.33900
C  49.32900 47.26700 43.28600
C  49.82300 48.73200 43.44000
C  48.44100 49.46300 43.49300
C  47.39500 48.31800 43.39000
C  50.85700 49.00700 44.57000
C  48.22400 50.52600 42.35600
C  49.37000 51.58100 42.21000
N  45.29400 46.24000 43.42400
C  45.01500 47.62600 43.47000
C  43.57400 47.87900 43.40500
C  43.06800 46.54800 43.37500
C  44.11700 45.60400 43.31500
C  42.85000 49.13900 43.53800
C  41.83100 45.71800 43.35300
O  40.64800 46.04100 43.30600
C  42.31700 44.20800 43.32800
C  41.75400 43.48500 44.48300
O  40.80600 42.68200 44.42300
O  42.40900 43.79500 45.65700
C  41.74100 43.42300 46.91700
H  48.27400 40.90000 42.76100
H  51.33600 46.50400 43.25500
H  45.81000 49.64100 43.44400
H  43.54000 41.55600 43.46500
H  45.73300 40.35700 41.89400
H  44.76500 39.98100 44.48200
H  46.49400 40.02500 44.63500
H  45.83000 38.94200 43.44200
H  42.39200 41.32300 41.66100
H  43.54300 40.23700 41.11200
H  44.69500 42.42000 39.89700
H  43.03900 42.98700 40.22000
H  50.41700 40.51700 43.64400
H  51.97700 40.93000 43.23600
H  50.80600 40.59300 41.93700
H  52.96100 45.76800 41.63500
H  54.46600 44.99900 42.23100
H  53.34600 45.70500 43.35400
H  50.28300 48.97800 42.48200
H  48.36900 50.01500 44.43000
H  51.85400 48.70300 44.25100
H  50.54700 48.29900 45.33800
H  50.85100 50.03100 44.94500
H  47.37000 51.10800 42.70300
H  47.86300 50.05800 41.44000
H  49.05100 52.58800 42.47700
H  49.68200 51.56200 41.16600
H  50.25700 51.32800 42.79100
H  42.02800 49.21200 44.25000
H  42.43000 49.26200 42.54000
H  43.61000 49.91500 43.63700
H  41.86600 43.67700 42.49000
H  42.14500 42.47500 47.27100
H  40.69800 43.19600 46.69500
H  41.88300 44.19200 47.67700
Mg 6.41400 53.86600 40.86500
C  5.95400 50.47500 40.88200
C  9.54200 53.47400 39.61600
C  6.63100 57.42000 40.56700
C  3.04500 54.32500 41.76500
N  7.48100 52.06800 39.93400
C  7.18000 50.76900 40.22500
C  8.31700 49.79600 39.79000
C  9.57200 50.80600 39.75600
C  8.84800 52.22700 39.84800
C  10.71400 50.61400 40.81600
C  8.11700 49.08000 38.46400
C  7.51600 49.87200 37.30800
H  6.77600 49.08400 36.10300
N  7.83900 55.21300 40.18700
C  9.07100 54.83700 39.76200
C  9.92000 55.99400 39.58000
C  9.12900 57.12500 39.98300
C  7.79000 56.58500 40.27400
C  11.31900 55.91600 39.13400
C  9.66500 58.57000 39.99400
O  10.80000 58.80500 39.63600
C  8.90600 59.76000 40.48000
N  5.04700 55.69800 41.18800
C  5.34800 57.00400 40.94700
C  4.11800 57.92200 41.05600
C  2.99000 56.86000 41.28500
C  3.71600 55.55300 41.56600
C  4.27500 59.12600 42.11600
C  2.00600 56.83400 40.05000
C  1.27800 58.20000 39.73100
N  4.87200 52.70800 41.33100
C  3.57800 53.01100 41.74900
C  2.88700 51.80700 42.07100
C  3.85400 50.79600 41.85300
C  5.03300 51.34700 41.35700
C  1.50200 51.60900 42.69400
C  4.07600 49.36400 41.95500
O  3.38700 48.48400 42.41500
C  5.42600 49.15500 41.23300
C  5.12500 48.22000 40.09400
O  4.62200 48.63200 39.05500
O  5.30100 46.88100 40.48200
C  4.98700 46.07800 39.33200
H  10.62300 53.34400 39.53500
H  6.67400 58.47700 40.30000
H  2.01300 54.39800 42.11300
H  8.30600 49.07100 40.60400
H  10.14200 50.62800 38.84400
H  11.62000 50.33700 40.27800
H  10.30100 49.82000 41.43800
H  11.02200 51.42300 41.47900
H  7.37500 48.31700 38.69700
H  9.12000 48.79400 38.14500
H  8.27200 50.49100 36.82500
H  6.74500 50.50700 37.74400
H  11.30300 56.49300 38.21000
H  11.79300 54.97300 38.86400
H  11.97600 56.51600 39.76500
H  8.42700 59.49800 41.42400
H  8.22500 59.81800 39.63100
H  9.56800 60.61400 40.62400
H  3.97700 58.40400 40.08900
H  2.48600 57.18100 42.19600
H  5.25700 59.59700 42.07300
H  4.13900 58.71600 43.11700
H  3.64400 59.98800 41.90000
H  1.18400 56.17300 40.32100
H  2.57200 56.40300 39.22400
H  1.46200 58.43200 38.68200
H  1.53700 59.04200 40.37300
H  0.21100 58.04300 39.88200
H  0.97300 52.55600 42.78900
H  1.56500 51.15600 43.68400
H  0.92100 50.93400 42.06500
H  6.00400 48.61200 41.98000
H  5.50700 46.43100 38.44100
H  3.90700 45.94900 39.25800
H  5.50100 45.14700 39.57200

