158

Mg -1.06600 7.46800 26.20800
C  -0.01000 9.63000 28.72900
C  -0.90200 4.88600 28.43000
C  -1.59700 5.35900 23.63500
C  -0.59200 10.08300 23.98400
N  -0.28800 7.26000 28.32700
C  -0.15400 8.28200 29.20800
C  -0.41400 7.85800 30.64700
C  -0.30200 6.31400 30.53500
C  -0.45700 6.12900 29.03300
C  0.98400 5.61900 31.10100
C  -1.75200 8.40600 31.29500
C  -1.53500 8.99300 32.69200
H  -0.61700 8.19500 33.69300
N  -1.28900 5.41000 26.05900
C  -1.24500 4.49300 27.12800
C  -1.73200 3.20700 26.62500
C  -1.79600 3.28300 25.17000
C  -1.51000 4.69300 24.86800
C  -1.97000 2.00200 27.48900
C  -2.07100 2.18600 24.13000
O  -1.96000 2.44700 22.94500
C  -2.41400 0.70500 24.52500
N  -0.81000 7.54600 24.08000
C  -1.25000 6.62000 23.24700
C  -1.23100 7.10700 21.77400
C  -1.04000 8.67300 21.93300
C  -0.85500 8.81100 23.48500
C  -0.19100 6.41000 20.83100
C  -2.30100 9.52400 21.41500
C  -3.46200 10.00900 22.35700
N  -0.51000 9.49800 26.29900
C  -0.36100 10.41600 25.31200
C  -0.10700 11.67800 25.83100
C  0.08500 11.42800 27.26500
C  -0.17300 10.12300 27.40400
C  0.03700 12.94500 25.02600
C  0.37600 11.99200 28.53500
O  0.64200 13.12300 28.87400
C  0.26700 10.82600 29.61500
C  1.60200 10.75200 30.39000
O  2.70900 10.34700 30.00700
O  1.26300 11.17400 31.63000
C  2.27100 11.17400 32.65200
H  -1.03700 4.03200 29.09700
H  -1.81800 4.77600 22.73800
H  -0.54200 10.84700 23.20500
H  0.49700 8.20100 31.13700
H  -1.13900 5.84300 31.05100
H  0.75100 4.93800 31.92000
H  1.71400 6.40900 31.28200
H  1.43100 5.01700 30.31100
H  -2.45600 7.57400 31.32400
H  -2.24000 9.20900 30.74300
H  -2.51800 9.04100 33.16000
H  -1.20800 10.00500 32.45400
H  -1.51300 1.09400 27.09600
H  -3.04300 1.82600 27.56600
H  -1.57800 1.95100 28.50500
H  -3.02800 0.64000 25.42400
H  -1.53400 0.09900 24.74400
H  -2.90400 0.20500 23.69000
H  -2.20700 6.85500 21.35900
H  -0.13100 9.06400 21.47600
H  0.48500 7.18700 20.47400
H  -0.80500 5.88000 20.10300
H  0.32100 5.65100 21.42200
H  -2.76300 8.84200 20.70100
H  -1.85800 10.37500 20.89800
H  -4.45800 9.69300 22.04900
H  -3.46800 11.09900 22.36500
H  -3.24100 9.67100 23.36900
H  1.06200 13.30500 25.10800
H  -0.68500 13.55100 25.57200
H  -0.32200 13.03400 24.00000
H  -0.54700 10.96600 30.32600
H  3.31900 10.95000 32.44800
H  1.88500 10.37600 33.28600
H  2.32500 12.08100 33.25500
Mg 47.08400 17.28800 28.30400
C  45.11100 17.27100 31.17800
C  49.45700 19.11600 30.09800
C  48.49600 18.25100 25.49200
C  44.41200 16.04100 26.40100
N  47.12400 18.31300 30.50700
C  46.33900 17.90000 31.47100
C  46.93600 18.36500 32.84100
C  48.15600 19.25200 32.37900
C  48.29900 18.92700 30.89700
C  48.15900 20.73000 32.58000
C  47.22600 17.20000 33.82800
C  46.89100 17.28900 35.38000
H  46.50200 18.74800 35.83600
N  48.75500 18.33600 27.84100
C  49.61500 19.00800 28.69200
C  50.73500 19.57200 28.00100
C  50.41700 19.39200 26.61300
C  49.18000 18.58100 26.58200
C  52.00000 20.11300 28.68900
C  51.20200 19.99100 25.40500
O  50.85700 19.82300 24.23600
C  52.33400 20.86500 25.69200
N  46.50200 17.26500 26.23300
C  47.22300 17.71400 25.27000
C  46.67700 17.45500 23.87400
C  45.49400 16.48800 24.14500
C  45.44400 16.59900 25.64000
C  46.13600 18.73500 23.23600
C  45.51200 15.03900 23.59700
C  44.55300 14.73200 22.40900
N  45.20900 16.60200 28.68600
C  44.20200 16.07500 27.81200
C  43.07100 15.63200 28.59000
C  43.45500 16.07400 29.95000
C  44.68800 16.69700 29.90400
C  41.82000 14.99500 28.03600
C  42.92100 16.18000 31.31800
O  41.81300 15.99900 31.74700
C  44.02700 16.83100 32.20900
C  43.39500 17.93700 32.93200
O  43.02000 18.95900 32.38000
O  42.97200 17.51900 34.10700
C  42.33100 18.44600 35.07300
H  50.28200 19.64900 30.57500
H  49.01300 18.42100 24.54500
H  43.45700 15.74400 25.96200
H  46.12500 18.89100 33.34600
H  49.02000 18.84600 32.90400
H  48.06900 21.24900 31.62600
H  49.16100 20.88300 32.98100
H  47.26700 21.08900 33.09300
H  48.30900 17.07400 33.82200
H  46.84700 16.29000 33.36300
H  47.81300 17.07500 35.92100
H  46.11600 16.56300 35.62500
H  52.83600 19.55300 28.27100
H  52.00400 19.97700 29.77100
H  52.00000 21.19800 28.58600
H  52.05400 21.85300 26.05800
H  52.81800 20.91000 24.71600
H  53.18500 20.48300 26.25500
H  47.54100 17.10400 23.30900
H  44.54400 16.96900 23.91100
H  46.83300 19.50300 23.56900
H  45.10800 18.98800 23.49400
H  46.15500 18.67700 22.14700
H  45.18900 14.40800 24.42500
H  46.53400 14.87600 23.25500
H  43.77700 15.46900 22.20200
H  44.00600 13.89100 22.83500
H  45.15300 14.39000 21.56600
H  41.00200 14.76000 28.71600
H  42.08900 13.97200 27.77100
H  41.39400 15.66400 27.28900
H  44.41300 16.09100 32.90900
H  41.26800 18.34200 34.85600
H  42.41600 19.52400 34.93500
H  42.65800 18.26500 36.09700

