158

Mg 17.04300 52.47900 26.28900
C  18.97000 51.11500 28.82900
C  14.77900 53.50100 28.73000
C  14.93400 53.40700 23.84500
C  19.39000 51.54400 23.95200
N  16.97800 52.34700 28.57000
C  17.85900 51.81000 29.35200
C  17.65300 52.14400 30.75800
C  16.12300 52.60400 30.72600
C  15.96500 52.93000 29.28300
C  15.05100 51.56000 31.21500
C  18.66200 53.16500 31.40400
C  18.74200 53.16800 32.90600
H  17.74100 52.24400 33.66900
N  15.17400 53.36400 26.26300
C  14.44300 53.78600 27.37300
C  13.18900 54.31500 26.90900
C  13.26900 54.33400 25.48900
C  14.46700 53.64600 25.14900
C  12.03700 54.79900 27.79400
C  12.32600 54.92000 24.38400
O  12.44200 54.86500 23.14200
C  11.19300 55.90800 24.75700
N  17.18900 52.39400 24.25300
C  16.12600 52.76700 23.43300
C  16.48700 52.62200 21.94100
C  17.93900 52.08200 22.01000
C  18.21300 52.08000 23.47600
C  15.46200 51.79200 21.28500
C  19.00900 52.93000 21.23600
C  19.58600 54.15600 21.90800
N  18.85800 51.64900 26.31300
C  19.69000 51.25200 25.27900
C  20.73400 50.45600 25.77200
C  20.54600 50.35000 27.13800
C  19.42100 51.17100 27.46700
C  21.69900 49.67500 24.95900
C  21.02600 49.78300 28.34600
O  22.01100 49.11700 28.59500
C  20.11300 50.35700 29.51400
C  19.74700 49.32600 30.53800
O  18.76500 48.57100 30.46400
O  20.52600 49.52200 31.62800
C  20.41900 48.47900 32.65400
H  14.09400 53.92400 29.46800
H  14.30100 53.67500 22.99700
H  20.08600 51.15800 23.20400
H  17.71200 51.25200 31.38200
H  15.97100 53.53700 31.26900
H  14.66700 50.90400 30.43300
H  14.24900 52.06500 31.75400
H  15.54400 50.90800 31.93600
H  18.20300 54.09700 31.07600
H  19.68600 53.09200 31.03800
H  18.80700 54.22400 33.16800
H  19.69700 52.69600 33.13400
H  12.17900 54.44300 28.81500
H  11.14900 54.32100 27.38000
H  11.93900 55.88400 27.82300
H  10.77200 56.40800 23.88400
H  11.41000 56.69400 25.48100
H  10.47300 55.27800 25.27700
H  16.45800 53.59800 21.45700
H  18.00800 51.04900 21.66900
H  14.78600 52.46100 20.75200
H  14.81100 51.24800 21.97000
H  15.87900 51.09500 20.55800
H  18.55300 53.28500 20.31100
H  19.80200 52.27400 20.87800
H  20.65700 53.97000 21.98800
H  19.23900 54.32800 22.92600
H  19.36200 55.09700 21.40600
H  21.27600 49.31200 24.02200
H  22.00500 48.79000 25.51600
H  22.62900 50.22600 24.82500
H  20.63700 51.20700 29.95000
H  20.07600 47.51400 32.28100
H  19.75200 48.84800 33.43300
H  21.38200 48.38800 33.15600
Mg -0.84400 34.34400 26.73100
C  -2.88900 32.77900 29.14200
C  0.33300 36.32100 29.11300
C  0.71700 36.02300 24.23200
C  -2.52300 32.45400 24.25000
N  -1.46100 34.72500 28.81800
C  -2.15900 33.85600 29.65700
C  -1.86200 34.13100 31.14700
C  -0.92800 35.34800 31.12600
C  -0.69400 35.55500 29.61900
C  -1.41100 36.62200 31.88900
C  -1.37500 32.87100 31.99100
C  -2.09800 32.64000 33.37200
H  -1.28400 32.62200 34.67200
N  0.32700 35.98600 26.67200
C  0.83400 36.59900 27.76300
C  1.86800 37.47500 27.34000
C  1.81900 37.57200 25.92900
C  0.93500 36.52600 25.54800
C  2.59800 38.13300 28.34200
C  2.60700 38.38100 24.95400
O  2.49600 38.27700 23.75400
C  3.59400 39.32900 25.53600
N  -0.79200 34.17600 24.47800
C  -0.08400 35.01400 23.66500
C  -0.36700 34.83700 22.15600
C  -1.28700 33.56000 22.24600
C  -1.64500 33.39100 23.71800
C  -1.06000 36.06400 21.50500
C  -0.79200 32.28600 21.54500
C  0.28700 31.45300 22.19600
N  -2.27000 32.85100 26.68100
C  -2.87000 32.18600 25.59500
C  -3.81400 31.23400 26.10200
C  -3.81700 31.39400 27.52900
C  -2.92500 32.41200 27.79000
C  -4.63900 30.44100 25.20000
C  -4.41700 30.96000 28.74700
O  -5.36300 30.20100 28.94200
C  -3.77200 31.86400 29.82400
C  -4.80200 32.45000 30.61400
O  -5.40500 33.44800 30.24800
O  -5.13600 31.64800 31.69200
C  -6.43000 32.02900 32.23200
H  0.89700 36.90100 29.84600
H  1.25100 36.51900 23.41900
H  -2.97500 31.78800 23.51200
H  -2.79500 34.41700 31.63300
H  0.04500 35.11700 31.56000
H  -1.35400 37.45500 31.18700
H  -0.81000 36.84400 32.77100
H  -2.45400 36.59100 32.20500
H  -0.32400 32.84200 32.28100
H  -1.53100 31.98800 31.37100
H  -2.56200 31.65900 33.27600
H  -2.87200 33.38500 33.55500
H  2.80600 37.50700 29.21000
H  2.14200 39.04200 28.73200
H  3.53300 38.49100 27.91100
H  3.07600 39.85100 26.34100
H  3.91800 40.03700 24.77300
H  4.48100 38.79600 25.87800
H  0.64700 34.76700 21.76200
H  -2.22800 33.70100 21.71400
H  -2.08000 35.94300 21.14200
H  -0.63800 36.33300 20.53700
H  -1.06900 36.91300 22.18900
H  -0.50900 32.56600 20.53000
H  -1.69500 31.70900 21.34500
H  1.25000 31.58500 21.70300
H  -0.03400 30.42300 22.04500
H  0.35800 31.54500 23.28000
H  -5.42500 30.01400 25.82200
H  -4.04800 29.65200 24.73400
H  -4.98500 31.04900 24.36400
H  -3.19000 31.21200 30.47500
H  -6.19300 32.20900 33.28000
H  -7.07400 31.15400 32.14600
H  -7.01100 32.86800 31.84900

