158

Mg 8.70300 3.22200 28.29300
C  10.28000 1.86200 31.16700
C  6.60000 4.91700 30.29600
C  7.44300 4.45400 25.48000
C  10.35600 0.74800 26.48400
N  8.43600 3.30900 30.47200
C  9.21900 2.77000 31.43900
C  8.74800 3.21200 32.81500
C  7.44000 3.98900 32.58800
C  7.44700 4.07800 31.02200
C  6.21600 3.35000 33.19200
C  9.90600 4.08900 33.50500
C  9.46000 4.90400 34.71800
H  10.18800 4.61800 35.97400
N  7.34800 4.68700 27.90900
C  6.59000 5.28100 28.85300
C  5.62900 6.15200 28.18900
C  5.99900 6.19700 26.82500
C  6.99900 5.10900 26.65900
C  4.59500 6.93400 28.92600
C  5.48200 7.02100 25.68900
O  5.85200 6.98000 24.53800
C  4.44000 8.05900 26.05700
N  8.97100 2.80700 26.23000
C  8.32600 3.39500 25.23500
C  8.51400 2.61100 23.92600
C  9.73800 1.65700 24.28300
C  9.74700 1.76400 25.79000
C  7.25500 1.84600 23.45500
C  11.04600 2.15000 23.53100
C  11.88400 3.14100 24.35300
N  10.07800 1.65900 28.69800
C  10.63500 0.69900 27.85800
C  11.57400 -0.08600 28.56500
C  11.50000 0.35300 29.85400
C  10.54900 1.40800 29.87600
C  12.36200 -1.22700 27.93700
C  11.94800 0.11900 31.18800
O  12.78100 -0.64300 31.66700
C  11.13500 1.13600 32.04500
C  10.46000 0.32700 33.10500
O  9.63000 -0.52400 32.83000
O  10.95700 0.55400 34.37300
C  10.12600 0.07000 35.48600
H  5.83900 5.38400 30.92500
H  7.07200 4.99500 24.60700
H  10.87300 0.05800 25.81400
H  8.51400 2.34500 33.43200
H  7.48500 4.97800 33.04500
H  6.36400 2.27400 33.28300
H  5.49000 3.44700 32.38500
H  5.87000 3.91900 34.05400
H  10.26800 4.72400 32.69600
H  10.75100 3.44600 33.75000
H  8.40200 4.74100 34.92500
H  9.65800 5.94100 34.44600
H  4.71000 8.01300 29.02900
H  4.35700 6.38600 29.83700
H  3.77000 6.76700 28.23300
H  3.49100 7.52400 26.05700
H  4.45900 8.88100 25.34100
H  4.87400 8.47500 26.96600
H  8.83500 3.31500 23.15800
H  9.48000 0.63700 23.99700
H  6.44900 2.02400 24.16700
H  7.33600 0.77600 23.26300
H  6.91500 2.31600 22.53300
H  10.93400 2.55600 22.52600
H  11.67200 1.25800 23.52000
H  11.59200 3.49600 25.34200
H  12.05700 4.10600 23.87700
H  12.91600 2.81100 24.47300
H  12.38000 -1.13900 26.85100
H  11.91300 -2.17500 28.23100
H  13.38100 -1.01700 28.26300
H  11.94300 1.77300 32.40400
H  9.05600 0.19600 35.32000
H  10.33300 0.53800 36.44800
H  10.25500 -1.01100 35.52700
Mg 41.59600 41.25800 26.90900
C  40.68300 43.85500 29.32800
C  42.57400 39.31600 29.37900
C  42.35600 39.10400 24.59100
C  41.32600 43.75000 24.50800
N  41.77900 41.64500 29.09300
C  41.23300 42.63500 29.90600
C  41.35300 42.30700 31.40100
C  42.10900 40.93500 31.38200
C  42.17800 40.57800 29.85300
C  43.49000 40.85900 32.09900
C  39.98500 42.29500 32.14000
C  39.78800 43.10700 33.49600
H  39.10800 42.33400 34.66500
N  42.40500 39.44900 26.96900
C  42.64000 38.76400 28.08200
C  42.98700 37.39100 27.75600
C  43.01000 37.34000 26.27700
C  42.53000 38.65200 25.88200
C  43.30900 36.31600 28.74400
C  43.34900 36.22700 25.35900
O  43.26300 36.33700 24.11500
C  43.85400 35.01800 25.92500
N  41.91600 41.47500 24.78200
C  42.04600 40.38900 24.04000
C  41.89300 40.57100 22.56500
C  41.55300 42.06800 22.47800
C  41.58000 42.50000 24.01500
C  43.05500 40.06100 21.67000
C  40.10800 42.55500 21.89700
C  38.89700 41.99800 22.77500
N  40.97400 43.32400 26.87900
C  40.94900 44.15600 25.80200
C  40.50600 45.51200 26.27200
C  40.31900 45.37500 27.63700
C  40.64500 44.07700 27.99500
C  40.30100 46.75700 25.43900
C  39.85400 46.08600 28.81100
O  39.35400 47.18700 28.96200
C  40.09200 45.15800 30.02200
C  41.07000 45.84100 30.90100
O  42.21900 46.22700 30.62000
O  40.49900 45.92100 32.15100
C  41.20900 46.46000 33.25800
H  42.88200 38.69400 30.22200
H  42.23000 38.34600 23.81400
H  41.21900 44.49800 23.71900
H  42.03900 43.00400 31.88100
H  41.59800 40.13200 31.91300
H  44.28300 40.51800 31.43400
H  43.40300 40.12900 32.90500
H  43.75600 41.87100 32.40400
H  39.64400 41.28700 32.37900
H  39.24100 42.76000 31.49300
H  39.05900 43.89600 33.31300
H  40.72700 43.60200 33.74500
H  42.51500 35.60800 28.50700
H  43.23500 36.63500 29.78300
H  44.29800 35.90300 28.54400
H  44.08100 34.27400 25.16100
H  42.97500 34.71800 26.49500
H  44.72800 35.14300 26.56500
H  40.96400 40.02800 22.39000
H  42.41800 42.57900 22.05700
H  43.85300 39.79900 22.36400
H  43.44900 40.84000 21.01800
H  42.99900 39.08100 21.19700
H  40.05600 42.07300 20.92200
H  40.00600 43.64000 21.84900
H  38.21600 42.84800 22.82400
H  39.12500 41.67800 23.79200
H  38.43400 41.20700 22.18500
H  40.52000 46.46200 24.41200
H  40.91900 47.60900 25.72200
H  39.29500 47.15200 25.57800
H  39.17500 44.77700 30.47100
H  42.16400 46.92200 33.00600
H  41.16900 45.60300 33.93000
H  40.66300 47.28600 33.71600

