158

Mg -2.31000 17.79000 27.68000
C  -2.94300 15.65300 30.24900
C  -2.91900 20.51500 29.91000
C  -2.61100 19.89000 25.05700
C  -2.36200 15.05500 25.50300
N  -2.88400 18.07600 29.85700
C  -2.94800 16.96300 30.71800
C  -2.99200 17.45900 32.23600
C  -3.28300 19.00900 32.00800
C  -2.92900 19.24900 30.49200
C  -4.71200 19.37700 32.44600
C  -1.66700 17.17000 32.92800
C  -1.43900 17.87500 34.26800
H  -1.06200 17.10700 35.55200
N  -2.49200 19.89300 27.50500
C  -2.71400 20.83800 28.49800
C  -2.69000 22.12700 27.91200
C  -2.65600 21.96300 26.52300
C  -2.53700 20.54300 26.31700
C  -2.94400 23.40300 28.61300
C  -2.60300 23.03300 25.46000
O  -2.41200 22.80900 24.24500
C  -2.62100 24.51300 25.83300
N  -2.61000 17.51600 25.59900
C  -2.54000 18.51100 24.70400
C  -2.63800 18.05900 23.20700
C  -2.21800 16.60200 23.41900
C  -2.27800 16.35800 24.94800
C  -4.05800 18.22900 22.68200
C  -0.82800 16.32900 22.82700
C  0.41600 16.99200 23.49700
N  -2.45600 15.78600 27.80400
C  -2.54100 14.78600 26.80200
C  -2.92400 13.46800 27.42300
C  -2.95100 13.78400 28.78300
C  -2.76100 15.16200 28.94700
C  -3.15400 12.07700 26.82100
C  -3.26900 13.21400 30.05700
O  -3.58500 12.13200 30.34400
C  -2.98900 14.41100 31.09700
C  -1.73000 14.03800 31.65400
O  -0.70100 14.03800 31.09400
O  -1.97100 13.77500 32.98100
C  -0.84500 13.56400 33.83100
H  -3.18400 21.41500 30.46800
H  -2.83900 20.50500 24.18400
H  -2.39700 14.18800 24.84100
H  -3.77200 16.91600 32.77000
H  -2.67800 19.73600 32.55100
H  -5.29000 19.90300 31.68600
H  -4.63000 20.05400 33.29700
H  -5.31400 18.50100 32.68700
H  -0.89600 17.61100 32.29600
H  -1.40100 16.12000 33.04500
H  -2.41900 18.27400 34.52900
H  -0.76300 18.70100 34.04800
H  -2.23100 24.17600 28.32600
H  -3.12600 23.29700 29.68300
H  -3.89600 23.76100 28.22000
H  -1.81100 24.83400 26.48800
H  -3.61900 24.63700 26.25200
H  -2.55000 25.08600 24.90900
H  -1.87700 18.56000 22.60800
H  -2.91700 15.95800 22.88600
H  -4.26100 19.22000 22.27500
H  -4.75600 18.14500 23.51500
H  -4.40200 17.53000 21.91900
H  -0.84000 16.78300 21.83600
H  -0.63500 15.25900 22.90600
H  1.03300 17.44500 22.72200
H  1.00800 16.15500 23.86700
H  0.15000 17.59400 24.36600
H  -2.25400 11.46400 26.78100
H  -3.41800 12.12100 25.76400
H  -3.84500 11.57200 27.49600
H  -3.76200 14.37300 31.86500
H  -0.94200 14.07600 34.78800
H  0.06700 13.88500 33.32800
H  -0.73100 12.52800 34.15100
Mg -3.13500 35.31600 27.27100
C  -4.95700 33.50800 29.69700
C  -2.16400 37.38900 29.84400
C  -1.56300 37.07300 24.98300
C  -4.24400 33.11400 24.88400
N  -3.46100 35.40800 29.51000
C  -4.20900 34.53100 30.24500
C  -3.93600 34.72200 31.73700
C  -3.22700 36.12100 31.72600
C  -2.99700 36.38300 30.27100
C  -4.18400 37.21300 32.24800
C  -3.27100 33.54400 32.53600
C  -4.17600 32.98600 33.67800
H  -3.83100 33.58700 35.07000
N  -2.05700 36.98700 27.39700
C  -1.65400 37.63000 28.54500
C  -0.58700 38.60600 28.15400
C  -0.44300 38.52400 26.77200
C  -1.34600 37.45700 26.34300
C  0.06300 39.47600 29.16200
C  0.44200 39.35000 25.81700
O  0.55300 39.12500 24.63100
C  1.14800 40.55200 26.25800
N  -3.11500 35.19800 25.17400
C  -2.31800 36.04200 24.46100
C  -2.31000 35.62100 22.97400
C  -2.96200 34.25900 22.97600
C  -3.44400 34.15500 24.43200
C  -3.06200 36.70000 22.08500
C  -2.16600 33.02100 22.44900
C  -2.94000 31.87300 21.96000
N  -4.41300 33.66900 27.27000
C  -4.76300 32.85000 26.19500
C  -5.73000 31.91700 26.57800
C  -5.82800 32.11300 28.02000
C  -4.99400 33.20300 28.33000
C  -6.44000 30.85500 25.74500
C  -6.48500 31.61100 29.17000
O  -7.20500 30.64100 29.26200
C  -5.90900 32.47200 30.35400
C  -7.00700 33.08400 31.09700
O  -7.50300 34.15900 30.80600
O  -7.54400 32.10700 31.95000
C  -8.72200 32.58400 32.69100
H  -1.80900 38.11500 30.57900
H  -1.01500 37.42000 24.10400
H  -4.50700 32.31900 24.18200
H  -4.89700 34.95600 32.19600
H  -2.25700 36.07800 32.22100
H  -5.13400 37.13700 31.71800
H  -3.81100 38.19200 31.94600
H  -4.30700 37.18400 33.33100
H  -2.41000 33.95100 33.06500
H  -2.90000 32.74700 31.89200
H  -4.21200 31.89800 33.74300
H  -5.24700 33.04900 33.48700
H  1.14400 39.59600 29.22700
H  -0.31000 39.49400 30.18600
H  -0.39800 40.38100 28.76600
H  0.49300 41.27000 26.75100
H  1.69700 40.93500 25.39700
H  1.88900 40.34400 27.02900
H  -1.30000 35.46600 22.59400
H  -3.84100 34.39900 22.34600
H  -2.93200 37.67800 22.54700
H  -4.12300 36.55600 21.87600
H  -2.58500 36.63700 21.10700
H  -1.66800 32.73300 23.37500
H  -1.35000 33.36900 21.81500
H  -2.82700 30.96900 22.55900
H  -2.62400 31.55600 20.96600
H  -3.99500 32.13800 22.02700
H  -6.69400 29.94700 26.29100
H  -5.73300 30.70800 24.92800
H  -7.32900 31.25800 25.25900
H  -5.45000 31.78300 31.06300
H  -9.28000 31.70100 33.00300
H  -9.43200 33.17600 32.11500
H  -8.47100 33.20100 33.55400

