158

Mg 8.97400 4.02600 27.07000
C  10.41900 2.58600 30.02100
C  6.85000 5.76100 29.27800
C  7.35100 5.16300 24.47000
C  10.62100 1.52300 25.17100
N  8.80300 4.23800 29.37300
C  9.52800 3.62100 30.33000
C  9.19400 4.12600 31.73200
C  7.98600 4.99500 31.51900
C  7.83100 4.96500 29.94500
C  6.67700 4.54600 32.29400
C  10.34800 4.89600 32.50000
C  10.54200 4.28300 33.93400
H  11.25000 5.09800 35.06100
N  7.45300 5.41800 26.89900
C  6.70700 5.98400 27.87800
C  5.70100 6.76400 27.28400
C  5.88000 6.71500 25.88200
C  6.94700 5.74600 25.67500
C  4.77600 7.55700 28.07000
C  5.07300 7.34000 24.79600
O  5.43000 7.22500 23.59700
C  3.80100 8.07000 25.11000
N  8.89300 3.28700 25.09200
C  8.31100 4.16000 24.15700
C  8.61000 3.64400 22.72200
C  9.70500 2.56600 22.94700
C  9.76600 2.39000 24.43800
C  7.33700 3.03000 22.11800
C  11.09700 2.81900 22.26500
C  11.51400 1.75600 21.20400
N  10.17000 2.39200 27.43400
C  10.82800 1.48700 26.55100
C  11.59600 0.59000 27.34200
C  11.45500 1.00000 28.62800
C  10.62300 2.09700 28.71300
C  12.37800 -0.49600 26.70900
C  11.95400 0.69800 29.89200
O  12.76800 -0.16300 30.27800
C  11.21300 1.68100 30.84100
C  10.41100 0.90700 31.79200
O  9.27000 0.50300 31.64800
O  11.14800 0.77900 32.89000
C  10.47400 0.40900 34.14100
H  6.13900 6.12600 30.02200
H  6.95000 5.53800 23.52700
H  11.25200 0.85000 24.58600
H  8.89700 3.19600 32.21600
H  8.15000 6.04400 31.76900
H  6.20900 5.44200 32.70200
H  6.83000 3.87100 33.13600
H  6.01300 4.15900 31.52100
H  10.09200 5.93600 32.70300
H  11.26000 4.70100 31.93600
H  11.22400 3.43900 33.83000
H  9.58100 3.84300 34.19900
H  5.22800 8.50900 28.35000
H  4.55300 6.98700 28.97200
H  3.79700 7.70000 27.61200
H  3.96300 9.10400 25.41700
H  3.10800 7.50400 25.73200
H  3.30500 8.24700 24.15600
H  8.97400 4.40000 22.02500
H  9.42200 1.59100 22.54900
H  6.64700 2.85400 22.94300
H  7.44300 2.02000 21.72200
H  6.81800 3.57800 21.33100
H  11.82400 2.71400 23.07000
H  11.20900 3.75200 21.71200
H  10.67400 1.11100 20.94800
H  12.28900 1.09700 21.59700
H  11.98100 2.16800 20.30900
H  11.95300 -0.84700 25.76800
H  12.26800 -1.39600 27.31400
H  13.43400 -0.22800 26.68900
H  11.97600 2.14400 31.46800
H  9.84300 -0.48000 34.17200
H  9.92700 1.30700 34.42900
H  11.24600 0.22800 34.88900
Mg 26.66100 50.10900 26.71800
C  24.65400 51.15400 29.32300
C  28.90300 49.06700 29.12000
C  28.69400 49.18000 24.25100
C  24.24400 51.11800 24.45700
N  26.74000 50.11800 29.02200
C  25.78900 50.59200 29.86600
C  25.99800 50.10000 31.29500
C  27.51600 49.68700 31.30400
C  27.74900 49.60200 29.74000
C  28.48300 50.71900 31.92800
C  24.97700 49.17200 31.86600
C  24.37600 49.40500 33.25500
H  24.54600 48.52100 34.48000
N  28.52300 49.28100 26.71200
C  29.35300 48.94000 27.76500
C  30.62100 48.48700 27.29200
C  30.56600 48.58600 25.84700
C  29.22200 49.00700 25.51200
C  31.66300 47.99400 28.23700
C  31.63700 48.43300 24.90600
O  31.47700 48.52900 23.72800
C  33.03800 48.13200 25.32900
N  26.51200 50.21300 24.63400
C  27.44000 49.67600 23.83100
C  27.00100 49.73200 22.31800
C  25.54900 50.34700 22.46300
C  25.38200 50.56200 23.91900
C  27.96600 50.56100 21.44900
C  24.36400 49.56400 21.86300
C  23.63900 48.48700 22.56500
N  24.89400 51.01400 26.78900
C  23.96000 51.36800 25.82700
C  22.89200 52.03800 26.44700
C  23.09700 51.97200 27.82200
C  24.36100 51.36600 27.95900
C  21.76200 52.64100 25.68200
C  22.50200 52.33300 29.06600
O  21.49900 52.99300 29.33200
C  23.44600 51.61400 30.07800
C  23.90800 52.53600 31.18300
O  24.84400 53.30600 31.08300
O  23.04900 52.40400 32.22600
C  23.30500 53.42700 33.34400
H  29.58300 48.73300 29.90600
H  29.23500 48.77600 23.39300
H  23.43300 51.44700 23.80300
H  26.01100 51.01800 31.88300
H  27.66300 48.69600 31.73400
H  28.70700 50.50000 32.97200
H  28.05900 51.67700 31.62900
H  29.46300 50.73500 31.45000
H  25.54500 48.25300 32.01200
H  24.20500 49.05900 31.10400
H  23.32700 49.63700 33.07300
H  24.81500 50.33600 33.61400
H  31.67900 48.64900 29.10800
H  32.71400 47.99700 27.94700
H  31.35800 47.05600 28.70100
H  33.31900 48.70100 26.21500
H  33.72300 48.30200 24.49900
H  32.95900 47.06600 25.54500
H  26.94300 48.71000 21.94200
H  25.65800 51.39100 22.17000
H  28.44300 49.85800 20.76500
H  28.76700 50.96900 22.06500
H  27.54200 51.34900 20.82600
H  24.65800 49.06900 20.93700
H  23.60200 50.29400 21.59200
H  23.70500 47.52200 22.06300
H  22.57400 48.69700 22.66300
H  23.98000 48.34800 23.59100
H  21.36000 51.88800 25.00400
H  21.93600 53.59200 25.17700
H  21.04800 52.84200 26.48000
H  22.94500 50.81700 30.62900
H  22.31200 53.73200 33.67300
H  23.89600 54.28900 33.03500
H  23.82800 52.82800 34.09000

