158

Mg 8.54200 3.52300 27.48400
C  9.57900 1.96400 30.41700
C  6.48100 5.61300 29.33200
C  7.32800 4.81000 24.55500
C  9.97900 0.91200 25.58100
N  7.99700 3.76900 29.62200
C  8.65600 2.99900 30.61900
C  8.40300 3.56300 32.02500
C  7.33100 4.68400 31.66200
C  7.22200 4.70400 30.09700
C  6.01700 4.53800 32.41000
C  9.62000 4.22000 32.69700
C  9.59100 4.29200 34.25400
H  10.70200 3.53100 35.02100
N  7.16400 5.16800 27.00000
C  6.44700 5.88500 27.90200
C  5.80400 6.95900 27.15400
C  5.96300 6.75600 25.77000
C  6.87300 5.53200 25.72300
C  5.06300 8.05300 27.85900
C  5.39600 7.46100 24.59200
O  5.57100 7.17400 23.39100
C  4.50000 8.62500 24.85500
N  8.63400 2.85400 25.32700
C  8.03400 3.60800 24.37900
C  8.34500 2.99200 22.97600
C  9.40500 1.92300 23.36400
C  9.25800 1.81600 24.82800
C  7.10100 2.43600 22.23300
C  10.82500 2.21700 22.94500
C  11.45400 1.08800 22.07800
N  9.63700 1.87500 27.86200
C  10.09700 0.89500 27.00200
C  10.86100 -0.09700 27.81200
C  10.73500 0.38400 29.12900
C  9.93700 1.49300 29.16400
C  11.67300 -1.27300 27.36200
C  11.13800 0.12900 30.49300
O  11.90200 -0.68900 30.97700
C  10.31100 1.08500 31.40800
C  9.40600 0.16700 32.25100
O  8.59600 -0.65300 31.84600
O  9.66200 0.41300 33.56600
C  9.12300 -0.58700 34.49800
H  6.04400 6.43900 29.89600
H  6.99400 5.25400 23.61500
H  10.43400 0.04200 25.10300
H  7.94000 2.84600 32.70300
H  7.75200 5.66300 31.88700
H  5.23000 4.71700 31.67700
H  5.87300 5.29800 33.17800
H  6.01800 3.59700 32.96100
H  9.74300 5.25700 32.38400
H  10.45200 3.61400 32.33900
H  8.58200 4.10100 34.61900
H  9.79600 5.32100 34.54800
H  5.35000 9.09400 27.70900
H  5.12000 7.90200 28.93700
H  4.01100 7.98700 27.58100
H  3.50800 8.34100 25.20500
H  4.52100 9.29400 23.99500
H  4.89600 9.28400 25.62800
H  8.82300 3.69300 22.29000
H  9.15700 0.93600 22.97300
H  6.26800 2.66000 22.89900
H  7.13100 1.37700 21.97700
H  6.93900 3.04900 21.34700
H  11.40700 2.40300 23.84700
H  11.05000 3.13500 22.40200
H  10.94300 0.12500 22.10100
H  12.42400 0.72600 22.41800
H  11.45800 1.36600 21.02400
H  11.59200 -1.51000 26.30100
H  11.55200 -2.13500 28.01700
H  12.72700 -1.00100 27.42200
H  11.01900 1.59400 32.06300
H  9.95400 -1.22600 34.79500
H  8.35300 -1.22400 34.06400
H  8.68200 -0.17900 35.40700
Mg 25.31100 51.00000 26.43000
C  23.03400 52.05700 29.03800
C  27.58300 50.31900 28.87300
C  27.69700 50.50000 24.06100
C  22.98000 52.00800 24.07900
N  25.25900 51.02700 28.71300
C  24.18500 51.33800 29.53600
C  24.60200 51.08500 31.04000
C  26.12000 50.69800 30.89200
C  26.32700 50.70800 29.39300
C  27.12200 51.57200 31.60300
C  23.63400 50.00200 31.63700
C  23.81000 49.58500 33.13400
H  23.90500 50.67300 34.09700
N  27.34300 50.55700 26.45100
C  28.06500 50.23600 27.52900
C  29.37500 49.80800 27.14200
C  29.50500 50.11900 25.79300
C  28.17200 50.46400 25.36200
C  30.46600 49.28800 28.06200
C  30.73100 50.08400 24.88000
O  30.53800 50.30400 23.65700
C  32.10400 49.74400 25.35100
N  25.41600 51.32400 24.40700
C  26.43700 50.91100 23.61500
C  26.15200 51.12800 22.12500
C  24.70400 51.76000 22.19000
C  24.31100 51.63500 23.62700
C  27.24600 51.96200 21.39300
C  23.71100 51.04600 21.22000
C  23.36500 49.58400 21.21100
N  23.38300 51.76400 26.53300
C  22.56000 52.13500 25.45800
C  21.36700 52.67500 25.98300
C  21.50600 52.70600 27.34800
C  22.73400 52.14400 27.69400
C  20.24100 53.21200 25.13300
C  20.82000 52.96500 28.62800
O  19.72300 53.43200 28.85900
C  21.85600 52.60800 29.78300
C  22.11300 53.74500 30.71300
O  22.72500 54.77000 30.45700
O  21.73300 53.42400 31.98100
C  21.92400 54.50200 32.94900
H  28.23200 49.88300 29.63500
H  28.32700 50.12900 23.25000
H  22.24800 52.34200 23.34000
H  24.47800 52.11400 31.38000
H  26.08400 49.69300 31.31400
H  26.49900 52.12300 32.30800
H  27.54500 52.32600 30.93900
H  27.91800 51.04400 32.12800
H  23.82400 49.13400 31.00600
H  22.59700 50.21800 31.37700
H  24.68300 48.94600 33.27200
H  22.89500 49.04100 33.36600
H  31.03700 48.42000 27.73400
H  30.02700 49.03100 29.02500
H  31.11400 50.12400 28.32700
H  32.25700 48.77700 25.83100
H  32.38800 50.51800 26.06400
H  32.80400 49.73900 24.51500
H  26.07900 50.13900 21.67400
H  24.78100 52.81800 21.93900
H  28.06200 52.17900 22.08300
H  26.81100 52.87600 20.99000
H  27.75200 51.34600 20.65000
H  24.25500 51.26400 20.30100
H  22.89200 51.76200 21.27800
H  23.72400 49.17300 20.26800
H  22.27700 49.51800 21.20900
H  23.78800 49.08300 22.08200
H  19.70400 52.43000 24.59400
H  20.72400 53.88300 24.42300
H  19.45100 53.71100 25.69400
H  21.30600 51.88900 30.39100
H  22.97700 54.45700 33.22900
H  21.27200 54.17500 33.75900
H  21.51000 55.46300 32.64700

