158

Mg -0.90000 17.81500 27.49300
C  -1.65300 15.23400 30.02200
C  -1.55200 20.05300 30.05100
C  -0.94400 20.08400 25.17200
C  -0.84000 15.20300 25.21200
N  -1.47800 17.61300 29.79200
C  -1.67600 16.54700 30.52600
C  -1.76500 16.92200 32.06800
C  -1.93400 18.50900 32.03900
C  -1.46900 18.77300 30.57600
C  -3.39300 19.02500 32.41900
C  -0.59400 16.34200 32.86900
C  -0.01300 17.07200 34.13600
H  0.63300 16.27900 35.26300
N  -1.22600 19.73500 27.57400
C  -1.56800 20.47700 28.66800
C  -1.73100 21.87600 28.29100
C  -1.57000 21.96400 26.90200
C  -1.15200 20.57100 26.51300
C  -2.04800 22.94800 29.24000
C  -1.72700 23.15300 25.93000
O  -1.55100 23.12800 24.71100
C  -1.96500 24.46300 26.48100
N  -0.86000 17.60500 25.51400
C  -0.78500 18.78800 24.74800
C  -0.66500 18.36600 23.23300
C  -0.39600 16.78300 23.30400
C  -0.67100 16.49500 24.77300
C  -1.89200 18.80100 22.37300
C  0.98700 16.20100 22.88200
C  2.11700 16.40300 23.96600
N  -1.11000 15.61800 27.60400
C  -1.14100 14.74000 26.49500
C  -1.31100 13.35800 27.00300
C  -1.57200 13.51500 28.39200
C  -1.41400 14.91700 28.65100
C  -1.32500 12.11400 26.25800
C  -1.94700 12.84500 29.59600
O  -2.16600 11.62800 29.78400
C  -1.97300 13.92100 30.73900
C  -0.85800 13.48000 31.60000
O  0.35800 13.72200 31.42500
O  -1.35500 12.83900 32.68400
C  -0.32500 12.28500 33.65100
H  -1.78500 20.81200 30.80100
H  -0.84800 20.88200 24.43300
H  -0.68700 14.49500 24.39500
H  -2.74000 16.55700 32.38900
H  -1.17100 18.97300 32.66500
H  -3.92700 18.40800 33.14200
H  -3.98700 19.18800 31.51900
H  -3.36100 19.99000 32.92500
H  0.30600 16.23300 32.26400
H  -0.89000 15.41100 33.35200
H  -0.85900 17.61300 34.56000
H  0.77800 17.76600 33.85400
H  -3.12300 22.93100 29.41900
H  -1.84600 23.96500 28.90700
H  -1.67600 22.82500 30.25700
H  -2.87000 24.31300 27.07000
H  -2.14500 25.06000 25.58700
H  -1.06800 24.78700 27.00800
H  0.11000 18.97600 22.76900
H  -1.19300 16.32500 22.71900
H  -2.47600 17.98700 21.94500
H  -1.60600 19.40700 21.51300
H  -2.59100 19.33300 23.01900
H  1.25600 16.62600 21.91500
H  0.96600 15.11400 22.80300
H  2.19600 15.49500 24.56400
H  2.09300 17.23400 24.67000
H  3.07200 16.56400 23.46600
H  -0.64300 12.13900 25.40800
H  -2.32600 11.96500 25.85300
H  -1.05400 11.24300 26.85500
H  -2.92800 13.85900 31.26100
H  0.68400 12.25300 33.23900
H  -0.64100 11.29700 33.98700
H  -0.38900 12.92500 34.53100
Mg 47.77600 15.78700 28.18700
C  45.91200 15.45000 31.20200
C  49.73200 18.16600 29.72300
C  49.18700 16.61500 25.19400
C  45.23100 13.91900 26.50000
N  47.80900 16.72500 30.22900
C  47.04000 16.30800 31.27300
C  47.58700 17.04900 32.48500
C  48.63600 18.06800 31.96600
C  48.83200 17.52800 30.56800
C  48.23000 19.61100 31.89100
C  48.10000 15.98900 33.53700
C  47.87800 16.18800 35.00500
H  47.89700 17.57200 35.56600
N  49.40200 17.01200 27.62200
C  50.07200 17.91800 28.35400
C  51.09600 18.55600 27.56400
C  51.05000 18.01800 26.27700
C  49.86500 17.07800 26.31400
C  52.04100 19.57500 28.13900
C  51.87700 18.31600 25.06000
O  51.79100 17.60100 24.08900
C  52.76700 19.45800 25.13400
N  47.31100 15.33700 26.18500
C  48.00100 15.83600 25.12500
C  47.38900 15.36900 23.76600
C  46.26800 14.41400 24.18300
C  46.31700 14.47100 25.74600
C  46.95300 16.56900 22.91500
C  46.36000 12.89300 23.75800
C  45.19900 12.34900 22.87100
N  45.96100 14.74300 28.70200
C  45.10100 13.97700 27.93800
C  44.07900 13.35900 28.82700
C  44.37000 13.92800 30.06500
C  45.51300 14.72100 29.98500
C  42.97400 12.54400 28.19700
C  43.94200 13.96100 31.45300
O  43.01800 13.39500 31.97100
C  44.89700 14.92100 32.20200
C  44.25600 16.01600 32.96900
O  44.10000 17.12500 32.37100
O  43.89800 15.68100 34.26700
C  43.15600 16.73200 34.99200
H  50.11200 19.10200 30.13600
H  49.49400 16.83100 24.16900
H  44.52700 13.32600 25.91300
H  46.71400 17.60100 32.83300
H  49.51600 17.90700 32.58800
H  48.01000 19.92400 30.87000
H  48.97700 20.26700 32.33800
H  47.26800 19.85700 32.33800
H  49.14700 15.77900 33.31700
H  47.79800 15.05200 33.07000
H  48.74000 15.67300 35.43000
H  46.96600 15.64800 35.25900
H  53.06700 19.37000 27.83300
H  52.03000 19.56900 29.22900
H  51.62600 20.49000 27.71500
H  52.07300 20.24900 25.41900
H  53.00800 19.84700 24.14500
H  53.64700 19.28000 25.75200
H  48.16100 14.75200 23.30600
H  45.31000 14.82100 23.86000
H  47.31500 16.44900 21.89400
H  47.47800 17.43600 23.31800
H  45.89200 16.74300 23.09400
H  46.42100 12.19000 24.58900
H  47.30900 12.70400 23.25700
H  45.68500 12.05100 21.94200
H  44.50500 13.12900 22.55800
H  44.61300 11.53100 23.29100
H  43.53100 11.79000 27.64000
H  42.26300 13.02600 27.52500
H  42.34500 12.08800 28.96100
H  45.47500 14.41400 32.97500
H  42.10400 16.70500 34.70800
H  43.57800 17.72000 34.80700
H  43.14400 16.44100 36.04200

