158

Mg 24.35700 -5.77800 45.52500
C  26.55700 -3.36700 44.27400
C  21.89300 -4.54300 43.44200
C  22.64000 -8.75800 45.97800
C  27.04600 -7.22200 47.22900
N  24.30900 -4.13700 44.06600
C  25.29600 -3.21200 43.72500
C  24.80700 -2.23700 42.66900
C  23.27500 -2.54600 42.68000
C  23.14500 -3.87300 43.40600
C  22.29500 -1.49200 43.23900
C  25.48000 -2.51700 41.29600
C  25.55800 -1.36200 40.34400
H  26.28300 -1.56100 38.97800
N  22.47400 -6.49100 44.94000
C  21.58700 -5.76600 44.18500
C  20.35000 -6.42800 44.19300
C  20.48100 -7.69700 44.84800
C  21.94000 -7.73100 45.31700
C  19.07000 -5.95100 43.42400
C  19.29000 -8.64500 45.06300
O  18.14100 -8.38400 44.71300
C  19.49600 -9.93000 45.86700
N  24.81500 -7.76100 46.29800
C  23.96500 -8.81100 46.39800
C  24.58300 -10.02800 47.07400
C  25.97800 -9.47500 47.52900
C  25.91900 -8.05100 47.03600
C  23.82700 -10.64400 48.27500
C  27.18000 -10.26900 46.94500
C  27.50600 -11.54700 47.69500
N  26.31600 -5.38900 45.90600
C  27.27400 -5.96700 46.67900
C  28.48300 -5.14400 46.71600
C  28.21900 -4.09600 45.78600
C  26.90500 -4.30700 45.29400
C  29.77500 -5.38500 47.49800
C  28.88000 -2.98700 45.13900
O  29.99100 -2.49500 45.14900
C  27.73400 -2.48400 44.14400
C  27.60600 -1.02100 44.28800
O  28.03700 -0.23600 43.49900
O  26.91700 -0.72900 45.48700
C  26.39500 0.62700 45.68500
H  20.95000 -4.14700 43.05800
H  21.99300 -9.63600 46.04000
H  27.71800 -7.60700 47.99900
H  25.00200 -1.19200 42.91000
H  22.91300 -2.57700 41.65200
H  21.49900 -1.93900 43.83400
H  21.82000 -0.91800 42.44300
H  22.88900 -0.89800 43.93300
H  24.99000 -3.34600 40.78500
H  26.49600 -2.86000 41.49400
H  25.82100 -0.43500 40.85300
H  24.50000 -1.16900 40.17000
H  19.28400 -5.18500 42.67900
H  18.49500 -5.32100 44.10300
H  18.62100 -6.71500 42.78900
H  19.90100 -10.69100 45.20000
H  18.56500 -10.28800 46.30600
H  20.08600 -9.61600 46.72800
H  24.73900 -10.86200 46.39000
H  26.01600 -9.39700 48.61600
H  24.46400 -10.70500 49.15700
H  23.49500 -11.67200 48.13300
H  22.91000 -10.09500 48.48900
H  28.07800 -9.65700 46.85200
H  26.88900 -10.68800 45.98200
H  28.55000 -11.57200 48.00700
H  27.30100 -12.30500 46.94000
H  26.89800 -11.82500 48.55600
H  30.19700 -4.38200 47.56700
H  30.33300 -6.15200 46.96000
H  29.55400 -5.70400 48.51600
H  28.27900 -2.60200 43.20800
H  26.36700 0.82200 46.75700
H  25.35900 0.61900 45.34300
H  26.96300 1.42700 45.21000
Mg -11.61800 17.24300 42.23400
C  -8.12800 17.25300 42.58200
C  -11.57600 20.56800 41.56600
C  -14.90300 16.92800 41.48000
C  -11.42800 13.62500 42.29500
N  -10.04600 18.70100 42.17000
C  -8.69000 18.51200 42.26700
C  -7.92500 19.82900 42.02700
C  -9.11000 20.87000 42.24800
C  -10.32100 20.01600 41.94500
C  -9.08900 21.56300 43.65100
C  -7.35000 19.93200 40.62400
C  -5.81800 20.09100 40.60700
H  -5.01900 19.10500 39.85100
N  -13.09100 18.60100 41.67000
C  -12.84700 19.94800 41.47200
C  -14.08700 20.54300 41.17400
C  -15.13400 19.57000 41.14600
C  -14.41500 18.27200 41.39300
C  -14.19800 21.97500 40.86600
C  -16.61400 19.87100 40.95600
O  -16.99300 21.03800 40.83000
C  -17.65300 18.68000 40.83100
N  -12.93700 15.40200 41.55800
C  -14.23700 15.68600 41.61800
C  -15.09200 14.41900 41.88600
C  -13.96900 13.27900 41.98500
C  -12.72700 14.14100 42.05200
C  -16.05900 14.44700 43.09400
C  -13.91300 12.24800 40.80600
C  -14.13900 10.77000 41.24100
N  -10.10800 15.73000 42.38800
C  -10.20200 14.29500 42.43400
C  -8.84200 13.79100 42.63000
C  -8.05300 14.93200 42.78400
C  -8.84900 16.04200 42.60400
C  -8.34900 12.38300 42.64100
C  -6.66900 15.37800 43.14400
O  -5.68900 14.72300 43.38500
C  -6.69000 16.90900 43.06700
C  -6.39500 17.50100 44.38200
O  -6.89600 17.20000 45.46100
O  -5.44000 18.48600 44.21600
C  -5.30900 19.54900 45.20100
H  -11.51100 21.65700 41.51500
H  -15.96400 16.77200 41.27100
H  -11.31100 12.54200 42.37300
H  -7.11800 19.91700 42.75300
H  -9.15300 21.65500 41.49300
H  -8.24900 21.33900 44.30800
H  -9.92800 21.02000 44.08700
H  -9.19200 22.64700 43.69800
H  -7.80300 20.70500 40.00400
H  -7.55800 18.99500 40.10700
H  -5.39600 20.17800 41.60800
H  -5.65100 21.09800 40.22500
H  -14.31700 22.10900 39.79100
H  -13.32300 22.54600 41.17500
H  -15.03500 22.37000 41.44200
H  -18.59900 19.06900 40.45300
H  -17.90700 18.40600 41.85500
H  -17.34400 17.84900 40.19700
H  -15.72600 14.22300 41.02100
H  -13.96200 12.82800 42.97700
H  -16.32900 15.49200 43.24200
H  -15.63800 14.03200 44.00900
H  -16.98600 13.90800 42.89700
H  -12.93100 12.39000 40.35500
H  -14.58300 12.53800 39.99600
H  -13.35500 10.13700 40.82800
H  -15.06900 10.51700 40.73300
H  -14.35500 10.66900 42.30500
H  -8.76800 11.86400 41.78000
H  -8.91100 12.02200 43.50300
H  -7.26500 12.37100 42.75300
H  -5.93300 17.18900 42.33300
H  -5.03600 20.46800 44.68100
H  -4.63400 19.37100 46.03700
H  -6.25600 19.69200 45.72100

