158

Mg 1.03700 8.28300 26.83400
C  1.80900 10.50900 29.35400
C  1.44500 5.70300 29.29700
C  0.72400 6.00900 24.44600
C  1.06800 10.88500 24.57000
N  1.52100 8.15600 29.05200
C  1.61900 9.23600 29.84000
C  1.38000 8.77100 31.32100
C  1.58400 7.26000 31.29000
C  1.47600 7.03200 29.81200
C  2.95700 6.77600 31.81700
C  -0.04400 9.31400 31.72600
C  -0.19100 9.31000 33.28500
H  0.98500 8.78300 34.18600
N  1.05600 6.16600 26.81500
C  1.17500 5.28900 27.87700
C  1.05300 3.91000 27.47100
C  1.01900 4.02700 26.01400
C  0.90900 5.46000 25.68500
C  1.09100 2.74600 28.41400
C  1.19000 2.93400 24.95900
O  1.26700 3.14100 23.76900
C  1.38400 1.50700 25.43700
N  1.10800 8.44500 24.74000
C  0.73900 7.34800 23.97500
C  0.39100 7.76500 22.52800
C  0.30800 9.36200 22.64300
C  0.86500 9.59600 24.05500
C  1.39000 7.31400 21.42400
C  -1.04400 10.03000 22.34000
C  -0.92500 11.16500 21.25800
N  1.48600 10.29500 26.92000
C  1.50600 11.19800 25.94900
C  1.93900 12.51600 26.47500
C  2.08200 12.32500 27.90400
C  1.79700 10.92100 28.03300
C  2.29200 13.78900 25.65900
C  2.49000 12.85700 29.16300
O  2.96300 13.93600 29.45400
C  2.16800 11.68400 30.18500
C  3.32300 11.51400 31.04900
O  4.35500 10.91700 30.80400
O  3.14700 12.24500 32.21300
C  4.18600 12.29600 33.28600
H  1.34600 4.91000 30.04100
H  0.39700 5.29500 23.68700
H  0.97000 11.67600 23.82300
H  2.10700 9.30600 31.93300
H  0.84800 6.70400 31.87100
H  2.80400 6.09500 32.65500
H  3.56800 7.65400 32.02900
H  3.47900 6.20300 31.05100
H  -0.72800 8.52300 31.41800
H  -0.41800 10.25900 31.33200
H  -1.03900 8.67900 33.55200
H  -0.42200 10.35900 33.47000
H  1.10100 3.08200 29.45100
H  2.03900 2.21900 28.31100
H  0.25900 2.06600 28.23200
H  0.43500 0.99400 25.59400
H  2.09200 1.58700 26.26100
H  1.92700 0.92700 24.69100
H  -0.58600 7.38600 22.22900
H  1.12700 9.74600 22.03500
H  2.34800 7.10400 21.89800
H  1.64500 8.00000 20.61700
H  0.90800 6.45900 20.95000
H  -1.25900 10.61400 23.23500
H  -1.85100 9.34900 22.06900
H  -0.88200 12.05900 21.88000
H  -1.71000 11.26200 20.50800
H  -0.02600 11.04200 20.65300
H  3.14000 14.33300 26.07700
H  1.51500 14.54900 25.57800
H  2.44000 13.51700 24.61400
H  1.31000 12.08200 30.72600
H  4.08400 13.20900 33.87200
H  5.17600 12.23600 32.83300
H  4.03600 11.49200 34.00600
Mg -0.14800 43.90100 26.13900
C  1.87100 44.04400 28.98400
C  -2.88700 43.04900 27.96200
C  -1.75300 43.33500 23.18100
C  2.81300 44.51000 24.22600
N  -0.45700 43.49300 28.21200
C  0.49200 43.57500 29.20000
C  -0.17600 43.46900 30.60600
C  -1.60300 43.01400 30.26800
C  -1.66600 43.17400 28.72400
C  -2.07300 41.56800 30.72100
C  -0.24200 44.70700 31.61900
C  0.30600 44.37700 32.97100
H  0.07600 42.97400 33.69300
N  -2.04800 43.32000 25.59500
C  -3.06600 43.09100 26.56900
C  -4.27600 42.88600 25.77300
C  -3.95100 42.80700 24.36800
C  -2.51300 43.08100 24.35100
C  -5.64100 42.73600 26.43400
C  -4.82200 42.48400 23.13500
O  -4.40400 42.23900 22.01200
C  -6.31900 42.42700 23.26500
N  0.51400 43.78300 24.01100
C  -0.42800 43.71100 23.02000
C  0.16200 43.80800 21.66700
C  1.63100 44.40500 21.99500
C  1.66800 44.23400 23.49500
C  0.15700 42.50200 20.80600
C  1.93400 45.82600 21.43700
C  1.41100 47.11900 22.11400
N  1.91400 44.25400 26.52500
C  3.00400 44.51400 25.66200
C  4.22700 44.69300 26.42500
C  3.80800 44.59600 27.77000
C  2.45000 44.28400 27.72700
C  5.60500 44.89800 25.97500
C  4.20400 44.58900 29.17100
O  5.29300 44.74400 29.60000
C  2.96500 44.33600 29.97800
C  3.31600 43.13900 30.81900
O  2.84800 41.98800 30.62600
O  4.22800 43.49400 31.89500
C  4.53400 42.41900 32.85600
H  -3.77100 42.73000 28.51900
H  -2.24700 43.27300 22.20800
H  3.62400 44.99000 23.67500
H  0.26400 42.64300 31.16500
H  -2.32200 43.75300 30.62000
H  -2.47600 41.06400 29.84200
H  -2.95400 41.50700 31.35900
H  -1.26900 41.00800 31.19800
H  -1.22300 45.16300 31.75500
H  0.41400 45.34000 31.02200
H  -0.09600 45.24000 33.50000
H  1.36600 44.60800 32.86200
H  -6.16500 43.68000 26.28300
H  -5.57600 42.77400 27.52200
H  -6.17500 41.86200 26.06200
H  -6.61500 41.60700 23.91900
H  -6.65600 42.09200 22.28400
H  -6.67600 43.42000 23.53600
H  -0.27500 44.70400 21.22600
H  2.50400 43.85300 21.64700
H  -0.54500 41.86400 21.34200
H  1.15400 42.06300 20.82300
H  0.03700 42.51100 19.72200
H  1.69900 45.92900 20.37700
H  3.02300 45.81800 21.40400
H  2.28900 47.59900 22.54600
H  0.65400 46.82300 22.84100
H  0.84000 47.81200 21.49600
H  5.93700 44.12400 25.28300
H  6.26300 45.16600 26.80100
H  5.81100 45.78800 25.38000
H  2.86300 45.12000 30.72900
H  3.72300 42.56500 33.57000
H  5.37600 42.80300 33.43200
H  4.55300 41.40600 32.45300

