158

Mg 17.08800 -2.99200 27.57900
C  16.24900 -1.02400 30.24400
C  18.65700 -5.19000 29.68900
C  17.88600 -4.76600 24.89000
C  15.55500 -0.56100 25.42100
N  17.37600 -3.10800 29.69000
C  16.93000 -2.18600 30.60600
C  17.27200 -2.68900 32.06900
C  18.09500 -3.98900 31.81600
C  18.01500 -4.13400 30.29700
C  19.54200 -4.04400 32.45300
C  16.01100 -2.92100 32.93900
C  16.11800 -2.54200 34.48600
H  17.43500 -1.91800 35.07600
N  18.05300 -4.83000 27.34300
C  18.72100 -5.51700 28.32300
C  19.34200 -6.73400 27.70400
C  19.04900 -6.67200 26.27400
C  18.29400 -5.40300 26.11800
C  20.00000 -7.80400 28.55100
C  19.42000 -7.72300 25.25000
O  19.16200 -7.61400 24.01100
C  20.17600 -8.95100 25.55400
N  16.81200 -2.73100 25.42800
C  17.25300 -3.55500 24.52500
C  17.00000 -3.07500 23.03600
C  16.21700 -1.70200 23.27900
C  16.22400 -1.63400 24.82000
C  18.23100 -2.92700 22.11000
C  14.67000 -1.71300 22.88200
C  13.52200 -2.19600 23.79600
N  15.99300 -1.18200 27.77200
C  15.43300 -0.30700 26.82500
C  14.78700 0.79700 27.50400
C  15.05700 0.53200 28.89200
C  15.83300 -0.64800 28.96800
C  14.01200 1.94400 26.84400
C  14.91400 1.06900 30.16100
O  14.43300 2.08200 30.48900
C  15.61400 0.09000 31.17700
C  16.60400 0.80800 31.93300
O  17.77500 1.08000 31.59400
O  15.95400 1.19200 33.07700
C  16.79100 2.08000 33.95900
H  19.18800 -5.84500 30.38300
H  18.14900 -5.29100 23.97000
H  15.11300 0.20800 24.78500
H  17.96100 -2.00900 32.56900
H  17.53800 -4.85800 32.16600
H  19.80200 -3.06800 32.86300
H  20.28600 -4.28800 31.69500
H  19.66900 -4.78700 33.24100
H  15.66000 -3.95100 32.88200
H  15.19900 -2.34000 32.50000
H  15.85100 -3.37600 35.13500
H  15.36900 -1.75700 34.58400
H  19.41400 -8.72200 28.53700
H  20.13100 -7.45500 29.57500
H  20.98100 -8.01400 28.12400
H  21.11000 -8.90200 26.11300
H  20.40900 -9.43600 24.60600
H  19.43700 -9.55400 26.08200
H  16.22900 -3.74700 22.66200
H  16.64900 -0.76100 22.93700
H  18.49200 -1.88000 21.95600
H  18.14900 -3.59400 21.25200
H  19.16700 -3.15400 22.62000
H  14.62800 -2.24900 21.93300
H  14.45300 -0.66800 22.66200
H  12.68300 -2.45200 23.14900
H  13.16300 -1.33200 24.35600
H  13.83600 -2.98400 24.48100
H  13.94800 1.80300 25.76500
H  14.41200 2.89800 27.18800
H  12.99500 1.89300 27.23200
H  14.82100 -0.27400 31.83100
H  17.80400 1.71600 34.12800
H  16.39700 2.13000 34.97300
H  16.96700 3.06000 33.51500
Mg -10.26900 39.96100 42.12600
C  -9.95800 36.61000 41.15300
C  -7.48100 40.62000 40.49400
C  -11.11700 43.23400 42.36500
C  -13.41800 39.24400 43.52000
N  -8.89600 38.76900 40.98200
C  -8.95600 37.43900 40.73600
C  -7.80300 36.93200 39.84800
C  -6.91600 38.21600 39.72400
C  -7.72900 39.26200 40.51400
C  -5.45000 38.10500 40.19300
C  -8.19300 36.28000 38.41600
C  -7.20000 35.19700 37.90800
H  -6.18900 35.57600 36.82700
N  -9.40800 41.67300 41.58700
C  -8.16200 41.71300 40.97100
C  -7.75500 43.14300 40.85500
C  -8.81400 43.91400 41.38000
C  -9.88300 42.98900 41.82400
C  -6.48200 43.60200 40.13000
C  -8.78400 45.40600 41.36500
O  -7.75700 46.04500 41.04300
C  -10.08300 46.24900 41.51900
N  -12.10100 41.08100 42.64900
C  -12.23100 42.38200 42.75600
C  -13.53700 42.88400 43.43300
C  -14.24900 41.57900 43.86800
C  -13.16300 40.59300 43.31200
C  -13.34200 44.11100 44.39900
C  -15.65300 41.20500 43.37600
C  -16.67900 40.82500 44.48000
N  -11.47700 38.25900 42.30700
C  -12.70000 38.12400 42.98200
C  -13.07500 36.67500 42.87700
C  -11.96900 36.03000 42.26300
C  -11.11800 37.04000 41.86000
C  -14.23900 36.04700 43.50500
C  -11.31800 34.71800 41.90000
O  -11.74800 33.58800 42.14700
C  -10.05900 35.10200 41.09700
C  -8.83400 34.48200 41.62100
O  -8.40000 34.54300 42.71500
O  -8.36200 33.62800 40.68000
C  -7.23800 32.70600 40.85000
H  -6.57100 40.80200 39.91700
H  -11.40800 44.28400 42.43800
H  -14.29700 38.99200 44.11800
H  -7.29500 36.17100 40.44100
H  -7.09500 38.54700 38.70000
H  -5.01000 37.14000 39.94200
H  -5.30800 38.15700 41.27200
H  -4.73300 38.78300 39.73100
H  -7.99400 36.98200 37.60600
H  -9.27200 36.14200 38.35700
H  -7.79200 34.37800 37.50000
H  -6.67300 34.79700 38.77500
H  -6.47100 44.23800 39.24500
H  -5.79300 42.76900 39.99700
H  -6.03300 44.25100 40.88200
H  -10.24000 46.24300 42.59800
H  -10.95400 45.88500 40.97400
H  -9.91600 47.29800 41.27200
H  -14.10900 43.28000 42.59500
H  -14.17300 41.71200 44.94700
H  -13.80400 43.82900 45.34500
H  -13.92600 44.92800 43.97500
H  -12.29200 44.37900 44.51700
H  -15.71500 40.49400 42.55100
H  -16.00700 42.14900 42.96300
H  -17.39500 41.63800 44.59600
H  -16.24800 40.68500 45.47100
H  -17.21400 39.91400 44.21200
H  -15.10100 36.23800 42.86600
H  -14.46000 36.53700 44.45400
H  -14.11600 34.96800 43.59400
H  -10.27900 34.65800 40.12600
H  -7.47700 31.76300 41.34100
H  -6.49200 33.18100 41.48800
H  -6.79600 32.51400 39.87200

