158

Mg 26.13300 1.15300 28.93000
C  27.99400 1.06100 31.86100
C  23.29800 1.21300 30.87100
C  24.52800 1.56700 26.16400
C  29.00600 0.63800 27.11700
N  25.72300 1.08700 31.12900
C  26.68400 1.23100 32.11200
C  26.00400 1.39000 33.50400
C  24.48700 1.17700 33.19100
C  24.46400 1.14100 31.62600
C  23.88100 -0.08000 33.89400
C  26.32800 2.73500 34.20900
C  27.01500 2.56600 35.63300
H  26.60300 3.51700 36.71000
N  24.16400 1.25100 28.57300
C  23.12200 1.22900 29.48900
C  21.89700 1.43400 28.75200
C  22.25700 1.73700 27.42700
C  23.73200 1.47100 27.32200
C  20.55400 1.48300 29.40700
C  21.42700 2.41500 26.29500
O  21.87100 2.71400 25.23400
C  20.05700 2.75700 26.72200
N  26.67400 0.94800 26.90000
C  25.82500 1.42000 25.98500
C  26.47100 1.52600 24.58100
C  27.98300 1.32900 24.90400
C  27.93600 0.87100 26.36700
C  25.86700 0.48800 23.56400
C  28.76600 2.68400 24.92500
C  30.17900 2.61400 24.29500
N  28.11000 0.75600 29.35700
C  29.12000 0.50800 28.52800
C  30.36100 0.18400 29.28900
C  29.97700 0.54100 30.56700
C  28.57500 0.77700 30.58600
C  31.68300 -0.18000 28.76800
C  30.49500 0.58100 31.90500
O  31.61700 0.34300 32.34300
C  29.26500 0.99700 32.78400
C  29.16900 0.06500 33.91100
O  28.62800 -1.00200 33.97100
O  29.76200 0.67700 34.98300
C  29.88100 -0.11600 36.22400
H  22.41200 1.17800 31.50800
H  24.06800 1.84200 25.21300
H  29.99200 0.59300 26.65000
H  26.44900 0.61900 34.13200
H  23.98900 2.08400 33.53500
H  24.71500 -0.72500 34.17200
H  23.37100 -0.55800 33.05800
H  23.17900 0.13000 34.70100
H  25.46100 3.37000 34.39100
H  26.96700 3.30800 33.53700
H  28.05600 2.82600 35.44600
H  26.87200 1.54900 36.00100
H  19.87500 2.32500 29.27600
H  20.49900 1.27800 30.47700
H  20.03200 0.62900 28.97400
H  19.46900 3.18500 25.91000
H  20.14200 3.58500 27.42600
H  19.51000 1.88000 27.06900
H  26.16000 2.53000 24.29000
H  28.51600 0.61100 24.28100
H  25.21400 -0.24100 24.04200
H  26.71400 0.01600 23.06500
H  25.37800 1.01000 22.74100
H  28.82000 3.08700 25.93700
H  28.17600 3.42000 24.38100
H  30.71200 3.30000 24.95400
H  30.25500 3.01500 23.28500
H  30.51200 1.58300 24.41500
H  32.48900 0.47900 29.09200
H  31.78100 -0.18900 27.68300
H  31.90700 -1.17500 29.15300
H  29.41700 1.94200 33.30500
H  30.41300 -1.05600 36.07900
H  28.85600 -0.36200 36.49900
H  30.45100 0.30300 37.05300
Mg 55.41600 24.42800 45.35700
C  52.63900 26.38600 44.67400
C  53.62300 21.61400 44.50400
C  58.28500 22.66400 45.40500
C  57.10300 27.41300 46.24100
N  53.39100 24.03300 44.55400
C  52.42100 25.00100 44.41200
C  51.15600 24.35500 43.96100
C  51.32400 22.80400 44.25900
C  52.87100 22.77100 44.45200
C  50.73500 22.25500 45.64600
C  50.56900 24.64400 42.50400
C  49.00700 24.59900 42.29400
H  48.45500 24.12200 40.86800
N  55.97000 22.39800 44.92200
C  55.04600 21.37600 44.68200
C  55.75700 20.21700 44.33500
C  57.14600 20.43900 44.64600
C  57.22200 21.87100 45.01600
C  55.02100 19.06700 43.74400
C  58.17500 19.41300 44.69000
O  57.93100 18.23000 44.37400
C  59.58900 19.76000 45.11000
N  57.35800 24.89600 45.67700
C  58.38200 23.98400 45.73500
C  59.66900 24.65000 46.21800
C  59.31200 26.15700 46.24800
C  57.85700 26.20300 45.96000
C  60.27300 24.09700 47.51600
C  60.14200 27.11400 45.26200
C  61.38700 27.67200 45.82400
N  54.95600 26.48900 45.57500
C  55.71900 27.59000 45.92400
C  54.89400 28.81900 45.94000
C  53.67400 28.36600 45.41900
C  53.79600 26.98500 45.19500
C  55.37100 30.11600 46.52600
C  52.33700 28.82800 45.03700
O  51.74800 29.88200 45.16800
C  51.65100 27.54700 44.45800
C  51.45200 27.75800 43.01400
O  52.28600 27.70300 42.08400
O  50.12600 27.95000 42.78600
C  49.88500 28.92100 41.71000
H  53.04000 20.69900 44.38400
H  59.23000 22.13600 45.55400
H  57.56600 28.36500 46.50700
H  50.40400 24.78100 44.62600
H  50.86100 22.18000 43.49500
H  50.08400 23.04300 46.02700
H  51.47800 22.00300 46.40300
H  50.11600 21.37700 45.46400
H  50.88100 23.75100 41.96300
H  50.83700 25.52400 41.91900
H  48.73700 25.64700 42.42600
H  48.59100 23.98600 43.09400
H  54.47300 18.41400 44.42400
H  55.63000 18.38700 43.14900
H  54.27000 19.44300 43.04900
H  59.95600 20.39500 44.30300
H  60.24000 18.88600 45.07400
H  59.53000 20.16600 46.11900
H  60.30700 24.42800 45.36300
H  59.43300 26.49600 47.27700
H  59.91200 23.06900 47.48000
H  59.89000 24.62100 48.39200
H  61.35400 24.19200 47.41200
H  59.39500 27.84400 44.94900
H  60.47000 26.42800 44.48000
H  61.54400 27.32300 46.84500
H  61.35200 28.76100 45.78200
H  62.28300 27.33700 45.30200
H  56.28000 30.45000 46.02500
H  55.47700 29.91100 47.59100
H  54.57700 30.86300 46.52400
H  50.76000 27.29400 45.03300
H  50.59500 29.74200 41.80100
H  48.90600 29.39900 41.74900
H  49.95300 28.45700 40.72600

