158

Mg 9.67800 4.37300 27.78600
C  10.81600 2.71000 30.84200
C  7.85500 6.37600 29.65900
C  8.10300 5.46900 24.89100
C  11.10500 1.81200 25.88500
N  9.27800 4.42200 30.05400
C  10.02600 3.86900 31.08600
C  9.75400 4.55100 32.41100
C  8.60600 5.54600 32.01900
C  8.55100 5.44200 30.46400
C  7.18000 5.23400 32.67800
C  11.04100 5.17000 33.13800
C  11.60900 4.41500 34.31400
H  11.90700 5.28200 35.58100
N  8.26900 5.81300 27.40100
C  7.63000 6.56900 28.26300
C  6.78400 7.58600 27.62500
C  6.99300 7.42200 26.21100
C  7.86800 6.26000 26.04200
C  6.07700 8.65500 28.48300
C  6.48200 8.21400 25.01800
O  6.74200 7.98600 23.87700
C  5.61100 9.51600 25.24700
N  9.78700 3.85700 25.66600
C  8.85100 4.24800 24.80200
C  8.98400 3.57000 23.40900
C  10.14800 2.55500 23.67600
C  10.45100 2.78800 25.15200
C  7.79800 2.95800 22.81300
C  11.36600 2.76900 22.72100
C  11.62500 1.93500 21.44400
N  10.77800 2.68400 28.19300
C  11.17500 1.67300 27.32300
C  11.67800 0.55400 28.08200
C  11.60700 0.95000 29.44800
C  11.04800 2.18100 29.47600
C  12.15500 -0.74200 27.49400
C  11.89700 0.50600 30.83800
O  12.40200 -0.57800 31.19700
C  11.45800 1.72300 31.83100
C  10.57200 1.11200 32.84100
O  9.37000 1.15800 32.84000
O  11.31500 0.47500 33.82000
C  10.67200 0.37700 35.11400
H  7.58300 7.18500 30.34200
H  7.69800 5.69700 23.90300
H  11.50300 1.04200 25.22100
H  9.33200 3.68000 32.91400
H  8.86900 6.57400 32.27200
H  7.16300 4.37600 33.35000
H  6.48400 5.04100 31.86200
H  6.78300 6.05900 33.27000
H  10.80200 6.21000 33.36000
H  11.68900 5.15000 32.26100
H  12.54100 3.95700 33.98300
H  10.81500 3.72500 34.59700
H  4.99900 8.72600 28.33600
H  6.57100 9.57700 28.17800
H  6.17200 8.50100 29.55700
H  5.44600 9.87100 24.23000
H  6.07400 10.34100 25.78800
H  4.60500 9.22300 25.54800
H  9.21800 4.40800 22.75200
H  9.85300 1.50800 23.59600
H  7.88700 1.89000 22.61700
H  7.61800 3.55000 21.91600
H  6.88900 3.07700 23.40300
H  12.24100 2.62900 23.35500
H  11.39800 3.78900 22.33700
H  11.88200 2.57800 20.60200
H  10.74300 1.31800 21.27400
H  12.41400 1.19600 21.58300
H  11.94600 -1.59700 28.13700
H  13.17600 -0.62700 27.12800
H  11.58400 -0.90500 26.58000
H  12.37200 2.14400 32.25100
H  11.48900 0.41200 35.83500
H  10.15800 -0.58400 35.14100
H  9.90900 1.12100 35.33900
Mg -10.92700 16.88600 42.82000
C  -7.38300 16.73900 42.18000
C  -10.78300 20.14700 41.71200
C  -14.22000 16.90500 42.75500
C  -10.84800 13.39800 43.09300
N  -9.22600 18.33200 42.21700
C  -7.91300 18.00600 42.02000
C  -7.18500 19.28400 41.45700
C  -8.24400 20.39900 41.52100
C  -9.50000 19.56300 41.82400
C  -7.88200 21.43700 42.58600
C  -6.68000 18.94700 39.99700
C  -5.15900 19.23600 39.81300
H  -4.60200 19.63200 38.49500
N  -12.39300 18.39000 42.54600
C  -12.10800 19.61600 41.95100
C  -13.40300 20.22500 41.63000
C  -14.44300 19.35900 42.16100
C  -13.71600 18.19400 42.59000
C  -13.49400 21.57000 41.01600
C  -15.97300 19.63400 42.11300
O  -16.40900 20.75000 41.73000
C  -17.03600 18.74100 42.67100
N  -12.33400 15.32400 42.67900
C  -13.63400 15.64600 42.89600
C  -14.39200 14.47200 43.29200
C  -13.41000 13.33300 43.37800
C  -12.10900 14.06700 43.02300
C  -15.24900 14.59200 44.59200
C  -13.78200 12.07600 42.41500
C  -14.73800 11.10900 43.13200
N  -9.47100 15.36900 42.76300
C  -9.59700 13.99800 43.00400
C  -8.25400 13.40500 43.17400
C  -7.37800 14.45900 42.85400
C  -8.17800 15.61000 42.61500
C  -7.83100 12.05300 43.44300
C  -6.00400 14.75400 42.62300
O  -5.04600 13.93000 42.67900
C  -5.95700 16.23200 42.23300
C  -5.16100 17.00400 43.14700
O  -4.08400 17.55800 42.92000
O  -5.79700 17.05500 44.41500
C  -4.99400 17.52800 45.57200
H  -10.76600 21.18900 41.38500
H  -15.28200 16.90000 43.00900
H  -10.79700 12.33100 43.31900
H  -6.32900 19.40100 42.12100
H  -8.33000 20.98600 40.60600
H  -6.87800 21.81300 42.39000
H  -7.67400 20.84800 43.47900
H  -8.63000 22.22400 42.68900
H  -7.30800 19.44500 39.25800
H  -6.76800 17.86700 39.87600
H  -4.58400 18.41600 40.24300
H  -5.01100 20.10600 40.45300
H  -12.51900 21.92600 40.68100
H  -13.96300 22.26700 41.71000
H  -14.19900 21.59100 40.18500
H  -16.91600 17.80800 42.11900
H  -18.02100 19.12500 42.40100
H  -16.87200 18.61300 43.74100
H  -15.19100 14.34300 42.56100
H  -13.24700 12.92100 44.37400
H  -15.05600 15.49800 45.16700
H  -15.00200 13.68000 45.13500
H  -16.32400 14.57800 44.40900
H  -12.80000 11.65500 42.19900
H  -14.20900 12.53000 41.52100
H  -15.65800 10.96400 42.56600
H  -14.99600 11.41700 44.14500
H  -14.24400 10.15000 43.28800
H  -7.15300 11.68400 42.67400
H  -8.62000 11.30100 43.47400
H  -7.21700 12.07900 44.34200
H  -5.46700 16.18800 41.26000
H  -4.03100 17.01900 45.61800
H  -5.44300 17.28800 46.53500
H  -4.79200 18.59000 45.43500

