158

Mg 8.42300 2.17600 27.90500
C  9.62200 0.59700 30.80300
C  6.55100 4.34700 30.00300
C  6.77800 3.31100 25.22500
C  10.24000 -0.00900 25.97900
N  7.89100 2.16400 30.12300
C  8.68200 1.59300 31.10000
C  8.52900 2.31500 32.47400
C  7.44600 3.34800 32.17600
C  7.19900 3.23100 30.68000
C  6.14400 3.27600 32.98100
C  9.89900 2.91900 33.12300
C  9.77900 3.71600 34.40800
H  10.50100 3.27000 35.66200
N  6.85700 3.60700 27.66100
C  6.33300 4.46200 28.58300
C  5.36000 5.33100 27.99900
C  5.47600 5.12300 26.60500
C  6.39300 3.98300 26.42400
C  4.61200 6.40900 28.81500
C  4.68400 5.73600 25.41100
O  4.69500 5.31300 24.23100
C  3.67400 6.87600 25.72200
N  8.46800 1.68200 25.92200
C  7.71400 2.28300 24.94200
C  8.08200 1.85200 23.48900
C  9.25300 0.87600 23.77800
C  9.27900 0.73400 25.28000
C  6.84400 1.11900 22.78800
C  10.63200 1.33800 23.30100
C  11.47000 2.31200 24.19400
N  9.68000 0.59000 28.29400
C  10.35100 -0.14500 27.38800
C  11.30500 -1.01900 28.08900
C  10.97100 -0.80300 29.43300
C  9.92500 0.17000 29.49900
C  12.15200 -2.18000 27.55900
C  11.32100 -1.14100 30.80200
O  12.11300 -2.02400 31.18100
C  10.59000 -0.16100 31.77400
C  9.79000 -0.86600 32.93100
O  8.91600 -1.71600 32.75200
O  10.23400 -0.53000 34.19300
C  9.90000 -1.40000 35.29100
H  5.99200 4.99500 30.68200
H  6.25600 3.63400 24.32200
H  10.92400 -0.69900 25.48100
H  8.27400 1.58700 33.24400
H  7.78300 4.33100 32.50400
H  6.26400 2.63100 33.85100
H  5.40000 2.95700 32.25100
H  5.89100 4.22500 33.45300
H  10.42800 3.43900 32.32500
H  10.57600 2.10800 33.39400
H  8.71600 3.74800 34.65000
H  10.18100 4.67500 34.08300
H  3.55200 6.21400 28.65500
H  4.80200 7.35200 28.30300
H  4.69200 6.67900 29.86800
H  3.13900 7.27600 24.86100
H  4.18300 7.62200 26.33200
H  2.81800 6.49000 26.27600
H  8.29900 2.76700 22.93700
H  9.05500 -0.15100 23.47100
H  6.11800 0.91000 23.57300
H  7.08900 0.15000 22.35500
H  6.31800 1.76800 22.08700
H  10.48300 1.83100 22.34000
H  11.23500 0.44000 23.16900
H  10.94800 2.62900 25.09700
H  11.74000 3.17200 23.58100
H  12.46800 1.92400 24.40100
H  12.46900 -2.10600 26.51900
H  11.65500 -3.13300 27.74100
H  13.12200 -2.22600 28.05400
H  11.32000 0.53300 32.19100
H  9.62100 -0.87500 36.20400
H  10.84200 -1.85600 35.59600
H  9.05200 -2.05200 35.08200
Mg 17.03700 53.10500 25.79900
C  19.06300 52.39300 28.70700
C  14.47800 53.90500 27.95800
C  15.30700 53.95800 23.12500
C  19.72400 51.90700 23.85600
N  16.84600 53.11900 28.08900
C  17.74200 52.80900 29.10100
C  17.14600 52.72800 30.45500
C  15.57800 53.04300 30.17400
C  15.60300 53.36700 28.64200
C  14.64400 51.90300 30.53800
C  17.83400 53.69600 31.54300
C  17.63300 53.13900 32.95500
H  16.80000 53.76200 34.09500
N  15.12700 53.82000 25.62900
C  14.24700 54.10100 26.61600
C  13.06000 54.68600 26.01000
C  13.31200 54.72500 24.57800
C  14.60800 54.11200 24.38300
C  11.79400 54.90400 26.83300
C  12.37600 55.14200 23.49100
O  12.66100 55.23900 22.27300
C  10.89700 55.50300 23.95000
N  17.48500 53.01700 23.79600
C  16.60400 53.33900 22.89300
C  17.18700 53.08500 21.48500
C  18.55400 52.28400 21.71000
C  18.59300 52.39800 23.23100
C  16.19300 52.28300 20.58400
C  19.77500 53.03900 21.02700
C  20.17300 54.44200 21.52200
N  18.98500 52.35700 26.18100
C  19.93200 51.94000 25.26600
C  21.16500 51.47700 26.01300
C  20.86200 51.72000 27.35600
C  19.54600 52.24900 27.37700
C  22.38900 50.92000 25.45300
C  21.33000 51.53400 28.70000
O  22.45200 51.08000 28.98700
C  20.21100 51.92100 29.63600
C  19.97000 50.78800 30.53000
O  19.85100 49.62900 30.11200
O  20.05000 51.17800 31.84400
C  20.00200 50.16900 32.91800
H  13.62800 54.10900 28.61300
H  14.82100 54.31800 22.21600
H  20.55800 51.55800 23.24500
H  17.20800 51.68500 30.76400
H  15.19200 53.98100 30.57300
H  14.48600 51.26100 29.67200
H  13.72200 52.27000 30.98900
H  15.15700 51.29400 31.28200
H  17.46200 54.72000 31.55800
H  18.86900 53.73600 31.20200
H  18.64300 53.16600 33.36400
H  17.41600 52.07400 33.03700
H  11.48700 55.94300 26.70800
H  11.87500 54.93300 27.91900
H  10.92100 54.32400 26.53600
H  10.86100 56.40800 24.55600
H  10.42900 54.67300 24.48000
H  10.26500 55.61500 23.07000
H  17.27700 53.91800 20.78800
H  18.39400 51.29300 21.28600
H  16.09700 51.23500 20.86800
H  16.67200 52.31500 19.60600
H  15.17600 52.66300 20.67800
H  19.55700 53.12500 19.96300
H  20.66600 52.41000 21.04000
H  21.13300 54.34100 22.02900
H  19.44000 54.77600 22.25600
H  20.20700 55.17800 20.71900
H  23.19200 51.15600 26.15100
H  22.67300 51.34300 24.48900
H  22.11000 49.88500 25.25500
H  20.66800 52.71500 30.22600
H  19.19600 49.43800 32.85100
H  19.74400 50.65800 33.85700
H  20.94100 49.62500 33.02100

