158

Mg 0.76200 -1.18000 44.13400
C  4.11500 -0.04400 43.76900
C  -0.26000 1.51800 42.33000
C  -2.28500 -2.58700 44.06700
C  2.05900 -4.28700 45.23700
N  1.81300 0.52800 43.05800
C  3.15900 0.83000 43.14700
C  3.45900 2.17000 42.48000
C  2.05000 2.76500 42.28100
C  1.11700 1.54600 42.50800
C  1.61200 4.03600 43.07800
C  4.28500 2.00100 41.11500
C  5.58100 2.75600 41.08600
H  6.70700 2.13600 40.30000
N  -1.03900 -0.54500 43.47200
C  -1.30500 0.64400 42.77000
C  -2.72800 0.64500 42.39300
C  -3.38200 -0.47700 42.95500
C  -2.28300 -1.28900 43.49100
C  -3.33500 1.95700 41.73500
C  -4.82300 -0.72900 43.01900
O  -5.62100 0.03400 42.46000
C  -5.45600 -1.77600 43.88600
N  0.06700 -3.09600 44.53400
C  -1.26000 -3.32800 44.56800
C  -1.55300 -4.74600 45.13800
C  -0.17600 -5.38900 45.27600
C  0.72600 -4.16200 45.00400
C  -2.31200 -4.67400 46.47800
C  0.16600 -6.55200 44.41900
C  0.58000 -7.75600 45.26800
N  2.61400 -2.01300 44.36800
C  2.96400 -3.25300 44.95500
C  4.46700 -3.26300 45.11700
C  4.86700 -1.98600 44.65900
C  3.75300 -1.27000 44.21900
C  5.33200 -4.37700 45.67000
C  6.09100 -1.18300 44.46700
O  7.22500 -1.60800 44.60500
C  5.65300 0.17000 43.98000
C  5.82900 1.19900 44.95900
O  5.35100 1.35000 46.12000
O  6.78600 2.05600 44.44600
C  7.32200 3.09000 45.33500
H  -0.58800 2.50500 41.99500
H  -3.24000 -3.08200 44.25400
H  2.44500 -5.29000 45.43100
H  4.02200 2.71300 43.24000
H  1.83800 3.03500 41.24600
H  0.99500 3.78400 43.94000
H  0.98400 4.60000 42.38800
H  2.43200 4.64100 43.46500
H  3.77800 2.54200 40.31600
H  4.44600 0.97200 40.79300
H  5.99000 2.83200 42.09300
H  5.50000 3.77500 40.70800
H  -3.54900 1.64500 40.71300
H  -2.64400 2.79000 41.60700
H  -4.29400 2.23500 42.17200
H  -5.27000 -2.76000 43.45400
H  -6.51200 -1.50800 43.93000
H  -4.93800 -1.76400 44.84500
H  -2.12200 -5.28800 44.38200
H  -0.01200 -5.54100 46.34200
H  -3.30100 -5.09500 46.29400
H  -2.45600 -3.65700 46.84300
H  -1.75100 -5.25000 47.21400
H  0.98600 -6.39400 43.71900
H  -0.65600 -6.92000 43.80500
H  1.41200 -7.47800 45.91500
H  0.93000 -8.56600 44.62900
H  -0.32800 -7.94900 45.84000
H  5.07100 -5.40200 45.40800
H  5.39800 -4.35300 46.75800
H  6.34100 -4.40400 45.25800
H  6.09500 0.48600 43.03600
H  8.03700 2.61000 46.00400
H  6.59400 3.74500 45.81300
H  7.89500 3.72400 44.65800
Mg -12.57100 16.87700 42.58500
C  -9.59300 15.30600 41.77100
C  -11.38400 19.69100 40.84000
C  -15.84500 18.22000 42.18500
C  -14.05000 13.73900 43.39200
N  -10.70300 17.40400 41.43800
C  -9.57400 16.62500 41.37600
C  -8.31300 17.41400 40.83200
C  -8.88300 18.84200 40.68800
C  -10.42200 18.68900 41.07400
C  -8.13700 19.85200 41.55900
C  -7.68600 16.75400 39.56700
C  -6.23300 16.18100 39.80500
H  -5.94900 14.84900 39.01600
N  -13.45300 18.75300 41.84800
C  -12.72800 19.74700 41.25000
C  -13.66700 20.85900 40.97600
C  -14.97900 20.42900 41.26800
C  -14.86100 19.07200 41.72100
C  -13.19700 22.09100 40.26700
C  -16.23500 21.28500 41.01400
O  -16.14900 22.42500 40.49600
C  -17.56700 20.81000 41.36900
N  -14.66200 16.07800 42.89000
C  -15.71800 16.85500 42.67300
C  -17.01900 15.98100 42.83100
C  -16.52700 14.65400 43.45700
C  -14.99600 14.79100 43.25500
C  -18.22300 16.62000 43.65200
C  -17.16800 13.45000 42.76000
C  -17.98400 12.55300 43.61000
N  -11.95100 14.96300 42.70700
C  -12.63500 13.83300 43.15400
C  -11.74700 12.73700 43.08400
C  -10.50200 13.28600 42.69800
C  -10.71400 14.64500 42.37700
C  -11.97400 11.25300 43.37700
C  -9.08600 12.97200 42.55500
O  -8.51000 11.92100 42.74000
C  -8.41600 14.27900 41.91400
C  -7.34700 14.54700 42.94700
O  -7.44200 15.36000 43.83100
O  -6.18200 13.85500 42.73400
C  -5.17200 14.08000 43.73500
H  -10.94200 20.57200 40.36900
H  -16.89700 18.50400 42.10800
H  -14.43800 12.79800 43.78800
H  -7.65800 17.40300 41.70300
H  -8.81500 19.17000 39.65100
H  -8.70900 20.08800 42.45600
H  -8.13400 20.75400 40.94800
H  -7.14700 19.46900 41.80900
H  -7.58000 17.42700 38.71600
H  -8.30800 15.88800 39.34200
H  -5.98000 16.05600 40.85800
H  -5.54700 16.92900 39.40600
H  -13.73900 22.26800 39.33800
H  -12.11100 22.17900 40.21900
H  -13.56400 22.87700 40.92600
H  -17.81900 19.86200 40.89300
H  -18.21800 21.57800 40.95300
H  -17.53300 20.71500 42.45500
H  -17.37400 15.84900 41.80900
H  -16.64800 14.70500 44.53900
H  -18.02100 17.65000 43.94600
H  -18.43100 16.02500 44.54200
H  -19.16100 16.63700 43.09700
H  -16.37200 12.82900 42.34800
H  -17.83300 13.76300 41.95600
H  -19.04300 12.65400 43.37100
H  -17.94100 12.67600 44.69200
H  -17.82100 11.50800 43.34400
H  -11.03500 10.83600 43.74200
H  -12.38300 10.70500 42.52800
H  -12.76300 11.14800 44.12200
H  -7.93000 14.18000 40.94400
H  -5.60800 14.08900 44.73500
H  -4.50800 14.93300 43.59700
H  -4.37300 13.35300 43.59000

