158

Mg 0.29600 8.08400 26.03200
C  1.00400 10.05900 28.96200
C  0.65600 5.27200 28.11100
C  -0.11800 6.18300 23.34200
C  0.74700 10.94100 24.02900
N  0.68600 7.67500 28.37600
C  0.71000 8.66400 29.26900
C  0.54400 8.10400 30.67600
C  0.81200 6.57700 30.37800
C  0.75700 6.46300 28.84500
C  2.18300 5.90700 30.88200
C  -0.85500 8.48000 31.33500
C  -1.09800 8.53300 32.83900
H  0.02400 8.30300 33.79800
N  0.22200 5.98400 25.76600
C  0.40800 4.99600 26.72200
C  0.35400 3.66400 26.09400
C  0.03600 3.91600 24.70700
C  0.08100 5.39200 24.50000
C  0.52700 2.35600 26.78900
C  -0.37600 2.98500 23.62500
O  -0.62600 3.35900 22.48900
C  -0.38000 1.49100 23.92200
N  0.14400 8.54700 24.02000
C  -0.10000 7.58100 23.09900
C  -0.05200 8.20600 21.65300
C  -0.12800 9.71600 21.92300
C  0.26600 9.76200 23.43200
C  1.11000 7.80700 20.72900
C  -1.51000 10.36100 21.59400
C  -1.41500 11.53500 20.71800
N  0.88500 10.12800 26.31100
C  1.04100 11.11000 25.42400
C  1.40900 12.31500 26.20300
C  1.33300 11.94700 27.56900
C  0.99500 10.61200 27.59300
C  1.59000 13.64800 25.57800
C  1.41100 12.44700 28.90200
O  1.65600 13.59500 29.29400
C  1.20100 11.27400 29.90100
C  2.36200 11.18800 30.79900
O  3.51100 10.91200 30.47500
O  1.94500 11.50900 32.08000
C  2.85200 11.62100 33.25200
H  0.92600 4.36500 28.65700
H  -0.35600 5.64800 22.42000
H  0.75900 11.89400 23.49600
H  1.36800 8.53000 31.24900
H  0.00200 5.97400 30.78800
H  2.86900 6.51200 31.47500
H  2.72700 5.54900 30.00800
H  1.93100 5.06200 31.52300
H  -1.57600 7.81000 30.86800
H  -1.04500 9.51600 31.05300
H  -1.93500 7.85800 33.02000
H  -1.47600 9.52500 33.08600
H  0.98600 2.45900 27.77300
H  1.23000 1.77200 26.19500
H  -0.39100 1.80200 26.98500
H  0.66400 1.17800 23.96200
H  -0.80100 0.99100 23.05000
H  -1.15500 1.24800 24.64800
H  -0.96600 7.85700 21.17300
H  0.62500 10.27400 21.36600
H  2.05000 7.85400 21.27900
H  1.17200 8.59300 19.97700
H  0.86900 6.80100 20.38700
H  -2.18100 10.47600 22.44500
H  -2.04900 9.58700 21.04700
H  -1.45600 11.35300 19.64400
H  -0.45500 11.98500 20.97200
H  -2.27100 12.15500 20.98100
H  0.65900 13.92900 25.08700
H  2.23900 13.57600 24.70500
H  1.87000 14.46300 26.24500
H  0.34400 11.40500 30.56100
H  3.18100 12.65700 33.32900
H  3.68700 10.94000 33.08900
H  2.31300 11.34100 34.15700
Mg 34.39700 3.25700 30.08000
C  31.99700 3.98700 32.51300
C  36.86800 3.46600 32.45700
C  36.68600 2.82000 27.62700
C  31.90200 3.74200 27.56500
N  34.45000 3.83000 32.26500
C  33.32600 3.91900 33.03700
C  33.76300 3.81600 34.51300
C  35.33900 3.90600 34.47000
C  35.61300 3.63600 32.99200
C  36.07900 5.16600 34.97900
C  33.18400 2.56800 35.15600
C  32.95400 2.58800 36.65200
H  33.72400 3.63100 37.49800
N  36.50200 2.95000 30.05700
C  37.35600 3.22600 31.20800
C  38.74000 3.13900 30.80800
C  38.67100 2.71900 29.46400
C  37.24400 2.81800 28.97500
C  40.00200 3.16300 31.80100
C  39.82300 2.57000 28.47800
O  39.63300 2.15400 27.32300
C  41.24200 2.73300 28.89400
N  34.33000 3.35800 27.86600
C  35.39400 3.05400 27.07600
C  34.96000 3.04700 25.57500
C  33.39500 3.07700 25.68300
C  33.14500 3.42700 27.15800
C  35.55400 4.22800 24.79600
C  32.63600 1.76300 25.15100
C  31.54300 2.03800 24.09500
N  32.35300 3.87400 30.01200
C  31.51900 3.90700 28.92700
C  30.19800 4.11200 29.45700
C  30.29600 4.20300 30.86100
C  31.63800 3.99400 31.15300
C  29.01900 4.37400 28.59300
C  29.57100 4.50600 32.10400
O  28.45200 4.92700 32.28600
C  30.64800 4.30000 33.23000
C  30.73400 5.51000 34.09500
O  30.58100 6.70300 33.73400
O  30.78800 5.14500 35.41500
C  30.49300 6.05700 36.49800
H  37.63500 3.40200 33.23100
H  37.47800 2.65600 26.89200
H  31.18500 3.88900 26.75500
H  33.37400 4.64600 35.10200
H  35.77600 2.99400 34.87500
H  35.29600 5.87900 35.24000
H  36.50400 5.65700 34.10300
H  36.76200 5.07700 35.82400
H  33.92400 1.77400 35.05000
H  32.26600 2.26900 34.65000
H  33.26700 1.64100 37.09300
H  31.89000 2.62000 36.88500
H  40.70400 2.38100 31.51200
H  39.82300 2.78900 32.81000
H  40.50200 4.12000 31.95100
H  41.88700 2.50400 28.04600
H  41.29100 1.91900 29.61700
H  41.51700 3.61200 29.47800
H  35.28000 2.17400 25.00600
H  33.01500 3.88500 25.05900
H  34.82800 4.88900 24.32300
H  36.16800 3.87300 23.96800
H  36.11100 4.86100 25.48700
H  32.15400 1.28900 26.00700
H  33.30400 1.09000 24.61300
H  31.44800 3.08100 23.79300
H  30.61000 1.74100 24.57500
H  31.70000 1.47900 23.17300
H  28.93800 5.43900 28.37900
H  28.13400 4.08700 29.16100
H  29.05000 3.71800 27.72300
H  30.22600 3.44600 33.76000
H  29.49500 6.02000 36.93400
H  30.54200 7.08300 36.13300
H  31.22900 5.84900 37.27500

