158

Mg -2.18500 17.38000 26.84700
C  -2.93400 15.22700 29.46000
C  -2.80300 19.99900 29.03300
C  -1.99300 19.47000 24.16000
C  -1.87500 14.64800 24.75400
N  -2.73400 17.54500 29.04100
C  -2.97500 16.57900 29.96700
C  -3.07900 17.13000 31.45000
C  -2.97200 18.66400 31.15500
C  -2.86600 18.72800 29.64300
C  -3.99800 19.60300 31.81900
C  -2.10800 16.46500 32.39200
C  -1.33500 17.25700 33.40400
H  -1.01700 16.57900 34.82500
N  -2.25100 19.43700 26.61900
C  -2.50800 20.35500 27.66000
C  -2.39200 21.63600 27.16800
C  -2.09400 21.52400 25.76300
C  -2.13800 20.07000 25.40000
C  -2.71800 22.83500 28.05600
C  -1.79200 22.59100 24.66000
O  -1.40600 22.38100 23.51800
C  -1.65500 23.97400 25.09500
N  -2.20600 17.10600 24.76200
C  -2.11400 18.10700 23.82600
C  -1.89200 17.53600 22.39300
C  -1.53600 16.07900 22.70800
C  -1.94200 15.87700 24.20400
C  -3.17600 17.76500 21.55900
C  -0.03300 15.72300 22.57600
C  0.87500 16.48100 23.59600
N  -2.33200 15.34100 26.98200
C  -2.15000 14.31900 26.06600
C  -2.37900 13.04200 26.64000
C  -2.65700 13.30700 27.95600
C  -2.58600 14.75400 28.11400
C  -2.49100 11.67800 25.95100
C  -3.03400 12.73500 29.16700
O  -3.25800 11.52900 29.44600
C  -3.18500 13.91300 30.21800
C  -2.20700 13.56300 31.24700
O  -1.05500 13.74200 31.12300
O  -2.75700 12.90200 32.36300
C  -1.85800 12.55000 33.46900
H  -2.98400 20.81500 29.73500
H  -1.68100 20.01900 23.26900
H  -1.63500 13.85000 24.04800
H  -4.12800 16.89300 31.63300
H  -1.99200 19.07300 31.39800
H  -4.72700 19.99700 31.11100
H  -3.47500 20.36200 32.40000
H  -4.46700 18.94400 32.55000
H  -1.30500 16.05100 31.78300
H  -2.59300 15.66200 32.94800
H  -1.85700 18.14200 33.76700
H  -0.41600 17.68700 33.00600
H  -3.51700 23.42600 27.61000
H  -1.90800 23.56200 28.11800
H  -2.95500 22.67900 29.10900
H  -2.70000 24.23100 25.27400
H  -1.23400 24.55500 24.27400
H  -1.14300 23.98000 26.05700
H  -0.97700 18.05900 22.11400
H  -2.09000 15.34200 22.12600
H  -3.64600 18.71200 21.82500
H  -3.96200 17.02700 21.72000
H  -2.96200 17.81600 20.49200
H  0.34000 15.91200 21.56900
H  0.10200 14.66700 22.81300
H  0.39000 17.20000 24.25600
H  1.72800 16.92300 23.08200
H  1.27600 15.76200 24.31100
H  -3.57200 11.62300 26.07700
H  -1.88300 10.89900 26.41300
H  -2.33600 11.80100 24.87900
H  -4.16800 13.77200 30.66900
H  -1.96200 13.37300 34.17600
H  -0.82600 12.44900 33.13100
H  -2.14000 11.58700 33.89700
Mg 48.70900 46.89900 42.64400
C  45.33900 47.22000 41.78300
C  48.79800 43.96100 41.05400
C  51.96600 47.06000 42.94300
C  48.51500 50.38600 43.77200
N  47.20500 45.74100 41.48200
C  45.86300 45.97600 41.37400
C  45.15100 44.79500 40.69200
C  46.35000 43.76900 40.52400
C  47.52700 44.51300 41.07700
C  46.12800 42.47800 41.47800
C  44.59200 45.21400 39.27500
C  43.13100 44.76100 39.04600
H  42.84600 43.93700 37.75000
N  50.16200 45.51100 42.26100
C  50.02500 44.34400 41.60700
C  51.32800 43.72900 41.57000
C  52.20600 44.52100 42.34100
C  51.45500 45.73700 42.57100
C  51.68900 42.38900 40.89300
C  53.56200 44.06100 42.76300
O  54.06200 43.01000 42.38500
C  54.43200 44.78800 43.68000
N  50.04000 48.60600 43.07700
C  51.37500 48.29800 43.25900
C  52.21100 49.55400 43.83600
C  51.03000 50.63400 43.96000
C  49.77100 49.86500 43.55800
C  52.94500 49.27600 45.14200
C  51.19400 51.91000 43.01200
C  50.52000 53.17200 43.56500
N  47.25100 48.50400 42.87700
C  47.30500 49.83800 43.33800
C  45.96900 50.37000 43.34600
C  45.15700 49.37500 42.77700
C  46.01600 48.28400 42.44100
C  45.58800 51.72000 43.90400
C  43.77200 49.08500 42.30300
O  42.74600 49.75000 42.39900
C  43.85700 47.59000 41.72100
C  43.08300 46.74600 42.66000
O  43.46300 46.34700 43.72800
O  41.82200 46.26900 42.18100
C  41.07900 45.39800 43.06300
H  48.78300 42.98500 40.56500
H  53.01000 46.98000 43.25500
H  48.58000 51.42600 44.09800
H  44.49000 44.31900 41.41700
H  46.53800 43.40400 39.51400
H  46.05500 41.64100 40.78300
H  45.19300 42.56600 42.03200
H  46.88500 42.37700 42.25500
H  45.20200 44.88700 38.43300
H  44.70800 46.29500 39.19800
H  42.45500 45.58200 38.80600
H  42.67600 44.34500 39.94500
H  52.36600 42.53900 40.05200
H  50.75100 42.14200 40.39700
H  51.98600 41.55200 41.52500
H  54.87400 45.66400 43.20500
H  55.28300 44.13800 43.88200
H  53.94900 45.02400 44.62900
H  52.89700 50.06600 43.16100
H  50.93000 51.03700 44.96700
H  53.82200 48.71000 44.82900
H  52.22100 48.70400 45.72100
H  53.29400 50.09900 45.76600
H  50.74000 51.71200 42.04200
H  52.21100 52.18800 42.73700
H  49.67200 53.57100 43.00700
H  51.28500 53.94900 43.57400
H  50.28300 53.00400 44.61500
H  46.31100 52.46100 43.56200
H  45.46900 51.95900 44.96100
H  44.68700 51.98300 43.34900
H  43.45700 47.57400 40.70800
H  41.18500 45.76600 44.08400
H  41.46800 44.38100 43.00900
H  40.02900 45.33400 42.78100

