158

Mg -1.10700 17.39100 26.08000
C  -1.45100 15.13100 28.93600
C  -1.89900 19.94100 28.15200
C  -0.89200 19.36800 23.39300
C  -0.90800 14.58200 24.00400
N  -1.53400 17.50900 28.34100
C  -1.53600 16.47800 29.29300
C  -1.95400 17.01800 30.65700
C  -2.01700 18.56200 30.37500
C  -1.87000 18.72100 28.83200
C  -3.30800 19.24800 30.92400
C  -1.02400 16.64100 31.86300
C  -1.05700 17.38500 33.18400
H  -1.23800 16.59300 34.42900
N  -1.35000 19.40200 25.83100
C  -1.70300 20.34200 26.81000
C  -1.68400 21.61600 26.20600
C  -1.28800 21.45100 24.94000
C  -1.09900 20.02700 24.61400
C  -2.11400 22.84600 27.01000
C  -0.99500 22.50300 23.86900
O  -0.77700 22.26600 22.73800
C  -1.05000 23.92200 24.28300
N  -0.91100 17.06200 24.01000
C  -0.83900 18.01900 23.06200
C  -0.69000 17.49500 21.62700
C  -0.47400 16.01200 21.97800
C  -0.82900 15.87600 23.39700
C  -1.97300 17.79000 20.72000
C  0.98300 15.43200 21.69000
C  2.17100 15.95200 22.60200
N  -1.21200 15.27100 26.36500
C  -1.08100 14.27100 25.40500
C  -1.00000 12.96200 26.02700
C  -1.17500 13.24700 27.43600
C  -1.23300 14.68100 27.58700
C  -0.90200 11.68100 25.32400
C  -1.32200 12.66000 28.69200
O  -1.29500 11.46400 29.01700
C  -1.46900 13.85100 29.72100
C  -0.41400 13.75700 30.63800
O  0.74700 14.09600 30.47200
O  -0.86200 13.14300 31.77200
C  0.21700 13.04200 32.79900
H  -2.17700 20.81500 28.74600
H  -0.87100 20.03500 22.52900
H  -0.70700 13.76400 23.30800
H  -2.92900 16.57000 30.85100
H  -1.11600 19.00700 30.79700
H  -3.80600 18.70800 31.72800
H  -3.98500 19.47900 30.10200
H  -3.02100 20.21400 31.33900
H  0.00900 16.68500 31.52100
H  -1.32300 15.60100 31.99000
H  -1.93500 18.02800 33.12900
H  -0.14800 17.98600 33.20600
H  -2.70000 23.54100 26.40900
H  -1.27500 23.41000 27.41800
H  -2.85400 22.56400 27.75900
H  -0.51200 24.09900 25.21400
H  -2.08600 24.25600 24.33100
H  -0.62700 24.56600 23.51200
H  0.25800 17.77900 21.16800
H  -1.17700 15.36400 21.45400
H  -2.74600 17.96000 21.47000
H  -2.35700 16.93900 20.15800
H  -1.74200 18.55300 19.97700
H  1.33500 15.54400 20.66400
H  0.93000 14.36100 21.88400
H  1.66100 16.61300 23.30300
H  2.85400 16.59800 22.05100
H  2.63000 15.10200 23.10600
H  -1.74200 11.41600 24.68300
H  -0.79400 10.89100 26.06700
H  -0.00000 11.80800 24.72500
H  -2.43400 13.82000 30.22700
H  -0.05400 13.71100 33.61500
H  1.27500 13.23800 32.62000
H  0.20300 12.08000 33.31100
Mg 0.28700 43.96800 26.47100
C  2.63600 43.60200 29.13700
C  -1.94800 42.34500 28.41200
C  -1.73200 43.81800 23.75000
C  2.99300 45.12500 24.41800
N  0.42300 43.09400 28.52300
C  1.30000 43.28300 29.48800
C  0.69900 43.08600 30.91400
C  -0.69700 42.47000 30.61600
C  -0.81100 42.67200 29.11000
C  -0.99400 41.05500 31.11900
C  0.62500 44.37700 31.77700
C  1.00100 44.23000 33.33900
H  0.68100 42.94900 34.08900
N  -1.55700 43.00300 26.09000
C  -2.31000 42.35100 27.01600
C  -3.52400 41.90900 26.41200
C  -3.58500 42.45000 25.06600
C  -2.23100 43.16200 24.89000
C  -4.56500 41.00900 27.19600
C  -4.62200 42.29000 24.02300
O  -4.51700 42.78900 22.90800
C  -5.75800 41.37600 24.25000
N  0.56500 44.39900 24.36600
C  -0.47900 44.43900 23.52000
C  -0.16400 45.32800 22.34500
C  1.30000 45.81400 22.60800
C  1.68000 45.10000 23.86500
C  -0.27100 44.70300 20.93500
C  1.28300 47.33800 22.96800
C  2.06500 48.32700 22.08600
N  2.37000 44.43300 26.66000
C  3.35200 44.75400 25.73200
C  4.67200 44.63200 26.35400
C  4.38000 44.24300 27.66600
C  3.00700 44.12700 27.84200
C  6.02500 44.86000 25.74900
C  4.99800 43.92300 28.98000
O  6.19400 43.86300 29.24900
C  3.79800 43.70100 29.94500
C  4.03500 42.45500 30.72100
O  4.33500 41.33100 30.29300
O  3.90300 42.78200 32.03900
C  4.35800 41.69000 32.97700
H  -2.78800 42.05200 29.04600
H  -2.45200 43.91000 22.93400
H  3.78500 45.68800 23.91900
H  1.26200 42.30200 31.42000
H  -1.45000 43.04600 31.15400
H  -1.12700 40.36100 30.29000
H  -1.85600 40.98200 31.78300
H  -0.23500 40.73100 31.83000
H  -0.40000 44.71900 31.92100
H  1.24200 45.17500 31.36400
H  0.39900 45.02200 33.78400
H  2.08300 44.30600 33.45100
H  -4.48000 39.97400 26.86300
H  -5.55100 41.35400 26.88700
H  -4.34000 41.08800 28.25900
H  -6.50700 41.85400 24.88100
H  -5.40600 40.42700 24.65600
H  -6.17700 41.13400 23.27300
H  -0.96600 46.06400 22.29300
H  1.95600 45.57500 21.77000
H  0.62200 44.94500 20.35800
H  -1.23800 44.96700 20.50800
H  -0.26000 43.61300 20.97500
H  1.46400 47.40900 24.04100
H  0.29600 47.75600 22.76600
H  1.42300 49.00900 21.52900
H  2.66300 47.70400 21.42000
H  2.81700 48.85600 22.67100
H  6.56000 43.94300 25.99700
H  6.44300 45.77600 26.16500
H  5.93100 44.99900 24.67200
H  3.65800 44.51000 30.66200
H  3.63800 40.87500 32.89800
H  4.25100 42.20900 33.93000
H  5.39400 41.44900 32.74000

