158

Mg 53.79300 24.32000 44.44800
C  51.20500 26.78800 43.71000
C  51.60300 21.88900 43.37100
C  56.44200 22.44000 44.17400
C  55.85300 27.16400 45.33700
N  51.64500 24.36300 43.53400
C  50.79600 25.44800 43.44100
C  49.44300 24.92900 43.02300
C  49.51200 23.40700 43.41200
C  50.98300 23.14400 43.46800
C  48.79600 22.95800 44.74900
C  49.23400 25.17300 41.56400
C  47.81800 25.53300 41.27800
H  47.39800 25.36700 39.85300
N  53.99100 22.48900 43.93300
C  53.00200 21.60400 43.57400
C  53.59500 20.27600 43.38700
C  54.96300 20.42200 43.77400
C  55.18700 21.87200 43.94500
C  52.93700 19.09100 42.79600
C  55.91700 19.28300 43.85400
O  55.66500 18.11000 43.50800
C  57.23600 19.43700 44.52700
N  55.95600 24.82600 44.74700
C  56.82500 23.77000 44.60500
C  58.24000 24.25400 44.77400
C  58.05900 25.71200 45.38300
C  56.54700 25.94800 45.15000
C  58.99200 23.28000 45.70200
C  58.91500 26.82100 44.66900
C  59.40100 27.84900 45.73300
N  53.55900 26.44600 44.67500
C  54.47300 27.45700 45.06300
C  53.82700 28.74200 45.10300
C  52.57000 28.50900 44.53700
C  52.49000 27.11600 44.24400
C  54.35700 30.09500 45.52700
C  51.38800 29.14400 44.13000
O  51.02000 30.33000 44.24700
C  50.48600 28.11100 43.53400
C  50.26300 28.34200 42.04300
O  51.13600 28.41900 41.19900
O  48.95100 28.78800 41.87000
C  48.54600 28.99900 40.57800
H  50.89300 21.08500 43.16500
H  57.29000 21.75900 44.07700
H  56.43600 28.05900 45.56500
H  48.65800 25.30900 43.67600
H  49.12900 22.77100 42.61400
H  49.57600 22.81800 45.49800
H  48.30000 21.99300 44.64200
H  48.04300 23.68300 45.05800
H  49.43300 24.22700 41.06000
H  49.91200 25.89300 41.10500
H  47.69800 26.58300 41.54500
H  47.12200 25.00300 41.92800
H  53.31700 18.95100 41.78400
H  51.88500 19.35300 42.68400
H  53.10800 18.11700 43.25500
H  58.02300 19.85600 43.89900
H  57.49300 18.45400 44.92000
H  57.05400 20.09600 45.37600
H  58.87900 24.24200 43.89100
H  58.18700 25.58400 46.45800
H  59.60700 23.63100 46.53000
H  59.74700 22.79000 45.08700
H  58.28600 22.53000 46.05800
H  58.26100 27.32400 43.95700
H  59.70200 26.35800 44.07300
H  59.01400 28.81900 45.42200
H  60.48300 27.95500 45.81500
H  59.07000 27.62300 46.74700
H  53.56600 30.74600 45.89700
H  54.73600 30.63800 44.66100
H  55.16700 29.98000 46.24800
H  49.56500 28.11200 44.11600
H  49.19800 28.64600 39.77900
H  48.28200 30.04700 40.43000
H  47.62900 28.45000 40.36800
Mg 47.83900 25.33400 28.00700
C  48.68600 27.58000 30.47900
C  46.52200 23.23400 30.65500
C  47.45900 22.81600 25.85000
C  49.47500 27.26400 25.71400
N  47.48400 25.53700 30.29500
C  47.89500 26.52500 31.09600
C  47.73400 26.30800 32.59100
C  47.14000 24.85200 32.57200
C  47.02500 24.51300 31.08600
C  47.80900 23.82800 33.58600
C  46.90400 27.49800 33.24800
C  46.00000 27.10200 34.42600
H  45.64800 28.17100 35.44400
N  47.11300 23.34300 28.19600
C  46.56200 22.67700 29.33700
C  46.01800 21.33400 28.97500
C  46.21700 21.27300 27.55500
C  46.94900 22.46500 27.11200
C  45.32100 20.26500 29.84400
C  45.79700 20.19300 26.62200
O  46.28400 20.17700 25.47500
C  44.95400 19.09100 26.98000
N  48.39600 25.10400 26.02600
C  48.16800 23.97200 25.37000
C  48.59000 24.22000 23.86900
C  48.84700 25.79600 23.80800
C  48.83200 26.14100 25.26100
C  49.83500 23.40300 23.36900
C  47.84600 26.63500 23.01000
C  48.49300 27.88900 22.32700
N  48.82800 27.04100 28.02900
C  49.49300 27.71900 27.02200
C  50.23600 28.84300 27.52100
C  49.89800 28.88600 28.86700
C  48.98600 27.75700 29.13400
C  51.02600 29.79800 26.73300
C  50.08800 29.65700 30.08600
O  50.65000 30.71800 30.29200
C  49.25400 28.83000 31.13500
C  50.22000 28.38700 32.18400
O  51.19700 27.70000 32.00600
O  49.94800 28.96600 33.41000
C  50.76500 28.59700 34.60100
H  46.26500 22.52600 31.44600
H  47.38900 22.06100 25.06500
H  49.96600 27.89100 24.96600
H  48.71100 26.24500 33.07000
H  46.08900 24.93800 32.85100
H  46.98800 23.61100 34.27000
H  48.57500 24.16600 34.28400
H  48.31500 22.97000 33.14200
H  46.27300 27.85600 32.43500
H  47.63200 28.29000 33.42400
H  46.48000 26.23200 34.87300
H  45.07100 26.66500 34.05900
H  45.85600 19.32100 29.94400
H  44.29200 20.16300 29.50000
H  45.18000 20.72200 30.82300
H  44.61300 18.53300 26.10900
H  44.05300 19.39400 27.51400
H  45.49200 18.32000 27.53000
H  47.78500 23.80800 23.26000
H  49.87500 25.99700 23.50700
H  50.66700 23.57500 24.05100
H  50.20400 23.76300 22.40900
H  49.64600 22.35000 23.15800
H  47.00300 26.97500 23.61000
H  47.50100 25.96700 22.22000
H  47.78000 28.70600 22.43500
H  48.77100 27.69100 21.29200
H  49.44700 28.22800 22.72900
H  50.42500 30.43300 26.08300
H  51.82400 29.21400 26.27500
H  51.46800 30.47500 27.46400
H  48.52500 29.47000 31.63100
H  50.12300 27.91200 35.15400
H  50.90900 29.44600 35.26900
H  51.70500 28.07000 34.43700

