158

Mg 43.14300 4.27000 46.98300
C  41.23700 7.25300 46.65500
C  40.26900 2.50300 46.77100
C  45.01600 1.67800 46.27800
C  46.03200 6.30300 46.70400
N  40.99100 4.77800 46.62500
C  40.43200 6.07200 46.66600
C  38.88000 5.95800 46.78800
C  38.62000 4.43300 47.01100
C  40.05800 3.82400 46.91100
C  37.92000 3.98200 48.37200
C  38.02100 6.56500 45.69200
C  38.45800 6.20200 44.25600
H  39.43400 7.16700 43.58900
N  42.67200 2.34900 46.65700
C  41.47000 1.75100 46.59800
C  41.58500 0.33100 46.34300
C  43.03100 0.07800 46.14900
C  43.64000 1.39000 46.40500
C  40.36900 -0.56700 46.17100
C  43.51400 -1.26900 45.82200
O  42.72400 -2.14500 45.63300
C  44.86700 -1.49700 45.61700
N  45.20500 4.03300 46.47200
C  45.73300 2.83400 46.39900
C  47.25200 2.83700 46.30600
C  47.54400 4.35800 46.25900
C  46.19500 4.95300 46.48700
C  48.01100 2.00500 47.38700
C  48.37000 4.83000 45.00000
C  49.91100 4.95300 45.02000
N  43.58500 6.30700 46.83200
C  44.78500 6.96200 46.81500
C  44.54400 8.33600 46.87500
C  43.14800 8.51400 46.77200
C  42.60100 7.22400 46.75300
C  45.53600 9.34700 46.90500
C  42.07400 9.54700 46.86500
O  42.12400 10.76500 46.99700
C  40.69700 8.69200 46.60000
C  39.83400 9.00200 47.73500
O  40.05700 8.70500 48.88900
O  38.64800 9.58800 47.29800
C  37.55100 9.79300 48.22700
H  39.36000 1.90700 46.87100
H  45.59600 0.75300 46.26100
H  46.96800 6.84200 46.53900
H  38.57300 6.53800 47.65800
H  38.06400 3.91300 46.23100
H  37.36500 3.04400 48.35700
H  37.28800 4.77300 48.77600
H  38.74300 3.75400 49.05000
H  38.07200 7.65000 45.78600
H  36.94000 6.46600 45.78700
H  37.51500 6.04300 43.73300
H  38.94000 5.23600 44.10800
H  40.39300 -1.52600 46.68900
H  40.18500 -0.75200 45.11200
H  39.38800 -0.13100 46.36100
H  45.33100 -1.22300 46.56500
H  45.13100 -0.77500 44.84400
H  45.20700 -2.50100 45.36400
H  47.55200 2.45900 45.32900
H  48.26100 4.48100 47.07000
H  48.91900 2.48500 47.75200
H  48.30600 1.06100 46.92800
H  47.32300 1.79400 48.20500
H  47.91900 5.81300 44.86500
H  48.02600 4.19600 44.18300
H  50.38300 4.25200 44.33200
H  50.23900 4.69300 46.02600
H  50.09300 5.99000 44.73800
H  46.09400 9.47300 47.83300
H  45.21700 10.33200 46.56700
H  46.30200 9.05400 46.18600
H  40.32100 8.95200 45.61000
H  37.87400 9.29200 49.13900
H  36.59200 9.41000 47.87900
H  37.42400 10.84700 48.47500
Mg 16.81500 51.75500 26.79700
C  18.88200 50.48200 29.22400
C  14.58000 52.78500 29.17200
C  14.74800 52.61000 24.25600
C  19.01300 50.40800 24.38600
N  16.69500 51.49500 28.82800
C  17.72800 51.08800 29.74200
C  17.34500 51.31500 31.15900
C  15.84400 51.74600 31.14100
C  15.70100 52.00700 29.62700
C  14.86000 50.72600 31.79100
C  18.25300 52.45000 31.77900
C  18.40200 52.46200 33.31100
H  17.44400 51.51600 34.18200
N  15.00000 52.73200 26.67000
C  14.25200 53.04500 27.84200
C  13.13800 53.85200 27.38500
C  13.17600 53.85400 25.90200
C  14.37300 53.03100 25.55000
C  12.11100 54.44400 28.38600
C  12.19300 54.54700 24.92300
O  12.36700 54.50300 23.70900
C  11.01300 55.29800 25.42500
N  16.89600 51.43700 24.62400
C  15.90000 51.93800 23.86100
C  16.17800 51.65000 22.35900
C  17.62900 50.99700 22.37000
C  17.88800 50.92700 23.87400
C  15.15900 50.67600 21.84400
C  18.73900 51.85200 21.58400
C  19.04600 53.21300 22.07800
N  18.54900 50.65900 26.78700
C  19.33000 50.25400 25.74600
C  20.47700 49.52100 26.25500
C  20.34600 49.66100 27.60600
C  19.16200 50.34700 27.89500
C  21.59200 48.81700 25.49700
C  21.01000 49.32500 28.89400
O  22.05800 48.76500 29.07400
C  20.01800 49.80900 30.04600
C  19.47500 48.67300 30.83000
O  18.77300 47.83500 30.34400
O  19.96800 48.65000 32.11100
C  19.54700 47.53200 32.86900
H  13.95600 53.08000 30.01800
H  14.11000 52.84200 23.40100
H  19.64200 49.89300 23.65600
H  17.54600 50.39700 31.71000
H  15.67400 52.71500 31.61000
H  15.46700 49.97700 32.29900
H  14.29600 50.21600 31.00900
H  14.17900 51.22500 32.48100
H  17.80900 53.40400 31.49500
H  19.28400 52.34400 31.44000
H  18.04800 53.45400 33.59100
H  19.43000 52.25100 33.60400
H  12.58800 55.26000 28.92900
H  11.96900 53.69000 29.15900
H  11.14200 54.71700 27.96800
H  10.22400 54.57300 25.62700
H  10.72300 55.97400 24.62100
H  11.40500 55.99900 26.16100
H  16.18900 52.54800 21.74100
H  17.55700 49.95300 22.06500
H  14.58500 51.32200 21.17900
H  14.48700 50.11500 22.49300
H  15.72000 49.99200 21.20700
H  18.52100 52.01200 20.52800
H  19.63300 51.23500 21.67700
H  18.20300 53.67800 22.59100
H  19.28800 53.85200 21.22900
H  19.94900 53.21900 22.68900
H  22.60900 49.14300 25.72100
H  21.45100 48.97800 24.42900
H  21.64400 47.78100 25.83100
H  20.52400 50.54300 30.67300
H  18.46300 47.54400 32.98200
H  19.98600 47.49600 33.86600
H  19.70300 46.52100 32.49300

