158

Mg 53.54700 24.36800 44.70000
C  50.73200 26.38600 44.23700
C  51.73000 21.71900 44.23500
C  56.53500 22.55000 44.13400
C  55.49300 27.29000 45.13500
N  51.43200 24.16100 44.21300
C  50.45900 25.05700 44.01100
C  49.13100 24.36800 43.69600
C  49.45100 22.87600 43.92200
C  50.96100 22.89700 44.23200
C  48.58500 22.07200 44.97100
C  48.54600 24.64600 42.26400
C  49.50200 24.59700 41.10200
H  49.04600 24.37500 39.64500
N  54.05400 22.29300 44.31800
C  53.14500 21.37500 44.22800
C  53.76600 20.07100 43.98100
C  55.17900 20.24600 44.01000
C  55.32500 21.73500 44.11700
C  52.96900 18.82200 43.92800
C  56.24300 19.15200 44.01400
O  56.00100 17.98400 43.89800
C  57.68800 19.51700 44.24700
N  55.80700 24.91300 44.74700
C  56.78800 23.97500 44.35700
C  58.14900 24.75900 44.28600
C  57.78500 26.24700 44.58100
C  56.28100 26.15400 44.90700
C  59.26700 24.21100 45.23100
C  58.15600 27.36200 43.51600
C  59.51800 28.09500 43.74200
N  53.20400 26.36300 44.81500
C  54.13200 27.45200 45.02400
C  53.36500 28.67400 45.06700
C  52.06300 28.28900 44.73700
C  52.03300 26.91200 44.61500
C  53.93500 30.00400 45.22000
C  50.75000 28.81400 44.58800
O  50.24100 29.96400 44.70600
C  49.83200 27.65700 44.13000
C  49.38700 27.90800 42.74500
O  50.13900 28.12000 41.81200
O  48.10400 28.43000 42.86000
C  47.45600 28.97000 41.63400
H  51.10000 20.83200 44.14000
H  57.53000 22.12400 43.98800
H  56.00300 28.24900 45.24800
H  48.36600 24.73500 44.38000
H  49.23900 22.21900 43.07800
H  48.29700 22.64600 45.85200
H  49.08700 21.22600 45.44100
H  47.73000 21.74700 44.37900
H  48.02100 25.59400 42.14700
H  47.87000 23.85300 41.94600
H  50.31500 23.87300 41.15800
H  50.11100 25.49600 41.19200
H  53.52500 17.91400 43.69100
H  52.13900 18.75300 43.22500
H  52.67700 18.68500 44.96900
H  58.24600 18.59700 44.41900
H  57.69000 19.91700 45.26100
H  58.01400 20.20300 43.46400
H  58.50200 24.77700 43.25500
H  58.29600 26.55000 45.49500
H  58.81400 23.55900 45.97800
H  59.69700 25.01900 45.82300
H  60.04100 23.74400 44.62200
H  57.39000 28.13600 43.47300
H  58.21700 26.98100 42.49700
H  59.37500 29.17500 43.71500
H  60.29300 27.90600 42.99900
H  59.99700 27.87000 44.69500
H  53.91700 30.31800 44.17700
H  54.90000 30.00200 45.72700
H  53.18700 30.46400 45.86700
H  48.98400 27.59700 44.81200
H  46.53300 29.43300 41.98500
H  47.11900 28.04200 41.17400
H  47.91200 29.69500 40.96000
Mg 10.70900 47.95800 25.64800
C  7.97100 48.10900 27.89400
C  12.72500 49.23700 28.04400
C  13.02800 47.92200 23.30400
C  8.19200 47.44100 22.97500
N  10.37000 48.62300 27.70000
C  9.28700 48.36900 28.47800
C  9.53800 48.46400 30.04700
C  10.99300 49.22700 29.97600
C  11.38500 49.08100 28.44200
C  11.00100 50.72800 30.29500
C  9.45300 47.15800 30.90600
C  10.10400 47.07100 32.33400
H  9.39200 46.53800 33.51900
N  12.59000 48.44700 25.67100
C  13.26900 48.93400 26.79500
C  14.67000 49.10900 26.38100
C  14.84500 48.65900 25.04900
C  13.45900 48.25200 24.64300
C  15.67100 49.71000 27.30800
C  16.10600 48.58900 24.22500
O  16.15900 48.12200 23.11200
C  17.38500 48.98100 24.84100
N  10.54800 47.67400 23.40800
C  11.72500 47.78600 22.77600
C  11.51700 47.29200 21.32600
C  9.97900 47.28700 21.15500
C  9.51500 47.39700 22.58700
C  12.17800 48.15100 20.21900
C  9.45500 45.98500 20.48800
C  8.49400 46.12100 19.27000
N  8.56200 47.78800 25.41500
C  7.75100 47.61600 24.29100
C  6.37800 47.54200 24.73000
C  6.40600 47.64000 26.14600
C  7.79200 47.73300 26.50000
C  5.14700 47.33900 23.78500
C  5.59300 47.61900 27.38700
O  4.34100 47.56100 27.41000
C  6.58100 47.92800 28.56800
C  6.48000 46.69200 29.28800
O  7.14900 45.68300 29.06100
O  5.63400 46.87100 30.28300
C  5.54500 45.78600 31.22700
H  13.42300 49.50000 28.84100
H  13.77000 47.95100 22.50300
H  7.46100 47.27200 22.18100
H  8.61800 48.95900 30.35800
H  11.67600 48.73300 30.66600
H  10.79800 50.91500 31.35000
H  10.24500 51.16000 29.63900
H  11.87800 51.34600 30.10500
H  9.66600 46.31500 30.24800
H  8.37800 47.05900 31.05900
H  10.32700 48.11400 32.55700
H  11.06500 46.56200 32.26600
H  15.25800 49.93800 28.29000
H  16.07900 50.61600 26.85900
H  16.46900 48.99400 27.50600
H  17.56400 48.31000 25.68100
H  17.15000 49.91200 25.35600
H  18.20500 49.03600 24.12500
H  11.87700 46.26300 21.31100
H  9.65100 48.18600 20.63200
H  11.46700 48.73900 19.63900
H  12.48900 47.34000 19.56100
H  13.05100 48.74700 20.48600
H  8.79700 45.43900 21.16300
H  10.34200 45.46600 20.12400
H  7.59900 45.51600 19.41400
H  9.04500 45.68800 18.43500
H  8.20100 47.12500 18.96600
H  4.65900 48.30500 23.91900
H  4.49700 46.53200 24.12400
H  5.41600 47.25600 22.73200
H  6.28800 48.77700 29.18600
H  5.22700 44.89200 30.69100
H  4.83100 46.10600 31.98700
H  6.50500 45.56300 31.69200

