158

Mg 40.63600 10.04700 30.18900
C  42.76100 11.23400 32.74800
C  38.64700 8.70300 32.54900
C  38.89000 8.67000 27.71900
C  43.07900 11.04600 27.85300
N  40.78800 10.03200 32.48400
C  41.64800 10.54500 33.34700
C  41.23500 10.18900 34.79600
C  40.01800 9.14700 34.58900
C  39.73500 9.31300 33.12000
C  40.26400 7.65500 34.80100
C  40.91100 11.45000 35.64100
C  40.26600 11.23600 37.10100
H  40.79100 12.11100 38.20300
N  38.90000 8.98200 30.15400
C  38.22200 8.49400 31.22700
C  37.12500 7.62500 30.75900
C  37.16300 7.64100 29.30400
C  38.38000 8.44400 29.00400
C  36.34400 6.85300 31.70400
C  36.16200 7.02200 28.37300
O  36.40900 6.79600 27.17500
C  34.88900 6.50100 28.87700
N  40.91800 9.82600 28.16400
C  40.00900 9.29600 27.34800
C  40.35500 9.47700 25.92400
C  41.67600 10.21500 25.92400
C  41.90100 10.39400 27.40100
C  40.24000 8.14500 25.08000
C  41.55300 11.53800 25.19700
C  41.02200 12.80800 25.93800
N  42.49200 11.08300 30.20600
C  43.39700 11.36600 29.17500
C  44.59200 11.98500 29.83200
C  44.32200 12.07100 31.22300
C  43.11200 11.38100 31.38400
C  45.79300 12.40200 29.17700
C  44.87200 12.47800 32.48500
O  45.94600 12.98400 32.78600
C  43.80100 12.04500 33.54100
C  44.50900 11.29600 34.57300
O  44.92000 10.16100 34.49900
O  44.44100 12.02600 35.76700
C  44.65500 11.25500 37.02800
H  37.95400 8.21900 33.24000
H  38.23600 8.37900 26.89400
H  43.88000 11.31700 27.16300
H  42.15000 9.74900 35.19100
H  39.13600 9.47200 35.14100
H  41.30900 7.68500 35.10900
H  40.17000 7.06700 33.88700
H  39.50100 7.18500 35.42100
H  40.30200 12.20700 35.14800
H  41.90400 11.85200 35.84000
H  40.40300 10.17300 37.30100
H  39.17900 11.30100 37.05100
H  36.56000 5.80000 31.52300
H  35.27800 7.06900 31.63600
H  36.43800 7.09900 32.76200
H  35.12900 5.59700 29.43700
H  34.24800 6.29100 28.02100
H  34.43200 7.18400 29.59300
H  39.60500 10.15000 25.50900
H  42.44300 9.59500 25.46100
H  41.18100 7.96800 24.55800
H  39.59700 8.48800 24.26900
H  39.89800 7.22900 25.56100
H  40.84200 11.36700 24.38900
H  42.45900 11.80700 24.65400
H  41.91400 13.42600 26.04000
H  40.53800 12.45200 26.84700
H  40.22600 13.28300 25.36400
H  46.46700 12.71400 29.97500
H  45.53400 13.17700 28.45600
H  46.34900 11.62700 28.64900
H  43.34200 12.95000 33.94000
H  44.36000 10.20600 37.06900
H  44.19400 11.69900 37.91000
H  45.72900 11.30400 37.21200
Mg 43.78600 41.76600 26.48400
C  42.73700 44.18000 28.83000
C  44.73900 39.79200 29.06900
C  44.77800 39.59500 24.22800
C  43.17900 44.24200 23.99000
N  43.89100 42.12200 28.71700
C  43.25200 43.07700 29.45200
C  43.15200 42.64500 30.96100
C  44.11400 41.43600 31.00700
C  44.37400 41.13400 29.50100
C  45.44800 41.66700 31.83700
C  41.63300 42.56900 31.37400
C  41.27700 41.70300 32.56900
H  40.61600 42.32400 33.84700
N  44.67700 39.97300 26.64900
C  44.95800 39.26400 27.79400
C  45.40300 37.90800 27.43900
C  45.52500 37.89000 26.05200
C  45.02100 39.15200 25.55500
C  45.74200 36.73400 28.48700
C  45.98000 36.73200 25.14500
O  45.88600 36.70100 23.91000
C  46.55400 35.46600 25.79100
N  43.92900 41.91200 24.34700
C  44.38600 40.87300 23.64800
C  44.33500 41.13700 22.12700
C  43.79400 42.64400 22.09600
C  43.60600 42.99200 23.52200
C  45.75300 41.02300 21.38000
C  42.52300 42.89300 21.20300
C  42.66100 43.98900 20.28000
N  43.08000 43.69900 26.33700
C  42.90000 44.58800 25.29100
C  42.32700 45.83300 25.76100
C  42.24900 45.67900 27.14700
C  42.77100 44.43100 27.46900
C  42.01100 46.93400 24.92800
C  41.90600 46.46700 28.40400
O  41.48000 47.56400 28.56400
C  42.11700 45.37500 29.55500
C  42.96500 45.99100 30.55500
O  44.11200 46.40900 30.41900
O  42.15500 46.25700 31.72400
C  42.82400 46.89500 32.87900
H  45.05100 39.04900 29.80600
H  45.02400 38.89300 23.42800
H  43.08800 45.05600 23.26800
H  43.54800 43.52500 31.46800
H  43.67300 40.55300 31.47100
H  46.34100 41.33300 31.30900
H  45.32500 40.99900 32.69000
H  45.52500 42.68900 32.21000
H  41.04100 42.14300 30.56400
H  41.37400 43.61600 31.53000
H  42.07500 41.04800 32.92000
H  40.55800 40.94600 32.25400
H  44.96600 35.98400 28.64000
H  45.85500 37.32300 29.39700
H  46.76000 36.35900 28.37700
H  46.93400 34.86500 24.96500
H  45.79000 34.95400 26.37500
H  47.40500 35.62800 26.45300
H  43.59100 40.49300 21.65900
H  44.61300 43.28900 21.77800
H  46.52800 41.38700 22.05500
H  45.77300 41.59100 20.45000
H  45.79600 39.96900 21.10800
H  41.76400 43.23100 21.90800
H  42.18200 41.99500 20.68800
H  43.64200 44.06600 19.81100
H  42.29100 44.90700 20.73600
H  42.02200 43.73900 19.43300
H  42.97800 47.43100 24.84400
H  41.39100 47.62200 25.50200
H  41.58400 46.65100 23.96600
H  41.12700 45.17800 29.96500
H  42.73900 46.29000 33.78200
H  42.55100 47.92600 33.10400
H  43.89100 46.93900 32.65900

