158

Mg 54.28100 24.86700 43.88000
C  51.52600 26.99100 43.68000
C  52.34800 22.27800 42.67700
C  57.02200 22.98100 43.25300
C  56.33000 27.59100 44.47000
N  52.18300 24.65900 43.08500
C  51.18500 25.65000 43.18100
C  49.81900 25.12100 42.74200
C  50.10300 23.55300 42.78900
C  51.63500 23.47600 42.83200
C  49.39700 22.71900 43.93500
C  49.19600 25.57400 41.37800
C  50.06900 25.88100 40.13000
H  49.80100 25.06800 38.83200
N  54.60200 22.88700 43.18100
C  53.70800 22.02500 42.76600
C  54.33400 20.70200 42.48000
C  55.73600 20.88600 42.55300
C  55.84100 22.26700 43.01000
C  53.46400 19.49800 42.07700
C  56.80200 19.89700 42.20000
O  56.39900 18.81300 41.72900
C  58.20700 20.09900 42.45500
N  56.39400 25.29800 43.74200
C  57.33000 24.31100 43.65600
C  58.80000 24.82900 43.84600
C  58.54800 26.29000 44.24400
C  57.04200 26.40800 44.16000
C  59.64600 23.88900 44.85500
C  59.39100 27.35100 43.42600
C  60.67200 27.85600 44.19800
N  53.98800 26.85000 44.20000
C  54.92100 27.84800 44.46900
C  54.21600 29.11400 44.74300
C  52.87100 28.78900 44.42900
C  52.83700 27.45700 44.05900
C  54.83100 30.46700 45.11800
C  51.55100 29.29300 44.34300
O  51.04700 30.34400 44.72500
C  50.66300 28.21200 43.69700
C  50.24800 28.63400 42.32800
O  51.03100 28.56200 41.37900
O  48.93700 29.11700 42.29100
C  48.69600 29.87700 41.04200
H  51.67100 21.49900 42.32000
H  57.99900 22.57400 42.98700
H  56.95900 28.44200 44.73900
H  49.18800 25.44900 43.56800
H  49.75800 23.05500 41.88300
H  48.83300 23.39700 44.57600
H  50.20300 22.10800 44.34200
H  48.66700 22.11700 43.39400
H  48.57700 26.41300 41.69600
H  48.44800 24.85600 41.04200
H  51.12400 25.71300 40.34500
H  49.94300 26.93800 39.89500
H  53.14500 19.48300 41.03500
H  52.46100 19.53200 42.50300
H  53.90100 18.55100 42.39400
H  58.71400 19.14900 42.28800
H  58.32800 20.41200 43.49200
H  58.59100 20.86400 41.78000
H  59.32400 24.70500 42.89800
H  58.91900 26.37900 45.26500
H  59.00400 23.01900 44.99600
H  59.61600 24.40200 45.81600
H  60.65300 23.60000 44.55600
H  58.71500 28.19500 43.28600
H  59.70500 26.89400 42.48700
H  61.50800 27.41500 43.65600
H  60.71000 27.51900 45.23400
H  60.77000 28.93800 44.11500
H  55.91100 30.32200 45.09500
H  54.49700 30.78800 46.10500
H  54.60600 31.22200 44.36500
H  49.77800 28.13300 44.32900
H  49.56300 30.46000 40.73200
H  48.07200 30.70900 41.36800
H  48.27000 29.17100 40.32900
Mg 36.08200 49.66300 25.81700
C  36.01100 47.67700 28.71800
C  34.43300 52.11400 27.31300
C  35.53100 51.07400 22.76600
C  37.73500 46.95300 24.24400
N  35.33000 49.83100 27.77900
C  35.52700 48.97700 28.87900
C  34.97700 49.68100 30.20900
C  34.42100 51.00400 29.66200
C  34.68500 50.95300 28.10100
C  32.89300 51.20300 29.92100
C  36.20200 49.87800 31.19300
C  36.00200 49.41300 32.65200
H  34.57000 49.20800 33.14700
N  35.26200 51.48800 25.14600
C  34.60500 52.37700 25.95000
C  34.13400 53.51100 25.09800
C  34.54100 53.24700 23.78100
C  35.14600 51.92000 23.82400
C  33.31300 54.64200 25.61800
C  34.55600 54.09800 22.55300
O  35.12700 53.78300 21.51600
C  33.85600 55.41700 22.59000
N  36.57700 49.08700 23.83900
C  36.27200 49.89500 22.78100
C  36.93400 49.42800 21.50400
C  37.73800 48.10900 21.90900
C  37.35800 48.07300 23.47500
C  36.05300 49.16200 20.23600
C  39.24500 48.11700 21.56600
C  40.17100 49.18100 22.13800
N  36.73200 47.75500 26.26400
C  37.39200 46.76400 25.52800
C  37.55200 45.57400 26.33800
C  37.06800 45.89500 27.61000
C  36.58500 47.20900 27.51400
C  38.14900 44.35400 25.85200
C  36.79400 45.34700 28.92300
O  36.91700 44.21200 29.32200
C  36.25700 46.54000 29.78000
C  35.06200 46.16600 30.60800
O  33.89700 46.41300 30.36300
O  35.47500 45.66200 31.80300
C  34.56200 45.23200 32.80700
H  33.90900 52.88200 27.88700
H  35.21000 51.52900 21.82700
H  38.31800 46.15100 23.78600
H  34.20500 49.03400 30.62500
H  34.90100 51.87300 30.11200
H  32.66600 52.08700 30.51700
H  32.38100 50.35500 30.37700
H  32.24100 51.27400 29.05100
H  36.42600 50.93800 31.07400
H  37.08300 49.32800 30.86400
H  36.49100 50.11500 33.32700
H  36.45100 48.42300 32.73900
H  33.05800 54.40100 26.65000
H  32.33400 54.86100 25.19100
H  33.85500 55.58800 25.61400
H  34.40000 55.98100 23.34800
H  32.78600 55.37000 22.79100
H  33.90700 56.01700 21.68100
H  37.74300 50.15600 21.44000
H  37.20200 47.28300 21.44200
H  36.28400 48.20300 19.77400
H  36.18100 49.91100 19.45500
H  34.98900 49.13700 20.47400
H  39.30300 48.28900 20.49100
H  39.55700 47.07600 21.65000
H  40.45000 49.73200 21.24000
H  41.03700 48.69200 22.58600
H  39.65600 49.80200 22.87100
H  37.41400 43.78600 25.28300
H  38.61000 43.76500 26.64500
H  38.99700 44.58300 25.20600
H  37.05100 46.86900 30.45000
H  33.54300 45.28800 32.42300
H  34.68600 45.90200 33.65800
H  34.79200 44.21900 33.13600

