158

Mg 25.69900 -8.56200 47.77800
C  27.94300 -6.15800 46.51800
C  23.44800 -7.59100 45.24700
C  23.94400 -11.43400 48.28500
C  28.38500 -9.77400 49.73000
N  25.71600 -6.99600 46.09500
C  26.70000 -6.13900 45.82000
C  26.25600 -5.10900 44.84000
C  24.74900 -5.52000 44.55900
C  24.56800 -6.73800 45.42200
C  23.71300 -4.41700 44.92200
C  27.10600 -4.93900 43.50300
C  27.41700 -3.54300 43.15200
H  27.46200 -3.17300 41.65200
N  23.87700 -9.36200 46.98000
C  23.15400 -8.80300 45.95000
C  21.94800 -9.63300 45.82400
C  21.97400 -10.64500 46.74400
C  23.30600 -10.54400 47.42100
C  20.82500 -9.32000 44.78200
C  20.98300 -11.79100 46.86700
O  20.06000 -11.93100 46.09200
C  21.24300 -12.85000 47.91600
N  26.18300 -10.34100 48.69900
C  25.18600 -11.27700 48.91800
C  25.69200 -12.46800 49.81300
C  27.14700 -11.89500 50.28800
C  27.25300 -10.58800 49.57600
C  24.74700 -12.89000 50.95400
C  28.27000 -12.85900 49.94700
C  29.01400 -12.55000 48.64600
N  27.66800 -7.98300 48.17100
C  28.61900 -8.55700 49.02800
C  29.82000 -7.76900 48.97500
C  29.59000 -6.72600 48.05800
C  28.29600 -6.94800 47.54500
C  31.05900 -8.04200 49.74700
C  30.11500 -5.59500 47.42700
O  31.18300 -4.99200 47.53300
C  29.02800 -5.15800 46.39900
C  28.51100 -3.84300 46.86300
O  27.57200 -3.69700 47.62400
O  29.04300 -2.87000 46.06800
C  28.34000 -1.56200 46.05300
H  22.68500 -7.19000 44.57700
H  23.55800 -12.45100 48.38500
H  29.12800 -10.23400 50.38500
H  26.26700 -4.16900 45.39000
H  24.66300 -5.87800 43.53300
H  24.14000 -3.47000 44.59100
H  23.62400 -4.48900 46.00600
H  22.74100 -4.65700 44.49100
H  26.54800 -5.38500 42.67900
H  28.02700 -5.51500 43.59300
H  28.32300 -3.27200 43.69500
H  26.68900 -2.90700 43.65600
H  20.92000 -8.41300 44.18400
H  19.95700 -9.17700 45.42600
H  20.59600 -10.14100 44.10300
H  21.62900 -12.41000 48.83600
H  21.98100 -13.42400 47.35500
H  20.40100 -13.48800 48.18000
H  25.97200 -13.29700 49.16400
H  27.14000 -11.71200 51.36200
H  25.16400 -12.58300 51.91300
H  24.68800 -13.97800 50.98700
H  23.77400 -12.45600 50.72200
H  27.94700 -13.88300 49.75800
H  28.93400 -12.75500 50.80500
H  29.42400 -13.50300 48.31300
H  29.85900 -11.89800 48.86800
H  28.37000 -12.08500 47.90000
H  30.90200 -8.83700 50.47600
H  31.47800 -7.17400 50.25500
H  31.66700 -8.65600 49.08200
H  29.34800 -5.05800 45.36200
H  28.82300 -0.80900 45.43000
H  28.16800 -1.18100 47.06000
H  27.29900 -1.65000 45.74100
Mg 17.50300 -1.29000 27.17500
C  16.53400 0.56700 29.93900
C  19.44000 -3.29800 29.12900
C  18.73300 -2.82200 24.39200
C  15.82000 1.04200 25.12000
N  17.97100 -1.30200 29.23400
C  17.38100 -0.52500 30.24800
C  17.84700 -0.92900 31.67800
C  18.88100 -2.08400 31.31800
C  18.80200 -2.18900 29.79200
C  20.33900 -1.69100 31.73000
C  16.73000 -1.35700 32.67900
C  16.75000 -0.77800 34.14400
H  18.02400 -0.34200 34.76500
N  18.74300 -3.00700 26.82300
C  19.43200 -3.68900 27.78600
C  20.10900 -4.82400 27.18100
C  19.87400 -4.77000 25.81900
C  19.09700 -3.47500 25.56400
C  21.12300 -5.74000 27.88100
C  20.23000 -5.77000 24.70000
O  19.88200 -5.64500 23.55000
C  21.04000 -7.06200 24.96500
N  17.32300 -0.86000 25.07800
C  17.91700 -1.72300 24.14200
C  17.80100 -0.96000 22.78300
C  16.54500 -0.06000 22.96200
C  16.60500 0.10200 24.45800
C  19.17300 -0.30300 22.41900
C  15.26600 -0.71500 22.37200
C  14.37500 0.34300 21.71500
N  16.34500 0.50600 27.40300
C  15.65400 1.27000 26.51900
C  14.97600 2.29200 27.24900
C  15.32600 2.09400 28.54100
C  16.09900 0.92400 28.64100
C  14.02300 3.35900 26.67300
C  15.03800 2.54200 29.93500
O  14.34100 3.46600 30.41700
C  15.88100 1.56200 30.85400
C  16.92300 2.45800 31.62800
O  17.96100 2.89600 31.12400
O  16.45000 2.58000 32.93200
C  17.31000 3.54400 33.69900
H  20.09900 -3.93900 29.72000
H  19.09200 -3.28800 23.47200
H  15.18900 1.70900 24.52800
H  18.40300 -0.11200 32.13800
H  18.65300 -3.04000 31.78900
H  20.40600 -0.95400 32.53000
H  21.03200 -1.43600 30.92900
H  20.86400 -2.49100 32.25200
H  16.64100 -2.43700 32.79700
H  15.78300 -1.08700 32.21300
H  16.31000 -1.53300 34.79600
H  16.10900 0.10300 34.09300
H  20.56700 -6.67700 27.90000
H  21.40800 -5.56400 28.91900
H  22.05000 -5.86000 27.32000
H  21.17300 -7.75800 24.13700
H  20.54200 -7.55900 25.79800
H  22.05700 -6.84100 25.28600
H  17.61200 -1.69500 22.00100
H  16.77000 0.87200 22.44500
H  19.06600 0.78100 22.46300
H  19.45900 -0.67800 21.43700
H  19.88000 -0.57800 23.20200
H  14.74900 -1.06000 23.26700
H  15.43100 -1.41600 21.55400
H  14.86400 1.31700 21.67600
H  13.37200 0.36700 22.14000
H  14.25600 0.14800 20.64900
H  14.40800 4.37200 26.79300
H  13.12100 3.26400 27.27800
H  13.67500 3.36400 25.64000
H  15.16900 1.07600 31.52100
H  17.16100 4.47400 33.15000
H  18.33500 3.17700 33.74100
H  17.03700 3.72400 34.73900

