158

Mg 46.80900 15.93000 28.40600
C  44.46200 15.61100 30.96900
C  48.81800 17.68300 30.53300
C  48.57100 16.73800 25.83500
C  44.42600 14.48100 26.20200
N  46.51700 16.81300 30.43400
C  45.63200 16.27300 31.37500
C  45.96600 16.86600 32.80300
C  47.18100 17.76200 32.55300
C  47.52100 17.47500 31.03200
C  46.78000 19.27000 32.73100
C  46.18200 15.66800 33.75900
C  45.52500 15.73500 35.13200
H  45.32200 17.11600 35.77100
N  48.62100 16.95900 28.23100
C  49.30500 17.56900 29.23500
C  50.59500 17.93900 28.76600
C  50.60900 17.62700 27.37600
C  49.27900 17.02700 27.07600
C  51.72900 18.45000 29.68300
C  51.62200 17.89400 26.22700
O  51.40100 17.62200 25.08500
C  53.05400 18.45400 26.58400
N  46.34800 15.90300 26.28000
C  47.36200 16.27300 25.46100
C  46.85400 16.17700 23.94500
C  45.65400 15.23400 24.17400
C  45.44500 15.15100 25.64300
C  46.56000 17.50700 23.27100
C  45.75400 13.79300 23.54100
C  44.46400 13.43200 22.84300
N  44.90000 14.99400 28.52500
C  44.08100 14.39800 27.58600
C  42.83300 14.04000 28.25200
C  42.97200 14.44500 29.57900
C  44.24100 15.06100 29.70800
C  41.64800 13.26000 27.59700
C  42.39300 14.38300 30.80400
O  41.29900 13.93200 31.08500
C  43.33100 15.15300 31.83600
C  42.49900 16.16100 32.47300
O  42.42200 17.33900 32.06700
O  42.10000 15.74000 33.66600
C  41.25400 16.71300 34.40900
H  49.55700 17.99500 31.27500
H  49.14300 17.00300 24.94300
H  43.69600 13.96300 25.57700
H  45.07400 17.39200 33.14400
H  48.06500 17.51600 33.14100
H  45.71500 19.43000 32.89900
H  46.94600 19.70700 31.74600
H  47.34300 19.80900 33.49300
H  47.24900 15.46400 33.84700
H  45.82100 14.72800 33.34100
H  46.11900 15.23200 35.89500
H  44.57500 15.21400 35.01700
H  51.61600 19.51500 29.88400
H  52.73600 18.27800 29.30400
H  51.64100 18.02100 30.68100
H  52.97800 19.38900 27.13800
H  53.60600 18.64300 25.66300
H  53.57400 17.68400 27.15400
H  47.60600 15.70000 23.31500
H  44.74400 15.73200 23.84200
H  46.74100 18.33600 23.95500
H  45.51600 17.41900 22.97000
H  47.07800 17.65800 22.32400
H  45.95600 13.12900 24.38200
H  46.48800 13.77900 22.73600
H  44.62400 13.25600 21.78000
H  43.65300 14.14100 23.01100
H  44.06600 12.51000 23.26700
H  42.14600 12.46500 27.04100
H  41.18300 14.01900 26.96800
H  40.97000 12.76500 28.29200
H  43.64200 14.43700 32.59600
H  40.32500 17.03000 33.93600
H  41.87900 17.55400 34.70800
H  41.04100 16.24600 35.37100
Mg 36.43500 49.38600 25.24600
C  36.69500 47.61000 28.12700
C  35.34400 51.99500 26.99800
C  36.00300 51.02900 22.23600
C  37.68500 46.61100 23.43200
N  35.89700 49.64300 27.29500
C  36.29200 48.85200 28.32200
C  36.06200 49.43500 29.74500
C  35.28400 50.77300 29.28300
C  35.56300 50.85300 27.77700
C  33.79300 50.64200 29.69400
C  37.41400 49.77900 30.46900
C  37.47200 49.55700 31.97100
H  36.20200 49.67200 32.82100
N  35.56600 51.22300 24.71100
C  35.31800 52.20900 25.61200
C  34.81800 53.39300 24.87300
C  34.95600 53.03800 23.45600
C  35.49400 51.67000 23.41000
C  34.50200 54.70300 25.53300
C  34.59000 53.89200 22.17900
O  34.78600 53.54600 21.01500
C  33.92900 55.23800 22.37600
N  36.68700 48.86000 23.08400
C  36.44900 49.70800 22.07000
C  36.73700 49.07500 20.67300
C  37.67600 47.89100 21.17200
C  37.29600 47.74200 22.67100
C  35.42100 48.55300 20.03400
C  39.24500 47.99200 20.88300
C  39.74700 46.78400 20.09200
N  37.07300 47.53500 25.66000
C  37.46900 46.51800 24.80000
C  37.87900 45.41100 25.62200
C  37.62500 45.78700 26.95200
C  37.03900 47.06400 26.89200
C  38.48600 44.11800 25.17300
C  37.74000 45.48900 28.38300
O  38.28100 44.63300 29.04300
C  36.98100 46.63000 29.27200
C  35.71100 46.00100 29.88000
O  34.64500 45.90700 29.35200
O  36.08200 45.76800 31.16300
C  34.94500 45.30300 31.95400
H  35.03900 52.82900 27.63500
H  35.95600 51.55600 21.28100
H  38.15300 45.79700 22.87500
H  35.45300 48.76000 30.34600
H  35.58600 51.68400 29.79900
H  33.29800 50.65600 28.72300
H  33.54100 51.54800 30.24700
H  33.51400 49.72600 30.21600
H  37.55100 50.84700 30.30000
H  38.19100 49.26100 29.90600
H  38.09000 50.35100 32.39100
H  38.06800 48.68500 32.23800
H  34.99900 55.56500 25.09000
H  34.59000 54.66000 26.61800
H  33.41700 54.79400 25.48300
H  33.24100 55.31200 23.21800
H  33.32400 55.44600 21.49400
H  34.71900 55.95400 22.60100
H  37.34300 49.76900 20.09100
H  37.39800 46.89300 20.83400
H  35.69500 47.77000 19.32700
H  34.88200 49.43700 19.69400
H  34.83200 48.01800 20.77900
H  39.81200 47.98000 21.81400
H  39.55800 48.89200 20.35300
H  38.97300 46.10500 19.73500
H  40.55200 46.29900 20.64500
H  40.16200 47.13000 19.14500
H  39.30300 44.39700 24.50700
H  37.78100 43.37400 24.80400
H  38.93400 43.69900 26.07400
H  37.62700 46.98900 30.07300
H  33.94900 45.68800 31.73400
H  35.17600 45.81600 32.88800
H  34.96300 44.22800 32.12800

