158

Mg 26.01900 0.15100 29.48900
C  27.65500 -0.15500 32.54200
C  23.07100 0.48400 31.43200
C  24.08100 -0.04600 26.67300
C  28.85500 -0.58100 27.81100
N  25.47200 0.31400 31.71000
C  26.32400 0.12600 32.77800
C  25.64200 0.50700 34.14600
C  24.11600 0.59000 33.79000
C  24.18300 0.55000 32.22200
C  23.12500 -0.42000 34.39500
C  26.25200 1.78800 34.73200
C  27.03400 1.63500 36.14100
H  26.54600 2.60700 37.24800
N  23.83500 0.33400 29.09200
C  22.85400 0.51000 30.03300
C  21.54900 0.55000 29.29700
C  21.81600 0.47000 27.85200
C  23.25300 0.24300 27.79700
C  20.24100 0.68000 30.02200
C  20.89600 0.58900 26.64700
O  21.33000 0.38100 25.53700
C  19.50400 1.02300 26.84800
N  26.37300 -0.22000 27.56800
C  25.50600 -0.20100 26.53100
C  26.22900 -0.11100 25.20100
C  27.75900 -0.26800 25.66400
C  27.71100 -0.25200 27.13800
C  25.74600 -1.14300 24.11500
C  28.68600 0.77500 25.01200
C  29.50800 0.24400 23.96800
N  27.93600 -0.26000 30.01600
C  29.02600 -0.63100 29.22500
C  30.18100 -0.75400 30.09600
C  29.64900 -0.55100 31.39600
C  28.30200 -0.27200 31.28800
C  31.64500 -1.18300 29.67800
C  29.99600 -0.52400 32.84300
O  31.04800 -0.62300 33.46500
C  28.71900 -0.23500 33.64200
C  28.62400 -1.45200 34.62400
O  28.34100 -2.57600 34.29900
O  28.94400 -1.03900 35.88100
C  29.47400 -2.02700 36.86300
H  22.17700 0.70000 32.02000
H  23.62700 -0.13800 25.68500
H  29.80100 -0.77400 27.30100
H  25.83500 -0.24400 34.91100
H  23.71900 1.56800 34.06000
H  22.35000 0.01200 35.02800
H  23.75600 -1.13000 34.92900
H  22.67800 -1.12200 33.69100
H  25.43800 2.50100 34.86300
H  26.92700 2.27900 34.03100
H  28.11300 1.76400 36.06000
H  26.96200 0.58900 36.43800
H  20.32100 0.29000 31.03700
H  19.46000 0.12600 29.50100
H  19.98100 1.73300 30.13500
H  19.10500 1.45700 25.93200
H  19.46700 1.76100 27.64900
H  18.95600 0.11600 27.10200
H  26.14400 0.95100 24.96800
H  27.95500 -1.30500 25.39000
H  26.44600 -1.96600 23.97100
H  25.52900 -0.75800 23.11800
H  24.75700 -1.44400 24.46000
H  29.27500 1.28300 25.77500
H  28.03500 1.49600 24.51900
H  29.49300 0.72600 22.99100
H  29.29700 -0.77700 23.65100
H  30.54200 0.24300 24.31400
H  32.33200 -0.50600 30.18600
H  31.79800 -0.91300 28.63300
H  31.82500 -2.23800 29.88100
H  28.80200 0.74100 34.11800
H  29.05000 -1.83300 37.84800
H  30.54700 -1.93100 37.02900
H  29.21000 -3.03100 36.53300
Mg 47.33300 15.91300 28.27700
C  45.18400 15.78400 30.96100
C  49.63300 17.41800 30.38800
C  49.06800 16.58400 25.56200
C  44.79600 14.57500 26.25100
N  47.32000 16.71900 30.39900
C  46.33000 16.41600 31.31600
C  46.70000 16.99900 32.67500
C  48.05900 17.72700 32.37100
C  48.40200 17.25900 30.97000
C  47.90600 19.31300 32.38800
C  46.91100 15.89100 33.71000
C  46.66400 16.32000 35.23900
H  46.28100 17.71300 35.56200
N  49.11300 16.74300 28.08200
C  49.95500 17.19100 29.08000
C  51.22300 17.55700 28.40200
C  51.06500 17.40400 26.98100
C  49.75000 16.85700 26.82000
C  52.39900 18.04600 29.23100
C  52.04500 17.76700 25.81700
O  51.81000 17.56500 24.66400
C  53.39100 18.41500 26.07600
N  46.86600 15.78300 26.09600
C  47.80400 16.07100 25.22900
C  47.42200 15.70400 23.79500
C  46.01600 15.01900 24.03500
C  45.88400 15.10400 25.54600
C  47.38400 16.88900 22.83300
C  45.93700 13.54000 23.53100
C  44.96900 13.46200 22.38600
N  45.45100 15.24300 28.53600
C  44.51200 14.71900 27.62400
C  43.29300 14.27700 28.27400
C  43.50700 14.66000 29.63700
C  44.82100 15.26700 29.70900
C  41.99000 13.83100 27.58500
C  42.95300 14.73000 30.96400
O  41.86200 14.35900 31.42600
C  43.99300 15.42000 31.87400
C  43.23300 16.55800 32.44200
O  43.06100 17.62900 31.86400
O  42.67200 16.33800 33.65600
C  41.84600 17.43900 34.23200
H  50.43100 17.82900 31.01000
H  49.68700 16.69300 24.67000
H  44.06900 13.99700 25.67700
H  45.81600 17.59800 32.89400
H  48.76100 17.44500 33.15700
H  48.79300 19.89500 32.63900
H  47.18000 19.71400 33.09500
H  47.63700 19.61100 31.37500
H  47.96900 15.64700 33.61600
H  46.31000 14.98400 33.64100
H  47.65500 16.09100 35.62900
H  46.00700 15.58400 35.70100
H  52.82100 18.89600 28.69500
H  53.04500 17.16900 29.18800
H  52.22900 18.39900 30.24900
H  53.29100 19.49700 25.98600
H  54.13700 18.19200 25.31400
H  53.89200 18.17600 27.01400
H  48.08600 14.89900 23.47900
H  45.17600 15.61700 23.68300
H  47.39500 17.83100 23.38200
H  46.42900 16.83900 22.31100
H  48.24800 16.91400 22.16900
H  45.70800 12.81700 24.31400
H  46.90000 13.20600 23.14500
H  45.58600 12.94000 21.65500
H  44.59000 14.42300 22.03900
H  44.05700 12.90700 22.60700
H  41.96500 12.78800 27.26900
H  41.94000 14.44600 26.68600
H  41.12600 13.97400 28.23400
H  44.20100 14.67800 32.64400
H  42.04000 18.47900 33.96900
H  41.91400 17.27300 35.30700
H  40.79000 17.40300 33.96300

