158

Mg 48.56800 34.67000 27.38500
C  46.41800 33.23000 29.92300
C  48.58100 37.57100 29.33500
C  49.84700 36.16700 24.70300
C  47.80800 31.82400 25.39900
N  47.60900 35.27000 29.46300
C  46.89100 34.48600 30.36500
C  46.74700 35.26200 31.69600
C  47.04000 36.73300 31.22000
C  47.74800 36.56300 29.90100
C  45.79000 37.55200 31.09600
C  47.72700 34.55200 32.71300
C  48.69300 35.49100 33.46900
H  48.04200 36.45100 34.37500
N  49.31000 36.54900 27.15400
C  49.31400 37.57300 28.06900
C  50.37300 38.47800 27.64900
C  50.61200 38.19900 26.24600
C  49.91500 36.92700 25.96100
C  50.82400 39.62900 28.53200
C  51.40100 39.05400 25.26900
O  51.61800 38.67300 24.11700
C  52.04500 40.35800 25.66800
N  48.70600 34.01900 25.36000
C  49.34300 34.82100 24.45700
C  49.52400 34.14400 23.06000
C  49.29400 32.68100 23.49100
C  48.52800 32.79200 24.80100
C  48.45700 34.63000 22.04600
C  50.61900 31.84700 23.60600
C  50.52400 30.33300 23.70800
N  47.44500 32.82200 27.62800
C  47.32800 31.74500 26.72300
C  46.58000 30.69400 27.40200
C  46.19300 31.25300 28.68000
C  46.72600 32.54500 28.73000
C  46.18600 29.26700 26.90800
C  45.43100 30.89200 29.91000
O  44.85000 29.88400 30.16400
C  45.34500 32.35500 30.63400
C  45.45500 32.00800 32.07500
O  46.52300 31.59400 32.61500
O  44.27500 32.44500 32.66500
C  44.16400 32.19300 34.10800
H  48.76300 38.49600 29.88600
H  50.23200 36.66600 23.81100
H  47.59600 30.95700 24.77100
H  45.73300 35.15000 32.08000
H  47.78000 37.17500 31.88600
H  45.62600 37.96600 32.09100
H  44.95400 36.94700 30.74600
H  45.87900 38.33400 30.34200
H  48.21400 33.77200 32.12600
H  47.26300 34.01800 33.54200
H  49.48300 35.88500 32.82900
H  49.15100 34.79500 34.17200
H  51.86500 39.86600 28.31000
H  50.77100 39.40400 29.59700
H  50.39400 40.59400 28.26400
H  51.35900 40.86900 26.34300
H  52.27800 40.99800 24.81700
H  52.93300 40.12400 26.25500
H  50.48500 34.35400 22.59000
H  48.65000 32.14900 22.79000
H  47.83300 35.37200 22.54500
H  47.70600 33.95400 21.63600
H  49.05400 34.90200 21.17500
H  51.14500 32.10000 24.52700
H  51.19700 32.17400 22.74300
H  50.69400 30.17300 24.77300
H  51.22800 29.85300 23.02700
H  49.49500 30.02900 23.51400
H  46.91500 28.79400 26.24900
H  45.24600 29.37200 26.36700
H  45.99700 28.63500 27.77600
H  44.35700 32.75800 30.40900
H  44.75900 31.40500 34.57000
H  43.10900 31.94200 34.21400
H  44.30200 33.15000 34.61100
Mg -1.61700 34.67800 27.09000
C  -3.64300 33.03700 29.50600
C  -0.51400 36.70000 29.68400
C  -0.16200 36.68000 24.89000
C  -3.35700 33.02100 24.58600
N  -2.11900 34.87400 29.34000
C  -2.87800 34.04700 30.08100
C  -2.73200 34.28800 31.61800
C  -2.08400 35.71400 31.65000
C  -1.54700 35.80800 30.13300
C  -3.16600 36.86500 31.98000
C  -2.01600 33.11400 32.34100
C  -2.72600 32.46500 33.58100
H  -1.95100 32.55500 34.91400
N  -0.24700 36.20000 27.30800
C  0.11300 36.85200 28.45200
C  1.03900 37.93000 28.08900
C  1.25600 37.85800 26.73000
C  0.29300 36.87500 26.26000
C  1.74300 38.76200 29.21300
C  2.21600 38.70500 25.94600
O  2.38600 38.62100 24.70200
C  3.00700 39.82200 26.67500
N  -1.91700 34.87200 24.94200
C  -1.06000 35.74800 24.25100
C  -1.03800 35.45100 22.71000
C  -2.04700 34.19500 22.62200
C  -2.40600 33.95700 24.08300
C  -1.56500 36.60000 21.93100
C  -1.53000 32.91500 21.86800
C  -0.73900 31.87800 22.76500
N  -3.24500 33.32000 27.00500
C  -3.79000 32.69900 25.93600
C  -4.73400 31.69200 26.32700
C  -4.66900 31.75200 27.80500
C  -3.79200 32.78600 28.14100
C  -5.52100 30.75100 25.38700
C  -5.06800 31.08600 29.04800
O  -5.76400 30.12800 29.13000
C  -4.37300 31.86700 30.19800
C  -5.49900 32.24700 31.10400
O  -6.23200 33.19700 31.03100
O  -5.63100 31.22100 32.08200
C  -6.54700 31.55600 33.18300
H  -0.20500 37.36100 30.49700
H  0.41600 37.31500 24.21600
H  -3.83700 32.36500 23.85700
H  -3.74300 34.34600 32.02000
H  -1.23300 35.69800 32.33100
H  -2.94600 37.57800 31.18600
H  -2.90800 37.26900 32.96000
H  -4.17700 36.47300 31.86900
H  -1.05500 33.49700 32.68400
H  -1.84700 32.30500 31.63100
H  -2.86000 31.39500 33.42400
H  -3.74700 32.83200 33.68600
H  1.41600 39.80200 29.21100
H  2.81500 38.59600 29.11600
H  1.43400 38.44100 30.20800
H  3.49100 40.39000 25.88000
H  3.79000 39.30200 27.22700
H  2.34800 40.45300 27.27200
H  -0.05500 35.23600 22.29100
H  -3.01300 34.47800 22.20200
H  -1.54900 37.51900 22.51600
H  -2.58900 36.37700 21.63100
H  -1.00700 36.80400 21.01800
H  -1.04400 33.34500 20.99200
H  -2.44900 32.46100 21.49900
H  -0.60500 32.21800 23.79200
H  0.26000 31.75400 22.34600
H  -1.26300 30.92200 22.77600
H  -6.07300 31.37600 24.68400
H  -6.22100 30.19000 26.00600
H  -4.69300 30.15100 25.01000
H  -3.66000 31.17500 30.64500
H  -6.07800 32.28600 33.84200
H  -6.67300 30.69400 33.83800
H  -7.51900 32.00800 32.98800

