158

Mg 2.07100 -1.87200 43.51900
C  5.46200 -0.79600 43.21800
C  0.97100 1.03400 42.13200
C  -1.14500 -3.04900 43.65900
C  3.17500 -4.92400 44.82800
N  3.11700 -0.16300 42.78600
C  4.49400 0.12900 42.86600
C  4.75000 1.54300 42.38500
C  3.29500 2.12000 42.10500
C  2.34800 0.96100 42.45900
C  2.90300 3.47100 42.83100
C  5.75600 1.60500 41.13500
C  6.40500 3.01600 41.08100
H  6.19700 3.77400 39.76600
N  0.15600 -1.03100 43.10300
C  -0.05100 0.15500 42.45800
C  -1.49600 0.38400 42.40800
C  -2.10600 -0.78400 42.94300
C  -1.00100 -1.72600 43.25000
C  -2.15900 1.69200 41.94500
C  -3.67400 -1.01700 43.09100
O  -4.45400 -0.13200 42.71300
C  -4.29300 -2.20500 43.71200
N  1.13500 -3.80700 43.95800
C  -0.15300 -4.04500 43.97500
C  -0.57500 -5.44400 44.48300
C  0.79600 -5.95200 44.92400
C  1.79800 -4.82200 44.54500
C  -1.70000 -5.41400 45.61500
C  1.20600 -7.31300 44.27900
C  1.57300 -8.44500 45.26200
N  3.92000 -2.79600 43.90200
C  4.18600 -3.93700 44.57300
C  5.61300 -4.09600 44.79800
C  6.19400 -2.88700 44.20900
C  5.13200 -2.13300 43.67500
C  6.27800 -5.30300 45.40800
C  7.43700 -2.23400 43.82300
O  8.60900 -2.61100 43.84300
C  6.99600 -0.80800 43.29600
C  7.54200 0.25800 44.14200
O  7.47700 0.21500 45.35600
O  7.98600 1.36900 43.48800
C  8.39200 2.50900 44.28600
H  0.62700 1.90500 41.57000
H  -2.16600 -3.43600 43.69900
H  3.57900 -5.75100 45.41600
H  5.14700 2.09600 43.23600
H  3.17900 2.32800 41.04100
H  2.23500 4.11300 42.25800
H  3.79800 4.01000 43.14300
H  2.30700 3.23100 43.71100
H  5.22800 1.52700 40.18400
H  6.53100 0.83800 41.13300
H  7.46900 2.90200 41.28900
H  5.93500 3.65100 41.83300
H  -2.60400 1.50200 40.96800
H  -1.40600 2.48000 41.95400
H  -2.86800 1.88500 42.75100
H  -5.26900 -1.86000 44.05200
H  -3.82300 -2.66900 44.57900
H  -4.57000 -2.95300 42.96800
H  -1.04200 -5.88700 43.60400
H  0.85800 -6.01100 46.01100
H  -1.29900 -5.45900 46.62700
H  -2.18700 -6.38800 45.65200
H  -2.34200 -4.54100 45.49700
H  2.16200 -7.15200 43.78100
H  0.34700 -7.53600 43.64500
H  2.51000 -8.93100 44.99100
H  0.85300 -9.26300 45.26700
H  1.53600 -8.06700 46.28400
H  7.25300 -4.99500 45.78600
H  6.36000 -6.12500 44.69800
H  5.61900 -5.58600 46.22900
H  7.51000 -0.68900 42.34200
H  8.88000 3.29600 43.71100
H  9.06200 2.27400 45.11400
H  7.47500 3.00100 44.61300
Mg 17.53000 -0.66500 27.42200
C  16.21200 1.16800 30.22900
C  19.31700 -2.47000 29.70800
C  18.42600 -2.50900 24.84400
C  15.75300 1.48400 25.29800
N  17.82200 -0.53800 29.73400
C  17.15900 0.27600 30.63500
C  17.56100 -0.09400 32.03300
C  18.87500 -0.91400 31.74700
C  18.70800 -1.32900 30.30000
C  20.17000 -0.28600 32.08300
C  16.33000 -0.86500 32.79600
C  16.33200 -0.66300 34.33000
H  17.57400 -0.02200 35.02200
N  18.60600 -2.33200 27.30500
C  19.32300 -2.92500 28.35600
C  20.00300 -4.13000 27.80000
C  19.72400 -4.11400 26.39100
C  18.85500 -2.96300 26.12500
C  20.81100 -5.14000 28.61800
C  20.19700 -5.14100 25.41700
O  19.88600 -5.09700 24.23200
C  21.25600 -6.25000 25.73000
N  17.35000 -0.37000 25.29600
C  17.70200 -1.37500 24.46800
C  17.30700 -1.04800 23.02100
C  16.45700 0.30700 23.16900
C  16.56100 0.54100 24.66900
C  18.44000 -0.94500 21.88800
C  15.02300 0.27500 22.62000
C  14.05700 -0.48400 23.57000
N  16.25400 0.91300 27.66100
C  15.58300 1.71600 26.72700
C  14.68700 2.54800 27.34200
C  14.95100 2.40600 28.72300
C  15.92200 1.41100 28.88300
C  13.80700 3.49000 26.65200
C  14.59600 3.01300 30.10200
O  13.78700 3.86100 30.38500
C  15.30900 2.10600 31.08600
C  16.09100 3.03500 32.01600
O  17.16500 3.58200 31.73900
O  15.53900 3.14500 33.24900
C  16.21900 3.92600 34.29500
H  19.89800 -3.05100 30.42800
H  18.57300 -3.15300 23.97500
H  15.19000 2.11500 24.60800
H  17.87400 0.79100 32.58700
H  18.80200 -1.82800 32.33700
H  20.82900 -0.48300 31.23700
H  20.47600 -0.77200 33.00900
H  20.16000 0.80400 32.09700
H  16.57100 -1.90700 32.58700
H  15.35300 -0.68100 32.34900
H  16.20100 -1.57700 34.90900
H  15.47200 -0.01100 34.48300
H  21.87100 -5.10100 28.36600
H  20.42600 -6.14300 28.43300
H  20.50100 -4.97200 29.65000
H  21.59500 -6.62300 24.76300
H  20.76700 -7.01300 26.33700
H  22.15100 -5.82000 26.18100
H  16.55900 -1.77900 22.71400
H  17.00300 1.07800 22.62500
H  19.30900 -1.55500 22.13700
H  18.83800 0.05400 21.70700
H  18.03300 -1.46400 21.02100
H  14.90300 -0.24200 21.66800
H  14.66900 1.28800 22.42700
H  13.45800 0.20400 24.16600
H  14.44200 -1.36800 24.07900
H  13.36600 -0.95100 22.86900
H  14.33600 4.33800 26.21700
H  13.03800 3.75700 27.37800
H  13.41700 2.96100 25.78300
H  14.76400 1.47800 31.79100
H  17.10500 4.42800 33.90500
H  16.69600 3.32000 35.06500
H  15.57900 4.62700 34.83000

