158

Mg -2.83900 17.17100 27.33200
C  -2.94900 15.17100 30.32000
C  -3.20700 19.97200 29.27100
C  -2.83600 18.86900 24.45800
C  -3.19600 14.11900 25.56400
N  -3.10500 17.49600 29.46800
C  -3.08000 16.54000 30.51700
C  -3.03500 17.27500 31.82900
C  -3.36200 18.78200 31.49900
C  -3.21500 18.76100 29.95700
C  -4.72700 19.25400 31.90600
C  -1.78100 17.06000 32.67000
C  -1.37100 18.07800 33.75100
H  -0.77600 17.41600 35.01700
N  -3.02800 19.11900 26.91900
C  -3.14400 20.15400 27.81400
C  -3.23500 21.40500 27.13200
C  -3.03400 21.11100 25.74300
C  -2.94400 19.64800 25.66200
C  -3.58200 22.64600 27.85200
C  -2.87400 22.06400 24.53100
O  -2.75200 21.68000 23.39900
C  -2.86000 23.57500 24.77200
N  -3.15900 16.59600 25.40700
C  -2.87700 17.47800 24.35600
C  -2.91600 16.83100 22.98700
C  -2.78300 15.34400 23.38200
C  -3.12500 15.32900 24.86100
C  -4.21000 17.21500 22.18800
C  -1.36000 14.78100 23.09600
C  -1.14900 14.45200 21.60600
N  -2.85200 15.11900 27.77700
C  -2.98200 14.03300 26.94700
C  -2.87100 12.79400 27.64800
C  -2.93500 13.20100 28.98100
C  -2.93500 14.64400 29.01400
C  -2.89300 11.45000 27.11500
C  -3.07000 12.69200 30.34200
O  -3.18400 11.60200 30.84500
C  -2.86100 13.97600 31.29600
C  -1.44500 13.88600 31.79300
O  -0.42100 14.35000 31.28600
O  -1.43100 13.11100 32.93300
C  -0.23500 12.97300 33.63800
H  -3.18600 20.86800 29.89400
H  -2.61500 19.39900 23.52900
H  -3.17700 13.19000 24.99100
H  -3.91500 16.89500 32.34900
H  -2.66200 19.44000 32.01400
H  -4.63400 20.32100 32.10900
H  -5.00100 18.73600 32.82500
H  -5.45600 18.91100 31.17300
H  -0.96700 16.88000 31.96800
H  -1.69200 16.11700 33.20900
H  -2.18400 18.68000 34.15800
H  -0.55200 18.62500 33.28400
H  -3.78200 23.48500 27.18500
H  -2.64200 22.91800 28.33300
H  -4.35400 22.52500 28.61100
H  -3.93400 23.76300 24.77900
H  -2.36400 24.27300 24.09700
H  -2.38400 23.73000 25.74000
H  -2.03900 17.21300 22.46600
H  -3.44800 14.72900 22.77500
H  -4.78400 17.70500 22.97500
H  -4.66300 16.30700 21.79100
H  -3.90700 17.94100 21.43300
H  -1.16100 13.91400 23.72600
H  -0.61500 15.55000 23.30100
H  -0.44000 15.12500 21.12500
H  -2.05800 14.40300 21.00600
H  -0.68000 13.46800 21.58500
H  -3.96700 11.30100 26.99600
H  -2.41800 10.74100 27.79200
H  -2.52100 11.49300 26.09100
H  -3.55200 14.08600 32.13200
H  -0.32900 13.39200 34.64000
H  0.61100 13.38100 33.08600
H  -0.00400 11.91300 33.74300
Mg 7.43200 52.96300 40.98500
C  6.98400 49.51300 40.30800
C  10.58300 52.70400 39.40200
C  7.52500 56.26600 40.89100
C  4.00300 52.98900 41.89700
N  8.46300 51.36500 39.90300
C  8.17100 50.00800 39.72400
C  9.31000 49.23700 39.00900
C  10.50400 50.14300 39.38400
C  9.82500 51.59500 39.55800
C  11.35600 49.83700 40.64300
C  8.97200 49.23300 37.44500
C  9.10600 47.88500 36.73600
H  8.19200 47.68300 35.47200
N  8.91100 54.34800 40.34500
C  10.15000 53.97300 39.83200
C  10.80700 55.23900 39.58300
C  10.01300 56.33300 39.97500
C  8.77400 55.72400 40.49600
C  12.13500 55.22500 38.91100
C  10.39300 57.80700 39.80600
O  11.50600 58.15800 39.45500
C  9.42600 58.87800 40.14700
N  5.88100 54.37100 41.02100
C  6.25900 55.65200 41.19000
C  5.06400 56.57000 41.73900
C  4.03900 55.48400 42.13100
C  4.65200 54.23100 41.64800
C  5.59300 57.53400 42.84900
C  2.59700 55.72200 41.58500
C  1.35700 55.36000 42.47800
N  5.85500 51.53200 41.14800
C  4.53400 51.71300 41.59800
C  3.93700 50.46900 41.73700
C  4.85400 49.48500 41.20500
C  5.99300 50.21400 40.85500
C  2.55200 50.35700 42.14700
C  5.11400 48.02500 40.93300
O  4.38100 47.00700 41.14800
C  6.59800 47.97800 40.41800
C  6.62400 47.17500 39.19900
O  6.36900 47.49400 38.02600
O  6.97900 45.90500 39.51700
C  6.76000 44.81400 38.56700
H  11.56100 52.66100 38.91800
H  7.43900 57.32300 41.15000
H  2.97500 52.97200 42.26400
H  9.33300 48.24000 39.45100
H  11.22500 50.11900 38.56700
H  10.83200 49.20400 41.35800
H  11.55200 50.70000 41.28000
H  12.29500 49.38200 40.32800
H  9.61000 49.87200 36.83500
H  7.96000 49.61900 37.32200
H  8.99600 47.05000 37.42900
H  10.11000 47.98000 36.32300
H  11.94700 55.23700 37.83800
H  12.71700 54.33900 39.16500
H  12.81100 56.03200 39.19600
H  9.06400 58.69900 41.15900
H  8.55000 58.78600 39.50600
H  9.88800 59.82800 39.87700
H  4.79600 57.06600 40.80700
H  3.97600 55.45800 43.21900
H  6.66200 57.48700 43.05500
H  4.98700 57.41400 43.74700
H  5.41400 58.56600 42.54700
H  2.47800 55.32000 40.57900
H  2.52500 56.80700 41.50200
H  0.89800 56.27600 42.85000
H  1.57800 54.68700 43.30600
H  0.54200 54.91700 41.90700
H  1.89900 50.85700 41.43200
H  2.38400 50.96300 43.03700
H  2.26700 49.30500 42.17200
H  7.24800 47.43700 41.10600
H  7.22600 45.16400 37.64600
H  5.72800 44.46700 38.51300
H  7.40900 43.99800 38.88600

