158

Mg 1.09500 -0.93600 43.76600
C  4.49900 -0.44000 43.08100
C  0.19800 1.66900 41.83700
C  -2.20100 -2.15700 43.66000
C  1.96000 -4.05000 45.11800
N  2.26400 0.26800 42.28400
C  3.63100 0.42800 42.31100
C  3.98600 1.66600 41.57700
C  2.59300 2.45700 41.55300
C  1.58300 1.41200 41.89000
C  2.44400 3.68400 42.39400
C  4.83000 1.48900 40.26700
C  6.23400 2.16600 40.09100
H  6.49000 2.96500 38.80100
N  -0.75300 -0.25500 43.01200
C  -0.83800 0.82200 42.11900
C  -2.15400 1.06700 41.89300
C  -2.93200 0.00300 42.42600
C  -1.98500 -0.86200 43.08900
C  -2.62300 2.37800 41.20700
C  -4.46500 -0.03700 42.42000
O  -5.10900 0.89700 41.94900
C  -5.19400 -1.22100 42.92700
N  0.02200 -2.83000 44.23000
C  -1.30300 -3.04900 44.21600
C  -1.73700 -4.46400 44.77600
C  -0.40600 -4.92700 45.38600
C  0.57800 -3.90200 44.84200
C  -3.04300 -4.61400 45.57600
C  -0.09500 -6.39800 45.00400
C  -0.26300 -7.35700 46.20700
N  2.85200 -2.05600 44.12200
C  3.02100 -3.23000 44.77600
C  4.42600 -3.44100 45.02000
C  5.06000 -2.38000 44.27600
C  4.06900 -1.54200 43.78800
C  5.17000 -4.53700 45.69900
C  6.32700 -1.75000 43.96700
O  7.46100 -2.07000 44.27400
C  6.02700 -0.49900 43.13200
C  6.62100 0.76400 43.69300
O  6.24400 1.17800 44.81500
O  7.67500 1.30600 42.99100
C  8.48500 2.24100 43.79100
H  0.02300 2.67700 41.45500
H  -3.19700 -2.60600 43.66100
H  2.27600 -4.90100 45.72600
H  4.63400 2.21700 42.25800
H  2.46100 2.71900 40.50400
H  3.30700 3.93000 43.01300
H  1.55000 3.72800 43.01500
H  2.45200 4.48600 41.65600
H  4.33700 1.94500 39.40800
H  4.91000 0.40600 40.16900
H  7.02000 1.41000 40.09100
H  6.45000 2.67100 41.03300
H  -1.92700 3.21100 41.10500
H  -3.44100 2.78500 41.80100
H  -2.92700 2.22400 40.17200
H  -5.09800 -1.34600 44.00600
H  -4.66000 -2.02100 42.41400
H  -6.23000 -1.25800 42.59100
H  -1.89700 -4.91900 43.79900
H  -0.40800 -4.71500 46.45600
H  -3.48600 -3.65200 45.83600
H  -2.79700 -4.96900 46.57700
H  -3.62600 -5.38100 45.06700
H  0.90100 -6.44400 44.56200
H  -0.70100 -6.75600 44.17200
H  -1.19300 -7.09700 46.71200
H  0.60100 -7.32500 46.87000
H  -0.40200 -8.36000 45.80200
H  4.64200 -4.81700 46.61100
H  6.15200 -4.14300 45.95900
H  5.18300 -5.39400 45.02600
H  6.35000 -0.79000 42.13300
H  7.92400 3.14500 44.02900
H  9.37600 2.45600 43.20100
H  8.91500 1.76400 44.67200
Mg -11.76200 17.12100 41.50500
C  -8.72300 15.43600 40.83000
C  -10.38200 19.95300 39.99600
C  -14.82300 18.39100 41.26900
C  -13.08900 13.97700 42.50300
N  -9.86600 17.55100 40.40600
C  -8.76200 16.71900 40.25400
C  -7.58200 17.38600 39.60600
C  -8.10500 18.82100 39.47700
C  -9.54000 18.81100 39.98600
C  -7.26000 19.93200 40.17200
C  -7.20200 16.71000 38.28500
C  -5.79300 16.09500 38.14400
H  -4.98700 16.42300 36.85500
N  -12.49200 18.99200 40.86700
C  -11.75300 20.01800 40.32900
C  -12.61300 21.07500 40.02400
C  -13.93900 20.71100 40.43000
C  -13.79800 19.30100 40.89500
C  -12.21600 22.40900 39.50500
C  -15.17800 21.64600 40.52700
O  -15.12400 22.86000 40.36100
C  -16.50600 21.07600 40.95400
N  -13.70600 16.33300 41.91000
C  -14.83800 17.07200 41.70400
C  -16.10500 16.24200 41.88700
C  -15.57100 14.93800 42.61800
C  -14.02800 15.00900 42.25000
C  -17.33800 16.84400 42.57700
C  -16.31800 13.69500 42.13500
C  -16.37800 12.56400 43.17800
N  -11.12900 15.11700 41.71000
C  -11.72000 13.98700 42.20200
C  -10.73100 12.98300 42.45900
C  -9.55400 13.47500 41.86600
C  -9.84900 14.79400 41.40000
C  -11.08800 11.57500 42.98500
C  -8.16500 13.06500 41.59600
O  -7.50500 12.06500 41.83100
C  -7.52900 14.42100 41.04200
C  -6.32700 14.83700 41.87500
O  -6.35000 15.43000 42.92100
O  -5.17800 14.48600 41.19700
C  -4.00600 14.69300 42.02800
H  -9.93600 20.86500 39.59200
H  -15.85600 18.67600 41.06300
H  -13.41100 13.01000 42.89500
H  -6.70600 17.31300 40.25100
H  -8.08200 19.05300 38.41200
H  -7.04600 20.75000 39.48400
H  -6.37100 19.49700 40.63000
H  -7.88300 20.33800 40.96900
H  -7.25800 17.37800 37.42500
H  -8.00400 16.00100 38.08000
H  -5.80800 15.00500 38.15300
H  -5.26500 16.50900 39.00300
H  -11.14100 22.57300 39.58100
H  -12.43100 23.18900 40.23500
H  -12.67100 22.78400 38.58800
H  -17.16600 21.92800 41.11600
H  -16.38100 20.50700 41.87500
H  -17.03700 20.41900 40.26500
H  -16.46400 15.93700 40.90400
H  -15.55400 15.05700 43.70200
H  -18.20400 17.00800 41.93500
H  -17.07100 17.82000 42.98000
H  -17.66700 16.22700 43.41300
H  -15.81400 13.45200 41.19900
H  -17.35200 13.88400 41.84800
H  -17.44200 12.40800 43.35300
H  -15.87100 12.77100 44.12000
H  -15.99000 11.68100 42.67100
H  -11.66500 10.90600 42.34700
H  -11.65600 11.72800 43.90300
H  -10.21800 10.92300 43.06700
H  -7.19000 14.13700 40.04500
H  -3.11100 14.19200 41.66200
H  -4.09300 14.50600 43.09800
H  -3.81800 15.76000 41.90500

