158

Mg 35.84300 0.54900 29.37500
C  33.85200 2.07200 31.99300
C  38.10500 -0.18200 31.70700
C  37.69700 -0.45300 26.78000
C  33.23100 1.34300 27.17800
N  35.92700 0.91200 31.68400
C  35.05600 1.52700 32.52100
C  35.53700 1.50000 33.97200
C  36.96100 0.76000 33.84500
C  37.03600 0.52400 32.29800
C  38.11100 1.63600 34.44600
C  34.49800 0.77800 34.93800
C  34.07200 1.57500 36.17400
H  35.08300 2.60800 36.81400
N  37.68200 -0.20700 29.31300
C  38.47500 -0.45500 30.34100
C  39.75900 -0.97600 29.88700
C  39.66400 -1.03700 28.44600
C  38.26100 -0.63200 28.12000
C  40.93400 -1.47400 30.84800
C  40.74100 -1.56000 27.39600
O  40.54500 -1.67100 26.16800
C  42.13600 -1.97800 27.95300
N  35.40100 0.13600 27.34600
C  36.37800 -0.09900 26.44700
C  35.79800 -0.04300 24.99700
C  34.29400 0.24600 25.19200
C  34.34600 0.65200 26.65000
C  36.59900 0.79100 23.96700
C  33.34500 -0.95700 24.85200
C  32.66800 -1.00000 23.43700
N  33.91200 1.42700 29.51200
C  33.02100 1.74500 28.48700
C  31.90000 2.55500 29.06400
C  32.15900 2.62600 30.40400
C  33.38600 1.95600 30.62500
C  30.66700 3.15300 28.30400
C  31.64200 3.22700 31.62300
O  30.65700 3.88900 31.82800
C  32.70200 2.88000 32.70300
C  33.08100 4.20700 33.23800
O  34.09100 4.83400 32.99700
O  32.23000 4.63100 34.25500
C  32.71300 5.76300 35.12200
H  38.79700 -0.41100 32.52100
H  38.42300 -0.69900 26.00300
H  32.56800 1.82200 26.45400
H  35.71700 2.53000 34.27900
H  36.96100 -0.19600 34.36800
H  37.76600 2.44100 35.09500
H  38.73400 1.95800 33.61200
H  38.64200 0.97900 35.13600
H  34.88300 -0.18500 35.27300
H  33.59300 0.63200 34.34700
H  33.74200 0.88700 36.95200
H  33.26000 2.21000 35.82000
H  40.62000 -1.46700 31.89200
H  41.72700 -0.72800 30.78900
H  41.33500 -2.46000 30.61400
H  42.80000 -2.08100 27.09500
H  41.94100 -2.82900 28.60600
H  42.52300 -1.23800 28.65300
H  35.97800 -1.04600 24.61200
H  33.84000 1.04900 24.61100
H  37.46800 1.17600 24.50100
H  36.12500 1.72100 23.65400
H  36.91000 0.19900 23.10600
H  32.62800 -1.01700 25.67100
H  34.01000 -1.81300 24.97300
H  32.87000 -1.93700 22.91900
H  33.03700 -0.15900 22.85100
H  31.58900 -0.97600 23.58700
H  29.75800 2.68400 28.68000
H  30.81100 3.10800 27.22400
H  30.60700 4.21900 28.52400
H  32.15900 2.47500 33.55700
H  33.70100 5.40300 35.40800
H  32.12700 5.96300 36.01900
H  32.77500 6.74100 34.64600
Mg -10.89800 15.98300 41.45800
C  -7.39900 15.78000 41.05000
C  -10.74400 19.19000 40.33100
C  -14.14800 15.82500 41.12900
C  -10.86600 12.51500 42.38500
N  -9.24800 17.26100 40.58900
C  -7.86100 17.02600 40.65100
C  -7.09300 18.25200 40.20200
C  -8.17500 19.37900 40.59100
C  -9.46100 18.59500 40.50400
C  -7.91900 20.06900 41.93900
C  -6.64000 18.13300 38.70600
C  -5.09900 18.09200 38.50300
H  -4.67800 18.65500 37.19000
N  -12.24000 17.29100 40.86000
C  -11.96000 18.60500 40.45000
C  -13.22100 19.24100 40.03900
C  -14.25300 18.34400 40.41100
C  -13.58600 17.09000 40.78900
C  -13.43200 20.63300 39.44000
C  -15.72800 18.68300 40.34700
O  -16.12100 19.71000 39.84200
C  -16.74500 17.68500 40.93700
N  -12.35000 14.39300 41.66200
C  -13.63000 14.60800 41.50600
C  -14.56400 13.39700 41.88600
C  -13.47700 12.32300 42.23000
C  -12.12800 13.11200 42.18200
C  -15.64400 13.71700 42.89900
C  -13.50700 11.05300 41.27000
C  -12.62900 11.20700 39.94400
N  -9.46900 14.45800 41.64600
C  -9.58000 13.15600 42.08900
C  -8.24000 12.50400 42.11800
C  -7.36200 13.55200 41.79400
C  -8.15400 14.70600 41.49200
C  -7.95000 11.04400 42.60500
C  -5.93800 13.93400 41.67900
O  -4.93000 13.30700 41.82900
C  -5.96100 15.36400 41.14200
C  -5.29000 16.10600 42.20300
O  -5.73800 16.22300 43.33000
O  -4.00500 16.43000 41.79000
C  -3.27300 17.32900 42.70800
H  -10.67900 20.26300 40.13400
H  -15.23500 15.74600 41.05800
H  -10.96700 11.53200 42.84900
H  -6.17000 18.15900 40.77400
H  -8.22300 20.17100 39.84300
H  -7.37900 19.42000 42.62900
H  -8.87000 20.43900 42.32200
H  -7.28700 20.94800 41.81100
H  -7.18200 18.96200 38.25100
H  -7.04500 17.18900 38.34200
H  -4.78300 17.05300 38.41100
H  -4.60800 18.57000 39.35000
H  -14.13100 20.54400 38.60900
H  -12.54200 21.07800 38.99500
H  -13.95300 21.32800 40.09800
H  -17.65800 18.26600 41.06600
H  -16.46900 17.47700 41.97100
H  -16.99600 16.83800 40.29900
H  -15.02400 13.12000 40.93700
H  -13.66100 12.08600 43.27800
H  -15.82100 14.79200 42.88600
H  -15.18800 13.62800 43.88500
H  -16.52200 13.07800 42.80400
H  -14.46400 10.75000 40.84700
H  -13.08900 10.24700 41.87300
H  -11.61200 10.99200 40.27100
H  -12.61800 12.21300 39.52400
H  -12.97100 10.54100 39.15300
H  -6.90800 10.76500 42.44900
H  -8.45100 10.30600 41.97800
H  -8.22500 10.87700 43.64600
H  -5.52400 15.41000 40.14400
H  -3.68500 18.33700 42.75400
H  -2.29000 17.60200 42.32400
H  -3.14800 17.04200 43.75200

