158

Mg 34.78400 3.04200 29.38200
C  33.11900 4.22000 32.12900
C  37.58700 2.51400 31.24300
C  36.49200 2.13300 26.52300
C  32.15900 4.06500 27.28000
N  35.31800 3.34300 31.47800
C  34.42700 3.83100 32.39600
C  35.17900 3.86300 33.78600
C  36.66600 3.53000 33.44800
C  36.53700 3.11700 31.99000
C  37.68500 4.72800 33.48800
C  34.51300 2.98600 34.86300
C  34.01800 3.74700 36.14100
H  35.00600 4.67700 36.82900
N  36.72500 2.40700 28.92700
C  37.67700 2.20700 29.87200
C  38.93400 1.78700 29.24100
C  38.63800 1.67100 27.86100
C  37.23700 2.03700 27.73500
C  40.15400 1.46500 30.03600
C  39.49500 1.18300 26.63800
O  39.02600 0.97400 25.56200
C  40.91700 0.84300 26.84500
N  34.36300 2.99900 27.19700
C  35.33200 2.72300 26.29100
C  34.73300 2.94900 24.81400
C  33.28500 3.44200 25.09100
C  33.22500 3.49700 26.61200
C  35.58700 4.02900 24.03000
C  32.16500 2.53000 24.36900
C  31.45500 1.44100 25.17300
N  33.02200 3.84200 29.61700
C  32.06600 4.22400 28.72200
C  30.92100 4.58600 29.42300
C  31.26700 4.54500 30.71400
C  32.60000 4.12300 30.81400
C  29.58100 4.96100 28.95500
C  30.80400 4.83300 32.05300
O  29.69000 5.25300 32.43500
C  32.00400 4.68200 33.06800
C  32.27800 6.10200 33.52800
O  33.02500 6.88400 33.02100
O  31.58400 6.30300 34.68300
C  31.98700 7.50000 35.47800
H  38.45700 2.51800 31.90400
H  36.99800 1.92500 25.57800
H  31.27300 4.32200 26.69600
H  35.05300 4.91300 34.05200
H  36.90800 2.62700 34.00800
H  37.09800 5.64500 33.43700
H  38.24400 4.74400 32.55200
H  38.30100 4.68900 34.38600
H  35.15000 2.18900 35.24600
H  33.67300 2.54000 34.32900
H  33.59200 2.98500 36.79500
H  33.15700 4.39300 35.96500
H  41.04400 2.04200 29.78400
H  40.34700 0.40500 29.87600
H  40.01800 1.51500 31.11700
H  41.42500 1.73100 27.22100
H  41.36900 0.49300 25.91700
H  40.98600 0.01000 27.54400
H  34.84700 1.96900 24.35100
H  33.13300 4.49000 24.83400
H  36.66300 3.96500 24.18800
H  35.26700 4.99100 24.43100
H  35.39400 3.93200 22.96100
H  32.56100 2.10900 23.44500
H  31.41100 3.17100 23.91200
H  30.42900 1.70900 25.42400
H  31.97200 1.18900 26.09900
H  31.38000 0.49600 24.63400
H  29.86400 5.65500 28.16300
H  28.95300 5.47100 29.68500
H  29.18700 4.00600 28.60600
H  31.95200 3.94600 33.87000
H  32.31700 8.24600 34.75400
H  32.72800 7.44500 36.27600
H  31.10400 8.00000 35.87500
Mg 5.93800 55.12200 40.76800
C  3.46900 52.66900 41.20200
C  7.88900 52.81600 39.21300
C  8.17600 57.53300 40.07900
C  3.57600 57.42900 41.77000
N  5.56200 53.10800 39.97000
C  4.56700 52.23800 40.39700
C  4.69700 50.93100 39.66800
C  6.24500 50.92400 39.29400
C  6.62600 52.36800 39.56000
C  7.13400 49.99300 40.16400
C  3.92500 50.78400 38.36600
C  3.74100 49.23300 37.89000
H  4.63700 48.76200 36.85200
N  7.66400 55.23100 39.56500
C  8.37000 54.15200 39.16000
C  9.74700 54.49700 38.76600
C  9.87900 55.85400 39.03900
C  8.54200 56.25400 39.62100
C  10.76600 53.42900 38.37500
C  11.17500 56.66300 38.91700
O  12.23600 56.10800 38.70000
C  11.29600 58.13600 39.03000
N  5.90500 57.12000 40.87200
C  6.97800 57.87500 40.67700
C  6.76600 59.29400 41.21600
C  5.17500 59.39100 41.34200
C  4.86500 57.88500 41.32200
C  7.49200 59.52800 42.63100
C  4.34200 60.24000 40.28400
C  4.09100 61.74600 40.61400
N  3.90300 55.10100 41.48000
C  3.06200 56.13200 41.83100
C  1.82600 55.63000 42.29500
C  2.02600 54.24600 42.18300
C  3.27200 53.95000 41.68800
C  0.58000 56.41800 42.74600
C  1.34600 52.93500 42.33100
O  0.22500 52.66600 42.74000
C  2.38800 51.88200 41.91600
C  1.63400 50.91500 41.11900
O  1.07000 51.05800 40.06200
O  1.66300 49.79400 41.92800
C  1.08500 48.63600 41.29500
H  8.54300 52.01700 38.85900
H  9.01900 58.21900 39.97500
H  2.85700 58.19000 42.07900
H  4.40100 50.12400 40.33800
H  6.43100 50.63900 38.25800
H  7.63100 49.24600 39.54600
H  6.55100 49.38600 40.85700
H  7.81700 50.57300 40.78600
H  4.57200 51.20200 37.59600
H  2.94100 51.24700 38.44200
H  2.68700 49.25600 37.61300
H  3.78200 48.71500 38.84800
H  11.63900 53.68700 37.77700
H  10.20600 52.71400 37.77200
H  10.97200 52.75300 39.20500
H  12.17400 58.51600 38.50900
H  11.17900 58.49300 40.05300
H  10.43700 58.61400 38.56100
H  7.11200 60.00600 40.46600
H  4.84200 59.77800 42.30500
H  6.90500 59.08500 43.43600
H  7.75700 60.56500 42.83800
H  8.46000 59.02700 42.65100
H  3.36900 59.75600 40.19400
H  4.95700 60.15000 39.38900
H  3.03700 61.88700 40.37700
H  4.72800 62.50700 40.16400
H  4.12300 61.85900 41.69700
H  0.62400 57.48800 42.54300
H  0.47700 56.32100 43.82700
H  -0.32300 56.12900 42.20700
H  2.69100 51.42100 42.85600
H  0.14100 48.94400 40.84500
H  0.95000 47.90400 42.09100
H  1.81000 48.34600 40.53400

