158

Mg -1.52700 17.27000 26.16200
C  -1.83300 14.94500 28.86500
C  -2.05100 19.77800 28.32600
C  -1.46900 19.24000 23.49800
C  -1.55200 14.37700 23.96300
N  -2.19900 17.28800 28.42100
C  -1.97100 16.34100 29.30200
C  -2.01600 16.82300 30.68200
C  -2.18100 18.37500 30.52800
C  -2.19300 18.52400 29.02300
C  -3.51000 18.99200 31.03300
C  -0.81400 16.24200 31.62400
C  -0.45000 17.17100 32.78200
H  -0.28300 16.55900 34.19100
N  -1.76400 19.29600 25.90200
C  -1.81200 20.18500 26.97100
C  -1.78000 21.50500 26.40400
C  -1.45500 21.33800 25.01300
C  -1.59100 19.93500 24.72200
C  -2.10400 22.72300 27.30300
C  -1.10200 22.39700 23.97000
O  -0.81900 22.06000 22.79500
C  -0.98700 23.88300 24.44800
N  -1.52000 16.88600 24.06100
C  -1.52700 17.89100 23.15700
C  -1.61800 17.37200 21.65000
C  -1.35400 15.82800 21.93600
C  -1.53200 15.68000 23.41200
C  -3.01200 17.73100 20.83100
C  -0.03100 15.24200 21.37600
C  1.20000 15.67100 22.22200
N  -1.65000 15.10000 26.32300
C  -1.63800 14.10500 25.31100
C  -1.70300 12.79100 25.93300
C  -1.72100 13.02800 27.30000
C  -1.77400 14.47600 27.49400
C  -1.75700 11.43700 25.27400
C  -1.83600 12.43100 28.62900
O  -1.80000 11.26400 28.92600
C  -1.87300 13.59300 29.64300
C  -0.82800 13.34500 30.63700
O  0.39200 13.52800 30.48100
O  -1.31100 12.76300 31.80200
C  -0.31000 12.44300 32.86100
H  -2.10000 20.63700 28.99900
H  -1.58500 19.83700 22.59000
H  -1.44600 13.53000 23.28200
H  -2.89700 16.35100 31.11900
H  -1.39700 18.99400 30.96400
H  -4.24100 18.68400 30.28500
H  -3.41500 20.07200 31.13700
H  -3.72500 18.60200 32.02800
H  0.06600 16.16400 30.98500
H  -1.11400 15.28700 32.05600
H  -1.21600 17.92900 32.94300
H  0.52200 17.62600 32.59200
H  -1.37100 23.50900 27.12000
H  -1.97400 22.63500 28.38100
H  -3.13300 23.03700 27.12400
H  -0.02300 24.03000 24.93400
H  -1.90000 24.25500 24.91400
H  -0.94700 24.39500 23.48700
H  -0.74500 17.63500 21.05200
H  -2.20900 15.29700 21.51600
H  -3.40100 18.66300 21.24200
H  -3.75300 16.93900 20.93900
H  -2.86300 17.93800 19.77100
H  0.23300 15.75800 20.45200
H  -0.13000 14.17500 21.17700
H  0.96100 16.47800 22.91400
H  2.02000 15.99200 21.58000
H  1.54100 14.84800 22.85000
H  -0.86300 11.00200 24.82700
H  -2.50800 11.42700 24.48500
H  -2.15600 10.84300 26.09600
H  -2.84100 13.59300 30.14500
H  0.72600 12.27900 32.56400
H  -0.64500 11.55000 33.38900
H  -0.34300 13.28400 33.55400
Mg 35.76800 48.57000 25.37800
C  35.75300 46.89200 28.54400
C  34.42200 51.27100 27.02900
C  35.59000 49.95800 22.37000
C  36.65800 45.56400 23.98400
N  35.18800 48.99500 27.52900
C  35.48700 48.28600 28.61600
C  35.15300 49.11000 29.91100
C  34.66700 50.49200 29.45700
C  34.81100 50.26100 27.91600
C  33.17500 50.92400 29.78400
C  36.45000 49.20200 30.69000
C  36.38200 49.05700 32.19700
H  35.10600 49.24100 32.97200
N  34.96400 50.33500 24.74300
C  34.49500 51.30100 25.58500
C  34.20300 52.47200 24.76800
C  34.56500 52.23200 23.41300
C  35.03000 50.82200 23.48300
C  33.57200 53.71200 25.42600
C  34.35400 53.11800 22.20700
O  34.78700 52.77000 21.10400
C  33.47400 54.34500 22.31000
N  35.85800 47.79200 23.45900
C  35.90300 48.60100 22.39000
C  36.44300 47.93600 21.05800
C  36.81100 46.55000 21.69800
C  36.43200 46.61900 23.13900
C  35.43500 47.76100 19.90000
C  38.30700 46.19100 21.55700
C  38.98600 46.33100 20.20800
N  36.26900 46.63100 26.06400
C  36.56600 45.52900 25.37400
C  36.70600 44.38500 26.28300
C  36.35000 44.89000 27.55800
C  36.14500 46.27100 27.36800
C  37.21000 42.88800 25.92300
C  36.31400 44.57000 28.99900
O  36.57500 43.57000 29.67000
C  35.97300 45.91100 29.71400
C  34.64800 45.71700 30.47400
O  33.56400 46.02900 30.10800
O  34.90500 45.13300 31.67200
C  33.75000 44.91300 32.54300
H  33.90100 52.07300 27.55500
H  35.62900 50.54700 21.45100
H  37.00400 44.65800 23.48200
H  34.38700 48.65000 30.53600
H  35.35300 51.27100 29.78900
H  33.29200 51.94100 30.15800
H  32.69700 50.24700 30.49200
H  32.57200 51.12000 28.89700
H  37.01300 50.12100 30.53300
H  37.13700 48.38700 30.46100
H  37.15800 49.77800 32.45700
H  36.66800 48.03300 32.43600
H  34.02700 54.58000 24.94900
H  33.81000 53.81200 26.48500
H  32.49100 53.61600 25.32800
H  32.58400 54.03600 22.85700
H  33.23900 54.78800 21.34200
H  34.05100 55.13700 22.78800
H  37.28700 48.43800 20.58400
H  36.13500 45.79100 21.30600
H  34.36800 47.95400 20.01700
H  35.57700 46.77000 19.46900
H  35.80800 48.47600 19.16700
H  38.38900 45.12400 21.76300
H  38.89700 46.80100 22.24100
H  38.28300 46.60300 19.42100
H  39.48400 45.40400 19.92200
H  39.74400 47.11100 20.14100
H  37.93300 42.92000 25.10700
H  36.31600 42.29600 25.72600
H  37.78000 42.53500 26.78200
H  36.73800 46.03100 30.48100
H  33.93100 44.33100 33.44600
H  33.06600 44.26100 32.00100
H  33.36600 45.87400 32.88500

