158

Mg 50.15400 45.32100 40.57000
C  46.74200 45.34400 39.43200
C  50.34500 42.08800 40.07200
C  53.38600 45.58000 41.24700
C  49.82300 48.95800 40.51600
N  48.67500 43.94800 39.77300
C  47.33500 44.09800 39.45900
C  46.81200 42.74300 38.99800
C  47.80800 41.70200 39.69800
C  49.03200 42.61100 39.82600
C  47.35700 41.17700 41.08600
C  46.75500 42.68200 37.43300
C  45.40600 42.29100 36.80700
H  45.09800 42.86000 35.42000
N  51.63600 43.97800 40.79500
C  51.48800 42.66200 40.62800
C  52.76100 41.94900 40.82600
C  53.63400 42.91800 41.37400
C  52.94000 44.27100 41.17200
C  52.99100 40.45700 40.65000
C  55.01100 42.67000 41.96700
O  55.52200 41.56300 41.99400
C  55.76900 43.86800 42.67600
N  51.39000 47.00300 40.90400
C  52.75100 46.83400 41.26100
C  53.37800 48.31100 41.45400
C  52.27100 49.31400 41.03700
C  51.09300 48.39400 40.72900
C  53.96900 48.46700 42.86200
C  52.56400 50.23300 39.80200
C  52.47800 51.75200 40.11500
N  48.61900 46.88500 40.20500
C  48.65700 48.28800 40.19300
C  47.33100 48.77900 39.74400
C  46.45700 47.72500 39.62900
C  47.37300 46.56100 39.79900
C  46.98000 50.18400 39.74000
C  45.08500 47.23600 39.43900
O  44.01900 47.83900 39.47200
C  45.24600 45.65400 39.33800
C  44.45500 44.99900 40.40300
O  44.84900 44.68200 41.54600
O  43.12600 45.05400 40.01600
C  42.14700 44.95400 41.11700
H  50.44000 41.01200 39.91100
H  54.46100 45.70300 41.39100
H  49.72400 50.03900 40.40400
H  45.84200 42.47100 39.41300
H  48.05700 40.86300 39.04900
H  46.26800 41.20400 41.12800
H  47.77300 41.79000 41.88500
H  47.67100 40.13500 41.14700
H  47.49700 42.07500 36.91500
H  46.95300 43.71000 37.13100
H  44.61100 42.41100 37.54300
H  45.50900 41.21600 36.66000
H  53.96400 40.04500 40.91400
H  52.72400 40.18300 39.62900
H  52.30800 39.93600 41.32100
H  55.14000 44.38300 43.40200
H  56.11700 44.48900 41.85000
H  56.65400 43.43400 43.14000
H  54.21400 48.42100 40.76300
H  52.02000 49.93100 41.90000
H  54.08300 47.48200 43.31400
H  53.30200 49.08300 43.46600
H  54.88600 49.04500 42.75000
H  51.90700 49.95800 38.97600
H  53.61700 50.06700 39.57300
H  52.03900 52.19200 39.22000
H  53.46700 52.10100 40.41000
H  51.84200 52.09500 40.93200
H  46.94100 50.58400 40.75300
H  46.02500 50.30600 39.22700
H  47.72700 50.69100 39.13000
H  44.82800 45.37800 38.37000
H  41.10600 45.06500 40.81200
H  42.37400 45.74500 41.83100
H  42.23700 43.99900 41.63400
Mg -2.36200 34.53600 26.60600
C  -4.21300 32.78600 29.20000
C  -1.20700 36.51400 29.03500
C  -0.84500 36.16000 24.17900
C  -4.04500 32.47300 24.30200
N  -2.79800 34.76600 28.95300
C  -3.42200 33.83300 29.75800
C  -3.21900 34.22000 31.20100
C  -2.39700 35.53400 31.08100
C  -2.06100 35.64200 29.57500
C  -3.13100 36.79200 31.61600
C  -2.54700 33.09600 32.03300
C  -3.34200 32.36200 33.15000
H  -3.39300 33.23500 34.39800
N  -1.20700 36.13900 26.56800
C  -0.74300 36.80000 27.70500
C  0.20300 37.82600 27.32700
C  0.33500 37.72500 25.94300
C  -0.62000 36.64800 25.48000
C  0.91100 38.68900 28.35400
C  1.28000 38.46100 25.01400
O  1.26300 38.34400 23.80600
C  2.34500 39.32900 25.57500
N  -2.73000 34.46700 24.51600
C  -1.72600 35.15400 23.78400
C  -1.68400 34.60800 22.35100
C  -2.61900 33.38700 22.36000
C  -3.19700 33.38300 23.77900
C  -1.98500 35.64500 21.28700
C  -1.87300 32.05900 22.06300
C  -2.69500 30.81000 21.61400
N  -4.03400 33.13500 26.69900
C  -4.54700 32.34200 25.63100
C  -5.42900 31.32900 26.17500
C  -5.32900 31.43900 27.56200
C  -4.45900 32.58800 27.83000
C  -6.18500 30.17800 25.44800
C  -5.72300 30.88600 28.80800
O  -6.59100 30.02000 28.99700
C  -5.06700 31.77900 29.91600
C  -6.25700 32.36700 30.59900
O  -6.73600 33.43800 30.29400
O  -6.63400 31.70300 31.68500
C  -7.59800 32.20600 32.61800
H  -0.80800 37.18600 29.79800
H  -0.14700 36.44000 23.38700
H  -4.41200 31.76900 23.55200
H  -4.23100 34.37200 31.57700
H  -1.44000 35.53600 31.60200
H  -4.08800 36.49100 32.04300
H  -3.32500 37.46700 30.78200
H  -2.54700 37.34200 32.35500
H  -1.64800 33.53800 32.46300
H  -2.12800 32.40800 31.29900
H  -2.75100 31.47500 33.38200
H  -4.31900 32.04400 32.78500
H  1.99200 38.68500 28.21000
H  0.65100 38.51600 29.39800
H  0.56900 39.69700 28.11900
H  3.00100 39.62400 24.75600
H  3.02700 38.70700 26.15500
H  1.94200 40.11400 26.21500
H  -0.64000 34.32600 22.21400
H  -3.39300 33.60800 21.62400
H  -1.15700 35.72800 20.58400
H  -2.08100 36.60200 21.79900
H  -2.97500 35.45600 20.87100
H  -1.39900 31.69400 22.97400
H  -1.01600 32.14800 21.39500
H  -2.38700 30.50800 20.61300
H  -3.74700 31.09500 21.59000
H  -2.56200 30.04400 22.37800
H  -5.91100 29.23600 25.92200
H  -5.91300 30.24300 24.39400
H  -7.25600 30.36300 25.53800
H  -4.49500 31.20400 30.64500
H  -7.03200 32.85000 33.29100
H  -8.12000 31.42100 33.16500
H  -8.32400 32.78900 32.05200

