158

Mg 34.76000 2.71000 30.19000
C  32.79300 3.54400 32.94600
C  37.44800 2.52200 32.33000
C  36.67300 2.20300 27.49400
C  31.94800 2.81800 28.17000
N  35.10100 3.20300 32.33800
C  34.11900 3.38700 33.33300
C  34.65100 3.34100 34.73900
C  36.16400 2.97400 34.52100
C  36.26000 2.84100 32.97000
C  37.19900 4.01800 35.00300
C  33.88500 2.20000 35.53900
C  33.59200 2.44200 37.00200
H  34.48200 3.48000 37.75100
N  36.79600 2.41600 29.94800
C  37.74500 2.31500 30.91200
C  39.10300 2.05500 30.30900
C  38.86000 2.03000 28.89100
C  37.40700 2.18200 28.70700
C  40.26100 1.97200 31.20600
C  39.84800 1.88800 27.74300
O  39.51000 1.78700 26.58300
C  41.33400 1.85100 28.01700
N  34.41600 2.58900 28.10900
C  35.36000 2.34300 27.19000
C  34.83800 2.34900 25.73000
C  33.33400 2.13100 26.08400
C  33.21400 2.55900 27.53900
C  35.22000 3.66900 24.99300
C  32.91500 0.67900 25.88800
C  32.12800 0.23200 24.62700
N  32.68300 3.04800 30.43300
C  31.67700 3.05500 29.54100
C  30.46200 3.51800 30.20400
C  30.86800 3.70600 31.52900
C  32.23500 3.40800 31.62200
C  29.13900 3.71400 29.60400
C  30.34300 4.16400 32.77400
O  29.20000 4.47800 33.09900
C  31.62800 4.11600 33.78600
C  31.90800 5.39100 34.43600
O  32.78300 6.22700 34.17400
O  31.02500 5.46600 35.50000
C  31.39000 6.53600 36.46700
H  38.22700 2.33800 33.07200
H  37.14300 2.27200 26.51100
H  31.08400 2.93600 27.51200
H  34.55600 4.29200 35.26200
H  36.51600 1.99900 34.85800
H  36.82800 4.90500 35.51600
H  37.82800 4.52000 34.26800
H  37.86900 3.58700 35.74600
H  34.48900 1.29300 35.56800
H  32.88900 2.00000 35.14500
H  33.76400 1.51700 37.55300
H  32.54000 2.70300 37.11500
H  41.01900 1.40900 30.66000
H  39.97500 1.54400 32.16700
H  40.88200 2.82500 31.47900
H  41.66900 0.94400 28.52000
H  41.66200 2.73000 28.57200
H  41.97600 1.97000 27.14400
H  35.22900 1.50600 25.16100
H  32.87400 2.80200 25.35900
H  36.26900 3.91100 25.16400
H  34.54300 4.45700 25.32300
H  35.10500 3.64600 23.90900
H  32.36600 0.23900 26.72000
H  33.80500 0.05900 25.77800
H  31.23700 -0.32000 24.92700
H  32.67300 -0.38700 23.91500
H  31.84200 1.12500 24.07200
H  28.83200 4.75900 29.64400
H  28.38700 3.15500 30.16100
H  29.09300 3.45600 28.54600
H  31.21900 3.37300 34.47100
H  30.92900 6.33000 37.43300
H  31.00500 7.47800 36.07800
H  32.47200 6.57400 36.59700
Mg 26.99500 49.35000 26.38800
C  24.67700 50.44500 28.72800
C  29.15000 48.71600 29.09000
C  29.26800 48.35500 24.29000
C  24.91000 50.46500 23.85300
N  26.93600 49.69100 28.67800
C  25.80600 49.93600 29.35200
C  25.98100 49.71600 30.93700
C  27.50400 49.28300 30.96200
C  27.87200 49.18800 29.49700
C  28.38100 50.41000 31.61500
C  24.98800 48.66100 31.52300
C  24.12300 48.93600 32.73200
H  24.76700 49.67800 33.96600
N  28.90900 48.70100 26.66200
C  29.61600 48.46900 27.82500
C  30.87800 47.90700 27.54900
C  31.02800 47.93400 26.19200
C  29.69700 48.31300 25.62800
C  31.94500 47.51800 28.58300
C  32.26400 47.55200 25.28900
O  32.34300 47.66900 24.06300
C  33.60200 47.12800 25.88700
N  27.14400 49.53800 24.33900
C  28.14400 48.87900 23.69000
C  27.86300 48.80000 22.22600
C  26.39100 49.35400 22.02100
C  26.17400 49.87800 23.49500
C  28.90800 49.50400 21.33000
C  25.39100 48.20900 21.54900
C  24.62400 47.36500 22.58800
N  25.13900 50.24700 26.26100
C  24.41300 50.67000 25.10800
C  23.18500 51.29400 25.57500
C  23.19400 51.16000 26.92600
C  24.43100 50.56800 27.37100
C  22.16400 51.99500 24.69300
C  22.40800 51.34800 28.16400
O  21.27400 51.80500 28.30800
C  23.28500 50.83300 29.39700
C  23.41600 51.96700 30.40900
O  24.36500 52.73600 30.46700
O  22.47200 51.80100 31.37900
C  22.49400 52.76300 32.39300
H  29.77900 48.34800 29.90300
H  29.97500 47.89700 23.59600
H  24.20600 50.69800 23.05200
H  25.75900 50.62300 31.49900
H  27.69300 48.35600 31.50300
H  29.32500 50.49900 31.07700
H  28.57000 50.13700 32.65300
H  27.89400 51.38300 31.54300
H  25.65000 47.84100 31.80000
H  24.42000 48.23100 30.69800
H  23.81700 47.92900 33.01500
H  23.28200 49.56500 32.44000
H  32.17600 46.46600 28.41300
H  31.57200 47.53700 29.60700
H  32.90700 48.02700 28.63100
H  34.12300 46.67100 25.04600
H  33.32400 46.38700 26.63700
H  34.11200 47.98400 26.32700
H  27.97500 47.74700 21.96500
H  26.29600 50.27200 21.44200
H  29.45300 48.75800 20.75200
H  29.50500 50.15600 21.96700
H  28.44300 50.21400 20.64500
H  26.01000 47.60400 20.88600
H  24.64300 48.74600 20.96600
H  24.92700 46.39500 22.19400
H  23.53800 47.44100 22.62300
H  25.06600 47.43400 23.58200
H  22.01000 51.49000 23.74000
H  22.50200 53.01200 24.49600
H  21.26000 52.05500 25.29900
H  22.74900 50.01300 29.87600
H  22.58700 53.79000 32.04200
H  23.23900 52.50500 33.14600
H  21.47900 52.70400 32.78500

