158

Mg 8.79800 4.67000 28.06400
C  10.03800 3.08600 30.84800
C  6.96700 6.72000 30.24700
C  7.47600 6.12000 25.39600
C  10.28700 2.22700 26.06000
N  8.52900 4.87100 30.32000
C  9.20400 4.11600 31.25700
C  8.96300 4.62500 32.68500
C  7.75600 5.68000 32.42800
C  7.70700 5.75700 30.89800
C  6.44500 5.30500 33.20100
C  10.25300 5.18800 33.36500
C  10.61600 4.59000 34.75700
H  11.01400 5.63600 35.86400
N  7.51300 6.36700 27.89200
C  6.81700 6.96600 28.88000
C  6.07300 8.04000 28.25200
C  6.17200 7.88500 26.84700
C  7.07800 6.74600 26.63600
C  5.29500 9.01500 29.04700
C  5.58700 8.72500 25.71600
O  5.72500 8.46300 24.50800
C  4.77300 9.84900 25.96900
N  8.74000 4.09700 25.99100
C  8.26700 4.97200 25.08900
C  8.53700 4.47700 23.65900
C  9.46400 3.20600 23.85400
C  9.52600 3.17800 25.40000
C  7.26000 4.12200 22.91500
C  10.91000 3.43100 23.25700
C  11.18000 2.90300 21.81000
N  9.84700 2.98300 28.32900
C  10.41500 2.05100 27.43100
C  11.14600 1.06300 28.13500
C  11.07500 1.46500 29.48800
C  10.21400 2.57400 29.54200
C  11.89200 -0.06000 27.54400
C  11.45300 1.11600 30.85400
O  12.04400 0.12300 31.32700
C  10.93100 2.24100 31.72600
C  10.19100 1.54100 32.80300
O  9.02100 1.19800 32.71900
O  10.99400 1.49100 33.80700
C  10.50500 0.70700 35.00400
H  6.42300 7.34100 30.96200
H  7.11400 6.61000 24.49000
H  10.61800 1.45900 25.35800
H  8.69600 3.77900 33.31800
H  8.01900 6.71100 32.66000
H  6.55700 4.68600 34.09100
H  5.82000 4.77800 32.48000
H  5.91400 6.21200 33.48900
H  10.26900 6.27500 33.44600
H  11.03700 4.90500 32.66200
H  11.53600 4.03600 34.57000
H  9.87200 3.94300 35.22100
H  5.75700 9.39900 29.95700
H  4.50500 8.39400 29.47000
H  4.80600 9.83800 28.52600
H  4.01000 9.73000 26.73800
H  4.34300 10.30800 25.07900
H  5.48100 10.53100 26.44000
H  9.00500 5.30900 23.13300
H  9.01900 2.28800 23.47100
H  6.36000 4.57100 23.33300
H  7.11000 3.04200 22.91400
H  7.25400 4.49900 21.89300
H  11.68900 3.12800 23.95700
H  11.09500 4.50200 23.17800
H  11.77200 1.99000 21.87100
H  11.72700 3.70900 21.32100
H  10.32800 2.74600 21.14900
H  11.47000 -0.29100 26.56600
H  11.64100 -0.93500 28.14400
H  12.97700 0.03200 27.59400
H  11.74700 2.84400 32.12700
H  10.08400 1.42200 35.71200
H  11.28400 0.24700 35.61100
H  9.82600 -0.12900 34.83800
Mg 0.11500 43.03900 26.63000
C  2.18600 42.86400 29.47500
C  -2.65700 42.44400 28.91400
C  -1.88100 42.33200 24.01900
C  2.96400 43.19200 24.61600
N  -0.25200 42.57100 28.91300
C  0.82500 42.73600 29.80900
C  0.28500 42.90700 31.24200
C  -1.17500 42.63200 31.05500
C  -1.39300 42.54600 29.52400
C  -1.75900 41.36600 31.80400
C  0.55300 44.38600 31.63200
C  1.04600 44.61400 33.07600
H  1.07500 43.43500 34.09900
N  -2.03500 42.51000 26.50500
C  -2.92800 42.44800 27.55200
C  -4.18800 42.42900 26.94800
C  -4.02600 42.38900 25.54200
C  -2.62800 42.38000 25.26200
C  -5.46600 42.34700 27.78100
C  -5.11900 42.34800 24.43100
O  -4.90100 42.23300 23.22500
C  -6.60300 42.32400 24.83700
N  0.45500 42.90000 24.68000
C  -0.48300 42.47600 23.79100
C  0.11100 42.37900 22.35900
C  1.48600 42.96600 22.52600
C  1.68600 43.03900 24.04900
C  -0.00100 40.92700 21.96900
C  1.64200 44.43900 21.97300
C  2.51300 44.61200 20.67300
N  2.07600 43.08700 26.95400
C  3.17500 43.13900 26.02000
C  4.43900 43.22900 26.71100
C  4.08600 43.09200 27.97500
C  2.62900 42.94300 28.16500
C  5.77900 43.34600 26.06900
C  4.60600 43.01400 29.31400
O  5.77500 42.96100 29.71700
C  3.42800 42.89400 30.30600
C  3.64900 41.61500 31.08500
O  3.15500 40.48300 30.98800
O  4.40200 42.13000 32.13500
C  4.50400 41.04700 33.13100
H  -3.47300 42.29800 29.62500
H  -2.46600 42.40600 23.10000
H  3.80500 43.10700 23.92400
H  0.87900 42.26400 31.89100
H  -1.83200 43.43300 31.39200
H  -1.32800 41.28800 32.80200
H  -1.39400 40.49800 31.25500
H  -2.83600 41.20000 31.83000
H  -0.38400 44.90500 31.43000
H  1.28200 44.81100 30.94300
H  0.53400 45.54300 33.32900
H  2.09700 44.87200 33.20800
H  -5.85400 43.34800 27.96600
H  -5.23300 41.88500 28.74100
H  -6.19500 41.71900 27.27000
H  -6.87700 41.34000 25.21800
H  -7.10300 42.52200 23.88900
H  -6.83400 43.12200 25.54200
H  -0.62500 42.90300 21.74800
H  2.25000 42.34500 22.05900
H  -0.31900 40.27900 22.78600
H  0.93300 40.48000 21.62800
H  -0.78500 40.92500 21.21200
H  2.01600 45.01100 22.82300
H  0.69800 44.91300 21.70400
H  3.49200 44.88500 21.06700
H  2.11200 45.42000 20.06200
H  2.66200 43.68300 20.12300
H  5.83500 42.56000 25.31700
H  6.66600 43.24300 26.69500
H  5.80500 44.27300 25.49600
H  3.38400 43.74700 30.98500
H  5.31600 40.34500 32.94000
H  3.59900 40.61000 33.55400
H  4.91300 41.56900 33.99600

