158

Mg 36.37600 49.31100 24.73200
C  36.52500 47.56000 27.68100
C  34.79800 51.90600 26.29000
C  36.13000 50.91300 21.71200
C  37.60800 46.61100 23.04900
N  35.72800 49.64100 26.78500
C  35.91900 48.81100 27.84300
C  35.55300 49.55600 29.10500
C  34.86600 50.85800 28.60500
C  35.15900 50.81300 27.13900
C  33.35000 50.93100 28.93400
C  36.84500 49.81700 30.04000
C  36.70400 49.69900 31.59000
H  36.51000 51.00800 32.32400
N  35.69800 51.25300 24.11900
C  35.04500 52.15900 24.93700
C  34.63800 53.33600 24.19600
C  35.05800 53.08800 22.79000
C  35.65800 51.68900 22.77500
C  34.01700 54.56700 24.84000
C  34.94000 54.02400 21.60600
O  35.55600 53.87100 20.59400
C  34.09300 55.25400 21.67700
N  36.71100 48.82900 22.62400
C  36.66100 49.64300 21.60500
C  36.93200 49.00100 20.26300
C  37.64500 47.69800 20.67900
C  37.30200 47.69800 22.17200
C  35.57800 48.64700 19.57800
C  39.15100 47.83600 20.23200
C  39.43800 47.23700 18.90900
N  36.93000 47.43900 25.24900
C  37.44700 46.43000 24.43200
C  37.79200 45.34200 25.31800
C  37.43400 45.71800 26.59800
C  36.87200 46.97200 26.47200
C  38.44200 44.09800 24.76200
C  37.41400 45.27800 27.92300
O  37.79300 44.24300 28.46200
C  36.86400 46.53900 28.73000
C  35.67100 46.15500 29.56000
O  34.63300 45.71000 29.09200
O  36.00400 46.01800 30.86900
C  34.85300 45.62700 31.75500
H  34.22600 52.65600 26.84000
H  35.99700 51.41600 20.75200
H  38.04000 45.73800 22.55500
H  34.82400 48.96600 29.66000
H  35.34300 51.76200 28.98200
H  33.02900 51.86500 29.39400
H  33.00400 50.11800 29.57300
H  32.75100 50.92200 28.02400
H  37.04900 50.87400 29.86800
H  37.64800 49.13100 29.77000
H  37.64000 49.27800 31.95700
H  35.85800 49.03500 31.76700
H  32.95300 54.70100 24.64500
H  34.51100 55.43500 24.40400
H  34.27200 54.57400 25.90000
H  33.65800 55.42900 20.69300
H  34.75800 56.05500 21.99900
H  33.24000 55.15200 22.34700
H  37.50700 49.70900 19.66600
H  37.14100 46.82000 20.27600
H  34.80000 49.12000 20.17800
H  35.50200 47.56600 19.45800
H  35.55900 49.14400 18.60800
H  39.88200 47.54200 20.98600
H  39.40000 48.88900 20.10500
H  39.45700 48.06000 18.19500
H  38.73700 46.46000 18.60300
H  40.46200 46.86500 18.90600
H  39.43600 43.82700 25.11800
H  38.44400 44.06400 23.67200
H  37.87000 43.20700 25.02100
H  37.66700 46.86600 29.39100
H  33.96800 46.26100 31.70100
H  35.19400 45.67200 32.79000
H  34.59700 44.57600 31.62000
Mg -4.96900 25.02900 26.58900
C  -3.46900 26.42500 29.53100
C  -6.81400 23.06200 28.71600
C  -6.22600 23.52300 23.95100
C  -2.52300 26.75800 24.64200
N  -4.99000 24.76700 28.89300
C  -4.40500 25.49900 29.86700
C  -4.99500 25.16000 31.23800
C  -5.85600 23.85200 30.98600
C  -5.87000 23.88600 29.39500
C  -5.27500 22.49800 31.63800
C  -5.72000 26.36600 31.80300
C  -6.12400 26.42700 33.31900
H  -5.75500 25.17300 34.18500
N  -6.30200 23.54300 26.35200
C  -7.00900 22.87600 27.36900
C  -8.03500 22.08200 26.80200
C  -7.94800 22.20600 25.39500
C  -6.77300 23.04600 25.18400
C  -9.09100 21.36200 27.64400
C  -8.77200 21.53500 24.33900
O  -8.66500 21.73500 23.15700
C  -9.90700 20.62700 24.75100
N  -4.53500 25.19000 24.56200
C  -5.17400 24.40100 23.65800
C  -4.42100 24.48400 22.23400
C  -3.31600 25.55800 22.48700
C  -3.46500 25.93400 23.96600
C  -3.95100 23.18500 21.48600
C  -3.35300 26.87400 21.68000
C  -1.97800 27.26200 20.97900
N  -3.40400 26.32900 26.94600
C  -2.56600 27.03000 26.05100
C  -1.75000 27.93300 26.81100
C  -1.98400 27.71800 28.16000
C  -3.02200 26.70200 28.21100
C  -0.71300 28.88100 26.28000
C  -1.75400 28.16800 29.48600
O  -1.08600 29.05300 29.96600
C  -2.81900 27.43100 30.47400
C  -2.06500 26.78000 31.61200
O  -1.45800 25.69700 31.56300
O  -2.30100 27.51200 32.81600
C  -1.83300 26.96200 34.09900
H  -7.44300 22.47700 29.39000
H  -6.57500 23.18700 22.97300
H  -1.75200 27.24800 24.04400
H  -4.19200 24.95900 31.94700
H  -6.84800 23.92100 31.43200
H  -6.06400 21.77700 31.85200
H  -4.57100 22.65800 32.45500
H  -4.62700 22.08700 30.86400
H  -6.65700 26.48400 31.25900
H  -5.13500 27.27700 31.67900
H  -7.16500 26.72300 33.45000
H  -5.46400 27.18900 33.73500
H  -9.09000 20.27700 27.54000
H  -10.09700 21.60600 27.30300
H  -9.10400 21.55300 28.71700
H  -9.58200 19.70100 25.22500
H  -10.48600 20.40900 23.85300
H  -10.56800 21.24300 25.36100
H  -5.19100 24.95100 21.62000
H  -2.39900 25.01800 22.24900
H  -2.92700 23.17100 21.11100
H  -4.48200 23.13600 20.53600
H  -4.20100 22.30200 22.07500
H  -3.72700 27.74900 22.21300
H  -4.10400 26.75100 20.89900
H  -1.18600 26.62900 21.38000
H  -1.72100 28.32100 21.00400
H  -2.12600 27.13700 19.90600
H  0.19800 28.91000 26.87700
H  -1.15200 29.86700 26.12500
H  -0.43600 28.51100 25.29300
H  -3.48900 28.22700 30.79800
H  -2.07800 25.94400 34.40000
H  -2.15300 27.64100 34.88900
H  -0.74400 26.94200 34.15000

