158

Mg -2.13800 16.78500 26.67300
C  -2.64800 14.32700 29.21100
C  -3.09600 19.19300 28.70900
C  -2.18600 18.70000 23.87200
C  -1.80200 14.02000 24.46100
N  -2.80900 16.67800 28.66600
C  -2.87400 15.65800 29.56200
C  -2.94800 16.15400 31.01700
C  -3.53700 17.63600 30.83400
C  -3.17800 17.87800 29.31200
C  -5.11900 17.81300 31.02400
C  -1.62700 16.19900 31.84900
C  -1.49200 17.17200 33.04900
H  -0.67700 16.67400 34.26500
N  -2.36900 18.70900 26.36800
C  -2.79100 19.59100 27.38100
C  -2.84700 20.91600 26.78500
C  -2.56800 20.77200 25.40800
C  -2.36500 19.33200 25.13700
C  -3.26100 22.19500 27.60600
C  -2.55400 21.83600 24.36000
O  -2.52600 21.53400 23.16000
C  -2.70200 23.27700 24.64400
N  -1.88900 16.36000 24.41700
C  -1.95600 17.35700 23.50500
C  -1.84700 16.79000 22.09000
C  -1.37700 15.28800 22.37400
C  -1.74300 15.16800 23.82500
C  -3.27300 16.78300 21.41000
C  0.11700 15.02200 22.03800
C  1.18100 15.81700 22.71700
N  -2.23600 14.56200 26.77800
C  -2.04600 13.69400 25.77600
C  -1.91000 12.34200 26.38900
C  -2.24400 12.53600 27.74400
C  -2.37600 13.88500 27.90000
C  -1.75500 11.03300 25.68200
C  -2.42100 11.89400 28.97100
O  -2.34200 10.72700 29.24200
C  -2.53200 13.01800 29.99100
C  -1.25400 12.86800 30.76100
O  -0.23800 13.51200 30.62700
O  -1.44400 12.02500 31.82500
C  -0.37800 12.15300 32.76700
H  -3.09500 20.01500 29.42800
H  -2.26400 19.29500 22.96000
H  -1.46600 13.20400 23.81800
H  -3.70100 15.64600 31.62000
H  -2.96500 18.37700 31.39200
H  -5.55400 16.99900 31.60300
H  -5.60900 17.91000 30.05500
H  -5.23300 18.78200 31.51000
H  -0.85400 16.26200 31.08200
H  -1.42200 15.18600 32.19500
H  -2.45800 17.45400 33.46900
H  -1.01700 18.10900 32.75700
H  -2.47000 22.94500 27.62100
H  -3.52000 22.01300 28.64900
H  -4.13100 22.71200 27.20200
H  -1.83000 23.72500 25.12100
H  -3.64300 23.40300 25.18000
H  -2.84600 23.76100 23.67800
H  -1.06200 17.37400 21.60900
H  -1.89300 14.49700 21.83000
H  -3.55000 15.76000 21.15500
H  -3.20300 17.34500 20.47900
H  -3.98300 17.34200 22.02000
H  0.27000 15.11000 20.96300
H  0.19400 13.94300 22.17600
H  0.68600 16.69200 23.13900
H  1.92300 16.17000 22.00100
H  1.65000 15.16100 23.45000
H  -1.25500 11.30900 24.75400
H  -2.72500 10.59300 25.45300
H  -1.11900 10.44200 26.34200
H  -3.29700 12.79700 30.73600
H  0.56900 11.77000 32.38500
H  -0.65900 11.52400 33.61200
H  -0.16400 13.16300 33.11600
Mg -9.45100 39.95000 41.58000
C  -8.28800 36.88500 40.47900
C  -6.84600 41.39600 39.94900
C  -11.05000 42.95300 41.87500
C  -12.37400 38.43300 42.79400
N  -7.56400 39.12500 40.53500
C  -7.36000 37.87400 40.06200
C  -5.99100 37.76600 39.38200
C  -5.47600 39.19600 39.49000
C  -6.67600 39.98400 40.03300
C  -4.15000 39.42200 40.27200
C  -6.10100 37.16100 37.99600
C  -4.82600 36.50300 37.41000
H  -4.19100 37.28600 36.20500
N  -8.98100 41.93000 41.08700
C  -7.78700 42.33600 40.49300
C  -7.75600 43.76100 40.30400
C  -8.92600 44.26400 40.80600
C  -9.76300 43.01700 41.24100
C  -6.59400 44.52000 39.71100
C  -9.39000 45.71300 40.74100
O  -8.71900 46.70800 40.35900
C  -10.80600 46.03400 41.15700
N  -11.59900 40.53900 42.07800
C  -11.85300 41.88700 42.30200
C  -13.17100 42.05600 43.11000
C  -13.54000 40.53000 43.46300
C  -12.46000 39.80100 42.73300
C  -13.16900 42.94400 44.36600
C  -14.95100 40.04100 43.05100
C  -15.70700 39.04200 43.95000
N  -10.11900 38.02700 41.73600
C  -11.35500 37.60200 42.26500
C  -11.36500 36.08100 42.21400
C  -10.15100 35.77600 41.47300
C  -9.50700 36.99800 41.15500
C  -12.42800 35.18700 42.82800
C  -9.39600 34.68100 40.98500
O  -9.52000 33.47800 41.16900
C  -8.20900 35.33700 40.28000
C  -6.96100 34.85400 40.90300
O  -6.68200 35.23500 42.03900
O  -6.23300 34.06400 40.05500
C  -4.86500 33.88900 40.43300
H  -6.02800 41.92000 39.44800
H  -11.59200 43.88500 42.05200
H  -13.17000 37.82800 43.23300
H  -5.44300 37.18100 40.12000
H  -5.17900 39.46000 38.47500
H  -3.62400 38.52600 40.60100
H  -4.38800 39.99400 41.16800
H  -3.46500 40.10100 39.76300
H  -6.42400 37.97600 37.34900
H  -6.88100 36.40200 37.93900
H  -5.09500 35.56300 36.92900
H  -4.04700 36.28500 38.14100
H  -5.81100 43.82700 39.40400
H  -6.01800 45.34500 40.13000
H  -6.98100 44.86700 38.75300
H  -11.01700 45.74000 42.18500
H  -11.56000 45.49400 40.58400
H  -11.00500 47.10500 41.11500
H  -13.96900 42.47600 42.49800
H  -13.36300 40.27800 44.50900
H  -12.23700 43.47600 44.55600
H  -13.38000 42.37100 45.26800
H  -13.93800 43.68000 44.13100
H  -14.79100 39.58800 42.07300
H  -15.64400 40.87200 42.92300
H  -16.70800 38.95600 43.52700
H  -15.54500 39.46700 44.94100
H  -15.26400 38.04800 43.89000
H  -13.19900 35.08100 42.06500
H  -12.89600 35.44700 43.77800
H  -12.00800 34.19900 43.01300
H  -8.20400 35.11200 39.21400
H  -4.40300 32.97100 40.07000
H  -4.79200 33.85200 41.51900
H  -4.32100 34.78700 40.13900

