158

Mg 46.93500 24.66300 27.89700
C  47.47300 26.85700 30.55600
C  46.00900 22.23100 30.25100
C  46.41400 22.30000 25.35900
C  48.22500 26.81500 25.72200
N  46.52500 24.69200 30.13200
C  46.83500 25.70000 31.00600
C  46.57600 25.34300 32.50600
C  46.25600 23.79300 32.33700
C  46.37600 23.51200 30.79000
C  47.16800 22.85200 33.13900
C  45.45300 26.17800 33.13500
C  45.76400 26.65100 34.54900
H  44.69600 26.41100 35.65600
N  46.02400 22.70000 27.77700
C  45.77600 21.85000 28.84200
C  45.14500 20.58500 28.36500
C  45.31300 20.59800 26.95700
C  45.98300 21.92800 26.61100
C  44.64600 19.52200 29.35200
C  45.03600 19.48400 25.96300
O  45.36900 19.64900 24.80700
C  44.33400 18.15200 26.47200
N  47.21700 24.50800 25.84700
C  47.08500 23.49300 25.03200
C  47.55900 23.87400 23.60900
C  47.65800 25.46600 23.65600
C  47.66900 25.59900 25.18900
C  48.84900 23.12900 23.05300
C  46.51400 26.19200 22.91400
C  45.22100 26.61600 23.67900
N  47.89300 26.38900 28.08000
C  48.38000 27.15600 27.06600
C  48.90300 28.38700 27.69800
C  48.60700 28.28700 29.05500
C  47.92600 27.10200 29.21100
C  49.56200 29.48200 26.88700
C  48.73700 28.93600 30.28600
O  49.26300 30.03900 30.58000
C  48.02200 28.01800 31.34200
C  48.85000 27.51800 32.44200
O  49.76000 26.77300 32.27500
O  48.57500 28.05400 33.65800
C  49.47400 27.64100 34.71100
H  45.63700 21.51200 30.98400
H  46.35500 21.57200 24.54700
H  48.52300 27.60400 25.02800
H  47.50000 25.40400 33.08100
H  45.24500 23.52700 32.64500
H  47.36100 21.99700 32.49000
H  46.69500 22.44400 34.03300
H  48.07800 23.36500 33.44900
H  44.47700 25.69200 33.14400
H  45.27800 27.05700 32.51500
H  45.78900 27.74000 34.49700
H  46.73200 26.28900 34.89500
H  43.57000 19.39100 29.23200
H  44.70500 19.92000 30.36500
H  45.22400 18.61700 29.16500
H  43.43500 18.46400 27.00300
H  45.01000 17.46300 26.97900
H  44.04200 17.61300 25.57100
H  46.71300 23.54600 23.00600
H  48.60900 25.84900 23.28600
H  49.18000 22.43400 23.82500
H  49.56100 23.91600 22.80800
H  48.53800 22.53900 22.19000
H  46.28200 25.64300 22.00100
H  46.96800 27.15100 22.66200
H  45.02400 27.68700 23.73300
H  45.30700 26.15600 24.66300
H  44.42700 26.07300 23.16600
H  49.37800 30.49000 27.25900
H  49.21200 29.41500 25.85700
H  50.65000 29.46500 26.82200
H  47.26200 28.63700 31.81800
H  50.38400 27.06300 34.54900
H  48.97000 27.13800 35.53700
H  49.91500 28.56200 35.09200
Mg -11.34100 17.04100 43.34000
C  -7.87300 17.48000 43.39300
C  -11.74100 20.44700 43.30300
C  -14.64600 16.48400 43.23400
C  -10.75000 13.63800 42.55300
N  -9.91500 18.80500 43.24600
C  -8.58900 18.69500 43.35200
C  -7.93400 20.09500 43.41600
C  -9.22000 21.06900 43.58100
C  -10.38400 20.04400 43.36100
C  -9.28600 21.87800 44.85500
C  -7.08100 20.35800 42.08300
C  -5.66600 20.98500 42.22100
H  -5.22800 21.64400 40.93200
N  -12.98500 18.26500 43.21200
C  -12.95000 19.63200 43.16500
C  -14.28700 20.08100 43.11800
C  -15.18900 18.96100 43.03400
C  -14.29100 17.82200 43.11300
C  -14.69800 21.53700 43.32300
C  -16.69200 19.07700 43.01400
O  -17.29700 20.19100 42.98000
C  -17.49900 17.78100 42.84200
N  -12.49200 15.34900 42.83200
C  -13.79400 15.34500 43.06600
C  -14.38000 13.90100 43.09400
C  -13.21700 13.06000 42.53400
C  -12.07700 14.08400 42.51900
C  -14.90900 13.43700 44.48900
C  -13.63000 12.42700 41.09300
C  -12.84000 11.23500 40.58600
N  -9.68100 15.80500 42.99800
C  -9.64300 14.46300 42.70000
C  -8.24800 14.02500 42.76100
C  -7.53900 15.19600 43.07800
C  -8.47100 16.27100 43.14200
C  -7.68600 12.67300 42.68100
C  -6.19800 15.73200 43.28200
O  -5.16500 15.15300 43.22800
C  -6.32600 17.28900 43.58000
C  -5.99300 17.43100 45.07000
O  -6.45000 16.81500 46.00600
O  -5.05200 18.48400 45.17800
C  -4.96500 19.07600 46.56200
H  -11.86500 21.53000 43.36800
H  -15.67300 16.11500 43.25100
H  -10.67600 12.56800 42.34800
H  -7.22300 20.19800 44.23600
H  -9.24200 21.71000 42.69900
H  -9.53200 21.29700 45.74300
H  -9.95100 22.73400 44.73700
H  -8.27600 22.28300 44.93000
H  -7.60500 21.15800 41.55900
H  -6.95300 19.58800 41.32200
H  -4.93300 20.22000 42.47600
H  -5.63600 21.60300 43.11900
H  -13.95400 22.26800 43.00700
H  -15.03800 21.77800 44.33100
H  -15.48600 21.61200 42.57400
H  -17.21100 17.35200 41.88200
H  -18.55600 18.04100 42.79300
H  -17.41600 17.11000 43.69700
H  -15.23500 13.91600 42.41800
H  -13.05100 12.26000 43.25500
H  -15.96800 13.32100 44.25500
H  -14.79700 14.18100 45.27800
H  -14.63300 12.45000 44.86100
H  -13.60700 13.17800 40.30300
H  -14.64600 12.05300 41.21800
H  -12.56300 11.34200 39.53700
H  -13.40500 10.30400 40.62100
H  -11.84500 11.15400 41.02300
H  -8.28800 12.06900 43.36100
H  -6.64000 12.69800 42.98500
H  -7.90600 12.33600 41.66700
H  -5.73700 17.85200 42.85600
H  -5.80800 18.86800 47.22200
H  -5.05300 20.16200 46.54800
H  -4.00700 18.92600 47.05800

