158

Mg 36.26400 49.78200 24.60000
C  36.15500 48.24200 27.67300
C  34.98200 52.65700 25.91400
C  36.05100 51.23800 21.43300
C  37.07100 46.75800 23.16300
N  35.73900 50.34800 26.55000
C  35.73600 49.56800 27.70400
C  35.36800 50.38300 28.96900
C  34.89400 51.82800 28.36100
C  35.14600 51.64300 26.84600
C  33.43500 52.22600 28.65200
C  36.62400 50.50700 29.82700
C  36.49600 49.90100 31.21200
H  35.36900 50.23500 32.19900
N  35.77100 51.74700 23.85800
C  35.26800 52.79200 24.53800
C  35.01100 53.91200 23.68000
C  35.12200 53.43400 22.36500
C  35.65200 52.02700 22.52900
C  34.46900 55.20400 24.26300
C  34.86500 54.04700 20.97800
O  35.11400 53.51000 19.89800
C  34.23600 55.41100 20.98500
N  36.48800 49.04800 22.59800
C  36.43600 49.88800 21.48000
C  36.73700 49.12000 20.19200
C  37.16900 47.63300 20.74300
C  36.82600 47.76000 22.26400
C  35.57300 48.97100 19.12800
C  38.64300 47.22400 20.53300
C  39.76300 48.19100 20.82400
N  36.62700 47.80600 25.26100
C  36.95500 46.70100 24.55700
C  37.20500 45.60600 25.48400
C  36.91100 46.15700 26.74300
C  36.53700 47.51500 26.55400
C  37.64800 44.16500 25.16800
C  36.80800 45.93400 28.17600
O  37.15400 45.00800 28.87300
C  36.25600 47.23900 28.83200
C  35.03200 46.91600 29.62400
O  33.90800 47.01600 29.23300
O  35.40200 46.50400 30.91000
C  34.19200 46.27600 31.74200
H  34.49800 53.49300 26.42300
H  35.92500 51.54400 20.39200
H  37.54300 45.90400 22.67400
H  34.54700 49.89400 29.49500
H  35.57900 52.60900 28.69100
H  32.92400 52.29600 27.69200
H  33.51800 53.17100 29.18900
H  32.96700 51.38800 29.16900
H  36.93600 51.55000 29.87000
H  37.53600 50.05600 29.43400
H  37.44500 50.29200 31.57800
H  36.67100 48.82600 31.18100
H  35.13800 56.02200 23.99400
H  34.37300 55.18300 25.34900
H  33.51200 55.36800 23.76700
H  33.21400 55.13500 21.24300
H  34.19900 55.89000 20.00600
H  34.70400 56.07900 21.70800
H  37.56500 49.61200 19.68300
H  36.56100 46.86900 20.25800
H  34.62200 49.33700 19.51400
H  35.31800 47.93500 18.90200
H  35.93300 49.54700 18.27600
H  38.75100 47.07000 19.45900
H  38.88200 46.25700 20.97600
H  40.51600 48.23900 20.03700
H  40.28700 47.71000 21.65000
H  39.38700 49.20500 20.96100
H  36.92700 43.53300 24.65100
H  37.92600 43.77800 26.14900
H  38.49900 44.33100 24.50700
H  37.12700 47.48700 29.43900
H  34.13300 45.19200 31.83700
H  33.23400 46.67000 31.40200
H  34.43900 46.64600 32.73700
Mg 26.37200 51.20300 25.42300
C  23.87700 52.02400 27.86800
C  28.56900 50.42700 27.80500
C  28.60900 50.79300 22.91100
C  24.21800 52.53700 23.06800
N  26.25100 51.41800 27.59500
C  25.09400 51.54800 28.38000
C  25.51400 51.38200 29.84600
C  27.03700 50.97500 29.80700
C  27.34900 50.95800 28.32300
C  27.99300 51.84100 30.73000
C  24.55600 50.45100 30.63400
C  24.12500 50.93400 32.04000
H  24.02200 49.99500 33.23000
N  28.21400 50.54100 25.33400
C  28.96500 50.27100 26.41100
C  30.25500 49.89500 26.01300
C  30.32300 49.87200 24.57800
C  29.00100 50.37200 24.17100
C  31.38800 49.59900 27.03200
C  31.52400 49.76900 23.68300
O  31.41000 49.85600 22.49800
C  32.84600 49.46200 24.43100
N  26.47500 51.83500 23.39000
C  27.43600 51.44900 22.54000
C  27.18600 51.73700 21.02700
C  25.72600 52.21100 21.08500
C  25.45200 52.19100 22.63000
C  28.16100 52.78400 20.41700
C  24.73500 51.14500 20.51300
C  23.81700 51.71300 19.45500
N  24.42800 52.05100 25.36100
C  23.67100 52.44700 24.36600
C  22.29000 52.75200 24.78000
C  22.40500 52.64700 26.17200
C  23.68600 52.22600 26.50900
C  21.20200 53.17600 23.89400
C  21.68200 52.87300 27.38700
O  20.53200 53.28200 27.55100
C  22.65600 52.53400 28.59300
C  22.94300 53.68500 29.51800
O  23.65000 54.63000 29.30300
O  22.31400 53.38300 30.74600
C  22.45000 54.46500 31.77700
H  29.15800 49.95900 28.59600
H  29.29200 50.62900 22.07400
H  23.61900 52.91300 22.23700
H  25.54700 52.36500 30.31600
H  27.10700 49.92400 30.08500
H  28.51200 52.66700 30.24300
H  28.69500 51.23700 31.30600
H  27.41100 52.21000 31.57500
H  25.06500 49.48800 30.67600
H  23.64400 50.25200 30.07100
H  23.11500 51.31100 31.88000
H  24.80800 51.76100 32.23500
H  32.30100 50.19500 27.02200
H  31.75900 48.57400 27.00600
H  31.08000 49.72100 28.07100
H  33.28500 50.31600 24.94700
H  33.40900 49.31100 23.51000
H  32.75100 48.49700 24.92900
H  27.39800 50.89200 20.37200
H  25.63800 53.14700 20.53300
H  28.52100 52.53400 19.41900
H  29.02100 52.85800 21.08300
H  27.66800 53.75600 20.42600
H  24.11300 50.60000 21.22200
H  25.42400 50.45000 20.03300
H  23.74900 50.94900 18.68100
H  24.15200 52.64900 19.00900
H  22.82300 51.87100 19.87300
H  21.64500 53.90700 23.22000
H  20.32400 53.50800 24.44800
H  20.86400 52.31800 23.31300
H  22.13800 51.78900 29.19700
H  22.75500 53.88500 32.64800
H  21.49100 54.96200 31.92200
H  23.32400 55.10500 31.65900

