158

Mg 17.50100 -1.97700 28.44300
C  16.35200 0.06900 31.07000
C  19.06300 -4.03300 30.80600
C  19.01800 -3.50200 25.90200
C  16.17000 0.34900 26.23100
N  17.67800 -2.02100 30.66800
C  17.23600 -0.98200 31.53300
C  17.50900 -1.31000 32.93100
C  18.40900 -2.57100 32.86600
C  18.49000 -2.87300 31.36200
C  19.73000 -2.43500 33.69100
C  16.26800 -1.55200 33.86700
C  16.27500 -0.80000 35.22000
H  17.69100 -0.55200 35.78700
N  18.81700 -3.59300 28.34600
C  19.32700 -4.31500 29.42100
C  20.20500 -5.32000 28.93000
C  20.13500 -5.19600 27.48800
C  19.29400 -4.08100 27.15500
C  20.97300 -6.29300 29.80200
C  20.87500 -6.06300 26.37200
O  20.60300 -5.95800 25.15300
C  22.02700 -7.09200 26.87200
N  17.23800 -1.85700 26.32400
C  18.14800 -2.48600 25.53700
C  18.29100 -1.85700 24.15500
C  17.14600 -0.79400 24.13200
C  16.74300 -0.77200 25.64700
C  19.69300 -1.42900 23.84900
C  15.88400 -0.94900 23.33400
C  15.65600 -0.04600 22.10700
N  16.32400 -0.27500 28.56200
C  15.82300 0.61200 27.54200
C  14.99500 1.67300 28.17300
C  15.27300 1.54400 29.54900
C  16.05300 0.37800 29.73500
C  14.15300 2.66500 27.54800
C  14.96600 2.09200 30.83400
O  14.24600 3.08400 31.10900
C  15.67000 1.16900 31.86700
C  16.54700 2.03700 32.66300
O  17.77300 2.07100 32.60200
O  15.69000 2.73700 33.54600
C  16.39500 3.77300 34.34400
H  19.52300 -4.70900 31.53000
H  19.66300 -3.84700 25.09100
H  16.02100 1.16900 25.52500
H  17.99400 -0.39300 33.26600
H  17.87700 -3.37200 33.38000
H  20.63200 -2.51800 33.08300
H  19.84000 -3.13700 34.51700
H  19.75200 -1.46200 34.18200
H  15.98500 -2.57900 34.09900
H  15.43500 -1.26500 33.22500
H  15.80700 -1.33600 36.04500
H  15.78900 0.14700 34.98500
H  22.02200 -6.09900 29.57700
H  20.66400 -7.33700 29.74600
H  20.88300 -5.96200 30.83700
H  22.65900 -7.39400 26.03600
H  21.42000 -7.94900 27.16400
H  22.60400 -6.50900 27.59000
H  18.01200 -2.60200 23.41000
H  17.53700 0.18500 23.85500
H  19.83500 -0.35100 23.92100
H  19.99400 -1.90000 22.91300
H  20.39000 -1.88700 24.55100
H  14.98300 -0.82500 23.93500
H  15.73400 -2.01300 23.15000
H  16.41100 0.73800 22.04400
H  14.67800 0.42200 22.22000
H  15.45200 -0.52400 21.14900
H  14.11600 2.53600 26.46600
H  14.42100 3.68100 27.83900
H  13.18700 2.43700 27.99800
H  14.80200 0.78500 32.40300
H  17.24700 3.40600 34.91600
H  15.77700 4.18300 35.14300
H  16.67400 4.63700 33.74000
Mg 0.50800 43.15400 25.84400
C  1.84000 43.04900 29.08000
C  -2.43600 42.01800 27.04200
C  -0.39900 42.65700 22.68300
C  3.81400 43.85900 24.68400
N  -0.19300 42.54000 27.86900
C  0.47300 42.77100 29.07400
C  -0.50900 42.66000 30.28300
C  -1.81600 42.26900 29.57000
C  -1.48000 42.38800 28.01900
C  -2.45900 40.85900 29.86400
C  -0.66000 43.95900 31.11000
C  -0.35900 43.77600 32.60700
H  -0.77300 42.50200 33.32400
N  -1.21600 42.43200 24.95600
C  -2.35400 42.00500 25.65500
C  -3.27100 41.58200 24.64200
C  -2.72800 41.84300 23.36000
C  -1.40500 42.39100 23.61200
C  -4.76000 41.09000 24.96000
C  -3.39900 41.66800 21.98300
O  -2.86400 41.97000 20.89600
C  -4.82400 41.16000 21.83600
N  1.63800 43.24900 23.92800
C  0.93700 43.03100 22.73800
C  1.95000 42.98700 21.54800
C  3.11300 43.84200 22.20400
C  2.91000 43.58600 23.71300
C  2.19300 41.53400 20.93700
C  2.91500 45.34100 21.86900
C  3.47300 45.96500 20.55100
N  2.41100 43.60300 26.63500
C  3.65700 43.87300 26.09900
C  4.57100 43.99400 27.12800
C  3.95800 43.71100 28.33000
C  2.59000 43.51300 27.97200
C  6.03300 44.39000 26.90200
C  4.16900 43.45000 29.66200
O  5.17400 43.39200 30.34100
C  2.73000 43.14800 30.28000
C  2.86900 41.89900 31.13500
O  2.95600 40.72600 30.76600
O  3.04000 42.20600 32.45100
C  3.06300 41.09400 33.35000
H  -3.41600 41.83900 27.49000
H  -0.77100 42.47200 21.67400
H  4.80600 44.05000 24.26900
H  -0.10000 41.86700 30.90900
H  -2.65600 42.87900 29.90500
H  -1.82000 40.18800 30.43700
H  -2.70300 40.19400 29.03600
H  -3.35200 41.00800 30.47100
H  -1.61700 44.45700 30.96100
H  0.10600 44.66100 30.77900
H  -1.04400 44.44900 33.12200
H  0.62900 44.15500 32.87000
H  -5.43900 41.89100 24.67100
H  -4.70100 41.01700 26.04600
H  -5.01200 40.13800 24.49200
H  -5.50000 41.67800 22.51700
H  -4.77700 40.07300 21.78500
H  -5.05900 41.43000 20.80700
H  1.62000 43.64400 20.74300
H  4.08300 43.57000 21.78600
H  1.56400 41.34700 20.06600
H  1.82600 40.78400 21.63700
H  3.27000 41.46600 20.78300
H  3.25500 45.96400 22.69600
H  1.82700 45.38500 21.81500
H  3.94300 45.16600 19.97900
H  4.29400 46.64900 20.76900
H  2.74200 46.60800 20.06000
H  6.23300 45.30900 26.35200
H  6.55400 43.64600 26.29900
H  6.53000 44.42700 27.87200
H  2.34800 43.98200 30.86800
H  4.03200 40.59400 33.33600
H  2.28600 40.37200 33.09800
H  2.83800 41.52000 34.32800

