158

Mg 16.55200 -2.03400 28.29200
C  15.70600 0.00700 31.04200
C  18.49900 -3.94000 30.29000
C  17.66300 -3.46200 25.53600
C  14.92900 0.43500 26.31400
N  17.27300 -1.83200 30.31400
C  16.73200 -0.96700 31.27400
C  17.28600 -1.31700 32.72500
C  18.46400 -2.26000 32.35600
C  18.03600 -2.74400 30.92500
C  19.93700 -1.67100 32.47300
C  16.23200 -1.98200 33.68400
C  16.23200 -1.69100 35.20600
H  17.40000 -0.90400 35.79100
N  17.82000 -3.53900 27.96500
C  18.48500 -4.30100 28.92900
C  19.03900 -5.44700 28.28900
C  18.85000 -5.26600 26.90300
C  18.00300 -4.10800 26.74100
C  19.85100 -6.46900 29.20900
C  19.43000 -6.18500 25.74000
O  19.29200 -5.94800 24.51200
C  20.18500 -7.33300 26.15200
N  16.58900 -1.36600 26.28400
C  17.09300 -2.16800 25.33200
C  16.82300 -1.64200 23.93400
C  15.76100 -0.50400 24.20000
C  15.79800 -0.43900 25.71600
C  18.08600 -1.16300 23.26100
C  14.38100 -0.76200 23.48400
C  13.96100 0.39800 22.48800
N  15.37900 -0.20500 28.58300
C  14.79500 0.63900 27.69700
C  13.99900 1.66700 28.41600
C  14.27400 1.42100 29.74600
C  15.25100 0.33600 29.76700
C  13.05100 2.71400 27.83300
C  14.04600 1.83200 31.12500
O  13.19800 2.56400 31.60300
C  15.00200 0.99700 32.01800
C  15.76200 1.96000 32.87500
O  16.84400 2.43200 32.65700
O  15.06200 2.21100 33.98800
C  15.58700 3.09000 35.03500
H  19.15000 -4.60300 30.86500
H  18.02200 -3.90800 24.60600
H  14.35400 1.15400 25.72600
H  17.70500 -0.38500 33.10400
H  18.51000 -3.11800 33.02700
H  19.98500 -0.63400 32.80500
H  20.25400 -1.67800 31.43100
H  20.66800 -2.26700 33.01900
H  16.09900 -3.04600 33.48800
H  15.27700 -1.69700 33.24400
H  16.25900 -2.65700 35.70900
H  15.28900 -1.16200 35.34500
H  20.09400 -6.18200 30.23100
H  20.81700 -6.66700 28.74500
H  19.29400 -7.39800 29.33100
H  19.62800 -8.01400 26.79500
H  21.07700 -7.05700 26.71500
H  20.54100 -7.74600 25.20800
H  16.33600 -2.42700 23.35500
H  16.12600 0.44100 23.79700
H  18.56600 -0.26700 23.65500
H  18.11300 -1.09200 22.17300
H  18.89000 -1.87800 23.43500
H  13.58800 -1.00100 24.19300
H  14.50300 -1.60200 22.80100
H  12.90100 0.61200 22.35500
H  14.33100 0.09900 21.50800
H  14.51500 1.28400 22.79800
H  13.52600 3.47500 27.21500
H  12.63700 3.27900 28.66800
H  12.28000 2.19600 27.26200
H  14.30000 0.38000 32.57800
H  16.62800 2.89800 35.29500
H  14.95700 2.77500 35.86700
H  15.44100 4.14600 34.80800
Mg 34.82900 2.00900 29.11300
C  32.69100 3.08800 31.68500
C  37.43300 2.04000 31.33800
C  37.07400 1.95000 26.48700
C  32.34800 2.86800 26.80100
N  35.04000 2.47600 31.27300
C  34.02900 2.81900 32.10700
C  34.52700 2.72300 33.53600
C  36.08900 2.64900 33.42300
C  36.27300 2.33300 31.94000
C  36.79600 3.98400 33.95800
C  33.85800 1.69000 34.45300
C  33.40800 2.16400 35.88000
H  34.14200 3.27200 36.55900
N  36.91300 1.71800 28.96900
C  37.77600 1.79100 30.00000
C  39.10200 1.62000 29.49300
C  39.04700 1.64100 28.09100
C  37.59900 1.76300 27.75500
C  40.33000 1.43700 30.40200
C  40.18700 1.59400 27.09600
O  40.05300 1.65500 25.86500
C  41.62200 1.44800 27.62000
N  34.66900 2.24100 26.96100
C  35.72600 2.09000 26.11200
C  35.27400 2.26100 24.65800
C  33.71700 2.31500 24.77700
C  33.52900 2.44600 26.21600
C  35.87900 3.54800 24.04000
C  32.97200 1.06800 24.25200
C  33.03600 -0.25000 25.08000
N  32.81800 2.64400 29.16800
C  31.97500 2.98600 28.15500
C  30.65800 3.31500 28.69100
C  30.83400 3.35300 30.09100
C  32.22400 2.99800 30.33300
C  29.38800 3.74100 27.93800
C  30.24200 3.56900 31.35100
O  29.11900 3.95600 31.60700
C  31.47000 3.37700 32.47000
C  31.61200 4.62700 33.39600
O  32.31000 5.64200 33.17900
O  30.92100 4.34400 34.55200
C  30.84800 5.55500 35.43000
H  38.38300 2.02600 31.87700
H  37.77500 1.96900 25.65000
H  31.48300 3.18700 26.21700
H  34.27200 3.74600 33.81200
H  36.46000 1.76600 33.94200
H  36.20600 4.62400 34.61400
H  37.16600 4.54900 33.10300
H  37.64500 3.75300 34.60100
H  34.56500 0.87600 34.61600
H  33.11500 1.11000 33.90500
H  33.37900 1.25000 36.47400
H  32.38800 2.53200 35.77300
H  40.91800 0.60700 30.00800
H  40.07200 1.19900 31.43400
H  40.90900 2.35100 30.27000
H  41.90900 0.40000 27.70400
H  41.75300 2.12900 28.46100
H  42.20900 1.90800 26.82500
H  35.47600 1.42900 23.98200
H  33.28200 3.06700 24.12000
H  35.13800 4.30000 23.77000
H  36.44100 3.42800 23.11300
H  36.59200 4.02000 24.71500
H  33.31500 0.86600 23.23700
H  31.89200 1.22000 24.26400
H  32.04100 -0.53600 25.42200
H  33.76100 -0.13300 25.88600
H  33.44700 -1.05000 24.46400
H  28.59500 3.00200 28.05100
H  29.48700 3.97700 26.87800
H  28.91200 4.59300 28.42300
H  31.33600 2.57200 33.19300
H  29.95900 5.35400 36.02700
H  30.69800 6.43000 34.79800
H  31.67400 5.66300 36.13400

