158

Mg 51.18700 45.53300 41.49100
C  48.36500 47.09000 39.91900
C  50.21600 42.60400 40.09000
C  54.32800 44.33600 41.93200
C  52.27900 48.71100 42.33300
N  49.43700 44.95300 40.13300
C  48.40600 45.71500 39.78100
C  47.23700 44.77000 39.27700
C  47.71500 43.35500 39.71100
C  49.25000 43.63800 39.95900
C  47.03800 42.89100 41.02900
C  46.84000 44.87500 37.79300
C  45.37800 44.79900 37.42800
H  44.86100 43.54500 36.70000
N  52.19400 43.67300 41.05800
C  51.62000 42.55800 40.43100
C  52.50400 41.40600 40.42300
C  53.72800 41.94300 40.91900
C  53.45100 43.34000 41.37200
C  52.09900 40.03600 39.96700
C  55.11600 41.25600 41.01500
O  55.25000 40.17700 40.38800
C  56.28000 41.77800 41.71000
N  53.12100 46.44300 41.99700
C  54.21100 45.73700 42.22300
C  55.45700 46.58300 42.52600
C  54.78900 47.92000 42.93900
C  53.31800 47.72300 42.38600
C  56.41000 45.97700 43.60900
C  55.45800 49.09600 42.34600
C  55.65300 50.16500 43.39100
N  50.36600 47.57500 41.39400
C  50.96800 48.68900 41.75600
C  50.01800 49.85200 41.59200
C  48.97000 49.27400 40.77400
C  49.30700 47.88000 40.68600
C  50.23700 51.23800 42.11200
C  47.71000 49.54900 40.01800
O  47.04400 50.57700 39.74100
C  47.32300 48.06800 39.44900
C  45.99100 47.67600 39.84300
O  44.97500 47.68000 39.13100
O  46.08000 47.55900 41.24800
C  44.70000 47.59500 41.81600
H  49.83400 41.60400 39.87400
H  55.34900 43.95000 41.89100
H  52.35800 49.70400 42.78200
H  46.35500 45.09900 39.82700
H  47.60000 42.57700 38.95700
H  46.61400 43.69300 41.63200
H  47.76500 42.57100 41.77600
H  46.40200 42.00900 40.95100
H  47.31100 44.06600 37.23500
H  47.23900 45.81400 37.40900
H  45.09500 45.71600 36.91100
H  44.87600 44.91300 38.38900
H  52.79300 39.22100 40.17400
H  51.75100 39.83000 38.95500
H  51.11900 39.83900 40.40200
H  56.08200 41.85400 42.77900
H  56.72200 42.65500 41.23600
H  57.12600 41.09200 41.68400
H  55.93900 46.72200 41.55900
H  54.70800 47.97100 44.02500
H  56.58100 46.60000 44.48800
H  57.39300 45.68600 43.23800
H  56.06900 44.98300 43.89700
H  54.80000 49.53600 41.59700
H  56.44400 48.86700 41.94100
H  55.94100 49.82200 44.38500
H  54.81600 50.86400 43.40100
H  56.50500 50.79600 43.13600
H  50.84500 51.77900 41.38700
H  50.65400 51.29000 43.11800
H  49.23600 51.66200 42.19400
H  47.31300 48.12900 38.36100
H  44.75400 48.17800 42.73500
H  44.33800 46.63300 42.17700
H  43.93200 48.09000 41.22200
Mg 6.61900 54.46500 41.61500
C  5.80600 50.96000 41.57500
C  9.61600 53.50000 40.07700
C  7.05400 57.67400 40.76900
C  3.32800 55.12800 42.63200
N  7.53200 52.40000 40.87100
C  7.06100 51.13700 41.04900
C  8.00600 50.14600 40.39400
C  9.33700 50.98200 40.34200
C  8.83000 52.43300 40.40200
C  10.30900 50.72900 41.54600
C  7.61400 49.62500 38.94600
C  6.71200 50.58600 38.06800
H  7.46700 51.23300 36.87500
N  8.14000 55.43400 40.61700
C  9.28600 54.87500 40.13500
C  10.18000 55.92900 39.84600
C  9.50800 57.17800 39.95800
C  8.18100 56.81800 40.47600
C  11.60800 55.61400 39.37000
C  10.01600 58.50500 39.52700
O  11.15300 58.70300 39.06400
C  9.17100 59.77300 39.68000
N  5.20200 56.20700 41.47000
C  5.79300 57.43600 41.30500
C  4.73100 58.54400 41.67300
C  3.51600 57.69000 42.25500
C  4.07100 56.25300 42.10300
C  5.32500 59.54800 42.64900
C  2.20600 57.80000 41.44900
C  0.86800 57.87000 42.23500
N  4.91400 53.32100 42.08800
C  3.61300 53.70500 42.48600
C  2.89600 52.49900 42.95100
C  3.73500 51.44800 42.62000
C  4.92100 51.99100 41.98600
C  1.61500 52.42900 43.70800
C  3.89300 49.94300 42.62700
O  3.28500 49.11400 43.26000
C  5.24500 49.59300 41.92100
C  4.88100 48.75900 40.74000
O  4.31000 49.21500 39.75300
O  5.09300 47.41700 41.03300
C  4.62600 46.47100 40.02100
H  10.61500 53.18300 39.77100
H  7.13100 58.76300 40.75800
H  2.38000 55.22000 43.16700
H  8.25000 49.27400 41.00200
H  9.76200 50.79000 39.35700
H  11.27400 51.01000 41.12600
H  10.40700 49.67900 41.82200
H  10.07700 51.38100 42.38900
H  7.13700 48.64700 39.01900
H  8.53200 49.53100 38.36700
H  6.47300 51.51100 38.59300
H  5.78900 50.19400 37.64200
H  11.55100 54.93500 38.51900
H  12.02300 55.10200 40.23800
H  12.34300 56.37900 39.12000
H  8.23500 59.52000 39.18100
H  9.56900 60.62400 39.12800
H  9.14300 60.00800 40.74400
H  4.34100 59.05100 40.79000
H  3.29000 57.89800 43.30100
H  4.77700 60.49000 42.66600
H  6.35800 59.83200 42.45000
H  5.37500 59.08300 43.63400
H  2.10800 56.89300 40.85300
H  2.24800 58.65400 40.77300
H  1.06900 57.53300 43.25100
H  0.15200 57.25100 41.69400
H  0.55500 58.91400 42.24300
H  0.77500 52.98600 43.29400
H  1.83000 52.86900 44.68100
H  1.26300 51.39800 43.74500
H  5.87800 49.11200 42.66600
H  5.17100 46.54300 39.07900
H  3.54200 46.42200 39.91600
H  4.87200 45.53100 40.51300

