158

Mg 15.96400 -1.92700 28.29000
C  15.21000 0.33300 30.77000
C  18.21000 -3.36100 30.48300
C  17.09700 -3.75100 25.76600
C  13.97400 -0.09400 26.06900
N  16.55100 -1.54200 30.44000
C  16.09400 -0.59000 31.27000
C  16.61600 -0.76600 32.69000
C  17.74700 -1.82500 32.53900
C  17.55500 -2.20300 31.03200
C  19.14300 -1.29500 33.00600
C  15.43800 -1.24200 33.64000
C  15.57500 -1.08400 35.19700
H  16.82100 -0.43100 35.75100
N  17.48300 -3.40500 28.17400
C  18.16700 -3.88300 29.16800
C  18.90500 -5.04300 28.63500
C  18.66200 -5.21400 27.23600
C  17.71400 -4.09400 26.98800
C  19.76500 -5.85100 29.54400
C  19.21700 -6.16400 26.27800
O  18.93400 -6.12300 25.09500
C  20.09700 -7.33400 26.74500
N  15.67000 -1.87800 26.21200
C  16.11100 -2.86300 25.38000
C  15.61400 -2.57100 23.88500
C  14.45000 -1.54300 24.06800
C  14.71600 -1.14400 25.51800
C  16.78700 -2.09200 22.97300
C  13.05900 -2.14500 23.76500
C  12.17800 -1.60000 22.64100
N  14.82300 -0.28100 28.33700
C  14.06500 0.38300 27.41700
C  13.52600 1.63400 27.93500
C  13.94600 1.56700 29.30200
C  14.68300 0.39900 29.49700
C  12.80100 2.71900 27.13600
C  13.81100 2.34300 30.55000
O  13.26400 3.38700 30.81600
C  14.60300 1.48200 31.60300
C  15.53900 2.34700 32.32100
O  16.67900 2.58800 31.97500
O  14.91000 2.92200 33.36900
C  15.63400 3.88900 34.12000
H  18.88500 -3.85500 31.18500
H  17.46700 -4.29600 24.89500
H  13.18100 0.36600 25.47500
H  16.88300 0.21700 33.07800
H  17.45400 -2.74100 33.05100
H  19.42200 -1.78800 33.93800
H  19.11900 -0.21600 33.15700
H  19.84200 -1.53400 32.20500
H  15.20600 -2.29600 33.49000
H  14.51100 -0.69200 33.47800
H  15.30400 -2.00600 35.71100
H  14.80400 -0.47900 35.67500
H  19.56800 -5.62500 30.59100
H  20.82800 -5.73700 29.32900
H  19.52600 -6.91300 29.48700
H  20.18400 -8.12400 25.99900
H  19.63000 -7.70200 27.65800
H  21.08600 -7.01800 27.07800
H  15.39700 -3.50900 23.37400
H  14.70700 -0.67900 23.45500
H  16.89400 -1.01900 23.13000
H  16.54900 -2.28800 21.92700
H  17.65700 -2.63000 23.35100
H  12.41100 -2.16300 24.64000
H  13.22700 -3.19100 23.50500
H  11.39300 -2.30800 22.37700
H  12.83300 -1.26600 21.83600
H  11.66100 -0.68400 22.92600
H  11.73900 2.47900 27.19700
H  13.09100 2.62400 26.08900
H  13.01600 3.70300 27.55200
H  13.81600 1.10700 32.25700
H  16.57600 3.58900 34.57900
H  15.00000 4.22500 34.94100
H  15.70200 4.84600 33.60300
Mg 46.85000 16.68300 28.49600
C  44.98300 16.40900 31.46800
C  49.25300 18.44700 30.37100
C  48.46900 17.38500 25.66400
C  44.15900 15.37900 26.74900
N  47.04500 17.42000 30.66300
C  46.21600 17.03600 31.65300
C  46.87100 17.31900 32.97000
C  47.97300 18.30300 32.63500
C  48.16600 18.08000 31.11900
C  47.70800 19.73400 33.00200
C  47.32400 16.09200 33.75400
C  47.56700 16.33100 35.22600
H  47.16600 17.63100 35.90400
N  48.76800 17.61600 28.10100
C  49.60000 18.23600 28.99700
C  50.78000 18.71200 28.24600
C  50.44500 18.53800 26.88600
C  49.24500 17.79500 26.81800
C  51.96700 19.30600 28.92100
C  51.22700 19.06300 25.60900
O  50.81600 19.04100 24.48200
C  52.43000 19.86400 25.75700
N  46.41600 16.38200 26.52000
C  47.21200 16.78800 25.50400
C  46.55400 16.54900 24.10600
C  45.30800 15.66400 24.52300
C  45.25800 15.81600 26.04100
C  46.15200 17.71000 23.32600
C  45.32600 14.13700 24.05300
C  44.57300 14.03800 22.68200
N  44.89800 16.09400 28.97100
C  43.96900 15.49300 28.14700
C  42.84500 15.05200 28.97500
C  43.24900 15.34600 30.27300
C  44.45000 16.03900 30.21700
C  41.59200 14.43000 28.49500
C  42.91800 15.25800 31.67400
O  41.94400 14.78000 32.26300
C  43.93000 15.98500 32.41700
C  43.24200 17.12300 32.99700
O  43.20500 18.23400 32.45200
O  42.63000 16.89300 34.19100
C  42.28200 17.98700 35.02000
H  50.10100 18.90700 30.88400
H  48.83500 17.54100 24.64700
H  43.41500 14.81200 26.18500
H  46.20500 17.93200 33.57600
H  48.96600 18.06300 33.01400
H  47.24100 20.18100 32.12500
H  48.58800 20.25000 33.38700
H  46.98800 19.80700 33.81700
H  48.27700 15.82300 33.29800
H  46.70600 15.21500 33.56400
H  48.61000 16.10500 35.44400
H  46.84400 15.68800 35.72900
H  52.82100 19.54800 28.28800
H  52.23200 18.52000 29.62900
H  51.70100 20.12300 29.59200
H  52.17800 20.75700 26.32900
H  52.78600 20.28300 24.81500
H  53.20500 19.22500 26.17900
H  47.19800 15.96400 23.44800
H  44.35000 16.11400 24.26400
H  45.15600 17.53200 22.92000
H  46.85100 17.78100 22.49300
H  46.30500 18.49500 24.06600
H  44.72300 13.50100 24.70200
H  46.28900 13.65000 23.89700
H  45.17200 13.46800 21.97200
H  44.24200 15.02800 22.36900
H  43.77500 13.32600 22.89500
H  41.37000 13.55100 29.10000
H  41.53700 14.23600 27.42400
H  40.75900 15.10200 28.69700
H  44.29900 15.41000 33.26700
H  42.01300 18.89100 34.47500
H  43.01800 18.23900 35.78300
H  41.35800 17.68000 35.51000

