158

Mg 41.78100 40.98700 26.03500
C  41.21600 43.25700 28.77200
C  43.27000 38.88100 28.22800
C  42.21100 38.91500 23.51400
C  40.55800 43.46400 23.91700
N  42.08600 41.13500 28.19200
C  41.81900 42.10200 29.14800
C  42.20300 41.73400 30.60600
C  42.97400 40.42600 30.36100
C  42.77400 40.08100 28.78300
C  44.52900 40.62500 30.63300
C  40.96700 41.53100 31.60700
C  41.50800 41.23300 33.01900
H  40.52000 41.47100 34.12300
N  42.63600 39.09600 25.89000
C  43.23900 38.33400 26.89100
C  43.65000 37.08200 26.34400
C  43.23000 37.06100 25.01400
C  42.68500 38.40400 24.72700
C  44.37200 36.10900 27.16900
C  43.34400 35.88900 24.01300
O  42.99000 35.99000 22.84500
C  43.76200 34.57400 24.45800
N  41.51900 41.19700 24.07600
C  41.65400 40.14600 23.19600
C  41.30800 40.53800 21.73700
C  40.61100 41.87900 21.98700
C  40.91000 42.21800 23.42800
C  42.48400 40.48900 20.69000
C  39.15600 41.90700 21.76200
C  38.24400 40.99300 22.51200
N  41.03800 42.99900 26.21500
C  40.58000 43.84300 25.23700
C  40.16600 45.07400 25.86200
C  40.39300 44.90000 27.27800
C  40.89000 43.59300 27.39600
C  39.72200 46.31600 25.24300
C  40.35100 45.56600 28.59600
O  39.97200 46.64100 29.00400
C  40.81900 44.47500 29.59500
C  41.87500 44.99300 30.45800
O  43.02500 44.97900 30.12400
O  41.37900 45.50300 31.62400
C  42.27700 45.80700 32.74400
H  43.80200 38.26300 28.95500
H  42.37200 38.26700 22.65100
H  40.14900 44.24700 23.27500
H  42.80200 42.51200 31.07900
H  42.57900 39.57700 30.91900
H  44.88300 41.65600 30.60100
H  45.14000 40.01200 29.97000
H  44.77200 40.23700 31.62200
H  40.30000 40.72800 31.29400
H  40.27900 42.37600 31.65400
H  42.46100 41.72300 33.21600
H  41.72800 40.16500 33.03300
H  44.57000 36.62100 28.11100
H  45.23900 35.76700 26.60400
H  43.75000 35.24100 27.38700
H  43.68400 33.89000 23.61300
H  43.11000 34.24200 25.26600
H  44.78600 34.41900 24.79700
H  40.59200 39.75600 21.48900
H  41.16800 42.58500 21.37200
H  43.38400 40.07600 21.14500
H  42.72100 41.50800 20.38300
H  42.24400 39.94000 19.77900
H  39.07200 41.84100 20.67800
H  38.88100 42.94400 21.95300
H  37.30700 41.47900 22.78200
H  38.59400 40.40200 23.35900
H  37.89000 40.30400 21.74500
H  40.00100 46.25400 24.19200
H  40.25900 47.11600 25.75300
H  38.69400 46.62400 25.43400
H  39.96000 44.22600 30.21900
H  42.60700 44.82800 33.09100
H  41.80200 46.31600 33.58300
H  43.08700 46.40600 32.32800
Mg -1.48400 34.83100 26.83300
C  -3.25500 33.15200 29.42000
C  -0.51900 37.08000 29.22100
C  0.59100 36.03700 24.58200
C  -3.34300 33.03400 24.50700
N  -1.98900 35.13300 29.08200
C  -2.56400 34.26800 29.93700
C  -2.57500 34.81700 31.42200
C  -1.83800 36.20500 31.20100
C  -1.47400 36.17500 29.74800
C  -2.56800 37.52200 31.64700
C  -1.94100 33.87200 32.42200
C  -1.60500 34.45300 33.78000
H  -2.24900 33.72600 34.84900
N  -0.21500 36.41400 26.85500
C  0.05200 37.25000 27.92500
C  0.94300 38.26600 27.47900
C  1.41800 37.95800 26.16100
C  0.62100 36.74400 25.85100
C  1.24700 39.45200 28.35100
C  2.45500 38.59700 25.22900
O  2.84100 38.10500 24.17800
C  3.04200 39.94800 25.64200
N  -1.49800 34.69300 24.71300
C  -0.34000 35.10600 24.06600
C  -0.41800 34.54300 22.62000
C  -1.76500 33.73500 22.53800
C  -2.25800 33.81000 24.02700
C  -0.15400 35.58900 21.49100
C  -1.54500 32.27700 22.24200
C  -0.50600 31.43200 23.04800
N  -3.00600 33.39200 26.89800
C  -3.66300 32.77400 25.85700
C  -4.57300 31.77300 26.38100
C  -4.43900 31.86000 27.73700
C  -3.51000 32.92100 28.05500
C  -5.54700 31.04900 25.64400
C  -4.95200 31.32700 29.00900
O  -5.77900 30.40900 29.17800
C  -4.26300 32.25300 30.16400
C  -5.39500 32.93600 30.83300
O  -5.90500 33.94400 30.39300
O  -5.66900 32.35800 32.10600
C  -6.57300 33.19500 32.90500
H  -0.21400 37.77900 30.00400
H  1.29700 36.37500 23.82000
H  -3.97200 32.40300 23.87600
H  -3.64300 34.95200 31.59300
H  -0.89200 36.23500 31.74100
H  -1.88800 38.30900 31.97500
H  -3.18200 37.30300 32.52000
H  -3.20600 37.86200 30.83100
H  -0.98400 33.67900 31.93800
H  -2.58900 32.99900 32.50300
H  -1.78800 35.52800 33.78900
H  -0.55300 34.30500 34.02500
H  0.95500 39.37600 29.39800
H  0.78600 40.29700 27.83800
H  2.31900 39.64800 28.37400
H  2.32100 40.69600 25.97000
H  3.52500 40.30300 24.73200
H  3.72700 39.94000 26.49000
H  0.39000 33.81700 22.52500
H  -2.49100 34.10400 21.81500
H  -0.02600 36.62400 21.80600
H  -0.94500 35.50200 20.74500
H  0.76400 35.39400 20.93700
H  -1.15800 32.25300 21.22300
H  -2.52100 31.79700 22.17000
H  -0.10700 32.02300 23.87300
H  0.39300 31.06400 22.55500
H  -1.03700 30.58000 23.47100
H  -6.48700 31.59600 25.57800
H  -5.85500 30.16000 26.19400
H  -5.18600 30.82400 24.64000
H  -3.79900 31.57700 30.88100
H  -7.33700 33.64600 32.27100
H  -5.90500 33.96700 33.28600
H  -7.02000 32.66900 33.74900

