158

Mg -1.35800 17.78700 27.40700
C  -1.88000 15.59000 29.92100
C  -2.25200 20.39400 29.50200
C  -1.61100 20.00400 24.80700
C  -1.18000 15.14200 25.14600
N  -1.92400 17.89000 29.47400
C  -2.09400 16.88300 30.32500
C  -2.32500 17.36400 31.75700
C  -2.94500 18.84500 31.43800
C  -2.34200 19.05200 30.04800
C  -4.44400 19.01100 31.51100
C  -1.03500 17.32100 32.61800
C  -1.23700 16.67100 33.95300
H  -0.06100 16.41600 34.96300
N  -1.51000 19.94100 27.26100
C  -1.92300 20.83700 28.20400
C  -2.05900 22.17600 27.60900
C  -1.68000 22.06100 26.27000
C  -1.60300 20.62200 26.04900
C  -2.35900 23.47700 28.39400
C  -1.38800 23.12600 25.34000
O  -0.89100 22.94900 24.26900
C  -1.61500 24.61700 25.66800
N  -1.45000 17.60500 25.40500
C  -1.65100 18.65700 24.51200
C  -1.99400 18.08700 23.03000
C  -1.22300 16.68800 23.13800
C  -1.39800 16.44800 24.65800
C  -3.49800 18.00500 22.72800
C  0.27200 16.78600 22.56900
C  1.52100 16.51100 23.47300
N  -1.22900 15.74000 27.53300
C  -1.16100 14.80500 26.51300
C  -1.19300 13.46000 27.11100
C  -1.47800 13.73600 28.45000
C  -1.50600 15.11300 28.61400
C  -1.28600 12.10700 26.42200
C  -1.79900 13.11900 29.73300
O  -1.87100 11.92400 29.99700
C  -1.87300 14.33000 30.75200
C  -0.67300 14.06900 31.61500
O  0.39200 14.54400 31.35300
O  -0.91100 13.27000 32.68000
C  0.21200 12.94600 33.53500
H  -2.67100 21.20200 30.10400
H  -1.76900 20.69000 23.97200
H  -1.08300 14.35500 24.39500
H  -3.07500 16.68500 32.16200
H  -2.54700 19.50400 32.20900
H  -4.75200 19.11500 32.55200
H  -4.90600 18.07700 31.19100
H  -4.80000 19.71800 30.76200
H  -0.78700 18.38100 32.65500
H  -0.29600 16.68100 32.13600
H  -1.70000 15.70500 33.75500
H  -1.94000 17.34600 34.44000
H  -2.74600 23.27800 29.39400
H  -3.20400 24.03000 27.98500
H  -1.48800 24.09800 28.60300
H  -1.02300 24.83800 26.55600
H  -2.68200 24.53200 25.87300
H  -1.35300 25.29900 24.85900
H  -1.60400 18.75300 22.26000
H  -1.74500 15.93600 22.54600
H  -3.76300 18.53800 21.81400
H  -4.07000 18.33200 23.59500
H  -3.82900 16.98300 22.54500
H  0.49000 17.76100 22.13200
H  0.43700 16.09200 21.74500
H  2.19000 17.36400 23.35900
H  2.04900 15.64300 23.07800
H  1.22600 16.36400 24.51200
H  -0.44900 11.53600 26.82400
H  -1.22700 12.22200 25.33900
H  -2.24100 11.61200 26.59600
H  -2.73000 14.32800 31.42500
H  -0.16100 13.28200 34.50200
H  1.03400 13.64900 33.40100
H  0.50200 11.89500 33.54400
Mg 47.20700 25.22900 28.24800
C  47.98400 27.44900 30.89200
C  46.37600 22.89100 30.68300
C  46.54100 23.09600 25.86300
C  48.32900 27.62900 26.04600
N  47.35600 25.16500 30.52800
C  47.47600 26.24900 31.38300
C  47.18700 25.88700 32.84000
C  46.79000 24.35900 32.78200
C  46.75400 24.14400 31.21800
C  47.62800 23.28200 33.54200
C  46.15000 26.77900 33.58600
C  45.50400 26.27700 34.86200
H  45.32000 27.11100 36.09400
N  46.59100 23.24900 28.25900
C  46.22500 22.49700 29.32900
C  45.77500 21.19000 28.86300
C  45.71800 21.20500 27.45900
C  46.29100 22.49900 27.12500
C  45.38600 20.06500 29.76500
C  45.47200 20.05600 26.51800
O  45.63200 20.16000 25.28100
C  44.91500 18.76400 27.05100
N  47.57900 25.20400 26.32500
C  47.12100 24.28000 25.49800
C  47.31100 24.66500 24.00800
C  47.52000 26.21200 24.05000
C  47.80400 26.40500 25.57900
C  48.27700 23.84400 23.06000
C  46.32900 27.02600 23.49000
C  46.10400 27.24200 21.97800
N  48.02200 27.14500 28.36600
C  48.40000 28.03300 27.39300
C  48.84500 29.26600 28.00800
C  48.72700 29.08800 29.36200
C  48.24600 27.76900 29.51100
C  49.32600 30.45000 27.21700
C  48.92600 29.76200 30.61700
O  49.37100 30.83900 30.81800
C  48.43000 28.69900 31.71500
C  49.47700 28.43400 32.76000
O  50.42600 27.71700 32.61300
O  49.25500 29.14600 33.92500
C  50.15100 28.90900 35.06300
H  46.22200 22.09700 31.41700
H  46.19400 22.42300 25.07600
H  48.41700 28.34300 25.22500
H  48.14100 25.89900 33.36800
H  45.72500 24.33000 33.01300
H  47.21200 22.30300 33.30300
H  47.51600 23.49400 34.60500
H  48.66300 23.28100 33.20200
H  45.35000 27.15300 32.94700
H  46.63600 27.74000 33.75500
H  45.99200 25.36200 35.19600
H  44.47400 25.97000 34.68100
H  44.35600 19.80800 29.51800
H  45.29200 20.39200 30.80000
H  46.06000 19.21100 29.70200
H  45.74400 18.25600 27.54400
H  44.69800 18.14400 26.18200
H  44.09600 18.90700 27.75700
H  46.29000 24.54000 23.64900
H  48.34300 26.55700 23.42500
H  48.74000 23.01100 23.58900
H  49.04200 24.34300 22.46500
H  47.62300 23.38400 22.31800
H  46.65000 28.02800 23.77600
H  45.50200 26.65700 24.09600
H  45.20300 26.66100 21.78100
H  46.97100 26.88900 21.41800
H  45.98400 28.27300 21.64400
H  49.10400 30.46100 26.15000
H  50.39900 30.50600 27.39700
H  48.78700 31.28300 27.66800
H  47.55900 29.14500 32.19500
H  50.03900 27.95900 35.58600
H  49.89300 29.64800 35.82100
H  51.19600 28.81800 34.76600

