158

Mg 8.29500 4.40800 27.38200
C  9.61600 2.83700 30.29600
C  6.36300 6.24700 29.65000
C  6.97300 5.85100 24.76400
C  10.18000 2.21900 25.41900
N  7.93200 4.41200 29.74900
C  8.68300 3.80000 30.68000
C  8.29300 4.24500 32.11800
C  7.15600 5.24000 31.87400
C  7.09400 5.27100 30.33900
C  5.72600 5.06400 32.50900
C  9.55500 4.77000 32.85000
C  9.19500 5.30300 34.23200
H  9.60600 4.64000 35.48300
N  6.81500 5.78400 27.27700
C  6.22900 6.52300 28.24000
C  5.33000 7.51700 27.64700
C  5.43700 7.39500 26.23500
C  6.45100 6.35700 26.02300
C  4.57800 8.55800 28.42300
C  4.57700 7.99300 25.08000
O  4.62300 7.70500 23.90600
C  3.76400 9.10600 25.41300
N  8.47500 4.04800 25.40300
C  7.80600 4.82500 24.48400
C  8.10900 4.29100 23.03000
C  9.29300 3.35600 23.24900
C  9.33900 3.14400 24.76400
C  6.87600 3.56900 22.37800
C  10.68500 3.86000 22.76200
C  11.61200 2.84600 22.11900
N  9.56600 2.78100 27.70400
C  10.29900 2.03400 26.82800
C  11.17300 1.16900 27.53700
C  10.99100 1.40800 28.92600
C  9.98800 2.43900 28.95600
C  12.07800 0.13600 26.88500
C  11.40500 1.06600 30.27500
O  12.15100 0.21300 30.68300
C  10.53600 2.06300 31.20000
C  9.83100 1.07100 32.09100
O  9.11700 0.14300 31.74300
O  10.05500 1.45700 33.41700
C  9.35800 0.69900 34.46500
H  5.75000 6.94900 30.22000
H  6.62400 6.36600 23.86600
H  10.86600 1.70900 24.74000
H  7.90300 3.35800 32.61700
H  7.51600 6.25700 32.02400
H  5.02700 4.88000 31.69200
H  5.50900 5.97300 33.07000
H  5.66400 4.09800 33.01100
H  10.12200 5.44000 32.20300
H  10.21300 4.00700 33.26400
H  8.11000 5.26700 34.32800
H  9.52800 6.34100 34.25700
H  3.52500 8.34600 28.60900
H  4.67200 9.55000 27.98000
H  5.12700 8.89500 29.30200
H  3.17300 9.39800 24.54500
H  4.28000 9.99400 25.77800
H  2.99200 8.88100 26.14900
H  8.38300 5.14500 22.41100
H  9.12000 2.34900 22.87000
H  6.07200 3.73400 23.09600
H  7.14100 2.52600 22.20000
H  6.57000 3.90100 21.38600
H  11.32400 4.23900 23.55900
H  10.57700 4.75900 22.15500
H  11.83800 3.20100 21.11300
H  11.20800 1.83400 22.08000
H  12.61000 2.87100 22.55600
H  11.57900 -0.77000 26.54000
H  12.83800 -0.15900 27.60800
H  12.57300 0.53600 26.00000
H  11.11700 2.75700 31.80700
H  8.99800 -0.22900 34.02100
H  8.49700 1.16100 34.94800
H  10.17000 0.45600 35.15100
Mg 26.73700 49.18500 25.78400
C  24.79100 50.66800 28.33400
C  28.95600 48.23400 28.24200
C  28.91600 48.36000 23.34000
C  24.77000 50.84400 23.38500
N  26.83800 49.53600 28.02700
C  25.88100 50.03000 28.89200
C  26.18200 49.75000 30.36800
C  27.56400 48.93100 30.21800
C  27.85600 48.93800 28.70300
C  28.77500 49.38600 31.16400
C  24.98800 48.92400 31.09000
C  24.45800 49.49900 32.42000
H  24.37300 48.65300 33.68700
N  28.60100 48.37100 25.80100
C  29.32800 47.90700 26.89900
C  30.45000 47.10100 26.44200
C  30.61800 47.29400 25.03600
C  29.33700 48.01500 24.67200
C  31.38700 46.37300 27.34400
C  31.72600 46.89300 24.05700
O  31.63700 47.01100 22.86300
C  33.02400 46.40500 24.57800
N  26.72800 49.41100 23.56600
C  27.74900 48.95100 22.82400
C  27.52500 49.20700 21.32900
C  26.14600 49.98400 21.30500
C  25.74500 50.00200 22.82600
C  28.61900 50.05100 20.58000
C  25.09600 49.26700 20.42000
C  24.48600 47.99400 20.98400
N  25.06800 50.39200 25.77500
C  24.35300 51.03600 24.74600
C  23.27700 51.76000 25.27900
C  23.44400 51.60000 26.65600
C  24.56600 50.81800 26.94700
C  22.23200 52.42400 24.50000
C  22.82300 52.02000 27.93100
O  21.93100 52.85000 28.14200
C  23.70900 51.37800 29.06600
C  24.13500 52.32800 30.13500
O  24.97700 53.21600 30.03600
O  23.25600 52.24600 31.15500
C  23.61400 52.96000 32.40000
H  29.60100 47.76100 28.98500
H  29.67300 48.10400 22.59500
H  24.23600 51.39400 22.60700
H  26.30500 50.72800 30.83300
H  27.42500 47.86400 30.39400
H  29.53500 49.66100 30.43300
H  29.14300 48.51600 31.70900
H  28.38400 50.16500 31.81900
H  25.43100 47.97500 31.39200
H  24.15500 48.67200 30.43300
H  23.41700 49.74000 32.20600
H  25.03500 50.37800 32.70500
H  31.77600 45.44600 26.92100
H  30.90500 46.23000 28.31100
H  32.22500 46.99400 27.66200
H  33.44000 47.24300 25.13800
H  33.53600 46.22200 23.63400
H  32.82600 45.46000 25.08500
H  27.35500 48.31900 20.71900
H  26.26200 51.05300 21.12400
H  29.35200 50.28200 21.35300
H  28.18400 50.93600 20.11700
H  29.08100 49.52900 19.74200
H  25.63100 49.12300 19.48200
H  24.25300 49.94700 20.28700
H  24.89500 47.69600 21.95000
H  24.73900 47.13800 20.35900
H  23.40000 48.02600 21.06600
H  22.01600 53.36800 24.99900
H  21.42500 51.75200 24.20800
H  22.65300 52.68700 23.53000
H  23.09800 50.62500 29.56500
H  24.58900 52.64500 32.77000
H  22.99200 52.49800 33.16700
H  23.53100 54.04700 32.41600

