158

Mg 47.57100 24.67400 28.89000
C  48.52400 27.25400 31.21200
C  46.87400 22.85300 31.71300
C  46.94700 22.18100 26.85500
C  49.28200 26.41000 26.44000
N  47.68100 25.16400 31.25700
C  47.88400 26.24000 31.91600
C  47.50000 26.11200 33.41100
C  47.26700 24.61800 33.58000
C  47.20600 24.17600 32.06400
C  48.35100 23.87300 34.44300
C  46.25900 27.02500 33.71900
C  46.15100 27.75500 35.06200
H  46.94100 27.09100 36.23400
N  46.92800 22.78800 29.22100
C  46.70600 22.15700 30.44600
C  46.18600 20.81500 30.20700
C  46.11000 20.60500 28.80100
C  46.60700 21.91800 28.18800
C  45.81700 19.89000 31.39700
C  45.76000 19.35000 28.07300
O  45.86300 19.27100 26.87900
C  45.31900 18.12700 28.91800
N  48.05900 24.30000 26.95400
C  47.56900 23.28500 26.24200
C  47.89200 23.32500 24.79000
C  48.54200 24.74400 24.54700
C  48.75800 25.15200 26.06700
C  48.74300 22.14000 24.25800
C  47.68300 25.70500 23.64400
C  46.47300 26.31900 24.37700
N  48.49800 26.43300 28.81800
C  49.10500 27.03800 27.73100
C  49.57400 28.36900 28.06000
C  49.29000 28.52100 29.45700
C  48.79700 27.27200 29.86100
C  50.30900 29.26900 27.05900
C  49.36200 29.44300 30.59000
O  49.65000 30.63100 30.66900
C  48.99400 28.54500 31.79300
C  50.24600 28.42200 32.55600
O  51.28800 28.05100 32.01600
O  49.99900 28.75700 33.84300
C  51.09700 28.45500 34.83200
H  46.50200 22.25500 32.54800
H  46.60300 21.34700 26.24000
H  49.61300 27.13800 25.69700
H  48.36000 26.38800 34.02100
H  46.29000 24.37500 33.99800
H  49.01000 24.50300 35.04000
H  48.94800 23.20700 33.82000
H  47.78200 23.25900 35.14200
H  45.35000 26.42800 33.63600
H  46.23700 27.73300 32.89100
H  45.11700 27.81600 35.40200
H  46.39300 28.80700 34.91100
H  44.77300 19.57800 31.35300
H  45.94300 20.32800 32.38700
H  46.40700 18.99300 31.58100
H  44.36200 18.32200 29.40100
H  46.06400 17.87500 29.67300
H  45.16300 17.29100 28.23600
H  46.91300 23.37900 24.31500
H  49.57200 24.72000 24.19100
H  49.54800 22.47800 23.60500
H  48.07400 21.45500 23.73800
H  49.14800 21.51300 25.05300
H  47.36100 25.13000 22.77600
H  48.42500 26.43200 23.31300
H  46.42400 27.39400 24.20000
H  46.47500 26.10200 25.44500
H  45.53700 25.96700 23.94200
H  50.58700 30.24500 27.45600
H  49.75700 29.48100 26.14300
H  51.25800 28.76600 26.87600
H  48.11100 28.89100 32.33000
H  51.54800 27.47600 34.67300
H  50.65300 28.50200 35.82600
H  51.81900 29.25400 34.66000
Mg -12.73500 37.97700 41.74500
C  -10.56700 35.43900 40.58300
C  -10.53600 40.21400 40.19000
C  -15.09300 40.41800 41.94700
C  -15.13300 35.58900 42.36800
N  -10.73000 37.87000 40.60900
C  -10.02400 36.66500 40.33200
C  -8.71100 36.97400 39.59400
C  -8.66900 38.52600 39.70100
C  -10.00200 38.95000 40.17800
C  -7.56700 39.16000 40.59600
C  -8.60900 36.27100 38.16800
C  -7.21800 35.60200 37.93000
H  -6.30700 36.22800 36.87500
N  -12.76100 40.10200 41.29800
C  -11.75500 40.73200 40.67500
C  -12.05000 42.17200 40.78400
C  -13.32500 42.19800 41.38000
C  -13.78300 40.86500 41.55900
C  -11.19100 43.36600 40.16900
C  -14.06100 43.50100 41.74000
O  -13.62800 44.61600 41.57200
C  -15.39300 43.52400 42.41400
N  -14.84900 38.03200 41.98700
C  -15.58800 39.17300 42.23300
C  -17.00600 38.86700 42.66600
C  -17.02900 37.30300 42.65000
C  -15.56800 36.96700 42.39500
C  -17.46900 39.41200 43.98800
C  -18.16600 36.68700 41.68700
C  -17.79200 36.18300 40.25600
N  -12.83200 35.89000 41.77200
C  -13.91500 35.04000 41.98100
C  -13.40000 33.67200 41.90200
C  -12.07400 33.81900 41.41100
C  -11.81400 35.16300 41.23600
C  -14.13400 32.39700 42.20700
C  -10.95200 33.02700 40.88600
O  -10.67700 31.83100 40.72700
C  -9.86800 34.09000 40.52000
C  -8.86400 33.87300 41.56300
O  -9.04400 33.61900 42.74900
O  -7.63700 34.18300 40.98700
C  -6.51900 33.93200 41.90800
H  -9.85400 40.94900 39.75700
H  -15.90500 41.13800 42.06900
H  -15.97700 34.91100 42.51000
H  -7.90500 36.57800 40.21200
H  -8.52100 38.89400 38.68600
H  -7.23000 38.40400 41.30500
H  -7.70200 40.08600 41.15500
H  -6.76200 39.45200 39.92100
H  -8.74700 37.09000 37.46200
H  -9.36600 35.51600 37.95300
H  -7.29400 34.55900 37.62100
H  -6.67700 35.50300 38.87100
H  -10.87600 43.16700 39.14500
H  -10.29100 43.57700 40.74700
H  -11.71300 44.30900 40.01000
H  -16.16700 43.21600 41.71100
H  -15.60400 44.57400 42.61400
H  -15.41700 42.94800 43.33900
H  -17.65200 39.28800 41.89600
H  -17.21100 36.87700 43.63600
H  -18.24000 40.14900 43.76300
H  -16.68200 39.95100 44.51700
H  -18.01800 38.68500 44.58600
H  -18.96700 37.41400 41.55300
H  -18.62900 35.94200 42.33400
H  -16.72000 36.34000 40.13300
H  -18.28200 36.75800 39.47000
H  -18.00800 35.12500 40.10800
H  -14.91200 32.50400 42.96300
H  -13.43900 31.58200 42.41200
H  -14.53400 32.21200 41.21000
H  -9.39800 33.88600 39.55800
H  -5.73500 33.82400 41.15800
H  -6.60700 32.98900 42.44800
H  -6.35800 34.81700 42.52300

