158

Mg -0.21500 7.84700 25.77200
C  0.42400 9.36100 28.76500
C  -0.96300 4.89500 27.25200
C  -0.75000 6.45900 22.71400
C  0.81400 10.86100 24.28100
N  -0.14200 7.22500 27.71000
C  0.01900 8.01000 28.85200
C  -0.37500 7.21700 30.11500
C  -0.46100 5.73400 29.62000
C  -0.51100 5.92200 28.09800
C  0.69400 4.72400 30.02400
C  -1.64500 7.73100 30.92500
C  -1.51100 7.77500 32.48200
H  -0.63400 6.75000 33.17100
N  -0.72400 5.90100 25.10100
C  -1.02600 4.84000 25.87700
C  -1.47000 3.72300 25.04300
C  -1.37300 4.15900 23.69000
C  -0.90000 5.53900 23.79400
C  -1.97800 2.39500 25.58500
C  -1.51300 3.45700 22.36300
O  -1.20500 3.89100 21.24500
C  -2.14400 2.07800 22.40100
N  0.19300 8.54500 23.77800
C  -0.34900 7.81200 22.69200
C  0.07400 8.51000 21.37400
C  0.28300 9.97000 21.89100
C  0.54500 9.76600 23.38400
C  1.35400 7.85900 20.71500
C  -0.87100 11.00900 21.65100
C  -2.36000 10.59200 21.39700
N  0.53800 9.72800 26.32900
C  0.81300 10.88900 25.62900
C  1.00500 12.01400 26.49200
C  0.99900 11.45800 27.77300
C  0.63400 10.06300 27.61100
C  1.28800 13.40100 26.04100
C  1.15800 11.66700 29.19700
O  1.58700 12.69900 29.69600
C  0.55900 10.34200 29.92900
C  1.55800 9.92200 30.95500
O  2.55500 9.23300 30.74100
O  1.17200 10.42500 32.19000
C  2.13300 10.36400 33.32400
H  -1.29500 3.99200 27.76900
H  -1.04200 6.10100 21.72400
H  0.92700 11.78700 23.71300
H  0.50800 7.25300 30.75300
H  -1.36200 5.26700 30.01700
H  1.47300 5.30800 30.51300
H  1.09800 4.37000 29.07600
H  0.34100 3.83900 30.55300
H  -2.52500 7.16100 30.62800
H  -1.93900 8.73100 30.60400
H  -2.53400 7.60600 32.81900
H  -1.09600 8.77000 32.64400
H  -3.00200 2.29600 25.22500
H  -1.94000 2.43600 26.67300
H  -1.40100 1.50500 25.33500
H  -3.13200 2.16700 22.85300
H  -1.52900 1.46500 23.06100
H  -2.11700 1.50700 21.47400
H  -0.81300 8.39500 20.75100
H  1.23900 10.30100 21.48500
H  1.87100 7.29500 21.49100
H  2.00700 8.56300 20.19900
H  1.05900 7.18600 19.91000
H  -0.59300 11.70100 20.85700
H  -1.05100 11.53400 22.58900
H  -2.85100 10.73200 22.36000
H  -2.46300 9.54900 21.09700
H  -2.76100 11.24800 20.62400
H  1.72500 13.78100 26.96400
H  0.38500 13.92900 25.73300
H  2.03900 13.31200 25.25700
H  -0.30000 10.67800 30.51100
H  2.40500 11.38900 33.57400
H  3.05500 9.85600 33.04000
H  1.71600 9.87800 34.20600
Mg -11.89900 17.33100 39.63400
C  -8.57000 15.89200 39.60700
C  -10.42100 20.44400 39.13700
C  -14.85500 18.56400 38.74900
C  -13.04300 14.06800 39.45900
N  -9.69600 18.04100 39.41100
C  -8.54400 17.33900 39.49700
C  -7.35100 18.26200 39.49200
C  -8.00600 19.65700 39.67600
C  -9.52700 19.39100 39.46800
C  -7.76300 20.38700 41.03700
C  -6.60700 18.08700 38.08900
C  -5.17400 17.57200 38.18400
H  -4.92000 16.28900 37.50500
N  -12.68800 19.23200 39.19000
C  -11.85800 20.39300 39.00400
C  -12.68000 21.55100 38.80600
C  -14.01600 21.03100 38.53000
C  -13.90800 19.57800 38.78700
C  -12.14700 22.94600 38.87000
C  -15.28200 21.73900 38.07100
O  -15.25000 22.98900 37.98700
C  -16.58600 21.07200 37.86100
N  -13.70900 16.41100 39.10300
C  -14.80100 17.16400 38.92800
C  -16.06400 16.33500 39.20000
C  -15.47900 14.83700 39.10700
C  -13.99600 15.08400 39.24900
C  -16.72000 16.64100 40.56700
C  -15.70300 14.03400 37.79400
C  -17.12000 13.46700 37.63300
N  -11.07000 15.38600 39.59500
C  -11.67100 14.15300 39.61400
C  -10.77400 13.12300 39.90900
C  -9.52200 13.71700 39.89200
C  -9.78600 15.12600 39.66300
C  -11.16600 11.63100 40.10300
C  -8.10000 13.50400 39.95000
O  -7.37500 12.52000 40.20300
C  -7.47300 14.87200 39.73100
C  -6.68000 15.20100 40.91100
O  -7.15400 15.82200 41.87100
O  -5.38600 14.81400 40.75000
C  -4.45000 15.16900 41.83600
H  -9.90500 21.40500 39.06800
H  -15.88800 18.91900 38.76000
H  -13.45800 13.06300 39.55800
H  -6.66600 17.99200 40.29600
H  -7.62400 20.27500 38.86300
H  -7.74500 19.60200 41.79200
H  -8.54100 21.11700 41.26100
H  -6.81400 20.92300 41.01500
H  -6.45400 19.05200 37.60600
H  -7.27000 17.52500 37.43200
H  -4.98400 17.43300 39.24800
H  -4.49000 18.38300 37.93400
H  -11.93100 23.25500 37.84700
H  -11.31700 22.93600 39.57700
H  -12.97800 23.50500 39.30100
H  -16.38800 20.29600 37.12200
H  -17.36000 21.70400 37.42600
H  -16.96600 20.67500 38.80200
H  -16.75700 16.55800 38.38800
H  -15.93200 14.27100 39.92100
H  -15.91300 16.70500 41.29800
H  -17.39600 15.80400 40.74200
H  -17.18100 17.62200 40.68300
H  -14.81900 13.43200 37.58500
H  -15.71700 14.72700 36.95200
H  -17.60000 13.35300 38.60500
H  -16.82900 12.48800 37.25300
H  -17.75000 14.05400 36.96400
H  -10.61600 11.12600 39.30800
H  -12.23100 11.57500 39.87700
H  -11.02700 11.16000 41.07600
H  -6.77200 15.03700 38.91200
H  -3.44300 14.92000 41.49900
H  -4.73600 14.72800 42.79100
H  -4.43200 16.25700 41.89600

