158

Mg 24.58800 -5.02500 45.80500
C  26.84500 -2.60800 44.45700
C  22.25700 -3.78100 43.64700
C  22.83000 -7.73300 46.32600
C  27.42900 -6.38600 47.49800
N  24.59600 -3.32400 44.15400
C  25.58600 -2.47700 43.87900
C  25.06100 -1.35900 42.96600
C  23.52300 -1.49900 43.23700
C  23.43500 -2.99100 43.63200
C  22.91800 -0.53300 44.25900
C  25.63800 -1.62500 41.55700
C  25.72300 -0.36500 40.57500
H  25.08000 -0.45800 39.27900
N  22.75400 -5.61000 45.26400
C  21.95300 -4.94200 44.38200
C  20.73200 -5.71000 44.20300
C  20.73000 -6.74000 45.11400
C  22.09900 -6.74900 45.70700
C  19.60500 -5.22800 43.29900
C  19.57200 -7.63900 45.40400
O  18.48500 -7.60200 44.87300
C  19.71200 -8.59200 46.66400
N  25.01400 -6.76800 46.90300
C  24.15400 -7.78700 46.84500
C  24.74000 -9.09800 47.42600
C  26.19800 -8.65500 47.75900
C  26.20400 -7.14500 47.44700
C  23.88500 -9.84100 48.43500
C  27.35200 -9.41000 47.06100
C  28.56700 -9.58500 47.93800
N  26.76900 -4.47000 46.11400
C  27.71600 -5.18000 46.84400
C  28.89500 -4.41800 46.84900
C  28.67600 -3.35900 45.93800
C  27.32800 -3.49400 45.45900
C  30.19300 -4.72800 47.52600
C  29.21000 -2.19800 45.30000
O  30.24200 -1.60700 45.54200
C  28.14200 -1.75200 44.20000
C  27.87300 -0.28200 44.51700
O  27.14400 0.05100 45.45600
O  28.42500 0.51300 43.56400
C  28.36300 1.99600 43.84600
H  21.44400 -3.30700 43.09300
H  22.33700 -8.67800 46.56000
H  28.30600 -6.91400 47.88000
H  25.49800 -0.40300 43.25700
H  22.93300 -1.46800 42.32100
H  22.86500 -0.96400 45.25900
H  21.88300 -0.31000 44.00000
H  23.60600 0.31300 44.27400
H  25.00200 -2.32200 41.01000
H  26.61900 -2.10000 41.55500
H  26.78600 -0.12300 40.55000
H  25.29400 0.49600 41.08800
H  19.38900 -5.78600 42.38800
H  19.56300 -4.14600 43.17500
H  18.65600 -5.38300 43.81200
H  20.22300 -8.15100 47.52000
H  20.16000 -9.51900 46.30500
H  18.75200 -9.02600 46.94000
H  24.84300 -9.80300 46.60000
H  26.25500 -8.79400 48.83800
H  23.13800 -9.10600 48.73400
H  24.42500 -10.09100 49.34800
H  23.43700 -10.73400 47.99700
H  27.73400 -8.89400 46.18000
H  26.98300 -10.38700 46.75100
H  28.54400 -9.21400 48.96300
H  29.44800 -9.09400 47.52700
H  28.86500 -10.62900 48.03900
H  30.66700 -5.53200 46.96300
H  29.84000 -5.18900 48.44900
H  30.79400 -3.84500 47.74000
H  28.59000 -1.84600 43.21100
H  28.41400 2.15500 44.92300
H  27.48600 2.50900 43.45000
H  29.14500 2.41700 43.21300
Mg 25.42400 1.05400 29.32800
C  27.46500 1.00600 32.17000
C  22.68700 1.91700 31.30800
C  23.40100 1.31200 26.57200
C  28.06700 0.12600 27.31100
N  25.10700 1.32400 31.50500
C  26.12200 1.35300 32.48100
C  25.60000 1.67700 33.90200
C  24.03900 1.84700 33.61200
C  23.87100 1.64000 32.06600
C  23.11900 0.83200 34.39400
C  26.16800 2.93600 34.67300
C  26.76600 2.74300 36.08000
H  26.61200 3.84000 37.11200
N  23.32000 1.48000 28.94100
C  22.39000 1.84200 29.88500
C  21.10800 2.17600 29.33000
C  21.36000 1.99600 27.88600
C  22.74400 1.57600 27.72400
C  19.79700 2.43600 30.12600
C  20.24500 2.08000 26.70800
O  20.59700 1.88900 25.59700
C  18.91100 2.50500 26.96900
N  25.62500 0.62600 27.24200
C  24.68800 0.85500 26.31400
C  25.31100 0.87200 24.85000
C  26.75900 0.42700 25.11400
C  26.83700 0.38600 26.65000
C  24.45200 0.08600 23.87400
C  27.85200 1.40900 24.57600
C  29.00800 0.73300 23.86700
N  27.41300 0.61900 29.62000
C  28.39100 0.26100 28.70800
C  29.66600 0.05000 29.43500
C  29.34600 0.37300 30.79500
C  27.96100 0.67400 30.89500
C  30.90400 -0.45500 28.95300
C  29.86800 0.39600 32.15300
O  30.97200 0.16200 32.60400
C  28.63500 0.87200 33.07400
C  28.50300 -0.17600 34.15100
O  28.36600 -1.35400 33.88900
O  28.71500 0.34500 35.45200
C  29.02300 -0.65100 36.55300
H  21.89500 2.17000 32.01500
H  22.80800 1.43700 25.66300
H  28.81900 -0.34700 26.67500
H  25.80000 0.83000 34.55800
H  23.65300 2.85800 33.74200
H  22.62200 0.13000 33.72400
H  22.44300 1.36700 35.06100
H  23.65300 0.20600 35.10900
H  25.39100 3.69900 34.72900
H  26.98400 3.41200 34.12900
H  27.83400 2.74800 35.86400
H  26.67200 1.76600 36.55400
H  19.94500 2.52900 31.20200
H  19.06600 1.67200 29.86000
H  19.26000 3.34400 29.85100
H  18.35100 2.73800 26.06300
H  18.82200 3.47800 27.45200
H  18.33100 1.79200 27.55500
H  25.35600 1.94300 24.65200
H  26.98200 -0.60100 24.82900
H  23.61100 -0.44600 24.31800
H  25.23600 -0.55800 23.47800
H  24.09800 0.78600 23.11700
H  28.32000 1.96500 25.38800
H  27.24800 2.09700 23.98600
H  29.99700 1.16500 24.02100
H  28.73900 0.78300 22.81200
H  29.15800 -0.30900 24.14700
H  30.86400 -1.53500 28.80700
H  31.59900 -0.09100 29.71000
H  31.02700 0.03400 27.98700
H  28.72400 1.68400 33.79500
H  28.23300 -0.58200 37.30100
H  29.97600 -0.42100 37.03000
H  29.07500 -1.64000 36.09700

