158

Mg 9.08900 3.92200 27.59000
C  10.44600 2.42900 30.31600
C  7.36900 6.20600 29.68500
C  8.22400 5.72900 24.92500
C  10.51500 1.52400 25.54200
N  8.73600 4.08300 29.73800
C  9.56300 3.46900 30.71300
C  9.19700 3.96400 32.12400
C  8.13500 5.10800 31.88600
C  8.00500 5.14500 30.31900
C  6.77600 4.83400 32.59900
C  10.42100 4.45600 33.03500
C  10.05900 5.11500 34.31000
H  10.44500 4.46400 35.65200
N  7.93500 5.68700 27.31600
C  7.29600 6.41700 28.24200
C  6.61100 7.59200 27.61500
C  6.96500 7.52200 26.25300
C  7.75900 6.29400 26.13900
C  5.78600 8.66600 28.34900
C  6.73600 8.57000 25.10200
O  7.02000 8.31400 23.95500
C  6.02400 9.84900 25.35100
N  9.20700 3.60400 25.48400
C  8.83700 4.51200 24.57100
C  8.98100 3.98200 23.16700
C  9.69400 2.63000 23.37900
C  9.90800 2.60600 24.89100
C  7.66000 4.04200 22.39500
C  11.06300 2.36700 22.60600
C  11.09300 1.14400 21.69500
N  10.28200 2.23100 27.78000
C  10.82500 1.37500 26.91300
C  11.75800 0.49500 27.62600
C  11.64300 0.82300 28.93000
C  10.75500 1.97700 28.98300
C  12.58000 -0.60900 26.92800
C  12.02900 0.49600 30.24400
O  12.75100 -0.38800 30.60600
C  11.32200 1.50000 31.18300
C  10.55000 0.93700 32.23800
O  9.34400 0.65800 32.18400
O  11.40800 0.66000 33.27500
C  10.75900 0.43700 34.51100
H  6.92200 7.10400 30.11600
H  7.76300 6.21500 24.06200
H  11.06700 0.85700 24.87600
H  8.82800 3.07700 32.63800
H  8.54400 5.98600 32.38700
H  5.96600 4.79800 31.86900
H  6.70500 5.69900 33.25700
H  6.86500 3.90300 33.15900
H  10.98400 5.05300 32.31700
H  11.18500 3.71000 33.25300
H  8.97700 5.21500 34.39600
H  10.59200 6.05200 34.14600
H  6.09700 9.68600 28.12100
H  5.90100 8.60000 29.43100
H  4.70600 8.53900 28.27700
H  5.90800 10.27100 24.35300
H  6.67500 10.51200 25.92200
H  5.06100 9.76400 25.85600
H  9.61600 4.64700 22.58200
H  8.91600 1.92800 23.07800
H  7.62800 4.79500 21.60800
H  6.77400 4.21500 23.00500
H  7.55100 3.11200 21.83700
H  11.93100 2.21400 23.24700
H  11.21000 3.27600 22.02200
H  11.94400 1.23900 21.02100
H  10.21500 0.97300 21.07200
H  11.23100 0.25300 22.30700
H  11.87800 -1.30600 26.47000
H  13.21100 -1.19100 27.60000
H  13.07500 -0.05900 26.12800
H  12.11800 2.13900 31.56400
H  11.27300 1.07000 35.23500
H  10.96600 -0.60900 34.73700
H  9.71500 0.72700 34.62800
Mg 35.72600 1.99100 29.90400
C  33.42700 3.28900 32.22300
C  38.03800 1.70100 32.50000
C  37.97100 1.44700 27.50700
C  33.23200 2.51900 27.36500
N  35.77300 2.49200 32.05600
C  34.64800 2.84900 32.77900
C  34.93900 2.75500 34.32700
C  36.40500 2.37500 34.41600
C  36.73400 2.17600 32.90100
C  37.34700 3.55500 34.90600
C  33.95700 1.73400 35.04300
C  33.13900 2.28700 36.25100
H  33.62700 3.56200 37.00800
N  37.75600 1.56800 30.01200
C  38.54500 1.41700 31.17900
C  39.81500 0.86600 30.73200
C  39.87800 0.92500 29.29900
C  38.46600 1.34100 28.90200
C  40.84000 0.25600 31.72700
C  40.98300 0.66200 28.34200
O  40.86400 0.72100 27.10500
C  42.30300 0.31800 28.76100
N  35.56700 1.62300 27.71700
C  36.70500 1.59600 26.98500
C  36.30300 1.50900 25.47100
C  34.67700 1.73600 25.42400
C  34.43600 1.96200 26.94600
C  36.99200 2.42300 24.49900
C  33.87200 0.51100 24.92800
C  32.55000 0.82500 24.26700
N  33.74200 2.61300 29.83600
C  32.88300 2.80200 28.71300
C  31.63900 3.42800 29.20800
C  31.78300 3.51900 30.60300
C  33.07300 3.09500 30.86100
C  30.49300 3.83000 28.34500
C  31.10500 3.91000 31.81400
O  29.94400 4.11000 32.04300
C  32.22300 3.82200 32.95300
C  32.42400 5.11900 33.55100
O  33.09200 6.02500 33.02000
O  31.59000 5.32500 34.57700
C  31.51900 6.62000 35.27900
H  38.76500 1.42800 33.26800
H  38.63900 1.24100 26.66900
H  32.43400 2.80200 26.67500
H  34.82700 3.72900 34.80400
H  36.57400 1.44300 34.95400
H  37.83500 4.11800 34.11100
H  38.21700 3.27700 35.50100
H  36.82200 4.35500 35.42800
H  34.47700 0.83400 35.37200
H  33.18100 1.47500 34.32200
H  33.25100 1.63700 37.11900
H  32.07400 2.37400 36.03800
H  41.57300 1.04100 31.91200
H  41.33700 -0.62100 31.31200
H  40.42300 -0.00700 32.69900
H  42.39500 -0.76800 28.73300
H  42.60200 0.74500 29.71900
H  43.00900 0.76200 28.05900
H  36.52700 0.50000 25.12700
H  34.36300 2.69500 25.01200
H  37.34800 3.35900 24.92900
H  36.26100 2.76200 23.76500
H  37.73900 1.80200 24.00400
H  33.61700 -0.18100 25.73100
H  34.56000 0.04900 24.22000
H  32.60400 1.89400 24.06200
H  31.67400 0.45700 24.80200
H  32.45100 0.32700 23.30300
H  30.19900 2.99900 27.70400
H  30.84800 4.71300 27.81200
H  29.61200 4.21300 28.86100
H  31.88900 3.14900 33.74200
H  30.68700 7.12700 34.79200
H  32.37000 7.25100 35.02200
H  31.09200 6.50700 36.27600

