158

Mg 9.23800 3.79600 27.12200
C  10.29300 2.13700 30.09400
C  6.83100 5.27600 29.10900
C  7.86900 4.97700 24.37300
C  10.96700 1.46800 25.29700
N  8.84500 4.02400 29.40800
C  9.44200 3.18400 30.33100
C  8.88700 3.67000 31.75400
C  7.64700 4.54300 31.40600
C  7.73100 4.64200 29.89200
C  6.31200 4.13800 31.96000
C  10.04300 4.37200 32.57600
C  10.43000 3.68600 33.94200
H  10.77200 4.55500 35.13500
N  7.68400 5.03600 26.74900
C  6.82600 5.54700 27.72600
C  5.80900 6.43000 27.06200
C  6.18900 6.45500 25.69800
C  7.29000 5.49100 25.52400
C  4.58500 7.08000 27.69500
C  5.55200 7.16500 24.59200
O  5.82200 7.07300 23.39400
C  4.42200 8.21100 24.90200
N  9.32200 3.25100 25.12000
C  8.80400 3.94200 24.13600
C  9.38400 3.56200 22.70300
C  10.23200 2.29400 23.03500
C  10.21200 2.38200 24.58700
C  8.33700 3.44700 21.62900
C  11.56400 2.26900 22.39600
C  11.77400 0.89100 21.61900
N  10.36500 2.09000 27.56400
C  11.04300 1.24300 26.68600
C  11.76800 0.25300 27.39100
C  11.47800 0.54200 28.73900
C  10.69200 1.70800 28.79300
C  12.45800 -0.95500 26.78000
C  11.67400 0.11900 30.15200
O  12.23700 -0.84400 30.66700
C  10.91300 1.15700 31.08100
C  9.95600 0.26400 31.75700
O  8.81600 -0.06400 31.35300
O  10.37400 0.08200 33.07300
C  9.36000 -0.57000 33.94600
H  5.99200 5.62000 29.71800
H  7.50500 5.43900 23.45300
H  11.55900 0.66000 24.86100
H  8.74700 2.70600 32.24300
H  7.77400 5.54400 31.81800
H  6.52900 3.48400 32.80500
H  5.81500 3.51900 31.21400
H  5.78700 5.00600 32.35900
H  9.70100 5.36300 32.87200
H  10.87800 4.52700 31.89200
H  11.26500 3.01100 33.74900
H  9.69800 2.90800 34.16000
H  4.78300 8.14600 27.58700
H  4.57000 6.86700 28.76400
H  3.66200 6.86000 27.15900
H  3.53700 7.60000 25.08200
H  4.22400 8.74100 23.97000
H  4.73200 8.91200 25.67800
H  9.93100 4.43200 22.34000
H  9.67800 1.38000 22.81900
H  7.33500 3.51500 22.05400
H  8.45800 2.40700 21.32600
H  8.37700 4.21900 20.86100
H  12.25500 2.54700 23.19100
H  11.64400 3.04300 21.63300
H  11.96500 1.12300 20.57100
H  10.85500 0.30700 21.58300
H  12.55000 0.24000 22.02300
H  11.86600 -1.47400 26.02700
H  12.63000 -1.61100 27.63300
H  13.46400 -0.78100 26.40000
H  11.69800 1.59700 31.69600
H  8.40800 -0.05700 33.81500
H  9.75800 -0.45700 34.95500
H  9.20900 -1.64500 33.84800
Mg 44.98600 4.55300 48.28100
C  42.85600 7.21100 47.45900
C  42.49400 2.40300 47.86000
C  47.29000 2.14800 48.45500
C  47.70100 6.95900 48.24800
N  42.89600 4.80100 47.73900
C  42.20800 5.89000 47.42400
C  40.69300 5.58000 47.14500
C  40.51900 4.06000 47.38700
C  42.05800 3.72300 47.71400
C  39.54000 3.75600 48.49500
C  40.21000 6.08600 45.75700
C  38.99300 6.93700 45.68500
H  38.23300 6.80700 44.33400
N  44.93700 2.46600 48.34500
C  43.75600 1.85800 48.16400
C  44.01500 0.41200 48.12100
C  45.39400 0.24700 48.31000
C  45.96300 1.65100 48.38100
C  42.79800 -0.64100 48.03600
C  46.07500 -1.13800 48.41200
O  45.48100 -2.15700 48.33300
C  47.63900 -1.28300 48.60200
N  47.18700 4.52500 48.19500
C  47.83600 3.38500 48.48900
C  49.36900 3.59800 48.82300
C  49.59900 5.17200 48.55800
C  48.09100 5.61400 48.31600
C  49.82200 3.04600 50.18200
C  50.53300 5.52700 47.40300
C  51.96200 5.13300 47.57200
N  45.21700 6.59700 47.98900
C  46.35200 7.39500 48.05900
C  45.96800 8.79100 47.99800
C  44.60500 8.76400 47.74500
C  44.19400 7.41100 47.76100
C  46.83800 9.98900 47.93900
C  43.50900 9.58700 47.39100
O  43.37000 10.79300 47.45700
C  42.28500 8.63600 47.21400
C  41.19900 8.99400 48.14800
O  41.11800 8.58100 49.26800
O  40.21100 9.84300 47.56600
C  39.11000 10.20100 48.42100
H  41.68800 1.66700 47.84300
H  47.98200 1.37000 48.78200
H  48.52300 7.67900 48.24800
H  40.20900 6.17100 47.92200
H  40.26800 3.51100 46.47900
H  40.00800 3.31400 49.37400
H  38.76300 3.06800 48.16400
H  38.93300 4.55900 48.91200
H  40.09400 5.25700 45.05900
H  41.09300 6.65000 45.45600
H  39.16700 7.99400 45.88400
H  38.39400 6.62600 46.54100
H  43.08800 -1.52700 47.47200
H  41.92500 -0.33700 47.45700
H  42.49200 -0.84600 49.06200
H  48.00500 -2.31000 48.61500
H  47.85500 -0.84900 49.57800
H  48.21000 -0.78800 47.81700
H  49.94100 3.20200 47.98300
H  49.96400 5.67400 49.45400
H  49.00200 2.77000 50.84500
H  50.50800 3.74100 50.66600
H  50.32100 2.10500 49.95000
H  50.53100 6.61700 47.40700
H  50.14000 5.02000 46.52200
H  52.15200 4.66900 48.54000
H  52.51400 6.06000 47.41500
H  52.26400 4.48800 46.74600
H  47.59400 9.65400 47.22900
H  47.30800 10.20000 48.89900
H  46.25000 10.86900 47.67700
H  41.94700 8.63000 46.17800
H  39.22500 9.89900 49.46200
H  38.27600 9.65300 47.98200
H  38.81700 11.25100 48.39200

