158

Mg 53.68100 22.59700 45.12400
C  51.49400 25.12400 43.98800
C  51.52500 20.32200 43.52700
C  56.03500 20.28600 45.53000
C  55.85700 25.06100 46.15900
N  51.76900 22.68600 44.06300
C  51.15500 23.84000 43.63600
C  49.95800 23.54200 42.76900
C  49.61700 22.07700 43.22300
C  51.03400 21.60500 43.61000
C  48.61700 21.99900 44.41400
C  50.23700 23.65800 41.23900
C  49.04900 24.15100 40.38800
H  48.49700 23.14100 39.32600
N  53.87600 20.69200 44.42600
C  52.85600 19.94400 43.93400
C  53.29300 18.52100 43.87600
C  54.60500 18.48800 44.41800
C  54.92000 19.84800 44.78800
C  52.36700 17.44500 43.35000
C  55.49900 17.21900 44.53200
O  55.01300 16.09400 44.24000
C  56.96700 17.39700 44.62400
N  55.76400 22.71200 45.72000
C  56.51400 21.56300 45.85400
C  57.84800 21.86800 46.41400
C  57.73800 23.34400 46.80000
C  56.41700 23.77500 46.11000
C  58.32100 20.95400 47.69200
C  58.91900 24.26200 46.25900
C  59.71000 25.13100 47.24700
N  53.70600 24.68100 45.18700
C  54.62000 25.51100 45.66900
C  54.22700 26.86800 45.73900
C  52.97500 26.80800 45.01400
C  52.71800 25.48000 44.67300
C  54.87900 28.08400 46.33400
C  51.82400 27.56800 44.57700
O  51.61300 28.78100 44.71100
C  50.83000 26.53600 43.84100
C  50.39500 26.90800 42.44800
O  51.17900 27.06600 41.54600
O  49.00100 27.00200 42.41200
C  48.59400 27.38100 41.04900
H  50.71000 19.71900 43.12100
H  56.71100 19.48500 45.83600
H  56.65900 25.74000 46.45600
H  49.13000 24.18600 43.06500
H  49.15600 21.46100 42.45100
H  47.76300 21.39800 44.10200
H  48.14900 22.96000 44.62700
H  49.01300 21.64800 45.36600
H  50.45900 22.64700 40.89700
H  51.09100 24.30300 41.03400
H  49.44600 24.98700 39.81300
H  48.23000 24.48300 41.02700
H  52.55400 16.38400 43.51400
H  52.37700 17.52000 42.26200
H  51.32700 17.68900 43.56900
H  57.39600 18.25100 44.09900
H  57.47200 16.53500 44.18800
H  57.18900 17.48700 45.68700
H  58.48600 21.71400 45.54400
H  57.57200 23.46000 47.87100
H  59.01900 20.20500 47.31700
H  57.41500 20.52100 48.11400
H  58.78500 21.57600 48.45800
H  58.68400 24.96300 45.45800
H  59.72300 23.59300 45.95300
H  60.79300 25.25700 47.21400
H  59.48200 24.75000 48.24300
H  59.42400 26.18200 47.23100
H  55.80300 27.86300 46.86800
H  54.18900 28.56000 47.03100
H  55.07000 28.81000 45.54400
H  49.93800 26.56600 44.46700
H  49.18800 26.91600 40.26300
H  48.51800 28.46900 41.02800
H  47.64200 26.86600 40.92200
Mg 26.09900 49.37800 25.93400
C  24.13400 51.01200 28.36200
C  28.57900 48.95000 28.20500
C  28.12700 48.48100 23.43300
C  23.69800 50.51700 23.45600
N  26.27700 49.79000 28.05700
C  25.28100 50.36800 28.80300
C  25.61400 50.16800 30.25800
C  27.19200 49.79200 30.15500
C  27.44400 49.56100 28.72100
C  28.22000 50.77500 30.78100
C  24.67200 49.19000 31.10100
C  24.11000 49.76800 32.40100
H  25.13800 50.11800 33.46800
N  28.02800 48.62000 25.84200
C  28.92900 48.56500 26.85000
C  30.14200 47.99400 26.41800
C  30.05400 47.95500 24.99100
C  28.68700 48.38300 24.65800
C  31.31100 47.74100 27.38000
C  31.22400 47.69000 23.95300
O  30.98200 47.78900 22.75400
C  32.57900 47.45300 24.38500
N  25.89900 49.54100 23.78700
C  26.84900 48.90900 22.98800
C  26.40000 48.92700 21.46800
C  24.90500 49.42900 21.58700
C  24.78000 49.82000 23.02200
C  27.33800 49.81600 20.58400
C  23.87500 48.23100 21.33300
C  23.93200 46.95100 22.24600
N  24.31100 50.55700 25.89100
C  23.41800 50.85100 24.85400
C  22.33600 51.61900 25.44400
C  22.52600 51.66400 26.79500
C  23.76800 51.10400 27.03200
C  21.19300 52.12800 24.68600
C  21.96900 52.08800 28.03800
O  20.93500 52.68500 28.19600
C  22.90400 51.51800 29.12700
C  23.28300 52.61700 30.07900
O  24.35000 53.19100 30.13800
O  22.42500 52.60800 31.13600
C  22.80500 53.52900 32.22300
H  29.37200 48.74800 28.92800
H  28.74900 48.11900 22.61100
H  23.08900 50.92400 22.64600
H  25.57800 51.14000 30.75000
H  27.27300 48.85600 30.70800
H  27.68200 51.36700 31.52100
H  28.85400 51.28800 30.05700
H  28.88300 50.14900 31.37800
H  25.34000 48.36500 31.34700
H  23.75800 48.85300 30.61100
H  23.40500 49.06300 32.84000
H  23.62200 50.71200 32.15800
H  31.90800 46.94700 26.93200
H  31.07200 47.36800 28.37600
H  31.89100 48.65000 27.54000
H  33.13800 47.70200 23.48300
H  32.62100 46.38400 24.59300
H  32.85400 48.09800 25.22000
H  26.48100 47.92100 21.05600
H  24.74100 50.30800 20.96400
H  28.34200 49.73800 20.99900
H  26.91400 50.81700 20.50500
H  27.26600 49.30400 19.62400
H  24.04900 47.84000 20.33000
H  22.86000 48.63000 21.33000
H  23.96900 46.12600 21.53500
H  23.01500 46.82700 22.82100
H  24.78600 46.93300 22.92400
H  21.57500 52.99600 24.14700
H  20.35800 52.38900 25.33600
H  20.96500 51.37000 23.93700
H  22.44900 50.85100 29.86000
H  23.40000 52.95500 32.93300
H  21.88600 53.77500 32.75400
H  23.36000 54.44600 32.02600

