158

Mg 17.35000 -1.57700 27.63400
C  16.19200 0.62800 30.01700
C  19.18700 -3.30600 29.93800
C  18.82300 -3.27500 25.14700
C  16.16500 0.82000 25.24400
N  17.51100 -1.42900 29.79300
C  16.94100 -0.44800 30.55900
C  17.29200 -0.70100 32.01200
C  18.46100 -1.74700 31.90200
C  18.35600 -2.27600 30.48200
C  19.91800 -1.35400 32.50900
C  16.03300 -1.08800 32.85800
C  15.89800 -0.28300 34.21000
H  17.15600 0.17400 34.84400
N  18.63400 -3.27200 27.56600
C  19.31900 -3.79400 28.64400
C  20.11600 -4.92400 28.12700
C  19.99200 -4.95200 26.74200
C  19.13300 -3.80300 26.42000
C  20.87300 -5.84700 29.16500
C  20.65200 -5.91300 25.74500
O  20.50900 -5.83900 24.53500
C  21.59800 -6.96100 26.27300
N  17.37800 -1.35200 25.55800
C  18.02100 -2.24000 24.67200
C  18.00300 -1.80600 23.22000
C  17.04800 -0.53700 23.30300
C  16.82900 -0.33600 24.80200
C  19.37000 -1.48600 22.63200
C  15.70500 -0.72000 22.54100
C  15.23800 0.51500 21.81600
N  16.33500 0.36000 27.60300
C  15.91300 1.14100 26.51400
C  15.14700 2.21900 26.99800
C  15.17000 2.03200 28.38000
C  15.92700 0.92800 28.67200
C  14.51600 3.34800 26.12900
C  14.72600 2.57600 29.66400
O  13.98800 3.53600 29.91200
C  15.51000 1.78100 30.72300
C  16.35000 2.76600 31.51200
O  17.56300 2.93100 31.45800
O  15.55600 3.36400 32.50900
C  16.18400 4.36200 33.45700
H  19.91900 -3.69400 30.64900
H  19.40400 -3.72200 24.33900
H  15.76600 1.50400 24.49100
H  17.73600 0.23000 32.36300
H  18.19000 -2.58300 32.54700
H  20.58100 -1.22600 31.65300
H  20.22300 -2.07800 33.26400
H  19.75000 -0.35700 32.91600
H  16.02400 -2.09400 33.27600
H  15.14400 -0.83800 32.28000
H  15.31200 -0.80600 34.96500
H  15.37400 0.61900 33.89300
H  21.94600 -5.84900 28.97200
H  20.45700 -6.82800 29.39200
H  20.77200 -5.39500 30.15200
H  22.35800 -6.55000 26.93800
H  22.03800 -7.41500 25.38500
H  20.97900 -7.67900 26.81100
H  17.49700 -2.52000 22.57100
H  17.51600 0.36900 22.91900
H  19.91600 -1.07100 23.47900
H  19.25800 -0.87500 21.73700
H  19.90900 -2.38200 22.32300
H  14.90600 -0.99500 23.22900
H  15.89600 -1.45600 21.76000
H  14.97000 0.21400 20.80400
H  16.01000 1.28500 21.80100
H  14.35200 0.94500 22.28300
H  14.16900 2.99500 25.15700
H  15.11800 4.24400 25.97900
H  13.55400 3.53100 26.60700
H  14.82100 1.23200 31.36600
H  15.70700 5.33100 33.60700
H  17.21600 4.58600 33.18400
H  16.26500 3.79400 34.38300
Mg 42.56200 41.30800 26.02400
C  41.90600 43.32600 28.74400
C  44.05700 39.06300 28.36300
C  43.46100 39.15300 23.55100
C  41.81400 43.66100 23.72300
N  43.07100 41.32100 28.33700
C  42.50300 42.17700 29.25600
C  42.74800 41.73200 30.71800
C  43.58700 40.48300 30.45100
C  43.59700 40.23700 28.98100
C  45.09400 40.48300 30.97400
C  41.40300 41.44000 31.38600
C  40.87900 42.48200 32.46400
H  41.79200 42.76000 33.73000
N  43.39500 39.31700 26.02200
C  43.97400 38.66100 27.02300
C  44.37600 37.36600 26.54800
C  44.08100 37.29500 25.17000
C  43.54700 38.62500 24.84600
C  44.91300 36.29800 27.52600
C  44.36800 36.12500 24.20300
O  43.97000 36.13700 23.08800
C  44.92800 34.79100 24.65000
N  42.84400 41.42300 23.92300
C  43.10600 40.44200 23.14200
C  42.92700 40.74600 21.60900
C  42.30800 42.16700 21.69200
C  42.28500 42.45800 23.20500
C  44.08100 40.54000 20.72800
C  40.93800 42.27800 20.94800
C  39.69400 41.51400 21.60500
N  42.09600 43.13000 26.17700
C  41.82600 44.01000 25.07000
C  41.30800 45.22000 25.62200
C  41.37700 45.04000 27.07800
C  41.78200 43.69500 27.33700
C  40.87800 46.50500 24.93000
C  41.10600 45.58800 28.30700
O  40.71200 46.75200 28.49500
C  41.38800 44.59300 29.42600
C  42.51600 45.11900 30.22600
O  43.63300 45.24000 29.83800
O  42.00300 45.54400 31.36800
C  42.97700 46.18500 32.20400
H  44.51400 38.45300 29.14500
H  43.63300 38.37500 22.80400
H  41.32100 44.39000 23.07700
H  43.29000 42.56700 31.16200
H  43.10500 39.62700 30.92300
H  45.19000 39.50400 31.44300
H  45.21800 41.24500 31.74400
H  45.85200 40.54000 30.19300
H  41.45600 40.49600 31.93000
H  40.64900 41.30400 30.61100
H  39.97600 41.92200 32.70900
H  40.55700 43.42000 32.01300
H  45.50700 36.78100 28.30100
H  45.55100 35.58500 27.00400
H  44.18600 35.70200 28.07900
H  44.70400 34.00800 23.92600
H  44.40600 34.49600 25.56100
H  46.00300 34.96900 24.68600
H  42.10100 40.17500 21.18500
H  42.95000 42.84300 21.12700
H  44.89400 41.13100 21.15000
H  43.87000 40.80100 19.69100
H  44.37800 39.49100 20.71700
H  41.08100 41.91900 19.92900
H  40.73400 43.34600 21.02900
H  39.39000 40.65000 21.01300
H  38.84600 42.15600 21.84000
H  40.00400 41.15300 22.58600
H  40.41400 46.48000 23.94400
H  41.79400 47.09400 24.98200
H  40.22400 47.04200 25.61700
H  40.50300 44.51000 30.05600
H  43.63600 46.89700 31.70700
H  43.63800 45.36600 32.48500
H  42.61300 46.57200 33.15600

