158

Mg 8.59000 3.06900 27.59600
C  9.84100 1.57800 30.52600
C  6.64400 5.01700 29.66100
C  7.18400 4.34300 24.92200
C  10.15400 0.58000 25.79200
N  8.13900 3.04200 29.87400
C  8.90900 2.42700 30.86400
C  8.58600 2.90000 32.29900
C  7.33000 3.94600 31.98400
C  7.41000 4.03500 30.40300
C  5.92500 3.66300 32.57200
C  9.85700 3.55700 32.92200
C  9.62000 4.31600 34.24000
H  10.49100 4.07700 35.45300
N  7.21100 4.54100 27.35300
C  6.52100 5.25800 28.30600
C  5.70200 6.27200 27.68500
C  5.91100 6.15000 26.28100
C  6.79900 4.96800 26.10900
C  4.83400 7.20800 28.38200
C  5.27500 6.91900 25.21100
O  5.46400 6.68400 24.03800
C  4.21400 7.85200 25.44800
N  8.67800 2.55000 25.70900
C  8.02400 3.23000 24.71800
C  8.28300 2.54600 23.24400
C  9.27700 1.41500 23.62600
C  9.40100 1.54700 25.15300
C  6.99100 1.97900 22.58700
C  10.55200 1.49900 22.78300
C  10.94500 0.13500 22.18200
N  9.80200 1.38700 27.98800
C  10.36900 0.47100 27.14600
C  11.21300 -0.49100 27.84500
C  11.02500 -0.09600 29.21500
C  10.19500 1.06800 29.21100
C  12.10000 -1.64600 27.28000
C  11.30800 -0.47400 30.56600
O  12.07300 -1.34900 30.96900
C  10.54900 0.54700 31.44000
C  9.73500 -0.18100 32.37900
O  8.87000 -1.03600 32.07700
O  10.14200 0.20000 33.64400
C  9.44500 -0.60100 34.73400
H  6.06100 5.66800 30.31600
H  6.76300 4.72300 23.98900
H  10.74600 -0.01200 25.09100
H  8.25800 2.08600 32.94700
H  7.56100 4.92200 32.41100
H  5.74800 4.43800 33.31800
H  5.96400 2.73900 33.14900
H  5.15700 3.70100 31.80000
H  10.26900 4.31100 32.25200
H  10.61500 2.81000 33.15600
H  8.57700 4.34500 34.55600
H  9.79900 5.35600 33.96700
H  4.79000 7.03500 29.45800
H  3.78700 7.06700 28.11300
H  5.11500 8.18700 27.99400
H  4.58300 8.70500 26.01700
H  3.42300 7.32200 25.97800
H  3.66000 8.18500 24.57100
H  8.71500 3.29300 22.57800
H  8.72700 0.49700 23.41600
H  6.24800 1.88100 23.37800
H  7.06200 0.98300 22.14900
H  6.55100 2.65300 21.85300
H  11.39300 1.64700 23.46000
H  10.45100 2.29300 22.04300
H  11.69800 -0.32400 22.82200
H  11.43100 0.43300 21.25300
H  10.06600 -0.49200 22.03300
H  11.81900 -1.86000 26.24900
H  11.99100 -2.60000 27.79600
H  13.14000 -1.33300 27.36800
H  11.33600 0.98900 32.05200
H  9.99600 -1.53900 34.79800
H  8.40100 -0.82400 34.51400
H  9.38500 -0.08400 35.69200
Mg 47.34200 34.42300 27.34800
C  46.08100 32.57600 30.18800
C  47.29400 37.12000 29.22200
C  47.95500 35.96300 24.53700
C  46.82100 31.44300 25.48000
N  46.76800 34.77000 29.45000
C  46.40900 33.90900 30.48000
C  46.59800 34.60600 31.87100
C  46.62900 36.08300 31.44600
C  46.91000 35.99100 29.91400
C  45.37500 36.87400 31.77600
C  47.94700 34.08500 32.47800
C  47.94600 33.99800 34.06000
H  47.15200 35.06000 34.81200
N  47.59100 36.30500 27.00900
C  47.67000 37.26200 27.90200
C  48.01400 38.50100 27.22300
C  48.21300 38.14700 25.80500
C  47.87100 36.70700 25.69800
C  48.06400 39.85600 27.97400
C  48.59100 38.99900 24.61200
O  48.81700 38.62200 23.49300
C  48.86700 40.48100 24.91100
N  47.45900 33.76100 25.20200
C  47.75800 34.65800 24.30300
C  48.25000 33.93300 22.97200
C  47.78600 32.43700 23.25600
C  47.34700 32.46800 24.69200
C  47.56800 34.54300 21.70100
C  48.93900 31.33900 23.20600
C  48.45400 29.87700 22.99500
N  46.65400 32.37100 27.66400
C  46.43100 31.35600 26.82000
C  45.89000 30.19300 27.51400
C  45.71200 30.60100 28.87200
C  46.10900 31.94400 28.85400
C  45.61400 28.86400 26.93400
C  45.32900 30.21200 30.21400
O  44.98500 29.08500 30.60000
C  45.43900 31.56400 31.08100
C  45.91600 31.34500 32.38600
O  47.08100 31.06400 32.80400
O  44.87800 31.45200 33.26200
C  45.13900 31.17300 34.66700
H  47.32500 37.98100 29.89200
H  48.26100 36.35900 23.56600
H  46.70900 30.45500 25.02900
H  45.70300 34.29900 32.41200
H  47.42500 36.57300 32.00700
H  45.22200 36.66500 32.83500
H  44.65000 36.43000 31.09400
H  45.79800 37.85800 31.57400
H  48.71700 34.81400 32.22500
H  48.25100 33.12100 32.07100
H  48.97700 34.11000 34.39400
H  47.58900 33.02300 34.39200
H  47.76300 40.68900 27.34000
H  49.08200 40.11500 28.26400
H  47.42000 39.93400 28.85100
H  49.51200 40.60600 25.78100
H  47.91000 40.98200 25.05500
H  49.35900 40.87500 24.02200
H  49.32300 34.08100 22.84900
H  46.95900 32.15600 22.60300
H  47.64200 35.62900 21.64300
H  46.49800 34.33900 21.65300
H  48.04900 34.24300 20.77000
H  49.30800 31.23800 24.22600
H  49.83700 31.58300 22.63800
H  48.85400 29.43800 22.08000
H  47.40200 30.06200 22.78000
H  48.59200 29.27200 23.89100
H  46.23100 28.67100 26.05600
H  44.58300 28.76300 26.59400
H  45.77100 28.05200 27.64300
H  44.42000 31.93400 31.19100
H  45.06800 32.18500 35.06600
H  46.00500 30.56900 34.93800
H  44.22300 30.70800 35.03200

