158

Mg 48.05400 15.90400 29.16600
C  45.76000 15.55900 31.71100
C  50.05900 17.71600 31.29600
C  50.08700 16.54100 26.54400
C  45.54200 14.56600 26.94000
N  47.88600 16.62100 31.29700
C  46.90000 16.26800 32.15600
C  47.35700 16.46600 33.61600
C  48.46400 17.53500 33.40000
C  48.88000 17.32100 31.95100
C  47.89800 18.97200 33.57400
C  47.93000 15.11800 34.18700
C  47.95900 14.89200 35.74500
H  48.01500 16.16200 36.68200
N  49.82300 16.90000 28.92000
C  50.50800 17.56100 29.93700
C  51.84900 17.96500 29.47800
C  51.89100 17.64500 28.07500
C  50.53400 17.00200 27.78800
C  52.88000 18.67800 30.23100
C  52.99900 17.84000 27.04300
O  52.94300 17.43800 25.91800
C  54.23000 18.71400 27.36700
N  47.77200 15.76400 27.06300
C  48.78400 16.06300 26.21300
C  48.27400 15.76400 24.76700
C  47.03400 14.90500 24.88400
C  46.75700 15.09100 26.40800
C  48.05900 17.09400 24.01700
C  47.27900 13.38400 24.50600
C  46.22100 12.82400 23.50500
N  46.11300 15.10900 29.24400
C  45.25400 14.60000 28.31600
C  44.04600 14.20200 28.94900
C  44.20400 14.50800 30.30800
C  45.46600 15.06200 30.45300
C  42.86800 13.59900 28.23000
C  43.59100 14.46400 31.59800
O  42.44800 14.07200 31.86000
C  44.59200 15.19100 32.58300
C  43.90900 16.35600 33.25900
O  43.24900 17.23200 32.76100
O  44.18100 16.20300 34.61300
C  43.41700 17.18800 35.42900
H  50.84600 18.12300 31.93500
H  50.77600 16.64900 25.70500
H  44.91100 14.01300 26.24100
H  46.50000 16.80300 34.19900
H  49.22000 17.45100 34.18100
H  48.59700 19.53600 34.19100
H  46.85100 18.96400 33.87700
H  47.91700 19.48100 32.61000
H  48.96600 15.05700 33.85500
H  47.51300 14.25500 33.66600
H  48.85700 14.32100 35.97800
H  47.15800 14.27000 36.14600
H  53.79900 18.10600 30.10500
H  52.75900 18.70800 31.31400
H  52.94400 19.74500 30.01500
H  53.74800 19.67000 27.56900
H  54.77900 18.77100 26.42700
H  54.84400 18.23300 28.12900
H  49.04300 15.20300 24.23600
H  46.21300 15.35600 24.32600
H  47.07800 17.09900 23.54300
H  48.76400 17.10800 23.18600
H  48.21100 17.87500 24.76300
H  47.26300 12.74000 25.38500
H  48.24700 13.41300 24.00600
H  45.30300 13.40700 23.42200
H  45.85400 11.88300 23.91500
H  46.72100 12.77700 22.53700
H  42.88600 12.51500 28.33800
H  42.80300 13.64800 27.14300
H  41.93000 13.97000 28.64300
H  45.02900 14.45900 33.26200
H  42.52600 16.63100 35.71800
H  43.27600 18.17900 34.99800
H  43.89300 17.36300 36.39300
Mg 48.27900 24.23500 28.07500
C  49.32500 26.56300 30.57100
C  47.44700 21.98400 30.54500
C  47.27400 22.19800 25.65400
C  49.63400 26.47300 25.66900
N  48.36800 24.28300 30.29800
C  48.76000 25.38500 31.09200
C  48.45500 25.10400 32.55100
C  48.05700 23.57300 32.56700
C  47.91300 23.27100 31.03700
C  49.05100 22.58400 33.27600
C  47.39900 26.03900 33.17800
C  47.97800 26.61800 34.55400
H  47.11200 27.01300 35.72200
N  47.50900 22.37100 28.11300
C  47.28200 21.55000 29.18800
C  46.71300 20.29300 28.72500
C  46.55400 20.43100 27.31100
C  47.14000 21.68900 26.94500
C  46.23900 19.17300 29.67700
C  45.96400 19.45900 26.34500
O  46.20000 19.51800 25.13300
C  45.08000 18.30300 26.74300
N  48.58000 24.31200 25.99300
C  47.90700 23.36800 25.22500
C  48.10300 23.71800 23.70600
C  48.81000 25.16900 23.76300
C  49.04000 25.33700 25.20500
C  48.85800 22.63900 22.86700
C  47.92800 26.26800 23.16200
C  48.57900 27.55800 22.66900
N  49.33400 26.10900 28.06000
C  49.79200 26.89300 27.01900
C  50.41800 28.09900 27.48500
C  50.22900 28.00200 28.86900
C  49.67700 26.76800 29.17000
C  51.14800 29.06600 26.63300
C  50.56800 28.63900 30.14400
O  51.14100 29.65900 30.42900
C  49.99800 27.77900 31.35400
C  51.03400 27.36700 32.21700
O  51.91500 26.54000 31.93100
O  50.92700 27.94600 33.42200
C  51.78500 27.51500 34.53000
H  47.18100 21.40600 31.43200
H  46.79000 21.64700 24.84500
H  49.95000 27.19200 24.90900
H  49.43000 25.20100 33.02900
H  47.10300 23.35000 33.04600
H  49.36400 21.77600 32.61500
H  48.53600 22.14100 34.12800
H  49.94100 22.96900 33.77400
H  46.45300 25.57000 33.45000
H  47.10300 26.75700 32.41300
H  48.53700 27.54000 34.39800
H  48.65000 25.82600 34.88600
H  46.61500 18.22300 29.29700
H  45.14900 19.15300 29.70300
H  46.61000 19.39400 30.67800
H  45.58800 17.57600 27.37600
H  44.77200 17.72700 25.87100
H  44.19500 18.74700 27.19800
H  47.08300 23.88900 23.36400
H  49.79200 25.08200 23.29700
H  48.91200 21.59900 23.18800
H  49.85500 23.02400 22.64800
H  48.29000 22.73000 21.94200
H  47.36000 26.67900 23.99700
H  47.21700 25.93800 22.40400
H  48.30300 27.78800 21.64000
H  49.65800 27.51800 22.81400
H  48.19500 28.38000 23.27400
H  50.42300 29.46800 25.92500
H  51.97300 28.54500 26.14700
H  51.60500 29.89400 27.17500
H  49.22500 28.43300 31.75600
H  52.85000 27.64900 34.33700
H  51.60500 26.47300 34.79500
H  51.44200 28.10600 35.37900

