158

Mg 6.21800 52.93800 41.77800
C  5.53200 49.40500 41.40900
C  9.07600 52.50900 40.07400
C  6.49800 56.14000 41.83500
C  3.00500 53.16700 43.29800
N  7.12600 51.19400 40.91200
C  6.71100 49.93100 40.82000
C  7.68200 49.13800 39.92100
C  8.98900 49.99300 39.92200
C  8.37400 51.35900 40.30500
C  9.97700 49.41800 40.94900
C  7.00600 49.02900 38.53400
C  7.46500 47.81300 37.78800
H  7.92500 48.08200 36.30500
N  7.61900 54.24300 41.05700
C  8.74400 53.84100 40.41600
C  9.53100 55.03600 40.09000
C  8.77600 56.19200 40.50500
C  7.57000 55.53800 41.17100
C  10.79300 54.98500 39.29100
C  9.14200 57.65100 40.28600
O  10.23100 57.98400 39.74700
C  8.06100 58.69400 40.46700
N  4.79800 54.44700 42.22000
C  5.29800 55.71900 42.32400
C  4.35900 56.64300 42.98200
C  3.24000 55.70700 43.49900
C  3.70000 54.29700 43.01800
C  4.88200 57.69900 44.09000
C  1.81200 56.15900 43.08300
C  0.74900 55.95800 44.07200
N  4.52600 51.60200 42.19600
C  3.33300 51.86600 42.83600
C  2.63400 50.62700 43.19100
C  3.44100 49.60600 42.59200
C  4.63000 50.26400 42.05800
C  1.37500 50.43800 43.90400
C  3.63500 48.16400 42.49000
O  2.95700 47.28200 42.93700
C  4.96000 47.92900 41.57100
C  4.59200 47.18300 40.36300
O  3.50400 47.28200 39.82400
O  5.51200 46.21900 40.12500
C  5.09500 45.04100 39.36000
H  10.04200 52.41600 39.57400
H  6.65300 57.21300 41.96000
H  2.00200 53.33100 43.69800
H  7.85900 48.19900 40.44400
H  9.51300 50.03400 38.96700
H  10.91200 49.24800 40.41400
H  9.67900 48.46300 41.38000
H  10.26000 50.21500 41.63600
H  7.24400 49.86500 37.87500
H  5.94600 48.84100 38.69900
H  6.67600 47.07600 37.63300
H  8.26900 47.35500 38.36500
H  11.20300 54.04300 38.92700
H  11.53700 55.32700 40.01000
H  10.77200 55.67400 38.44600
H  8.47600 59.59900 40.02200
H  8.04200 59.05100 41.49700
H  7.09600 58.39500 40.05900
H  4.02200 57.29000 42.17200
H  3.43300 55.58400 44.56400
H  5.85400 58.17400 43.95400
H  4.61300 57.46000 45.11900
H  4.22100 58.49400 43.74500
H  1.60500 55.66700 42.13200
H  1.88100 57.24600 43.02800
H  0.09200 55.17700 43.68700
H  0.15600 56.84000 44.31100
H  1.09300 55.46100 44.97900
H  1.35300 51.15600 44.72400
H  1.31900 49.43100 44.31700
H  0.51100 50.57500 43.25400
H  5.63700 47.32600 42.17600
H  4.03300 44.84400 39.50300
H  5.75700 44.25400 39.72300
H  5.28700 45.22100 38.30200
Mg -6.13600 25.38900 26.16500
C  -4.43300 26.34000 28.93900
C  -8.05800 23.33300 28.21100
C  -7.15000 23.75700 23.34400
C  -3.94500 27.33100 24.17600
N  -6.18200 24.85800 28.30800
C  -5.45200 25.46500 29.28300
C  -6.09800 25.29700 30.67100
C  -7.04300 24.09100 30.39200
C  -7.11100 24.04700 28.87300
C  -6.63500 22.78900 31.17700
C  -6.83300 26.58300 31.18500
C  -7.04500 26.56000 32.82400
H  -6.50500 25.44400 33.75800
N  -7.52800 23.99500 25.84100
C  -8.23000 23.23600 26.78600
C  -9.20000 22.45000 26.13200
C  -8.98500 22.59200 24.74100
C  -7.88500 23.42300 24.57300
C  -10.36600 21.66100 26.88500
C  -9.72200 21.88200 23.61600
O  -9.53700 22.09800 22.40500
C  -10.68500 20.75300 23.88100
N  -5.57400 25.53800 24.06100
C  -6.15200 24.66500 23.13200
C  -5.54800 24.96400 21.68700
C  -4.57600 26.16800 21.88300
C  -4.72900 26.37100 23.43200
C  -5.02400 23.65100 21.07900
C  -5.05500 27.40800 21.07600
C  -4.13100 28.08400 20.07600
N  -4.57600 26.66600 26.44000
C  -3.81000 27.46100 25.55200
C  -2.78600 28.12100 26.29700
C  -2.91700 27.66200 27.67000
C  -4.07800 26.84500 27.67600
C  -1.75000 28.98000 25.71200
C  -2.47800 27.76200 29.04700
O  -1.49300 28.36200 29.51100
C  -3.48100 27.07900 29.95000
C  -2.80400 26.21400 30.82800
O  -2.20700 25.25700 30.48800
O  -2.86900 26.79900 32.10200
C  -2.20200 25.95500 33.20100
H  -8.76600 22.70500 28.75500
H  -7.53100 23.27800 22.44000
H  -3.30000 27.88600 23.49200
H  -5.29900 25.06800 31.37500
H  -8.04400 24.18000 30.81500
H  -7.22800 22.82300 32.09100
H  -5.58400 22.84800 31.46000
H  -6.90300 21.91300 30.58600
H  -7.81100 26.56800 30.70600
H  -6.34100 27.39300 30.64600
H  -8.13400 26.57800 32.85500
H  -6.69400 27.51000 33.22800
H  -11.36500 21.74800 26.45900
H  -10.43700 22.01500 27.91300
H  -10.18700 20.58500 26.88600
H  -11.62500 21.06400 24.33700
H  -10.18700 20.02300 24.51900
H  -11.01900 20.27200 22.96200
H  -6.45600 25.23700 21.15000
H  -3.56400 25.91800 21.56500
H  -5.22800 22.78000 21.70100
H  -3.98700 23.74400 20.75500
H  -5.64900 23.51400 20.19600
H  -5.26800 28.19200 21.80200
H  -5.93800 27.12300 20.50300
H  -4.51100 28.25900 19.07000
H  -3.22700 27.50000 19.90300
H  -3.78700 29.09300 20.30700
H  -2.15300 29.59500 24.90700
H  -0.89400 28.46800 25.27200
H  -1.28000 29.54000 26.52000
H  -4.11000 27.75000 30.53600
H  -2.69000 24.98800 33.32000
H  -2.32100 26.51700 34.12700
H  -1.15800 25.85300 32.90500

