158

Mg 24.15300 -4.54000 45.59100
C  26.32000 -2.34600 44.03600
C  21.52700 -3.29500 43.73100
C  22.49200 -7.45500 45.96600
C  27.03700 -6.15800 47.16400
N  23.97800 -2.95000 44.09300
C  24.97500 -2.19000 43.51700
C  24.44500 -1.29200 42.39100
C  22.89400 -1.49600 42.50500
C  22.77100 -2.70100 43.53400
C  22.02800 -0.24800 42.88100
C  25.16900 -1.64200 41.05900
C  25.56500 -0.48000 40.20900
H  25.03900 -0.55000 38.84600
N  22.19300 -5.30200 45.03100
C  21.27000 -4.52700 44.34200
C  20.02500 -5.25000 44.32300
C  20.26700 -6.52100 44.97200
C  21.67000 -6.45200 45.36300
C  18.74500 -4.64700 43.65800
C  19.23800 -7.61200 45.16600
O  18.15100 -7.50200 44.63800
C  19.42300 -8.79600 46.02900
N  24.73400 -6.55200 46.27000
C  23.81500 -7.49700 46.44200
C  24.46100 -8.88800 46.87600
C  25.89100 -8.42900 47.30200
C  25.93700 -6.99400 46.89200
C  23.76100 -9.63800 48.06600
C  27.04000 -9.29200 46.73600
C  28.12800 -10.00900 47.55200
N  26.14700 -4.23800 45.87300
C  27.10600 -4.90100 46.57000
C  28.38400 -4.18900 46.35700
C  28.09300 -3.18400 45.43700
C  26.70000 -3.30600 45.09600
C  29.71500 -4.68000 46.81200
C  28.67000 -2.15900 44.63200
O  29.87800 -1.84500 44.44300
C  27.53100 -1.56300 43.73500
C  27.32500 -0.12400 43.92400
O  26.63000 0.39500 44.83300
O  28.00500 0.53000 42.94500
C  28.11900 1.95800 42.97200
H  20.76300 -2.79300 43.13300
H  22.10100 -8.43700 46.23700
H  27.88400 -6.49200 47.76700
H  24.77200 -0.31800 42.75700
H  22.58500 -1.77100 41.49700
H  22.32300 0.69300 42.41700
H  21.98000 -0.12600 43.96300
H  21.00000 -0.33100 42.52900
H  24.43300 -2.19400 40.47400
H  25.80700 -2.48000 41.34100
H  26.64900 -0.36900 40.19100
H  25.14600 0.45000 40.59300
H  18.28300 -5.36300 42.97900
H  18.96100 -3.70800 43.14800
H  18.01300 -4.55500 44.46000
H  19.68500 -8.38400 47.00300
H  20.25600 -9.26700 45.50800
H  18.51400 -9.39500 46.08800
H  24.62100 -9.54700 46.02300
H  25.87400 -8.30000 48.38400
H  24.45500 -9.58000 48.90500
H  23.46800 -10.68200 47.94600
H  22.83200 -9.10600 48.26800
H  27.56700 -8.71500 45.97600
H  26.62400 -10.02500 46.04500
H  29.02100 -9.40300 47.70700
H  28.34000 -11.01900 47.20100
H  27.75200 -9.98900 48.57500
H  29.90600 -5.60100 46.26100
H  29.63000 -4.75600 47.89600
H  30.47600 -3.95100 46.53400
H  27.83100 -1.74800 42.70400
H  28.64200 2.21200 43.89400
H  27.10300 2.35200 42.94800
H  28.55200 2.30300 42.03300
Mg 34.22900 3.76800 29.61500
C  32.17300 4.74300 32.25900
C  36.88100 3.56500 31.75900
C  36.13000 2.84500 27.02300
C  31.47200 4.29700 27.41300
N  34.49400 4.29500 31.66600
C  33.51100 4.49200 32.60700
C  34.08600 4.37500 34.06500
C  35.59300 4.40200 33.79700
C  35.65800 3.99200 32.32000
C  36.27100 5.76500 34.25800
C  33.44500 3.19400 34.86800
C  33.34200 3.22500 36.35500
H  33.97200 4.40400 37.08700
N  36.21000 3.37600 29.36700
C  37.15500 3.29400 30.37000
C  38.43100 2.94100 29.77100
C  38.27100 2.65700 28.42400
C  36.77700 2.94200 28.22700
C  39.75200 2.91100 30.54000
C  39.31200 2.28500 27.37500
O  39.06500 2.44800 26.19600
C  40.59200 1.65400 27.75100
N  33.76000 3.38900 27.61000
C  34.80000 3.08100 26.69700
C  34.30700 3.10600 25.29100
C  32.85200 3.61300 25.36100
C  32.64200 3.73300 26.90300
C  35.17000 3.94100 24.34900
C  31.96100 2.61000 24.57900
C  31.39000 1.37000 25.28100
N  32.22400 4.31900 29.78500
C  31.23700 4.54000 28.81500
C  29.97600 4.92400 29.42600
C  30.26200 5.02200 30.83500
C  31.62200 4.66700 30.98100
C  28.61200 5.18100 28.68000
C  29.76600 5.28200 32.16700
O  28.61800 5.58200 32.51000
C  30.99500 5.18000 33.14100
C  31.10500 6.49000 33.82200
O  31.25500 7.60600 33.27000
O  31.04000 6.32600 35.13000
C  31.41400 7.47800 35.97800
H  37.79800 3.45200 32.34000
H  36.81700 2.58600 26.21500
H  30.70400 4.60000 26.69800
H  33.62000 5.22300 34.56600
H  35.94600 3.55000 34.37800
H  37.00800 5.56500 35.03600
H  35.42900 6.39300 34.54800
H  36.69400 6.19200 33.34900
H  33.96400 2.28700 34.55800
H  32.44100 3.01000 34.48500
H  33.73000 2.29200 36.76500
H  32.27700 3.30400 36.57400
H  39.64400 3.56100 31.40900
H  40.60300 3.20400 29.92500
H  40.07900 1.90500 30.80100
H  40.99400 1.02000 26.96100
H  40.40800 0.99400 28.59900
H  41.37800 2.37300 27.98100
H  34.40800 2.09000 24.90800
H  32.82300 4.56700 24.83400
H  35.92000 4.51000 24.89800
H  34.61600 4.67600 23.76600
H  35.69300 3.30800 23.63200
H  32.40200 2.33000 23.62300
H  31.09500 3.19200 24.26200
H  31.37600 0.54100 24.57300
H  30.36800 1.56500 25.60500
H  32.10900 1.00100 26.01300
H  27.87100 5.40900 29.44700
H  28.23100 4.31000 28.14800
H  28.71900 6.01100 27.98100
H  30.80100 4.35900 33.83200
H  31.61300 7.05000 36.96100
H  30.65800 8.26300 35.96200
H  32.35500 7.87900 35.60100

