158

Mg 8.13300 1.79900 27.80300
C  9.81700 0.46000 30.61000
C  6.47100 3.94100 29.91500
C  6.17500 2.57500 25.15900
C  9.56600 -0.80800 25.87100
N  8.07600 1.99600 30.03000
C  8.92300 1.44900 30.94700
C  8.60000 1.93100 32.33300
C  7.33100 2.82000 32.08500
C  7.32600 2.99700 30.56300
C  5.98200 2.38800 32.71400
C  9.89200 2.58600 32.96100
C  10.19200 2.42700 34.44200
H  9.07600 2.29900 35.50100
N  6.67500 3.14700 27.52300
C  6.23600 4.02700 28.49100
C  5.36700 5.02600 27.83200
C  5.15700 4.63000 26.53400
C  6.03600 3.46300 26.28900
C  4.72700 6.15300 28.62900
C  4.17900 5.18300 25.51300
O  4.08000 4.86900 24.34000
C  3.32700 6.32200 25.87900
N  7.90500 1.01600 25.80000
C  6.94600 1.46000 24.92400
C  6.85900 0.57300 23.66600
C  8.04700 -0.41400 23.90000
C  8.61200 -0.05900 25.25500
C  5.35000 0.01400 23.43300
C  9.10400 -0.45900 22.71600
C  9.47900 -1.85900 22.27200
N  9.50400 0.29300 28.01900
C  10.00000 -0.67600 27.19700
C  10.86200 -1.55200 27.91200
C  10.83000 -1.10500 29.25400
C  10.01500 0.00300 29.25900
C  11.59100 -2.82900 27.42000
C  11.34300 -1.39900 30.58400
O  12.21500 -2.18000 30.89600
C  10.64000 -0.38700 31.50700
C  9.76800 -1.18700 32.52700
O  8.67000 -1.61700 32.34000
O  10.35200 -1.17400 33.76400
C  9.70500 -1.90000 34.84800
H  5.85800 4.56600 30.56700
H  5.47300 2.77700 24.34700
H  9.96200 -1.64200 25.28700
H  8.51900 1.05500 32.97700
H  7.51600 3.80800 32.50500
H  5.75200 3.08700 33.51900
H  6.11900 1.49400 33.32200
H  5.24300 2.14800 31.94900
H  9.79700 3.64100 32.70300
H  10.77400 2.28800 32.39300
H  10.59000 3.40900 34.69700
H  10.94300 1.68800 34.72200
H  4.71200 7.11000 28.10700
H  5.16700 6.42200 29.58900
H  3.66200 5.93800 28.71400
H  2.88800 5.99600 26.82200
H  2.60300 6.45500 25.07500
H  3.79300 7.29000 26.06900
H  7.17900 1.18700 22.82400
H  7.60500 -1.39300 24.08600
H  4.73600 0.08300 24.33100
H  5.41100 -1.05200 23.21800
H  4.92200 0.59100 22.61300
H  10.00400 0.13300 22.88600
H  8.65800 0.04000 21.85500
H  9.11700 -1.78400 21.24700
H  8.84300 -2.62400 22.71800
H  10.56600 -1.86700 22.34900
H  12.67600 -2.79700 27.52700
H  11.29100 -3.06300 26.39900
H  11.18200 -3.57400 28.10300
H  11.46500 -0.00500 32.10700
H  9.34900 -2.84000 34.42600
H  8.88800 -1.33600 35.29900
H  10.41300 -2.13700 35.64200
Mg -0.92500 34.34500 26.79500
C  -1.95500 32.89300 29.78700
C  0.77600 36.73800 28.79500
C  -0.15200 36.05300 24.09900
C  -2.63600 31.93500 25.02300
N  -0.40000 34.58100 29.09500
C  -0.99500 33.89200 30.15200
C  -0.55400 34.32000 31.48200
C  0.17200 35.70200 31.10400
C  0.19600 35.73200 29.55300
C  -0.45100 36.95400 31.78300
C  0.22300 33.20400 32.20300
C  -0.53800 32.66200 33.43400
H  -0.00900 32.77200 34.81500
N  0.28800 36.02900 26.49500
C  0.98800 36.87800 27.35400
C  1.82700 37.82500 26.66000
C  1.66300 37.55800 25.30000
C  0.52300 36.62000 25.18500
C  2.85300 38.64600 27.37800
C  2.35100 38.25200 24.09200
O  1.97300 38.02200 22.92800
C  3.44300 39.29100 24.35400
N  -1.58300 34.14000 24.87700
C  -1.02400 34.92200 23.89500
C  -1.46800 34.49300 22.52900
C  -1.95100 33.04800 22.84400
C  -2.07900 33.00100 24.35400
C  -2.54000 35.42700 21.89800
C  -0.95100 31.94000 22.21500
C  0.25500 31.34100 22.97600
N  -2.12100 32.80400 27.24500
C  -2.78400 31.87200 26.46500
C  -3.40000 30.85000 27.19300
C  -3.21000 31.29300 28.56200
C  -2.38200 32.43900 28.51300
C  -4.47400 29.84200 26.65600
C  -3.43600 30.94300 29.97200
O  -4.01900 30.03200 30.51700
C  -2.80700 32.14600 30.74800
C  -4.00900 32.89700 31.37700
O  -4.57500 33.78700 30.75500
O  -4.57200 32.29000 32.50800
C  -5.81300 32.85600 32.97900
H  1.34500 37.51300 29.31300
H  0.09400 36.55100 23.15900
H  -2.97000 31.09600 24.41000
H  -1.52600 34.66100 31.83700
H  1.20100 35.73600 31.46100
H  0.36400 37.53600 32.21400
H  -1.18000 36.83900 32.58500
H  -0.88200 37.46500 30.92200
H  1.16000 33.63700 32.55500
H  0.47200 32.43900 31.46800
H  -0.79700 31.63500 33.17600
H  -1.45100 33.25600 33.47500
H  3.85400 38.23400 27.24700
H  2.66100 38.71700 28.44800
H  2.87500 39.66400 26.99000
H  2.85600 40.14300 24.69700
H  4.04300 39.53200 23.47600
H  4.13300 39.07400 25.16900
H  -0.60200 34.46800 21.86700
H  -2.92600 32.76200 22.44900
H  -3.05100 35.96600 22.69500
H  -3.40100 35.04300 21.35000
H  -2.10000 36.15900 21.22000
H  -0.61400 32.37200 21.27200
H  -1.62100 31.09300 22.07100
H  0.37700 31.74900 23.98000
H  1.14900 31.50900 22.37600
H  0.13900 30.26400 23.09400
H  -5.44100 30.34400 26.65400
H  -4.44300 28.98900 27.33400
H  -4.24000 29.70800 25.60000
H  -2.17500 31.77400 31.55500
H  -6.32500 32.10100 33.57600
H  -6.41700 33.31700 32.19700
H  -5.65300 33.68600 33.66600

