158

Mg 48.02800 44.84800 43.30900
C  44.60800 44.77600 42.76700
C  48.14200 41.52000 42.35500
C  51.27100 45.17500 43.20400
C  47.69500 48.24400 44.29000
N  46.45900 43.35900 42.75200
C  45.15800 43.51100 42.50900
C  44.49400 42.24100 41.87100
C  45.63400 41.21300 42.21300
C  46.88400 42.07500 42.44500
C  45.43600 40.39200 43.49900
C  44.33300 42.48200 40.38400
C  43.11400 41.82300 39.66300
H  43.31600 40.62500 38.70300
N  49.55900 43.45400 42.93000
C  49.42000 42.17600 42.53300
C  50.76600 41.59400 42.31600
C  51.68700 42.60100 42.67200
C  50.87000 43.80500 42.93600
C  50.88600 40.12700 41.95100
C  53.13700 42.46400 42.64400
O  53.64800 41.38400 42.24300
C  54.06800 43.53500 43.05300
N  49.27600 46.53100 43.47200
C  50.58800 46.38800 43.45400
C  51.39800 47.75200 43.65900
C  50.20600 48.74200 43.89200
C  49.01500 47.79100 43.98000
C  52.58300 47.83100 44.68500
C  50.18300 49.98300 42.87300
C  51.26500 51.05700 43.07700
N  46.48500 46.30200 43.47800
C  46.49700 47.63000 43.95000
C  45.09400 48.11000 44.00800
C  44.33400 47.11500 43.39600
C  45.23100 46.02200 43.19500
C  44.70600 49.50900 44.47500
C  43.03600 46.69300 42.94800
O  41.98500 47.28000 42.93200
C  43.19300 45.29600 42.32900
C  41.97300 44.46500 42.79500
O  41.41700 43.65100 42.03700
O  41.71100 44.77400 44.07500
C  40.72100 43.89600 44.69200
H  48.13700 40.47700 42.03200
H  52.33400 45.40300 43.10400
H  47.70000 49.30600 44.54200
H  43.55900 42.02100 42.38700
H  45.79000 40.55000 41.36200
H  44.38600 40.10200 43.54700
H  45.70000 40.83500 44.45900
H  45.93400 39.42200 43.50800
H  45.20300 42.06900 39.87300
H  44.30000 43.55000 40.16900
H  42.64800 42.66200 39.14700
H  42.41000 41.52700 40.44100
H  49.92200 39.66200 41.74500
H  51.44100 39.52500 42.67000
H  51.41800 40.12600 40.99900
H  54.07400 44.24600 42.22600
H  55.09500 43.17700 43.11900
H  53.80500 44.03000 43.98800
H  51.95300 47.87100 42.72900
H  50.22100 49.08100 44.92800
H  52.89300 46.83500 44.99900
H  52.23900 48.33900 45.58600
H  53.43500 48.40500 44.32000
H  49.15500 50.31900 43.00800
H  50.04800 49.55800 41.87800
H  50.79500 52.02500 43.25000
H  51.70700 51.22500 42.09500
H  52.08800 50.87600 43.76900
H  44.42100 49.40700 45.52300
H  43.83400 49.85100 43.91800
H  45.52300 50.21000 44.30700
H  42.94700 45.47600 41.28300
H  40.78300 43.56100 45.72700
H  40.70100 42.94600 44.15800
H  39.77000 44.38700 44.48500
Mg 16.39600 52.57300 26.24700
C  18.19900 50.89100 28.81100
C  14.31500 53.77200 28.61500
C  14.48400 53.91600 23.74000
C  18.52500 51.12400 23.89700
N  16.21600 52.19700 28.45900
C  17.09700 51.55800 29.30700
C  16.79200 51.87900 30.78800
C  15.42600 52.50400 30.70500
C  15.30900 52.95100 29.19600
C  14.24200 51.49200 31.11100
C  17.76500 52.92000 31.48100
C  18.01300 52.83100 33.03000
H  16.99000 52.03500 33.85500
N  14.54600 53.63500 26.19800
C  13.88500 54.07700 27.23500
C  12.84000 55.04100 26.85600
C  12.84100 55.05000 25.42600
C  13.93700 54.12300 25.02900
C  12.01100 55.72100 27.88000
C  11.97700 55.87100 24.53500
O  12.03900 55.77400 23.34500
C  10.93500 56.80200 25.16600
N  16.34100 52.35700 24.14700
C  15.52800 53.14600 23.33400
C  16.04500 53.05300 21.89700
C  17.48100 52.46600 22.07300
C  17.46000 51.91200 23.42100
C  15.10300 52.17900 21.01800
C  18.72400 53.34000 21.75900
C  19.69100 52.81900 20.69900
N  17.95400 51.09400 26.30500
C  18.74400 50.70600 25.22500
C  19.81000 49.82000 25.78900
C  19.67900 49.90500 27.16600
C  18.53000 50.64700 27.45000
C  20.88200 49.12700 25.05300
C  20.13400 49.45300 28.44000
O  21.10900 48.69900 28.71100
C  19.25300 50.19800 29.54300
C  18.68300 49.11100 30.45800
O  18.07000 48.07700 30.13500
O  19.09400 49.50500 31.70900
C  19.06200 48.38700 32.68000
H  13.71700 54.24200 29.39800
H  13.97600 54.43000 22.92100
H  19.28600 50.89300 23.14900
H  16.82300 51.00300 31.43600
H  15.25700 53.39600 31.30900
H  14.69400 50.64100 31.62000
H  13.74900 51.07100 30.23400
H  13.56900 52.07500 31.73900
H  17.32700 53.90500 31.32000
H  18.71200 53.02900 30.95300
H  18.22500 53.78400 33.51500
H  18.96000 52.30100 33.14100
H  12.07500 56.79300 27.69700
H  12.21400 55.33200 28.87700
H  10.94600 55.57700 27.69700
H  10.38400 56.11300 25.80500
H  10.28500 57.19100 24.38100
H  11.51400 57.56500 25.68700
H  15.99100 54.08000 21.53600
H  17.52500 51.54500 21.49100
H  14.18700 51.81800 21.48500
H  15.59900 51.37000 20.48100
H  14.70900 52.97000 20.38000
H  19.28700 53.55100 22.66800
H  18.29500 54.25100 21.34100
H  19.52500 53.38300 19.78100
H  19.37100 51.78000 20.62700
H  20.75200 52.83900 20.94800
H  21.10700 49.77500 24.20600
H  20.47300 48.20400 24.64100
H  21.84000 48.98100 25.55200
H  19.97700 50.78800 30.10500
H  19.00800 47.43700 32.14700
H  18.02600 48.32800 33.01300
H  19.67700 48.42400 33.57900

