158

Mg -2.16900 17.15000 26.27900
C  -2.43200 15.05800 28.90300
C  -2.36800 19.87700 28.37900
C  -2.17300 19.07400 23.61900
C  -2.58700 14.37200 24.11300
N  -2.18500 17.46400 28.49600
C  -2.40000 16.42400 29.34500
C  -2.66700 16.91700 30.81300
C  -3.01600 18.48700 30.49000
C  -2.51900 18.64600 29.04600
C  -4.49600 18.93900 30.46200
C  -1.41600 16.76600 31.73000
C  -1.64500 17.14500 33.21800
H  -1.67400 16.04100 34.30800
N  -2.12900 19.14400 26.03400
C  -2.08500 20.17500 27.01600
C  -1.90600 21.44700 26.40400
C  -1.85900 21.20500 25.03800
C  -2.05600 19.75600 24.86300
C  -1.89100 22.73400 27.17900
C  -1.69200 22.23400 23.92300
O  -1.69200 21.93900 22.72300
C  -1.48200 23.74400 24.26600
N  -2.55100 16.80000 24.17600
C  -2.44400 17.78900 23.28100
C  -2.58300 17.36000 21.82800
C  -2.61500 15.80400 21.99100
C  -2.64800 15.62700 23.50700
C  -3.92300 17.96800 21.18000
C  -1.43900 14.93200 21.43300
C  -0.00600 15.09900 21.94100
N  -2.50700 15.23500 26.40700
C  -2.52000 14.16500 25.48300
C  -2.54300 12.91600 26.16500
C  -2.61500 13.25400 27.48400
C  -2.44900 14.63200 27.61200
C  -2.41800 11.60700 25.59800
C  -2.81300 12.69200 28.75100
O  -3.06500 11.53700 29.04400
C  -2.69300 13.85200 29.70700
C  -1.58200 13.45600 30.59400
O  -0.39400 13.63000 30.44100
O  -2.15900 12.86800 31.73400
C  -1.31100 12.35400 32.77000
H  -2.52400 20.73800 29.03200
H  -1.98800 19.72700 22.76300
H  -2.51800 13.49400 23.46600
H  -3.51900 16.34700 31.18400
H  -2.47600 19.07200 31.23400
H  -5.32700 18.23700 30.51700
H  -4.71000 19.45000 29.52300
H  -4.57800 19.72900 31.20900
H  -0.59800 17.42700 31.44400
H  -1.14500 15.71200 31.65900
H  -2.56600 17.72100 33.30900
H  -0.80100 17.73800 33.56800
H  -1.83900 22.61400 28.26100
H  -2.66400 23.44700 26.89400
H  -0.92600 23.13800 26.87500
H  -1.40400 24.36200 23.37100
H  -0.58800 23.87200 24.87500
H  -2.38600 24.06000 24.78800
H  -1.74000 17.74000 21.25100
H  -3.46900 15.29600 21.54100
H  -4.47600 18.65600 21.82000
H  -4.64800 17.17600 20.99000
H  -3.57900 18.51200 20.30000
H  -1.32700 15.33600 20.42700
H  -1.77300 13.92300 21.18800
H  0.45100 15.79700 21.24000
H  0.62700 14.21400 21.88000
H  0.01800 15.63900 22.88700
H  -3.33400 11.14400 25.23200
H  -1.94900 10.92300 26.30500
H  -1.74400 11.73500 24.75100
H  -3.63100 13.82200 30.26100
H  -0.83600 13.18900 33.28400
H  -0.51300 11.68200 32.45200
H  -1.79100 11.66900 33.46700
Mg 26.38800 51.10500 26.57200
C  24.21100 52.21000 29.20300
C  28.81800 50.49700 28.98500
C  28.49400 50.75300 24.02700
C  23.99000 52.38400 24.44600
N  26.51100 51.42500 28.76900
C  25.48700 51.76700 29.61500
C  25.96900 51.57300 31.09600
C  27.53100 51.32700 30.97000
C  27.65100 51.02000 29.49400
C  28.55300 52.50700 31.35400
C  25.14200 50.45600 31.92200
C  24.34700 50.86400 33.20300
H  24.60100 49.92800 34.38800
N  28.34600 50.55500 26.51800
C  29.15400 50.27800 27.60500
C  30.36500 49.71200 27.19400
C  30.28200 49.70900 25.71300
C  29.02700 50.37900 25.35900
C  31.37500 49.09700 28.17000
C  31.32400 49.18200 24.67500
O  31.11300 49.29000 23.45600
C  32.53100 48.56900 25.22800
N  26.33200 51.70400 24.56500
C  27.29500 51.35800 23.66600
C  26.89800 51.73800 22.21800
C  25.37400 51.91100 22.38400
C  25.23100 52.05900 23.88700
C  27.73300 52.99000 21.77100
C  24.52700 50.75700 21.87600
C  23.06500 51.09600 21.62600
N  24.50200 52.03200 26.74700
C  23.63100 52.43100 25.76100
C  22.32000 52.78900 26.29900
C  22.55400 52.81600 27.68000
C  23.86800 52.32700 27.84600
C  21.06000 53.11700 25.48900
C  21.94700 53.02800 28.97500
O  20.85200 53.46300 29.32800
C  23.00200 52.65900 29.98200
C  23.23700 53.90900 30.80200
O  23.94000 54.91600 30.51000
O  22.64900 53.79000 32.02100
C  22.97600 54.84200 33.04800
H  29.55700 50.27700 29.75800
H  29.16400 50.67200 23.16900
H  23.25800 52.76800 23.73200
H  25.88100 52.59100 31.47600
H  27.86900 50.45100 31.52400
H  29.01600 52.42600 32.33700
H  28.00300 53.44800 31.36200
H  29.33200 52.61700 30.59900
H  25.82300 49.66400 32.23400
H  24.46200 49.99400 31.20700
H  23.27400 50.87500 33.01000
H  24.42900 51.93300 33.40000
H  31.08300 48.04700 28.19600
H  31.34600 49.49400 29.18400
H  32.38500 49.22100 27.77900
H  33.13300 49.31800 25.74100
H  33.08000 48.17300 24.37300
H  32.34000 47.78800 25.96400
H  27.10900 50.91000 21.54000
H  25.04800 52.82200 21.88100
H  28.64100 53.03300 22.37100
H  27.15800 53.91600 21.80500
H  28.07700 52.78200 20.75800
H  24.65600 50.01500 22.66300
H  24.90600 50.38300 20.92500
H  22.54400 50.56200 22.42000
H  22.73300 50.63400 20.69600
H  22.92300 52.17500 21.67400
H  21.10700 54.20600 25.50000
H  20.12400 52.81400 25.95900
H  21.18400 52.67900 24.49800
H  22.71100 51.80100 30.58800
H  23.66100 55.63600 32.75000
H  23.33600 54.28400 33.91200
H  22.12000 55.46100 33.31600

