158

Mg 1.00100 8.36100 26.40300
C  1.81500 10.22800 29.11700
C  1.19600 5.49900 28.46700
C  0.79400 6.49500 23.67400
C  1.37800 11.19600 24.35000
N  1.41900 7.93000 28.57000
C  1.51600 8.91100 29.44300
C  1.52600 8.36400 30.90400
C  1.56600 6.74800 30.68300
C  1.40500 6.71200 29.11200
C  2.82600 5.95800 31.21700
C  0.32800 8.95100 31.79500
C  -0.09700 8.28300 33.16800
H  1.07200 7.71300 33.97100
N  0.95500 6.25000 26.10700
C  1.09600 5.23600 27.06000
C  1.03400 3.99200 26.39100
C  0.79700 4.28400 24.95000
C  0.89200 5.75600 24.86600
C  0.96800 2.71900 27.13400
C  0.51600 3.33000 23.87100
O  -0.02600 3.69000 22.83200
C  0.72200 1.94300 24.04400
N  1.05200 8.85600 24.31900
C  0.77800 7.85500 23.44400
C  0.62300 8.39900 22.01100
C  0.46600 9.93200 22.31800
C  0.98900 10.06100 23.75900
C  1.76400 7.90500 21.09200
C  -0.95300 10.45900 22.15600
C  -1.33000 10.70600 20.69500
N  1.67000 10.29100 26.61100
C  1.82200 11.31300 25.69500
C  2.13300 12.51600 26.42500
C  2.21300 12.14100 27.74400
C  1.88800 10.77300 27.81400
C  2.46400 13.83400 25.81800
C  2.58800 12.54400 29.08900
O  2.89500 13.68200 29.49100
C  2.22500 11.33700 30.07000
C  3.45200 10.93600 30.79100
O  4.38400 10.23600 30.27500
O  3.51000 11.52200 32.02500
C  4.76600 11.49900 32.77000
H  1.17400 4.60300 29.09000
H  0.65400 5.85100 22.80400
H  1.37300 12.11300 23.75700
H  2.50600 8.63500 31.29700
H  0.64000 6.23800 30.94800
H  3.57500 6.53700 31.75700
H  3.28300 5.45300 30.36600
H  2.44200 5.24800 31.95000
H  -0.53000 8.93800 31.12200
H  0.59100 9.99100 31.99200
H  -0.86900 7.52600 33.03000
H  -0.56000 9.04700 33.79300
H  0.26300 2.01000 26.70000
H  0.74600 2.76800 28.20000
H  1.91500 2.18600 27.04300
H  1.66200 1.71700 24.54700
H  0.86500 1.56200 23.03300
H  -0.13100 1.40500 24.45900
H  -0.25100 8.00300 21.49500
H  1.13300 10.54300 21.71100
H  2.34300 7.09600 21.53800
H  2.51000 8.69700 21.16500
H  1.41400 7.76400 20.07000
H  -1.01700 11.30200 22.84500
H  -1.59200 9.70100 22.60800
H  -0.50300 10.44200 20.03500
H  -1.36500 11.79000 20.58400
H  -2.31300 10.38000 20.35500
H  1.48300 14.30700 25.84000
H  3.03100 13.81600 24.88700
H  3.06200 14.41400 26.52200
H  1.53800 11.76600 30.80000
H  5.05700 12.52700 32.98300
H  5.56500 10.83900 32.43200
H  4.51300 11.20900 33.79000
Mg 1.23600 42.26300 25.43800
C  2.41600 42.44300 28.89400
C  -1.41800 40.41700 26.79700
C  0.25400 41.94500 22.41700
C  4.45500 43.56100 24.45000
N  0.64200 41.52500 27.62800
C  1.12000 42.02800 28.82400
C  0.07700 41.84500 30.01800
C  -1.01500 40.94000 29.29700
C  -0.58500 40.86800 27.80000
C  -1.32900 39.66500 29.99300
C  -0.48400 43.18500 30.68300
C  -0.44600 43.33900 32.20200
H  -0.59100 42.11100 33.10900
N  -0.32300 41.33500 24.68200
C  -1.36800 40.68100 25.30900
C  -2.35900 40.30700 24.38000
C  -1.93400 40.77800 23.06500
C  -0.61200 41.38400 23.34500
C  -3.66900 39.67100 24.82400
C  -2.64100 40.72800 21.71300
O  -2.22000 41.27900 20.75800
C  -3.94400 40.00600 21.61700
N  2.20000 42.77200 23.71400
C  1.53900 42.47400 22.53800
C  2.28600 42.91700 21.36000
C  3.41800 43.74900 21.94000
C  3.41900 43.30900 23.50200
C  2.86000 41.62500 20.60700
C  3.48200 45.24600 21.69300
C  4.01400 45.74500 20.28700
N  3.13900 42.70700 26.45900
C  4.30900 43.26900 25.89300
C  5.24300 43.45700 26.97000
C  4.49700 43.22000 28.15400
C  3.23100 42.74200 27.78500
C  6.64200 43.95800 26.82800
C  4.59200 43.14100 29.63700
O  5.57000 43.47100 30.32700
C  3.19800 42.64800 30.14300
C  3.41700 41.34900 30.76800
O  3.70900 40.30800 30.21300
O  3.21100 41.44300 32.12300
C  3.05200 40.22700 32.92600
H  -2.31100 39.92000 27.18400
H  -0.23800 41.96600 21.44200
H  5.44900 43.90000 24.15200
H  0.49200 41.20400 30.79600
H  -1.89600 41.57700 29.22400
H  -2.30900 39.78100 30.45600
H  -0.64600 39.23400 30.72500
H  -1.57700 38.83800 29.32900
H  -1.49800 43.32800 30.31100
H  0.26500 43.88700 30.31900
H  -1.24500 44.04600 32.42500
H  0.46800 43.86000 32.48700
H  -3.90600 39.86200 25.87100
H  -3.53800 38.62600 24.54600
H  -4.53300 39.97800 24.23400
H  -3.72500 38.97500 21.89300
H  -4.26500 40.04000 20.57600
H  -4.74800 40.45900 22.19700
H  1.71900 43.58600 20.71300
H  4.39200 43.42900 21.57000
H  3.07500 41.94700 19.58900
H  2.14900 40.79800 20.61900
H  3.72300 41.25000 21.15700
H  4.20800 45.70000 22.36800
H  2.51100 45.63600 21.99700
H  3.99800 44.93100 19.56200
H  5.00100 46.18700 20.42200
H  3.30700 46.42200 19.80700
H  7.10900 43.14900 26.26600
H  7.06700 44.13600 27.81600
H  6.86500 44.77400 26.14200
H  2.79000 43.37100 30.84900
H  2.04900 39.81400 32.82300
H  3.33100 40.28600 33.97800
H  3.73100 39.42100 32.64800

