158

Mg 17.53400 -0.96000 28.53700
C  16.79200 1.20300 31.07600
C  19.60000 -2.79000 30.76600
C  19.02000 -2.53600 25.88500
C  16.02300 1.28500 26.27900
N  18.25500 -0.66400 30.64900
C  17.63000 0.11700 31.50700
C  17.82200 -0.31700 32.96500
C  18.95100 -1.36500 32.85600
C  18.88500 -1.68600 31.34600
C  20.41300 -0.93700 33.22200
C  16.35900 -0.77300 33.57600
C  15.89800 -0.34100 34.96600
H  17.07500 -0.00100 35.94500
N  18.96400 -2.46500 28.35200
C  19.63000 -3.11500 29.39100
C  20.36600 -4.27200 28.82000
C  20.27700 -4.15800 27.35300
C  19.43600 -2.96100 27.14600
C  20.96500 -5.40000 29.61300
C  20.93200 -5.02100 26.35400
O  20.96800 -4.75300 25.16000
C  21.62500 -6.29300 26.77000
N  17.66000 -0.62200 26.38100
C  18.26200 -1.46200 25.51100
C  18.00700 -1.08800 24.03700
C  16.94300 0.06900 24.24500
C  16.82800 0.28900 25.70400
C  19.22900 -0.70700 23.13300
C  15.57800 -0.20800 23.53000
C  14.48600 -1.13600 24.20400
N  16.47200 0.81300 28.62300
C  15.82800 1.59300 27.69700
C  15.22500 2.77000 28.31900
C  15.51700 2.55400 29.66500
C  16.28300 1.40100 29.75500
C  14.61300 3.93400 27.76400
C  15.38800 3.15500 31.00600
O  14.83900 4.19000 31.30700
C  16.09700 2.24900 31.94200
C  17.01300 3.07600 32.76000
O  18.02600 3.63300 32.34500
O  16.47800 3.28900 34.00000
C  17.16700 4.33600 34.83700
H  20.09500 -3.41100 31.51500
H  19.37800 -3.05400 24.99300
H  15.42300 1.93700 25.64200
H  18.21100 0.60800 33.38900
H  18.64000 -2.22800 33.44500
H  21.18400 -1.07300 32.46400
H  20.78100 -1.50800 34.07400
H  20.42600 0.13700 33.40300
H  16.45500 -1.85100 33.69900
H  15.61700 -0.60000 32.79600
H  15.36500 -1.11500 35.51700
H  15.35800 0.60500 35.01600
H  20.33300 -6.25700 29.38400
H  20.86500 -5.28400 30.69300
H  22.03900 -5.49300 29.45400
H  22.48900 -6.16500 27.42100
H  21.91300 -6.78000 25.83800
H  20.89900 -6.89900 27.31300
H  17.40100 -1.89100 23.61600
H  17.32100 0.98100 23.78300
H  20.15200 -0.97200 23.64800
H  19.28300 0.36100 22.92200
H  19.27500 -1.23700 22.18200
H  15.80200 -0.66900 22.56800
H  15.02800 0.73200 23.49700
H  13.49500 -0.71600 24.37900
H  14.75800 -1.62300 25.14000
H  14.36400 -2.05000 23.62200
H  14.63000 4.80500 28.42000
H  13.56300 3.72300 27.56100
H  15.13200 4.08100 26.81700
H  15.27700 1.77500 32.48100
H  16.66300 5.25600 34.54300
H  18.24200 4.45600 34.69900
H  16.95400 3.96500 35.83900
Mg -4.58800 25.26500 25.92200
C  -3.89800 27.04400 28.85900
C  -5.93500 22.84500 27.89200
C  -4.93700 23.47900 23.10900
C  -2.50300 27.40400 24.18000
N  -4.79900 24.92200 28.13800
C  -4.54200 25.78900 29.10900
C  -5.13800 25.33600 30.39700
C  -5.40800 23.87000 30.15800
C  -5.44100 23.86300 28.60900
C  -4.35300 22.81500 30.61700
C  -6.40000 26.22300 30.71600
C  -6.63600 26.55500 32.22500
H  -6.15300 25.52200 33.34200
N  -5.50200 23.55100 25.56400
C  -6.00400 22.63500 26.49400
C  -6.58000 21.49400 25.78000
C  -6.28800 21.73500 24.41300
C  -5.56800 23.00300 24.30400
C  -7.43300 20.39900 26.44000
C  -6.74100 21.01500 23.15500
O  -6.53100 21.41300 22.00000
C  -7.39500 19.69800 23.26500
N  -4.05100 25.58200 23.84900
C  -4.26800 24.65100 22.94100
C  -3.44500 24.88300 21.60700
C  -2.58900 26.20500 22.01900
C  -3.14400 26.48300 23.42200
C  -2.71400 23.65800 21.10400
C  -2.70000 27.44200 21.02800
C  -1.50100 28.19400 20.77300
N  -3.47500 26.91100 26.34200
C  -2.67800 27.72700 25.51200
C  -2.08600 28.73000 26.31500
C  -2.59500 28.60600 27.61900
C  -3.42600 27.40800 27.58600
C  -1.10800 29.70000 25.79600
C  -2.56200 29.10800 28.98500
O  -1.86000 30.01900 29.42900
C  -3.44700 28.10500 29.85400
C  -2.55400 27.52300 30.89000
O  -1.46600 27.00000 30.66900
O  -3.29300 27.57400 32.07400
C  -2.43700 27.07900 33.17400
H  -6.39300 22.03200 28.46100
H  -4.82000 22.81500 22.25000
H  -1.83600 28.04900 23.60400
H  -4.44000 25.54600 31.20700
H  -6.42000 23.64000 30.49000
H  -3.53100 23.26300 31.17600
H  -3.91700 22.25900 29.78800
H  -4.77000 22.09600 31.32200
H  -7.24800 25.75100 30.21900
H  -6.33500 27.13000 30.11500
H  -7.72100 26.60300 32.32100
H  -6.39100 27.58200 32.49300
H  -7.22700 19.42400 25.99900
H  -8.44800 20.56700 26.07900
H  -7.25400 20.24600 27.50500
H  -6.76400 19.02200 23.84200
H  -7.50600 19.31700 22.25000
H  -8.41600 19.78300 23.63800
H  -4.18400 25.15500 20.85400
H  -1.55000 25.88300 22.08300
H  -1.88700 24.06500 20.52300
H  -3.41400 23.11100 20.47200
H  -2.23200 23.05200 21.87100
H  -3.55400 28.02700 21.36900
H  -3.17300 27.11100 20.10300
H  -1.73300 29.23100 20.52900
H  -0.92600 27.70500 19.98600
H  -0.89700 28.32000 21.67100
H  -0.14000 29.24200 25.99800
H  -1.28100 30.63900 26.32200
H  -1.19900 29.80200 24.71500
H  -4.27900 28.57700 30.37600
H  -2.28000 26.00800 33.04500
H  -2.91900 27.33600 34.11800
H  -1.41800 27.45600 33.26400

