158

Mg 1.35900 8.51300 27.48100
C  2.12500 10.18200 30.34500
C  2.02100 5.50800 29.20500
C  1.28300 6.72600 24.55100
C  1.75800 11.41200 25.60200
N  1.84300 7.96100 29.59100
C  2.04800 8.80600 30.63700
C  2.05400 8.05100 31.98600
C  2.15400 6.50800 31.52900
C  2.09400 6.67100 29.98800
C  3.41000 5.73600 31.95700
C  0.78400 8.46300 32.90300
C  1.05600 9.00700 34.28100
H  2.26000 8.54100 35.09500
N  1.44100 6.47400 26.97800
C  1.72000 5.40600 27.83300
C  1.51100 4.15200 27.10400
C  1.09700 4.47000 25.74800
C  1.29000 5.92900 25.70800
C  1.82800 2.79300 27.72700
C  0.65800 3.57000 24.59800
O  0.20800 4.04800 23.55800
C  0.69600 2.13400 24.87600
N  1.46200 9.01000 25.31700
C  1.45300 8.10000 24.30400
C  1.85700 8.77000 22.94000
C  1.69600 10.31900 23.31500
C  1.61600 10.28800 24.82700
C  3.26800 8.18600 22.53700
C  0.58600 11.12000 22.58500
C  -0.88700 10.73300 23.10800
N  1.78000 10.46200 27.86900
C  1.86600 11.56000 27.02800
C  2.14000 12.74000 27.81700
C  2.22100 12.28000 29.15300
C  2.03800 10.87300 29.11400
C  2.37300 14.10300 27.19700
C  2.51800 12.66100 30.55600
O  2.79300 13.71800 31.12500
C  2.29500 11.35800 31.40000
C  3.48600 11.28400 32.27000
O  4.60500 10.93100 31.93800
O  3.21800 11.80400 33.50200
C  4.44700 12.00200 34.33100
H  2.05300 4.56800 29.76000
H  1.27700 6.14900 23.62400
H  1.76800 12.36200 25.06300
H  2.88300 8.30000 32.64800
H  1.23600 6.01400 31.84800
H  4.28700 6.37300 32.06500
H  3.73500 5.05200 31.17300
H  3.17800 5.00600 32.73300
H  0.09900 7.61700 32.96600
H  0.23500 9.25400 32.39300
H  0.14100 8.92400 34.86600
H  1.24400 10.07800 34.20300
H  0.92400 2.22600 27.94900
H  2.48300 2.83800 28.59700
H  2.37600 2.31800 26.91300
H  0.33900 1.39300 24.16100
H  0.06100 1.79300 25.69400
H  1.74300 1.83400 24.93600
H  1.10700 8.46000 22.21200
H  2.54900 10.95200 23.07000
H  3.27100 7.71500 21.55400
H  3.54700 7.40600 23.24600
H  3.99600 8.99600 22.58200
H  0.64000 10.73700 21.56600
H  0.82800 12.18000 22.66200
H  -1.57700 10.66600 22.26700
H  -1.21900 11.61000 23.66400
H  -0.97500 9.84200 23.72900
H  1.63800 14.22600 26.40100
H  3.40200 14.31200 26.90400
H  2.09300 14.72300 28.04800
H  1.35600 11.58000 31.90600
H  4.71800 13.04500 34.49800
H  5.34000 11.44500 34.04900
H  4.14000 11.66600 35.32200
Mg 45.20100 4.69900 46.50700
C  42.96900 7.45500 46.58600
C  42.26800 2.74000 46.13900
C  47.13400 2.10200 45.71100
C  47.85600 6.95100 46.06000
N  42.85600 5.09500 46.33600
C  42.25500 6.30200 46.45800
C  40.69800 6.18200 46.32300
C  40.48500 4.65000 46.36700
C  41.97700 4.10800 46.35700
C  39.59300 4.09600 47.51700
C  40.03300 6.94800 45.08300
C  40.81300 6.77500 43.77500
H  40.11000 6.23700 42.50600
N  44.71200 2.69100 45.95100
C  43.47600 2.09000 45.92300
C  43.73300 0.64800 45.87100
C  45.08600 0.48100 45.44200
C  45.73400 1.81700 45.67500
C  42.61100 -0.32400 45.70500
C  45.76800 -0.76400 44.92900
O  45.19900 -1.84200 44.87500
C  47.12100 -0.76600 44.30600
N  47.20300 4.59000 45.93500
C  47.82600 3.39000 45.77500
C  49.33400 3.53100 45.47600
C  49.50100 5.10800 45.63700
C  48.09600 5.61800 45.85300
C  50.39400 2.75800 46.32800
C  50.23400 5.85600 44.45700
C  49.39200 5.96500 43.18800
N  45.41900 6.72800 46.43500
C  46.58200 7.55200 46.32100
C  46.16900 8.94200 46.62400
C  44.80500 8.93000 46.67700
C  44.36000 7.57900 46.57400
C  47.06800 10.17400 46.55100
C  43.71200 9.78900 46.83000
O  43.54200 11.01200 46.86600
C  42.40100 8.80800 46.77600
C  41.71100 8.88800 48.12200
O  41.94800 8.14800 49.08800
O  40.67000 9.79300 48.01200
C  39.83300 10.00000 49.20700
H  41.38400 2.10900 46.25300
H  47.75700 1.20600 45.67900
H  48.70000 7.64100 46.00100
H  40.39800 6.73500 47.21300
H  40.04700 4.30500 45.43000
H  38.85700 3.37200 47.16600
H  38.95800 4.91000 47.86600
H  40.20100 3.62800 48.29100
H  39.98400 8.01300 45.31300
H  38.96400 6.73700 45.11100
H  41.60200 6.03500 43.90800
H  41.27300 7.71500 43.47000
H  42.39800 -0.95300 46.56900
H  42.79200 -1.02600 44.89100
H  41.63900 0.15900 45.60800
H  47.85200 -0.90400 45.10300
H  47.20200 0.11100 43.66300
H  47.24400 -1.61600 43.63600
H  49.46700 3.15300 44.46300
H  49.98600 5.29700 46.59400
H  49.92600 2.37200 47.23300
H  51.25700 3.38200 46.56300
H  50.85700 1.94200 45.77400
H  51.11800 5.34000 44.08200
H  50.55600 6.87300 44.67900
H  49.98800 5.46000 42.42700
H  49.17500 6.92800 42.72800
H  48.41600 5.49700 43.31200
H  46.67500 11.19000 46.58300
H  47.60000 10.30100 45.60800
H  47.76400 10.23600 47.38800
H  41.71500 9.15100 46.00100
H  39.97000 9.06400 49.74700
H  38.84700 10.39900 48.96600
H  40.35700 10.76200 49.78300

