158

Mg 1.56400 -0.69600 43.79500
C  4.96800 -0.57600 42.95200
C  1.12400 2.02800 41.78100
C  -1.72000 -1.58000 43.65800
C  2.19700 -3.83400 45.32700
N  2.91700 0.56400 42.46700
C  4.24000 0.39700 42.29400
C  4.80000 1.50500 41.39000
C  3.53500 2.36600 41.10900
C  2.46500 1.62200 41.79800
C  3.54000 3.89500 41.35800
C  5.45000 0.87300 40.14800
C  6.80700 1.54000 39.77900
H  6.86100 2.20400 38.43400
N  -0.13500 0.23700 43.05000
C  -0.10000 1.35400 42.23200
C  -1.41400 1.62600 41.86400
C  -2.25400 0.65000 42.44100
C  -1.38400 -0.32200 43.05100
C  -1.73200 2.89900 41.14200
C  -3.81900 0.73000 42.39200
O  -4.43900 1.72600 41.98800
C  -4.68200 -0.29900 42.86900
N  0.42700 -2.45400 44.47000
C  -0.90000 -2.58200 44.22700
C  -1.44700 -3.98000 44.54600
C  -0.13900 -4.72400 45.06900
C  0.89300 -3.59500 44.91500
C  -2.54900 -3.83600 45.57400
C  0.30500 -6.01400 44.28300
C  0.65700 -7.32900 45.11600
N  3.23300 -1.91600 44.24700
C  3.30900 -3.10900 44.93600
C  4.74300 -3.41800 45.12300
C  5.42000 -2.44300 44.38300
C  4.43600 -1.58000 43.80400
C  5.32000 -4.69800 45.79800
C  6.73600 -2.06500 43.89600
O  7.81100 -2.62600 44.01400
C  6.50200 -0.82200 42.98400
C  7.23200 0.17000 43.65500
O  6.89300 0.65700 44.71800
O  8.28600 0.50400 42.83600
C  8.89100 1.81300 43.18900
H  0.92700 2.99600 41.31800
H  -2.71900 -1.99000 43.49500
H  2.34100 -4.76100 45.88600
H  5.45200 2.05100 42.07100
H  3.22900 2.45600 40.06600
H  4.47300 4.45300 41.43800
H  3.14100 4.08600 42.35500
H  2.96800 4.41400 40.58800
H  4.82900 1.00700 39.26200
H  5.64000 -0.18700 40.31700
H  7.54700 0.74100 39.74900
H  7.05200 2.35000 40.46600
H  -1.74800 2.55700 40.10700
H  -0.98600 3.68100 41.28400
H  -2.65900 3.39000 41.43700
H  -5.74100 -0.13000 42.67500
H  -4.49700 -0.40500 43.93800
H  -4.41100 -1.23500 42.38100
H  -1.82100 -4.38300 43.60500
H  -0.31200 -4.89200 46.13200
H  -2.40300 -4.55500 46.38100
H  -3.44700 -4.14600 45.03900
H  -2.62100 -2.78800 45.86300
H  1.18500 -5.90300 43.64900
H  -0.48200 -6.25500 43.56800
H  0.78600 -7.04400 46.16100
H  1.50800 -7.82700 44.65100
H  -0.19700 -7.98200 44.94100
H  5.75100 -4.44700 46.76700
H  6.11600 -5.13200 45.19300
H  4.50200 -5.38600 46.01000
H  6.98200 -1.12600 42.05400
H  8.21000 2.54800 43.61800
H  9.16900 2.18100 42.20200
H  9.85300 1.75900 43.69800
Mg 25.85600 50.18000 25.68500
C  23.97800 51.18300 28.32900
C  28.19600 48.85400 27.99000
C  27.85300 49.32000 23.15700
C  23.67900 51.63700 23.41000
N  26.11800 50.13400 27.92700
C  25.13600 50.60000 28.81600
C  25.58500 50.43500 30.29600
C  26.89900 49.62600 30.09500
C  27.12400 49.54800 28.58800
C  28.03000 50.12900 30.95000
C  24.46200 49.79600 31.15200
C  24.79700 49.04000 32.44600
H  24.09100 49.56800 33.69300
N  27.70100 49.22700 25.57300
C  28.50200 48.75400 26.61600
C  29.72200 48.19300 26.06200
C  29.71200 48.54900 24.66800
C  28.35100 49.07700 24.42100
C  30.71800 47.49600 26.87500
C  30.87500 48.39200 23.67800
O  30.82000 48.74200 22.53000
C  32.19700 47.88100 24.16700
N  25.66600 50.31900 23.55400
C  26.65300 49.77900 22.70100
C  26.30000 50.10700 21.26100
C  24.81000 50.77900 21.38700
C  24.68000 50.94300 22.90100
C  27.35600 51.02700 20.53800
C  23.59500 49.91700 20.85600
C  23.57700 49.82200 19.30600
N  24.24300 51.21500 25.77900
C  23.45700 51.78700 24.82700
C  22.24500 52.32400 25.47300
C  22.43200 52.15500 26.85100
C  23.64900 51.48800 27.01800
C  21.07500 52.95500 24.74400
C  21.81100 52.34100 28.13700
O  20.73200 52.74500 28.49700
C  22.83800 51.69600 29.19300
C  23.21300 52.84100 30.10900
O  24.09400 53.66800 29.99400
O  22.30900 52.64700 31.24600
C  22.60300 53.63100 32.31100
H  28.83200 48.43900 28.77500
H  28.58500 49.01400 22.40600
H  22.91400 52.09200 22.77800
H  25.77000 51.41900 30.72700
H  26.66100 48.60200 30.38200
H  28.82500 50.32100 30.22900
H  28.44500 49.41100 31.65700
H  27.73400 51.01300 31.51400
H  23.97600 49.14700 30.42400
H  23.94600 50.69900 31.47900
H  25.85800 49.24100 32.59900
H  24.53800 47.98600 32.34500
H  30.31700 47.28800 27.86700
H  31.68800 47.99100 26.92400
H  30.84000 46.49500 26.46200
H  32.12600 46.89800 24.63300
H  32.58600 48.55800 24.92700
H  32.92000 47.96500 23.35600
H  26.16600 49.15900 20.74000
H  24.89300 51.73700 20.87200
H  28.26700 51.28900 21.07700
H  26.98000 51.94800 20.09300
H  27.75400 50.59500 19.62000
H  22.60400 50.31500 21.07400
H  23.77300 48.94600 21.32000
H  23.64000 48.80100 18.92900
H  24.32400 50.42600 18.79100
H  22.68900 50.11100 18.74500
H  20.88000 52.41200 23.81900
H  21.21400 53.96800 24.36700
H  20.09900 52.80100 25.20400
H  22.32700 50.90800 29.74700
H  22.96400 54.60400 31.98000
H  23.29400 53.24200 33.06000
H  21.74900 53.82200 32.96000

