158

Mg 25.45200 1.03100 29.24300
C  27.39600 0.94600 32.23600
C  22.67600 1.16500 31.28900
C  23.59100 0.65800 26.57100
C  28.43100 0.19000 27.47700
N  25.08600 1.04600 31.47100
C  26.03200 1.18100 32.51700
C  25.40600 1.50100 33.85600
C  23.93900 1.35300 33.46400
C  23.86200 1.08600 31.96500
C  23.18700 0.33800 34.33600
C  25.80100 2.93600 34.37500
C  26.50700 2.91900 35.77100
H  25.77900 3.82700 36.80100
N  23.42900 0.97900 28.99500
C  22.42700 1.07600 29.93100
C  21.13500 1.11200 29.23900
C  21.42600 1.00100 27.87600
C  22.83700 0.83900 27.75400
C  19.84800 1.33600 29.93600
C  20.49100 0.97600 26.63200
O  20.83400 0.93000 25.47300
C  18.90600 0.87600 26.83800
N  25.99700 0.42000 27.32300
C  24.95800 0.42400 26.36200
C  25.50600 0.18500 25.01000
C  27.03300 0.39800 25.23600
C  27.25100 0.35800 26.78500
C  25.01100 -1.19500 24.41100
C  27.81000 1.65200 24.71400
C  27.31700 3.00600 25.28400
N  27.53600 0.61900 29.72300
C  28.59300 0.29100 28.91400
C  29.72300 0.18200 29.67000
C  29.34300 0.52100 30.96300
C  27.97200 0.70500 31.00400
C  31.07000 -0.13300 29.15000
C  29.92100 0.87500 32.26800
O  31.05100 0.87000 32.69700
C  28.55700 1.07100 33.15700
C  28.62700 0.10700 34.26800
O  28.10700 -1.03600 34.25300
O  29.18600 0.68300 35.38800
C  29.34400 -0.21000 36.54600
H  21.80400 1.28700 31.93400
H  23.10800 0.52100 25.60100
H  29.33900 0.13500 26.87200
H  25.74700 0.65300 34.45000
H  23.48100 2.33000 33.62100
H  23.83100 -0.37000 34.85900
H  22.63600 -0.36600 33.71200
H  22.60000 0.79800 35.13100
H  24.89600 3.53500 34.47300
H  26.46300 3.45800 33.68400
H  27.44400 3.41200 35.51200
H  26.52100 1.88200 36.10400
H  19.45700 2.34000 29.77200
H  19.99100 1.26900 31.01500
H  19.01500 0.73000 29.58000
H  18.59000 -0.02700 27.36100
H  18.46600 0.93000 25.84300
H  18.68900 1.79300 27.38700
H  25.10000 1.01000 24.42500
H  27.51200 -0.49200 24.82500
H  24.46700 -1.66200 25.23100
H  25.84100 -1.88800 24.27300
H  24.39200 -1.14900 23.51400
H  27.87700 1.73600 23.63000
H  28.87600 1.55800 24.92100
H  26.77000 2.98200 26.22600
H  26.75000 3.47700 24.48100
H  28.19900 3.59900 25.52700
H  31.07900 -0.45900 28.11000
H  31.49800 -0.93900 29.74700
H  31.80000 0.67200 29.23600
H  28.66400 2.04200 33.63900
H  28.61100 0.06300 37.30500
H  30.26000 0.08400 37.05800
H  29.49800 -1.28300 36.43100
Mg 53.38400 25.47800 44.79300
C  50.96100 27.71700 43.54300
C  51.41500 22.86300 43.81800
C  56.10700 23.27700 45.06600
C  55.51200 28.14800 45.36700
N  51.54000 25.41600 43.58900
C  50.67400 26.35600 43.23400
C  49.53300 25.84700 42.41900
C  49.41000 24.36800 43.07800
C  50.90000 24.18200 43.55100
C  48.43200 24.19900 44.28200
C  49.70100 25.68000 40.84500
C  48.70300 26.26300 39.89800
H  49.21300 26.61100 38.49700
N  53.77500 23.30000 44.44200
C  52.77200 22.47400 44.10300
C  53.31000 21.17000 44.20100
C  54.63500 21.21700 44.57500
C  54.94000 22.59500 44.67000
C  52.38600 19.92500 43.98600
C  55.50700 19.97100 44.87300
O  55.03000 18.86200 44.87000
C  57.01800 20.01100 45.17800
N  55.57400 25.62600 45.08300
C  56.42700 24.56900 45.23900
C  57.80400 25.11700 45.74100
C  57.62900 26.67300 45.74900
C  56.17000 26.87200 45.32700
C  58.32400 24.38100 47.01700
C  58.58100 27.41600 44.75500
C  59.70100 28.15300 45.46700
N  53.21600 27.50500 44.72000
C  54.20000 28.48100 45.03800
C  53.46700 29.74800 45.05100
C  52.22200 29.47600 44.35600
C  52.16100 28.12700 44.16600
C  53.98900 31.01700 45.61600
C  51.00800 30.09300 43.80900
O  50.77500 31.30300 43.69300
C  50.06000 28.91400 43.24900
C  49.67700 29.14400 41.89600
O  50.45200 29.08700 40.93300
O  48.35100 29.44900 41.86600
C  47.81000 29.85800 40.55600
H  50.61700 22.12700 43.69700
H  56.95100 22.63500 45.32600
H  56.12000 28.97800 45.73400
H  48.69900 26.50000 42.67500
H  49.28100 23.61900 42.29700
H  47.83700 23.31000 44.07200
H  47.72500 25.02700 44.34000
H  48.98100 24.09200 45.21800
H  49.89700 24.65300 40.53900
H  50.52600 26.34200 40.58300
H  48.28700 27.16800 40.34100
H  47.87200 25.56000 39.85000
H  52.88900 19.00400 43.69100
H  51.59300 20.21100 43.29600
H  51.86700 19.71800 44.92200
H  57.31600 18.98900 45.40900
H  57.29100 20.69600 45.98100
H  57.53400 20.46500 44.33300
H  58.56800 24.90200 44.99400
H  57.71900 27.04600 46.76900
H  58.91200 25.03900 47.65800
H  58.92200 23.47800 46.89600
H  57.44300 24.10200 47.59500
H  58.03800 28.12000 44.12400
H  59.15300 26.69700 44.16800
H  60.58400 27.52800 45.33800
H  59.52200 28.19900 46.54200
H  59.87000 29.14900 45.05600
H  54.99400 30.85600 46.00600
H  53.39000 31.34800 46.46500
H  54.00800 31.76300 44.82300
H  49.25400 28.69900 43.95100
H  47.32900 29.02000 40.05300
H  48.61700 30.32700 39.99200
H  46.96700 30.53100 40.71600

