158

Mg -2.29200 17.03700 27.33700
C  -2.79900 15.21400 30.32200
C  -2.71100 20.03000 29.22800
C  -2.32700 18.99700 24.54600
C  -2.28800 14.18800 25.51200
N  -2.87900 17.53500 29.49300
C  -2.88300 16.63000 30.55700
C  -2.97900 17.41900 31.98600
C  -2.91900 18.94700 31.54000
C  -2.92400 18.85600 29.99500
C  -4.07700 19.85000 32.15500
C  -1.91300 17.02500 32.93400
C  -1.50100 18.02300 33.99500
H  -1.00000 17.44800 35.28800
N  -2.36600 19.29600 26.90100
C  -2.53700 20.25800 27.85600
C  -2.41900 21.57900 27.26200
C  -2.30400 21.33100 25.85400
C  -2.38100 19.81200 25.67800
C  -2.51100 22.88700 28.06200
C  -2.09300 22.23400 24.70300
O  -2.09700 21.85200 23.50000
C  -1.93100 23.68000 24.97500
N  -2.65600 16.72000 25.26600
C  -2.40400 17.60800 24.30600
C  -2.37200 16.92700 22.93100
C  -2.12800 15.46800 23.32100
C  -2.32800 15.45500 24.81400
C  -3.59800 17.22800 22.09000
C  -0.78700 14.82100 22.85100
C  0.45900 15.59700 23.29500
N  -2.44600 15.05400 27.77800
C  -2.42100 13.96800 26.94300
C  -2.64000 12.72200 27.63700
C  -2.75400 13.14200 28.97600
C  -2.67800 14.54400 29.02300
C  -2.83700 11.30300 27.11500
C  -2.95200 12.71900 30.33400
O  -3.08900 11.60100 30.80700
C  -2.81300 14.04400 31.31900
C  -1.69500 13.95600 32.21600
O  -0.59600 14.23100 31.83000
O  -1.90700 13.48900 33.47400
C  -0.68900 13.29800 34.28800
H  -2.80100 20.92200 29.85100
H  -2.07500 19.44600 23.58300
H  -2.18100 13.24800 24.96700
H  -3.97300 17.21200 32.38500
H  -1.95500 19.41300 31.74400
H  -3.56900 20.76600 32.45600
H  -4.66300 19.50300 33.00600
H  -4.74000 20.00900 31.30500
H  -0.98600 16.91200 32.37200
H  -2.17800 16.06200 33.36900
H  -2.27100 18.77800 34.15900
H  -0.67100 18.61900 33.61500
H  -3.18500 23.61400 27.60700
H  -1.50400 23.30300 28.03300
H  -2.75400 22.70600 29.10900
H  -1.03600 23.88600 25.56300
H  -2.80900 23.94300 25.56500
H  -1.99300 24.25100 24.04900
H  -1.53100 17.30700 22.35100
H  -2.87200 14.81800 22.86000
H  -4.40200 16.64000 22.53200
H  -3.38100 17.22700 21.02200
H  -4.06100 18.18800 22.31700
H  -0.75800 14.82100 21.76200
H  -0.72000 13.79500 23.21300
H  0.37500 16.48700 23.91900
H  1.05100 15.92000 22.43900
H  1.13900 14.93900 23.83600
H  -2.01400 10.67400 27.45400
H  -2.77900 11.35000 26.02700
H  -3.78800 10.86300 27.41300
H  -3.68600 14.13100 31.96600
H  -0.36500 12.30700 33.97100
H  -1.06000 13.38400 35.30900
H  0.16100 13.95900 34.11800
Mg 29.78600 57.01000 40.09500
C  27.19500 55.06100 38.76700
C  31.96700 54.63800 38.97300
C  32.15700 59.28800 40.30000
C  27.28000 59.43500 40.95600
N  29.58100 55.23300 38.84500
C  28.46100 54.57900 38.50100
C  28.69000 53.20300 37.95300
C  30.14200 52.99000 38.21100
C  30.63200 54.37000 38.72300
C  30.56700 51.89400 39.26400
C  28.35200 52.92300 36.46500
C  28.12200 54.20400 35.59600
H  28.45400 54.28300 34.15000
N  31.78300 56.95900 39.78700
C  32.51600 55.91600 39.37800
C  33.91900 56.24300 39.33900
C  34.03700 57.59700 39.71100
C  32.62200 58.01300 39.94000
C  34.98100 55.19800 39.01400
C  35.28400 58.47600 39.70300
O  36.36300 57.94700 39.41300
C  35.23500 59.99300 40.01300
N  29.75100 59.01000 40.66700
C  30.87700 59.73700 40.64900
C  30.49700 61.25900 40.85100
C  29.03800 61.18600 41.49500
C  28.58400 59.82000 40.97100
C  31.57200 62.01600 41.70300
C  28.11300 62.41200 41.09200
C  27.38000 63.06700 42.23700
N  27.66600 57.17400 40.00700
C  26.82000 58.19700 40.38100
C  25.45500 57.79400 40.11400
C  25.53700 56.52700 39.57800
C  26.88700 56.22300 39.47500
C  24.16600 58.50600 40.34700
C  24.82900 55.45400 38.98200
O  23.65100 55.31400 38.82700
C  25.88400 54.39900 38.53000
C  25.60300 53.16500 39.34900
O  26.04900 52.91700 40.47400
O  24.76300 52.35200 38.67700
C  24.44300 51.07600 39.22400
H  32.66000 53.79600 38.93000
H  32.84900 60.13200 40.29100
H  26.54900 60.14800 41.34600
H  28.09200 52.47200 38.49800
H  30.64400 52.73600 37.27800
H  29.85100 51.09700 39.46700
H  30.80000 52.31500 40.24100
H  31.44000 51.47800 38.76200
H  27.50100 52.24400 36.41200
H  29.10800 52.25900 36.04600
H  28.59900 55.05000 36.08900
H  27.03300 54.23600 35.61200
H  35.25700 55.26400 37.96200
H  34.79900 54.16600 39.31600
H  35.85300 55.42000 39.62900
H  36.29200 60.25000 39.94900
H  34.81100 60.05700 41.01500
H  34.71500 60.57100 39.24900
H  30.44300 61.70100 39.85600
H  29.08100 61.05600 42.57600
H  32.14500 61.35600 42.35400
H  31.10400 62.68900 42.42200
H  32.23600 62.77500 41.29000
H  27.40600 62.09000 40.32800
H  28.54800 63.32900 40.69500
H  26.95500 64.02100 41.92600
H  28.03300 63.16100 43.10600
H  26.49800 62.48200 42.49900
H  23.37300 57.88300 39.93400
H  24.05400 59.44700 39.80800
H  24.06300 58.64900 41.42300
H  25.65500 54.22800 37.47800
H  25.22200 50.45400 39.66500
H  24.09800 50.50300 38.36300
H  23.68800 51.07800 40.01100

