158

Mg -12.14700 37.77800 42.22400
C  -10.14300 34.89500 41.33900
C  -9.90700 39.61700 40.49200
C  -14.26300 40.22100 42.59600
C  -14.57600 35.50400 43.37100
N  -10.30300 37.20800 40.98400
C  -9.58700 36.06400 40.90900
C  -8.38600 36.22200 39.98300
C  -8.20300 37.78500 40.11100
C  -9.56300 38.24500 40.61800
C  -7.02300 38.18700 41.03500
C  -8.64200 35.60100 38.57900
C  -7.41500 35.20800 37.80300
H  -6.92600 36.05200 36.65300
N  -12.11700 39.67900 41.60800
C  -11.05800 40.30100 40.94300
C  -11.25300 41.76300 40.95400
C  -12.53700 41.96000 41.62500
C  -13.01800 40.59300 41.95700
C  -10.34800 42.78300 40.38000
C  -13.21200 43.31100 41.66500
O  -12.67400 44.31800 41.19700
C  -14.57900 43.47400 42.12100
N  -14.11000 37.92800 43.10300
C  -14.83600 39.01200 42.99400
C  -16.29100 38.91800 43.48400
C  -16.34000 37.40700 43.77100
C  -14.95600 36.86900 43.36300
C  -16.63400 40.04600 44.59400
C  -17.51100 36.66600 43.03900
C  -18.46200 35.79500 43.98200
N  -12.38600 35.56400 42.44200
C  -13.39100 34.84400 42.99000
C  -13.01400 33.41300 43.00700
C  -11.79400 33.34100 42.32300
C  -11.47600 34.70500 41.94700
C  -13.57400 32.24800 43.90300
C  -10.66800 32.45000 41.90900
O  -10.55000 31.24500 41.97900
C  -9.56500 33.40500 41.16900
C  -8.24700 33.28600 41.87100
O  -7.24700 32.98300 41.30600
O  -8.34500 33.44600 43.25600
C  -7.14100 33.08600 44.11000
H  -9.09400 40.28000 40.19000
H  -14.87000 41.10400 42.80400
H  -15.32000 34.77500 43.69800
H  -7.50300 35.77000 40.43400
H  -8.00600 38.14000 39.09900
H  -7.21500 38.93900 41.80000
H  -6.36900 38.70300 40.33200
H  -6.55100 37.30500 41.46800
H  -9.09300 36.40800 38.00100
H  -9.20500 34.66900 38.61500
H  -7.51000 34.18900 37.42600
H  -6.52300 35.20100 38.43000
H  -10.73700 43.27700 39.49000
H  -9.42400 42.29400 40.07000
H  -10.18600 43.57300 41.11400
H  -14.93800 44.46900 41.85800
H  -14.50200 43.27900 43.19100
H  -15.13100 42.71600 41.56600
H  -16.95500 39.07100 42.63300
H  -16.43500 37.31800 44.85300
H  -15.64000 40.45000 44.78400
H  -17.09200 39.53900 45.44400
H  -17.28900 40.83500 44.22400
H  -17.14400 35.95100 42.30300
H  -18.13000 37.38400 42.50000
H  -19.25900 36.33300 44.49500
H  -17.80100 35.38600 44.74600
H  -18.97000 34.97000 43.48300
H  -14.50500 32.58700 44.35800
H  -12.67500 31.95700 44.44500
H  -13.81600 31.39900 43.26400
H  -9.46800 32.99400 40.16400
H  -6.79400 32.19600 43.58500
H  -7.33500 32.91800 45.16900
H  -6.50200 33.96800 44.09500
Mg -6.23600 25.37500 25.68400
C  -4.80100 26.45000 28.62500
C  -8.30300 23.29800 27.48100
C  -7.27700 24.00700 22.81800
C  -3.68400 27.01700 23.93000
N  -6.37900 24.79000 27.74200
C  -5.78500 25.46000 28.81400
C  -6.44700 25.18900 30.18700
C  -7.19800 23.89400 29.81400
C  -7.37100 23.98100 28.25900
C  -6.63300 22.56700 30.19900
C  -7.40700 26.28800 30.77600
C  -7.62500 26.28000 32.31400
H  -6.84500 25.26800 33.19000
N  -7.61900 24.03600 25.22300
C  -8.47700 23.34800 26.10000
C  -9.55100 22.72400 25.35900
C  -9.15500 22.76600 23.98100
C  -8.00900 23.62200 23.97600
C  -10.75100 21.99800 25.98800
C  -9.87400 22.05300 22.79600
O  -9.44800 22.14300 21.63700
C  -11.02500 21.14300 23.04800
N  -5.58500 25.48800 23.64900
C  -6.12000 24.79000 22.63800
C  -5.40000 25.04100 21.27700
C  -4.35100 26.11800 21.65400
C  -4.54100 26.23900 23.18300
C  -4.90900 23.83500 20.43300
C  -4.59900 27.53300 21.02800
C  -3.67800 27.79000 19.86600
N  -4.51800 26.45500 26.14300
C  -3.61800 27.07100 25.31000
C  -2.70100 27.82800 26.08800
C  -3.17200 27.76400 27.45100
C  -4.23500 26.87600 27.40600
C  -1.54900 28.66900 25.60800
C  -2.93700 28.19700 28.75900
O  -2.15600 29.04800 29.20500
C  -3.96000 27.31900 29.65100
C  -3.23400 26.53900 30.67300
O  -2.65400 25.52600 30.37900
O  -3.14900 27.17500 31.87900
C  -2.14300 26.72500 32.86800
H  -9.15900 23.01600 28.09800
H  -7.69800 23.59500 21.89800
H  -2.88400 27.64100 23.52600
H  -5.56100 25.09800 30.81500
H  -8.18400 23.83000 30.27400
H  -6.28100 21.98400 29.34700
H  -7.34900 21.90400 30.68400
H  -5.83900 22.64200 30.94200
H  -8.40600 26.31000 30.34100
H  -6.98000 27.27400 30.59500
H  -8.66900 26.23400 32.62500
H  -7.29600 27.27000 32.62800
H  -10.80200 20.92600 25.79500
H  -11.65600 22.40600 25.53700
H  -10.90400 22.25800 27.03500
H  -11.49700 20.63300 22.20800
H  -11.83500 21.77300 23.41400
H  -10.76500 20.31900 23.71200
H  -6.05800 25.48500 20.53000
H  -3.36200 25.69000 21.49100
H  -5.44900 23.65100 19.50400
H  -4.95100 22.88100 20.95800
H  -3.85700 23.97300 20.18300
H  -4.36500 28.28500 21.78200
H  -5.64100 27.74800 20.79300
H  -4.34500 27.94100 19.01800
H  -2.94900 27.02900 19.59100
H  -2.97600 28.60800 20.03300
H  -1.88400 29.66400 25.31400
H  -0.99700 28.23900 24.77300
H  -0.88900 28.91200 26.44100
H  -4.69900 27.92500 30.17500
H  -2.52300 25.96500 33.55100
H  -1.92200 27.54500 33.55100
H  -1.26500 26.29500 32.38700

