158

Mg 54.40200 23.58400 44.08000
C  51.67800 25.72200 43.11900
C  52.80400 20.95100 42.51900
C  57.30000 22.08400 43.69200
C  55.86600 26.56600 45.11100
N  52.59900 23.42900 42.71700
C  51.57600 24.37300 42.50300
C  50.32600 23.81200 41.94500
C  50.57700 22.26400 42.22400
C  52.05200 22.15200 42.52100
C  49.86300 21.82100 43.53900
C  50.07900 24.04000 40.38400
C  51.28100 24.17000 39.37800
H  50.97900 25.05800 38.08200
N  54.93700 21.69700 43.43400
C  54.12800 20.76700 42.83900
C  54.83700 19.51100 42.86400
C  56.18500 19.82500 43.01200
C  56.16600 21.28100 43.43200
C  54.22800 18.18400 42.33300
C  57.36700 18.85000 42.86300
O  57.16300 17.64800 42.57800
C  58.74300 19.31500 43.04100
N  56.27800 24.33900 44.08700
C  57.32700 23.46300 44.07200
C  58.61600 24.15500 44.55700
C  58.17700 25.57800 45.06500
C  56.66600 25.49300 44.74800
C  59.49300 23.41900 45.68000
C  58.87700 26.76000 44.33400
C  59.19100 27.94300 45.32000
N  53.78800 25.54600 44.54800
C  54.51200 26.70200 44.95000
C  53.66800 27.90500 44.98500
C  52.53300 27.49300 44.34600
C  52.69500 26.12200 43.99800
C  53.99400 29.32300 45.48500
C  51.29800 28.00800 43.83800
O  50.89700 29.19400 43.87000
C  50.58800 26.85100 43.07000
C  50.18900 27.30100 41.70500
O  50.93000 27.51100 40.73800
O  48.87400 27.45900 41.79700
C  48.18900 28.05900 40.66100
H  52.28200 20.03200 42.24400
H  58.26900 21.60400 43.84800
H  56.36300 27.50100 45.37800
H  49.42100 24.22000 42.39400
H  50.36700 21.65600 41.34300
H  49.63000 22.74500 44.06800
H  50.37000 21.10300 44.18400
H  48.92500 21.36000 43.23000
H  49.45000 24.91700 40.23000
H  49.47600 23.24300 39.94800
H  51.62100 23.17100 39.10500
H  52.19300 24.53200 39.85200
H  53.17300 18.03300 42.56100
H  54.68000 17.26800 42.71300
H  54.17500 18.23100 41.24500
H  58.94800 19.38400 44.10900
H  58.95000 20.21200 42.45800
H  59.39700 18.47600 42.80400
H  59.17200 24.29400 43.63000
H  58.31500 25.63700 46.14500
H  60.46000 23.35000 45.18200
H  59.09500 22.42700 45.89200
H  59.62900 23.96300 46.61500
H  58.26200 27.20000 43.54800
H  59.87700 26.55800 43.95000
H  58.97200 27.69300 46.35800
H  58.60900 28.80100 44.98400
H  60.26600 28.11400 45.27400
H  54.87800 29.30500 46.12400
H  53.23500 29.77900 46.12000
H  54.22200 29.89800 44.58700
H  49.76800 26.50400 43.70000
H  48.64300 29.02600 40.44700
H  47.13300 27.83400 40.81300
H  48.55300 27.47600 39.81500
Mg -11.91100 16.79500 41.91100
C  -8.71000 15.44700 41.73300
C  -10.60500 19.84800 40.79800
C  -14.92900 18.04900 41.96700
C  -13.16000 13.59600 42.78100
N  -9.88400 17.52300 41.26300
C  -8.71100 16.77500 41.27100
C  -7.58900 17.54000 40.65900
C  -8.11400 19.07600 40.73600
C  -9.64400 18.83600 41.02300
C  -7.44300 19.99200 41.80100
C  -7.33400 17.19300 39.09100
C  -5.86300 17.39800 38.66600
H  -5.58500 18.25000 37.35200
N  -12.59600 18.66600 41.43200
C  -11.93200 19.79500 41.05200
C  -12.87100 20.87600 40.93600
C  -14.20400 20.39700 41.33400
C  -13.93000 19.00800 41.61500
C  -12.51000 22.26500 40.48100
C  -15.43300 21.20100 41.52700
O  -15.42900 22.34100 41.08400
C  -16.61700 20.78200 42.39200
N  -13.74400 16.00500 42.36300
C  -14.90300 16.68800 42.21800
C  -16.14000 15.82400 42.40400
C  -15.53200 14.53400 42.95800
C  -14.03900 14.69700 42.68500
C  -17.18400 16.54800 43.27100
C  -16.12200 13.24800 42.22300
C  -15.96700 11.85100 42.91900
N  -11.11800 14.89000 42.18000
C  -11.77700 13.70000 42.48100
C  -10.71200 12.61400 42.49800
C  -9.50900 13.29300 42.21200
C  -9.81300 14.62000 42.05800
C  -10.90100 11.15900 42.63100
C  -8.07400 13.07600 42.13000
O  -7.46900 11.98900 42.23100
C  -7.50900 14.55700 41.74300
C  -6.47100 14.98700 42.73600
O  -6.55000 15.24700 43.96800
O  -5.25200 15.02500 42.05200
C  -4.07000 15.13300 42.81900
H  -10.11800 20.82000 40.69300
H  -15.91700 18.51500 42.00100
H  -13.58600 12.60300 42.93900
H  -6.75100 17.40500 41.34200
H  -8.04400 19.58800 39.77700
H  -8.07500 20.19000 42.66700
H  -7.30200 20.98800 41.38100
H  -6.43300 19.67100 42.05600
H  -7.94100 17.88600 38.50800
H  -7.74500 16.19600 38.92900
H  -5.47700 16.40700 38.42800
H  -5.32500 17.73800 39.55100
H  -11.43600 22.44600 40.45300
H  -12.80900 22.97500 41.25200
H  -12.98700 22.43700 39.51600
H  -17.04500 21.76500 42.59100
H  -16.24700 20.27600 43.28300
H  -17.22300 20.19000 41.70700
H  -16.41600 15.63900 41.36600
H  -15.51300 14.43100 44.04300
H  -17.46300 15.97500 44.15500
H  -18.04400 16.63700 42.60700
H  -16.87100 17.54500 43.58200
H  -15.75300 13.24400 41.19700
H  -17.20000 13.39500 42.29300
H  -16.94800 11.53600 43.27200
H  -15.26800 11.91800 43.75300
H  -15.56300 11.15000 42.18700
H  -11.43800 10.85300 43.52900
H  -9.93500 10.65600 42.65300
H  -11.47000 10.76200 41.79100
H  -6.99800 14.46800 40.78500
H  -3.32500 14.84200 42.07800
H  -3.94800 14.39000 43.60700
H  -3.81700 16.10100 43.25000

