158

Mg 1.60000 -1.60300 43.94000
C  5.08400 -1.09000 43.76800
C  1.14900 1.37600 42.20300
C  -1.62500 -2.39100 43.51100
C  2.24600 -4.79500 45.15500
N  2.93300 0.05200 43.24300
C  4.33100 0.05200 43.20700
C  4.89200 1.29500 42.58100
C  3.54000 2.11200 42.32600
C  2.43200 1.06700 42.58300
C  3.38300 3.40700 43.11400
C  5.77400 0.88600 41.39700
C  5.24400 0.04300 40.27200
H  5.67800 0.36000 38.85800
N  -0.05600 -0.61600 42.99900
C  -0.00900 0.59400 42.26700
C  -1.38000 0.88900 41.81200
C  -2.19400 -0.13100 42.28000
C  -1.29500 -1.15600 42.95400
C  -1.77100 2.24100 41.14000
C  -3.74500 -0.00600 42.25300
O  -4.25400 1.04700 41.81700
C  -4.67000 -1.01700 42.93300
N  0.49100 -3.38800 44.20200
C  -0.82900 -3.33200 44.09000
C  -1.50600 -4.66200 44.56500
C  -0.25700 -5.39300 45.19800
C  0.92200 -4.48300 44.83100
C  -2.73300 -4.44000 45.61800
C  -0.01500 -6.91200 44.80600
C  0.03300 -7.76900 46.12000
N  3.29800 -2.72500 44.53300
C  3.41900 -4.02300 44.95600
C  4.77100 -4.27900 45.36600
C  5.49600 -3.15200 44.89400
C  4.53600 -2.28200 44.31200
C  5.32700 -5.50000 46.00400
C  6.76400 -2.54800 44.80900
O  7.86300 -2.99600 45.15100
C  6.53600 -1.19600 44.08400
C  7.01600 -0.11300 44.96000
O  6.58300 0.18200 46.04000
O  8.04100 0.55000 44.25400
C  8.39600 1.87600 44.72900
H  1.13000 2.31700 41.65000
H  -2.66000 -2.73700 43.52800
H  2.57500 -5.79200 45.45500
H  5.50900 1.82800 43.30400
H  3.56800 2.31500 41.25500
H  4.31800 3.91200 43.35700
H  2.83900 3.16800 44.02800
H  2.79000 4.12200 42.54400
H  6.73600 0.53400 41.77100
H  5.98600 1.82700 40.88900
H  4.15800 0.10200 40.34900
H  5.60400 -0.94600 40.55400
H  -2.13600 2.98500 41.84700
H  -2.49700 2.14200 40.33300
H  -0.85800 2.64600 40.70200
H  -5.64400 -0.81800 42.48600
H  -4.64200 -0.75500 43.99000
H  -4.29000 -2.02900 42.79100
H  -1.83700 -5.23000 43.69500
H  -0.27900 -5.31700 46.28600
H  -2.56300 -5.02300 46.52300
H  -3.72500 -4.62800 45.20800
H  -2.73300 -3.37700 45.86100
H  0.89700 -7.06600 44.22900
H  -0.85200 -7.25200 44.19600
H  -0.79400 -8.47800 46.10700
H  -0.05000 -7.14700 47.01100
H  0.96500 -8.33000 46.05400
H  4.53000 -6.17400 46.31500
H  5.89500 -5.33800 46.92100
H  6.01600 -5.94800 45.28800
H  7.22200 -1.30500 43.24400
H  9.08300 1.98200 45.56800
H  7.51200 2.47100 44.95800
H  8.98000 2.45100 44.01000
Mg -1.93600 34.53600 27.05300
C  -3.50300 32.56900 29.67800
C  -0.58000 36.42500 29.51100
C  -0.23100 36.03600 24.76600
C  -3.67200 32.49100 24.83400
N  -2.37700 34.66900 29.30200
C  -2.86100 33.69400 30.15200
C  -2.67700 34.09900 31.63000
C  -1.75800 35.34000 31.46500
C  -1.55300 35.57000 29.96700
C  -2.16100 36.56200 32.23500
C  -1.90700 32.89700 32.34900
C  -1.23800 33.16100 33.73700
H  -1.74700 32.31000 34.90600
N  -0.49500 36.02200 27.13500
C  -0.09300 36.73000 28.18800
C  1.03600 37.59300 27.86200
C  1.14600 37.54300 26.47900
C  0.08900 36.57900 26.05600
C  1.83000 38.41000 28.83400
C  1.98900 38.37100 25.49800
O  1.94600 38.18100 24.25300
C  3.00300 39.42600 25.95000
N  -2.09500 34.44700 25.06800
C  -1.13500 35.07400 24.33700
C  -1.32400 34.77700 22.88400
C  -2.57400 33.80600 22.79500
C  -2.85000 33.52500 24.29300
C  -1.51300 35.98300 21.85000
C  -2.46400 32.51000 21.89800
C  -1.22000 31.64400 22.24000
N  -3.34400 32.87800 27.19600
C  -3.88000 32.10700 26.15700
C  -4.69600 31.03900 26.72400
C  -4.52300 31.14500 28.09500
C  -3.67400 32.25800 28.32900
C  -5.56900 30.03600 26.01400
C  -4.90400 30.54400 29.38400
O  -5.54300 29.54700 29.62100
C  -4.30700 31.50100 30.48400
C  -5.41800 32.08600 31.31800
O  -5.98900 33.15800 31.08300
O  -5.49600 31.35100 32.43200
C  -6.20800 31.95000 33.59800
H  -0.08300 36.88500 30.36800
H  0.42900 36.50700 24.03500
H  -4.16400 31.87900 24.07500
H  -3.62700 34.34800 32.10200
H  -0.82700 35.07700 31.96600
H  -2.81600 37.04200 31.50800
H  -1.28000 37.15200 32.48800
H  -2.72300 36.37200 33.14900
H  -1.14100 32.48300 31.69200
H  -2.64000 32.15800 32.67100
H  -1.34300 34.23200 33.90800
H  -0.20600 32.83700 33.60200
H  2.83900 38.02000 28.70100
H  1.39500 38.15800 29.80100
H  1.75200 39.48800 28.69800
H  3.56300 39.67700 25.04900
H  3.61400 38.89300 26.67800
H  2.49800 40.17500 26.55900
H  -0.49900 34.14100 22.56200
H  -3.47400 34.29900 22.42700
H  -0.71500 35.95800 21.10900
H  -1.38900 36.93900 22.35800
H  -2.46800 35.87500 21.33400
H  -2.38900 32.82000 20.85600
H  -3.42900 32.00400 21.93300
H  -1.00600 31.71700 23.30600
H  -0.32300 32.03000 21.75500
H  -1.32500 30.56800 22.09700
H  -5.46500 30.15800 24.93500
H  -6.55400 30.43800 26.25100
H  -5.52600 28.98400 26.29700
H  -3.63400 30.93000 31.12400
H  -6.78500 32.83700 33.33300
H  -5.43500 32.31700 34.27400
H  -6.91700 31.28400 34.09000

