158

Mg 0.91700 -1.52200 42.37000
C  4.55100 -1.17300 41.47600
C  0.48100 1.50900 40.93400
C  -2.18300 -2.29400 42.17500
C  1.80000 -4.97800 42.93000
N  2.29800 -0.11000 41.28500
C  3.75100 -0.06600 41.16300
C  4.24300 1.32500 40.82500
C  2.92500 2.19800 41.03200
C  1.78900 1.10000 41.03700
C  2.95400 3.05900 42.31000
C  4.95300 1.52000 39.44700
C  4.39400 0.78800 38.19800
H  5.40100 -0.14400 37.49900
N  -0.72400 -0.37400 41.98200
C  -0.69000 0.86100 41.30300
C  -2.00200 1.32100 41.16400
C  -2.85500 0.14700 41.47100
C  -1.94400 -0.90300 41.93700
C  -2.33300 2.69900 40.63400
C  -4.36800 0.07100 41.25500
O  -5.04500 1.01500 40.84100
C  -5.16400 -1.11800 41.57600
N  -0.02200 -3.35800 42.54300
C  -1.35000 -3.34600 42.55100
C  -1.92200 -4.70500 42.73400
C  -0.65300 -5.54200 43.06200
C  0.48000 -4.53900 42.87800
C  -3.08600 -4.86400 43.74400
C  -0.56000 -6.93000 42.20000
C  -0.36600 -8.26000 43.02600
N  2.82100 -2.86800 42.38200
C  2.94300 -4.21700 42.62900
C  4.31900 -4.56700 42.59100
C  5.01800 -3.40700 42.17400
C  4.01800 -2.40000 42.04900
C  4.84200 -5.92700 42.74000
C  6.32600 -2.80300 41.75800
O  7.40100 -3.29000 41.67700
C  6.03000 -1.37100 41.34700
C  6.89800 -0.48100 42.18900
O  7.76600 0.28300 41.71700
O  6.72500 -0.58700 43.58500
C  7.58300 0.21300 44.40300
H  0.42000 2.51600 40.51600
H  -3.21200 -2.65900 42.16400
H  2.01900 -6.04400 43.02700
H  4.99600 1.50600 41.59200
H  2.66600 2.91300 40.25200
H  2.06900 2.78900 42.88600
H  2.95400 4.12200 42.07100
H  3.88900 2.89600 42.84600
H  5.97800 1.26500 39.71700
H  4.93100 2.56900 39.15200
H  4.16500 1.62100 37.53400
H  3.43900 0.27700 38.31600
H  -3.09800 3.07900 41.31200
H  -2.59600 2.76200 39.57800
H  -1.46500 3.35400 40.70500
H  -6.23600 -0.97100 41.44600
H  -5.00900 -1.55100 42.56400
H  -5.03600 -1.90800 40.83600
H  -2.32400 -5.02200 41.77200
H  -0.75500 -5.80000 44.11600
H  -3.99200 -5.03800 43.16400
H  -3.15500 -3.82500 44.06500
H  -2.92200 -5.59900 44.53100
H  0.36600 -6.85600 41.63000
H  -1.39700 -7.09400 41.52200
H  -1.37000 -8.68500 43.00800
H  -0.10100 -8.06000 44.06400
H  0.38700 -8.90900 42.57900
H  4.37300 -6.29000 43.65400
H  5.92200 -5.98600 42.86700
H  4.66600 -6.45700 41.80300
H  6.39500 -1.34300 40.32000
H  8.06300 -0.37200 45.18900
H  7.00100 1.05600 44.77500
H  8.42400 0.67600 43.88600
Mg 45.04000 5.38600 47.58300
C  43.00400 8.01100 47.33900
C  42.22200 3.27000 47.46300
C  47.08700 2.64200 47.47500
C  47.86800 7.45500 47.55800
N  42.82500 5.59400 47.45500
C  42.25700 6.83400 47.38100
C  40.72800 6.62700 47.02300
C  40.44900 5.17600 47.30100
C  41.94300 4.64000 47.47700
C  39.49400 4.96200 48.47500
C  40.47600 7.00600 45.51200
C  39.30900 8.05500 45.52900
H  38.45400 8.06600 44.21300
N  44.67400 3.23800 47.53700
C  43.45700 2.62100 47.54600
C  43.72500 1.19300 47.42300
C  45.10500 0.97800 47.30900
C  45.66000 2.31500 47.44700
C  42.67200 0.12200 47.40300
C  45.75500 -0.34900 47.06500
O  45.11100 -1.39100 46.97600
C  47.30200 -0.50700 46.84100
N  47.21000 5.09700 47.42900
C  47.82400 3.85500 47.47800
C  49.26300 3.94800 47.39700
C  49.51800 5.51600 47.54800
C  48.11500 6.09300 47.54700
C  50.13300 2.96600 48.33000
C  50.45000 6.02900 46.35200
C  51.88600 6.56200 46.71200
N  45.41800 7.33300 47.38200
C  46.57600 8.09100 47.48900
C  46.28100 9.50400 47.32300
C  44.89400 9.49200 47.38400
C  44.41000 8.14800 47.42000
C  47.16500 10.74200 47.04800
C  43.64700 10.39200 47.24100
O  43.63100 11.61400 47.13600
C  42.37700 9.41600 47.33100
C  41.47300 9.73700 48.50400
O  41.53900 9.11100 49.56300
O  40.48800 10.46900 48.05500
C  39.28700 10.55800 48.87800
H  41.35800 2.61200 47.34700
H  47.79300 1.81000 47.52800
H  48.71900 8.13400 47.47400
H  40.14500 7.28000 47.67300
H  40.20700 4.55500 46.43800
H  39.21700 5.92700 48.89900
H  40.02000 4.42400 49.26300
H  38.63200 4.40100 48.11500
H  40.26000 6.27700 44.73100
H  41.40200 7.50800 45.23100
H  39.81600 9.00400 45.70100
H  38.59600 7.88400 46.33600
H  42.81300 -0.54800 46.55500
H  41.69100 0.54700 47.19000
H  42.77100 -0.34600 48.38200
H  47.60300 0.06400 45.96200
H  47.48400 -1.57300 46.70500
H  47.89800 -0.20100 47.70100
H  49.44100 3.64300 46.36600
H  49.83900 5.77500 48.55700
H  49.46700 2.34400 48.92900
H  50.70900 3.58800 49.01500
H  50.90100 2.38600 47.81900
H  49.88700 6.82500 45.86500
H  50.70300 5.15200 45.75600
H  51.88800 7.56300 47.14400
H  52.53400 6.58200 45.83600
H  52.32200 5.88600 47.44700
H  48.09700 10.69600 47.61100
H  46.58100 11.63300 47.27800
H  47.33000 10.92600 45.98700
H  41.85200 9.67800 46.41200
H  39.05300 11.62200 48.83900
H  39.32600 10.14100 49.88400
H  38.56600 10.15800 48.16500

