158

Mg 34.63600 2.73500 28.96600
C  32.82600 3.94100 31.70400
C  37.42900 2.49100 31.00000
C  36.31000 2.00800 26.30300
C  31.74700 3.44000 26.96100
N  35.04200 3.16200 31.12600
C  34.11100 3.60600 32.04000
C  34.81000 3.65900 33.49400
C  36.36700 3.42800 33.09700
C  36.27300 2.94800 31.64400
C  37.32900 4.61800 33.34800
C  34.28900 2.62200 34.53300
C  34.00700 3.22500 35.98100
H  35.14800 4.15500 36.51800
N  36.57100 2.36100 28.67600
C  37.59000 2.28700 29.57600
C  38.79800 1.93600 28.91400
C  38.50300 1.95800 27.49500
C  37.05900 2.12600 27.44300
C  40.15300 1.78100 29.68300
C  39.49600 1.89600 26.33600
O  39.11800 2.00600 25.19600
C  40.90300 1.48300 26.67500
N  34.13500 2.87300 26.85200
C  34.97900 2.36700 26.01000
C  34.36100 2.22300 24.62200
C  32.80800 2.45400 24.90900
C  32.89200 2.95800 26.31600
C  34.97800 3.14100 23.52900
C  31.97900 1.12200 24.84900
C  31.11000 1.05700 23.60400
N  32.75500 3.58500 29.17000
C  31.69900 3.86700 28.33100
C  30.55000 4.32400 29.00200
C  30.89900 4.32000 30.33600
C  32.28300 3.91300 30.37700
C  29.23900 4.68200 28.36100
C  30.47200 4.55500 31.67000
O  29.34000 4.66600 32.17300
C  31.77300 4.40800 32.65000
C  32.07600 5.72100 33.30000
O  32.50000 6.72800 32.71100
O  31.69500 5.72200 34.61900
C  31.77900 6.93400 35.44000
H  38.26300 2.39200 31.69700
H  36.80400 1.72500 25.37100
H  30.86900 3.57700 26.32600
H  34.67000 4.65700 33.91000
H  36.77500 2.64400 33.73500
H  37.91600 4.34400 34.22500
H  36.71700 5.46800 33.65000
H  38.08200 4.82800 32.58700
H  34.87100 1.70600 34.63200
H  33.40100 2.19000 34.07100
H  33.87100 2.46100 36.74600
H  33.05500 3.75300 35.93700
H  40.51000 0.77500 29.46500
H  39.97300 1.86100 30.75500
H  40.90400 2.45000 29.26300
H  41.31000 1.21400 25.70000
H  40.79700 0.59400 27.29600
H  41.42500 2.30900 27.15900
H  34.65800 1.19800 24.40000
H  32.30900 3.14100 24.22600
H  34.33300 3.06900 22.65300
H  35.99100 2.96300 23.16900
H  34.74400 4.18600 23.73000
H  31.38300 1.00300 25.75300
H  32.69900 0.30400 24.87800
H  30.09500 1.32500 23.89600
H  31.21700 0.07800 23.13700
H  31.49700 1.72300 22.83200
H  29.30700 4.63400 27.27500
H  28.87000 5.62200 28.77300
H  28.47600 3.94000 28.59500
H  31.60200 3.72600 33.48300
H  31.09900 7.69700 35.06100
H  32.82700 7.23000 35.49200
H  31.57500 6.56100 36.44400
Mg 17.59200 51.36300 25.99200
C  19.40200 49.97900 28.58400
C  15.13500 52.22100 28.22800
C  15.54200 52.22400 23.32900
C  19.66500 49.59800 23.72000
N  17.31500 51.02400 28.22000
C  18.23300 50.52600 29.05500
C  17.62600 50.66100 30.50300
C  16.17400 51.09900 30.33100
C  16.21900 51.46700 28.86500
C  15.15400 49.93000 30.67200
C  18.34900 51.71200 31.42500
C  18.47600 51.45500 32.98100
H  17.30600 52.10500 33.81600
N  15.81800 52.40700 25.80900
C  14.97700 52.69500 26.90300
C  13.95700 53.54900 26.37700
C  14.09200 53.57600 24.94600
C  15.18800 52.72600 24.62900
C  13.01900 54.19900 27.32000
C  13.21600 54.37200 23.87400
O  13.54200 54.48700 22.71200
C  11.98100 55.10900 24.35800
N  17.50300 50.80500 23.82000
C  16.61700 51.39300 22.98300
C  16.93100 50.99500 21.50900
C  18.33900 50.33700 21.62700
C  18.57800 50.28900 23.14900
C  15.87200 50.21300 20.83300
C  19.49300 50.99500 20.80900
C  20.38800 52.17400 21.33900
N  19.19000 50.06500 26.09900
C  19.93500 49.48200 25.09300
C  20.99500 48.73000 25.72000
C  20.83900 48.89900 27.08600
C  19.66600 49.73400 27.28200
C  22.09700 47.93200 24.97100
C  21.37500 48.51400 28.31700
O  22.37500 47.87200 28.50900
C  20.41600 49.22500 29.34600
C  19.82400 48.12800 30.16700
O  18.73300 47.58200 29.94100
O  20.44200 48.11500 31.32700
C  19.88000 47.33000 32.43600
H  14.36800 52.36500 28.99200
H  14.88800 52.52500 22.50800
H  20.40100 49.16300 23.04100
H  17.69600 49.72300 31.05400
H  15.89800 51.99700 30.88300
H  14.92000 49.25400 29.85000
H  14.16600 50.27800 30.97300
H  15.60100 49.30900 31.44900
H  17.88400 52.67900 31.23700
H  19.34600 51.85400 31.00900
H  19.37800 51.91700 33.38300
H  18.41100 50.37000 33.06500
H  13.50900 54.40900 28.27100
H  12.09600 53.62000 27.31700
H  12.70300 55.17100 26.94200
H  11.29600 55.40600 23.56500
H  12.29700 56.03000 24.84700
H  11.49000 54.36800 24.98900
H  17.05100 51.88600 20.89300
H  18.22600 49.30100 21.30800
H  15.18500 50.93800 20.39600
H  15.40600 49.50000 21.51300
H  16.27500 49.64000 19.99700
H  18.99000 51.41400 19.93700
H  20.12200 50.19400 20.41900
H  21.46600 52.05600 21.22900
H  20.11700 52.35900 22.37800
H  20.13300 53.09000 20.80600
H  22.99300 48.55200 24.93200
H  21.84000 47.66900 23.94500
H  22.34400 47.01700 25.50900
H  20.92900 49.87300 30.05600
H  20.11100 46.30400 32.14800
H  18.82700 47.56300 32.59300
H  20.33000 47.54100 33.40500

