158

Mg 47.13000 16.27100 27.05100
C  45.05000 15.88300 29.84900
C  49.43600 17.87000 29.10400
C  48.86900 17.13600 24.30300
C  44.72700 14.85600 24.98800
N  47.21300 16.85300 29.26600
C  46.26200 16.51200 30.22200
C  46.78300 16.90100 31.63500
C  48.09500 17.68100 31.29800
C  48.33000 17.40700 29.81000
C  47.98200 19.17100 31.63700
C  46.93300 15.66400 32.60100
C  46.15400 15.71900 33.92800
H  45.98900 17.15200 34.53200
N  48.97400 17.18700 26.75200
C  49.85400 17.68600 27.72700
C  51.07200 18.11800 27.11300
C  50.92800 17.87400 25.75000
C  49.51600 17.36700 25.49900
C  52.25100 18.67500 27.84700
C  51.91000 18.20700 24.61400
O  51.69600 17.90800 23.46300
C  53.09700 19.01300 24.81000
N  46.79200 16.09600 24.97600
C  47.64200 16.56700 24.09400
C  47.13600 16.35300 22.70900
C  46.06400 15.35600 22.87400
C  45.82200 15.39800 24.35100
C  46.80600 17.69100 21.91900
C  46.13700 13.90500 22.23600
C  44.76600 13.21900 21.94500
N  45.32100 15.50100 27.34000
C  44.49000 14.86600 26.37800
C  43.28900 14.31000 27.09200
C  43.50700 14.79300 28.43500
C  44.73600 15.43100 28.55800
C  41.91800 13.66600 26.66000
C  42.87400 14.66200 29.75000
O  41.75900 14.27000 30.13500
C  43.86900 15.40200 30.73900
C  43.05500 16.43000 31.43400
O  42.49900 17.39400 30.97500
O  43.10400 16.20700 32.82900
C  42.14900 17.05500 33.49700
H  50.16600 18.30300 29.79000
H  49.30700 17.46000 23.35700
H  44.00700 14.33000 24.35800
H  45.89800 17.45100 31.95400
H  48.87800 17.24800 31.92000
H  47.11700 19.20400 32.30000
H  47.90700 19.78800 30.74300
H  48.82100 19.38400 32.29900
H  47.95800 15.34700 32.79500
H  46.51800 14.74100 32.19800
H  46.79200 15.14300 34.59800
H  45.17900 15.24200 33.83300
H  52.44500 19.59700 27.29800
H  53.10600 18.00000 27.88300
H  51.88900 18.99200 28.82500
H  52.90900 20.00000 25.23300
H  53.52800 19.07200 23.81000
H  53.89600 18.55700 25.39400
H  47.90400 15.84700 22.12500
H  45.12700 15.75600 22.48300
H  45.78900 17.74800 21.53100
H  47.41300 17.75900 21.01700
H  46.99600 18.57000 22.53500
H  46.63100 13.28600 22.98500
H  46.83500 13.96100 21.40100
H  44.85100 12.94000 20.89500
H  43.94100 13.87600 22.22000
H  44.69300 12.28500 22.50200
H  42.01700 12.58200 26.59300
H  41.65400 13.97600 25.64900
H  41.22700 14.00200 27.43200
H  44.20900 14.76000 31.55200
H  41.17300 16.57500 33.43600
H  41.95700 18.08500 33.19600
H  42.38400 17.06900 34.56100
Mg 47.78300 34.49200 26.71400
C  45.99000 33.13900 29.40600
C  48.20000 37.20400 28.87500
C  48.96600 36.24600 24.16300
C  47.14500 31.70400 24.83100
N  47.32400 34.96400 28.99600
C  46.59000 34.28400 29.84500
C  46.63000 34.87400 31.25800
C  46.87300 36.38900 30.89500
C  47.59100 36.17600 29.56900
C  45.60800 37.26000 30.85200
C  47.80100 34.35100 32.13000
C  47.93200 34.53400 33.65600
H  46.88900 35.39100 34.46100
N  48.51400 36.48900 26.60600
C  48.73800 37.39700 27.60100
C  49.27500 38.60600 27.04700
C  49.40800 38.38800 25.63200
C  48.97600 36.98000 25.39900
C  49.47300 39.84500 27.99700
C  49.84400 39.31900 24.49200
O  49.98600 38.97500 23.31700
C  50.32900 40.70400 24.93200
N  47.99500 34.03600 24.81000
C  48.46600 34.95500 23.91400
C  48.67100 34.32400 22.51600
C  48.26800 32.83300 22.81300
C  47.77800 32.81500 24.23600
C  47.78400 34.98100 21.30500
C  49.38000 31.80500 22.54000
C  50.60400 31.81000 23.39700
N  46.74700 32.79200 26.94200
C  46.56500 31.73300 26.09400
C  45.82600 30.72100 26.85400
C  45.41900 31.33300 28.06200
C  46.08600 32.49800 28.11700
C  45.30200 29.43400 26.43900
C  44.64500 31.09100 29.25100
O  43.88900 30.22700 29.56300
C  44.92400 32.36900 30.14900
C  45.22100 31.86000 31.51600
O  46.22300 31.20700 31.85100
O  44.22100 32.26800 32.37800
C  44.52200 31.93800 33.80200
H  48.22200 38.04800 29.56700
H  49.43600 36.70500 23.29000
H  47.02600 30.74900 24.31400
H  45.74400 34.81200 31.89000
H  47.47700 36.86000 31.67000
H  45.79900 38.26300 31.23300
H  44.83300 36.73800 31.41300
H  45.19100 37.31800 29.84700
H  48.72500 34.66700 31.64600
H  47.89400 33.29600 31.87100
H  48.96600 34.83500 33.82100
H  47.91900 33.50100 34.00100
H  50.38700 40.36400 27.71000
H  49.63200 39.75500 29.07200
H  48.69600 40.56400 27.73700
H  51.21000 40.61400 25.56800
H  49.47100 41.13400 25.44800
H  50.59200 41.32700 24.07700
H  49.72900 34.50300 22.32300
H  47.41500 32.48400 22.23100
H  48.47800 35.52800 20.66800
H  47.09300 35.65900 21.80500
H  47.20900 34.24300 20.74600
H  49.77700 31.94400 21.53400
H  48.91800 30.82100 22.62300
H  50.96000 30.85300 23.77700
H  50.53400 32.46500 24.26500
H  51.39100 32.21100 22.75800
H  45.49900 29.36400 25.36900
H  44.24200 29.35200 26.67900
H  45.79000 28.56800 26.88600
H  44.04500 33.01300 30.19300
H  44.07700 32.77700 34.33800
H  45.56600 31.92500 34.11400
H  44.04200 31.01100 34.11700

