158

Mg 16.17400 51.34300 25.43300
C  17.93600 50.53600 28.27800
C  13.42500 52.10700 27.17000
C  14.58200 51.83900 22.50400
C  18.92800 49.92400 23.67400
N  15.76000 51.17900 27.45500
C  16.68100 51.07500 28.48400
C  16.03800 51.60300 29.84100
C  14.49200 51.66000 29.56400
C  14.51000 51.68800 27.94600
C  13.74600 50.49600 30.10200
C  16.73300 52.89100 30.35700
C  16.53100 53.31000 31.80300
H  15.89000 52.40100 32.82000
N  14.17300 51.85000 24.88300
C  13.15200 52.22400 25.76400
C  11.94200 52.61900 25.03400
C  12.20500 52.28800 23.62300
C  13.71400 52.00100 23.61200
C  10.62300 52.80300 25.75800
C  11.20200 52.09700 22.43800
O  11.58200 51.71700 21.33400
C  9.73900 52.22800 22.66300
N  16.64100 51.02600 23.36700
C  15.87800 51.33300 22.37200
C  16.51600 51.16100 20.99700
C  17.91600 50.61800 21.39400
C  17.84000 50.55000 22.93600
C  15.58100 50.30900 20.05300
C  19.05000 51.58100 20.90700
C  20.22800 50.91200 20.12600
N  18.07600 50.50700 25.83400
C  19.10100 50.01600 25.05700
C  20.29700 49.68800 25.76100
C  19.85400 49.87300 27.13100
C  18.55400 50.38200 27.06600
C  21.57200 49.11500 25.13100
C  20.26100 49.81800 28.50000
O  21.36100 49.61900 28.95200
C  18.98600 50.22300 29.30300
C  18.52900 49.22100 30.30100
O  17.93800 48.19100 30.00600
O  18.84900 49.70500 31.56200
C  18.41400 48.98300 32.74000
H  12.64200 52.50900 27.81700
H  14.03100 52.06500 21.58900
H  19.65800 49.43900 23.02100
H  16.23500 50.82300 30.57700
H  14.03600 52.58500 29.91700
H  14.15200 49.89000 30.91200
H  13.31900 49.93400 29.27100
H  12.95000 50.98500 30.66400
H  16.27400 53.66800 29.74600
H  17.79100 52.83800 30.10100
H  15.95100 54.22800 31.70600
H  17.53300 53.49000 32.19200
H  10.69400 53.24700 26.75200
H  10.13800 51.83100 25.84700
H  10.03500 53.57000 25.25400
H  9.54300 53.24400 23.00700
H  9.49100 51.49600 23.43200
H  9.23500 52.08100 21.70800
H  16.52600 52.17800 20.60300
H  18.07300 49.61900 20.98700
H  16.16300 49.53600 19.55100
H  15.19500 50.93400 19.24700
H  14.72600 49.80200 20.50000
H  19.46100 52.00000 21.82500
H  18.66800 52.40700 20.30700
H  20.08900 49.83700 20.01300
H  21.21600 51.12200 20.53800
H  20.27200 51.27700 19.10000
H  21.67900 49.45900 24.10300
H  21.57300 48.02500 25.15800
H  22.40800 49.53600 25.69100
H  19.24000 51.19700 29.72200
H  19.02400 49.32200 33.57700
H  18.71000 47.93800 32.64000
H  17.37200 49.14200 33.01700
Mg -2.30500 34.14300 26.15300
C  -3.47700 32.74600 29.13700
C  -0.30300 36.22100 27.98000
C  -1.31800 35.60700 23.30900
C  -4.38500 31.97100 24.34700
N  -1.98600 34.46400 28.37200
C  -2.56100 33.78200 29.40500
C  -1.97800 34.28600 30.74400
C  -0.91300 35.34500 30.26400
C  -1.06200 35.32800 28.78800
C  -1.01100 36.75800 31.03400
C  -1.39600 33.19800 31.78200
C  -1.85100 33.39400 33.25100
H  -1.33900 32.39500 34.28400
N  -0.91100 35.66900 25.69500
C  -0.21000 36.41200 26.60200
C  0.55900 37.38300 25.82100
C  0.35700 37.15100 24.48300
C  -0.68300 36.13300 24.39600
C  1.32900 38.50700 26.48600
C  1.14700 37.73500 23.31900
O  0.86100 37.52400 22.13400
C  2.38800 38.57500 23.58700
N  -2.89700 33.95200 24.13900
C  -2.27700 34.62300 23.11200
C  -2.73700 34.10500 21.75900
C  -3.31200 32.69300 22.06100
C  -3.52600 32.82200 23.62100
C  -3.71200 35.00900 21.01100
C  -2.34500 31.53700 21.71500
C  -0.76900 31.75600 21.93300
N  -3.73100 32.80000 26.62500
C  -4.44500 31.91200 25.78500
C  -5.30700 31.04600 26.55200
C  -4.82800 31.29000 27.90700
C  -3.94700 32.39100 27.88000
C  -6.29200 30.10100 26.00000
C  -4.96500 30.76600 29.19300
O  -5.61200 29.85000 29.68500
C  -4.11700 31.65900 30.06300
C  -5.05200 32.42900 30.95800
O  -5.82200 33.30800 30.58600
O  -4.91200 32.00500 32.27500
C  -5.76800 32.53000 33.28100
H  0.28200 36.90700 28.59600
H  -0.92800 35.97500 22.35700
H  -4.89000 31.26100 23.68800
H  -2.80600 34.83300 31.19600
H  0.08300 34.92000 30.39300
H  0.00900 37.11100 31.18600
H  -1.54700 36.72300 31.98300
H  -1.55400 37.33900 30.28900
H  -0.33700 33.45400 31.80000
H  -1.48900 32.22500 31.30100
H  -2.92000 33.54600 33.40100
H  -1.51700 34.38700 33.55300
H  2.40800 38.37400 26.40900
H  1.12400 38.60300 27.55200
H  0.98400 39.44000 26.04000
H  2.08300 39.53700 23.99900
H  2.88700 38.73900 22.63200
H  3.09500 38.03500 24.21700
H  -1.89000 33.92700 21.09600
H  -4.32100 32.49800 21.69500
H  -3.47000 34.92200 19.95200
H  -3.49700 36.04200 21.28600
H  -4.74600 34.68900 21.14500
H  -2.58700 31.34300 20.67000
H  -2.68900 30.59800 22.14900
H  -0.29500 32.10300 21.01500
H  -0.35000 30.78100 22.18400
H  -0.59200 32.52300 22.68700
H  -5.84400 29.11300 26.10500
H  -6.42800 30.38400 24.95600
H  -7.23000 30.07700 26.55500
H  -3.46200 31.07500 30.70900
H  -5.17400 33.08200 34.00800
H  -6.26900 31.65000 33.68500
H  -6.51200 33.29400 33.05700

