158

Mg -0.75900 17.34800 26.58000
C  -1.23200 14.96100 29.28700
C  -1.31500 19.87900 28.94000
C  -0.71200 19.55300 24.14400
C  -0.47600 14.73800 24.52500
N  -1.37900 17.36200 28.93600
C  -1.47200 16.29300 29.80400
C  -1.67100 16.85400 31.22700
C  -1.64400 18.37400 31.02200
C  -1.38900 18.56900 29.54200
C  -2.93800 19.19600 31.44400
C  -0.78400 16.20200 32.41800
C  -0.45100 17.17200 33.58200
H  -0.48400 16.62900 34.97600
N  -0.98200 19.43500 26.53100
C  -1.04600 20.32600 27.63100
C  -1.04100 21.65600 27.07000
C  -0.80000 21.60300 25.67400
C  -0.75300 20.18400 25.40100
C  -1.32800 22.90500 27.90900
C  -0.62500 22.62000 24.67800
O  -0.54700 22.46300 23.46200
C  -0.50100 24.12800 25.10600
N  -0.67200 17.16900 24.60200
C  -0.62800 18.19900 23.74100
C  -0.76400 17.73500 22.35000
C  -0.20900 16.28600 22.50800
C  -0.43000 16.04500 23.98800
C  -2.24700 17.76800 21.80100
C  1.35100 16.07200 22.13100
C  2.51000 16.49600 23.10000
N  -0.91800 15.26200 26.76600
C  -0.78400 14.31000 25.87600
C  -0.95500 13.03500 26.42900
C  -1.04600 13.26100 27.73700
C  -1.05200 14.59200 27.96800
C  -1.06800 11.82200 25.58000
C  -1.18100 12.50000 29.01000
O  -1.32600 11.29100 29.17500
C  -1.28400 13.62800 30.09600
C  -0.14700 13.32000 30.97800
O  0.97100 13.76000 30.89600
O  -0.57300 12.36100 31.84200
C  0.29400 12.07200 32.97900
H  -1.27400 20.64000 29.72300
H  -0.62500 20.19400 23.26400
H  -0.43200 13.97600 23.74400
H  -2.66100 16.49100 31.50600
H  -0.82400 18.81800 31.58700
H  -3.45200 19.63900 30.59100
H  -2.68900 19.78600 32.32600
H  -3.70500 18.46100 31.68800
H  0.17000 16.02600 31.92000
H  -1.14200 15.25300 32.81700
H  -1.17400 17.98700 33.56300
H  0.55100 17.56700 33.41500
H  -1.86800 23.63500 27.30600
H  -0.49600 23.44000 28.36600
H  -1.94500 22.59900 28.75400
H  0.42200 24.15800 25.68500
H  -1.39300 24.53700 25.58100
H  -0.29300 24.84700 24.31400
H  -0.18300 18.39800 21.70900
H  -0.84300 15.53900 22.03100
H  -2.61900 18.68900 22.25200
H  -2.80200 16.93800 22.23900
H  -2.12400 17.74700 20.71800
H  1.48400 16.62400 21.20100
H  1.34500 15.07000 21.70300
H  2.09700 16.59500 24.10300
H  3.05700 17.41900 22.90500
H  3.21600 15.66500 23.09100
H  -1.57400 12.18600 24.68500
H  -1.68000 11.08000 26.09300
H  -0.08700 11.45500 25.28000
H  -2.21600 13.54900 30.65700
H  0.90500 11.17400 32.89300
H  -0.32700 11.89400 33.85700
H  0.89300 12.97200 33.11900
Mg 40.54800 8.16800 29.49900
C  42.82400 9.63100 31.99000
C  38.67600 7.00600 32.03700
C  38.92400 6.33600 27.22900
C  43.13500 8.89200 27.11700
N  40.84900 8.24200 31.70300
C  41.65600 8.98900 32.50200
C  41.12900 9.08000 33.91300
C  39.89800 8.11100 33.89300
C  39.79800 7.69800 32.44000
C  39.80000 6.99300 34.88400
C  40.81800 10.55000 34.31400
C  39.79700 10.65800 35.49800
H  40.09000 11.82900 36.41300
N  38.85400 7.06100 29.60300
C  38.23600 6.64400 30.75800
C  37.08500 5.90300 30.41400
C  37.06200 5.75100 28.98800
C  38.29000 6.37900 28.53700
C  36.08400 5.49600 31.46200
C  36.17100 5.07400 28.08800
O  36.38200 4.96100 26.89200
C  34.92200 4.55500 28.58800
N  41.05300 7.60200 27.48800
C  40.18700 6.87600 26.70300
C  40.57600 6.87400 25.20800
C  41.65900 8.03100 25.20900
C  41.99300 8.24200 26.67000
C  41.07500 5.45300 24.70800
C  41.26600 9.40700 24.58800
C  40.09500 10.12700 25.15900
N  42.57600 8.99100 29.54900
C  43.39800 9.19900 28.41500
C  44.58200 9.90700 28.94900
C  44.41000 10.05000 30.35500
C  43.14600 9.57200 30.61600
C  45.81500 10.25100 28.15000
C  44.95200 10.66000 31.62900
O  45.91800 11.38200 31.80300
C  43.91600 10.40200 32.69500
C  44.41400 9.67300 33.83200
O  44.90800 8.58500 33.76600
O  44.08400 10.39600 34.92900
C  44.08200 9.66800 36.19400
H  38.09800 6.56600 32.85300
H  38.30700 5.78800 26.51400
H  43.89000 9.23300 26.40600
H  41.87200 8.80600 34.66200
H  38.97000 8.64100 34.11000
H  40.73500 6.97200 35.44400
H  39.66100 6.09300 34.28600
H  38.93900 6.99800 35.55200
H  40.29100 10.88100 33.42000
H  41.75400 11.09200 34.44600
H  39.58300 9.75900 36.07600
H  38.89000 10.89700 34.94200
H  35.03800 5.63300 31.19000
H  36.22500 5.85900 32.48000
H  36.29700 4.44000 31.62900
H  35.14100 3.79300 29.33600
H  34.35000 3.92400 27.90800
H  34.39500 5.38800 29.05100
H  39.75700 7.16100 24.54800
H  42.59600 7.73100 24.73900
H  42.16200 5.48700 24.62500
H  40.66800 4.99400 23.80700
H  40.90600 4.75700 25.53000
H  41.08600 9.26300 23.52300
H  42.11300 10.09000 24.52100
H  40.43700 11.14100 25.36600
H  39.84300 9.66100 26.11200
H  39.21200 10.10700 24.52100
H  46.68300 9.59700 28.22900
H  46.15800 11.04600 28.81300
H  45.74700 10.53600 27.10000
H  43.67100 11.41900 33.00100
H  44.91100 9.98600 36.82600
H  44.03400 8.58500 36.08200
H  43.09200 9.75200 36.64100

