158

Mg 2.08700 -1.87300 45.25100
C  5.38800 -0.69200 44.96200
C  0.98900 0.99600 43.43000
C  -0.86000 -3.41100 44.65000
C  3.26000 -4.83900 46.69400
N  3.08100 -0.03300 44.32000
C  4.51000 0.24200 44.35900
C  4.77700 1.70800 43.90700
C  3.30700 2.16500 43.38500
C  2.38000 0.93500 43.75700
C  2.74500 3.51900 43.92300
C  5.92500 1.74900 42.82900
C  6.06600 0.59400 41.88900
H  7.01500 0.73800 40.68600
N  0.29100 -1.25200 44.17300
C  -0.02400 -0.05000 43.62200
C  -1.36700 -0.14500 43.11200
C  -1.98500 -1.27700 43.66200
C  -0.83200 -2.06300 44.17800
C  -2.07100 0.96800 42.40300
C  -3.48200 -1.71900 43.67900
O  -4.32900 -0.97500 43.23400
C  -4.11500 -2.91300 44.43200
N  1.27500 -3.93400 45.51300
C  -0.01500 -4.24500 45.25700
C  -0.31900 -5.60700 46.00800
C  0.97500 -6.08400 46.54600
C  1.94500 -4.91200 46.25900
C  -1.39700 -5.38200 47.11000
C  1.53200 -7.40100 45.95300
C  2.18000 -8.42500 46.95500
N  3.94000 -2.63500 45.74200
C  4.31200 -3.88800 46.33400
C  5.70300 -3.92900 46.53100
C  6.13600 -2.68600 46.07900
C  5.01100 -1.94800 45.56900
C  6.54400 -5.00500 47.23300
C  7.29700 -1.83200 46.03500
O  8.46800 -2.02300 46.41000
C  6.86900 -0.54000 45.30800
C  7.16900 0.62400 46.16400
O  6.80700 0.77500 47.32400
O  7.90600 1.54900 45.46100
C  7.94700 2.84200 46.18200
H  0.62000 1.88100 42.90700
H  -1.81900 -3.93200 44.60300
H  3.65800 -5.68700 47.25500
H  5.10100 2.32800 44.74300
H  3.35300 2.27400 42.30200
H  3.60200 3.96200 44.43100
H  2.01200 3.32400 44.70600
H  2.30400 4.18500 43.18100
H  6.83600 1.96200 43.38800
H  5.90600 2.63000 42.18700
H  5.06600 0.45400 41.47900
H  6.31100 -0.37100 42.33300
H  -2.37800 0.55200 41.44300
H  -1.35800 1.75800 42.16700
H  -2.87000 1.51300 42.90700
H  -3.74200 -3.79700 43.91500
H  -5.19300 -2.87100 44.27500
H  -3.85400 -2.97800 45.48800
H  -0.79100 -6.24900 45.26400
H  0.99600 -6.16900 47.63200
H  -1.07000 -5.74400 48.08400
H  -2.33900 -5.86100 46.84300
H  -1.65300 -4.32900 47.22500
H  2.40600 -7.13100 45.36100
H  0.77500 -7.89900 45.34600
H  3.22900 -8.55200 46.68600
H  1.71800 -9.39700 47.12600
H  2.23200 -8.00300 47.95900
H  6.30200 -4.98200 48.29500
H  7.54700 -4.67000 46.97000
H  6.31700 -5.99700 46.84100
H  7.53500 -0.58100 44.44600
H  8.29300 3.54000 45.42000
H  8.67200 2.73000 46.98800
H  6.94900 3.08700 46.54600
Mg 27.35800 49.73400 26.91700
C  25.49000 50.92800 29.62600
C  29.93800 49.16600 29.03600
C  29.57600 49.33900 24.30600
C  25.01600 51.10600 24.81600
N  27.69500 50.15700 29.10200
C  26.71300 50.30200 30.00000
C  27.19900 50.18300 31.40800
C  28.64300 49.61400 31.28000
C  28.76400 49.64100 29.70800
C  29.81600 50.31300 32.06100
C  26.17900 49.46700 32.44200
C  25.80400 50.31700 33.64500
H  26.48300 50.03400 34.93000
N  29.30800 49.05500 26.71900
C  30.19500 48.93100 27.72600
C  31.40500 48.36000 27.26200
C  31.35200 48.38700 25.87000
C  30.03400 48.95600 25.55100
C  32.53300 47.82400 28.01400
C  32.42100 48.05000 24.88400
O  32.32100 48.29800 23.69300
C  33.72400 47.42200 25.28300
N  27.40400 50.26100 24.83000
C  28.33400 49.91600 23.93600
C  27.83500 50.08600 22.50800
C  26.32500 50.27300 22.70600
C  26.19300 50.64800 24.19200
C  28.57500 51.22900 21.78600
C  25.36200 49.20000 22.22000
C  24.02200 49.69200 21.60000
N  25.58500 50.72400 27.08900
C  24.71600 51.21600 26.14600
C  23.55800 51.80800 26.76000
C  23.75300 51.71900 28.17000
C  25.03500 51.05700 28.28400
C  22.42100 52.45300 26.08500
C  23.25400 51.96400 29.54600
O  22.19300 52.42100 29.94400
C  24.36300 51.45300 30.51000
C  24.78700 52.70200 31.23000
O  25.85000 53.29200 31.04300
O  23.88800 53.09900 32.22400
C  24.42300 54.03500 33.15200
H  30.69900 48.81600 29.73700
H  30.27200 49.15200 23.48600
H  24.19100 51.46800 24.20000
H  27.35100 51.17800 31.82500
H  28.71200 48.55200 31.51700
H  30.52500 50.74100 31.35200
H  30.27400 49.52100 32.65400
H  29.47100 51.06600 32.76900
H  26.64500 48.54100 32.78100
H  25.22400 49.17300 32.00600
H  24.76800 50.02600 33.81600
H  26.00200 51.38100 33.51200
H  32.31100 47.57200 29.05100
H  33.40900 48.47000 28.07700
H  32.84600 46.88200 27.56300
H  33.55100 46.42800 25.69600
H  34.17400 48.10600 26.00300
H  34.29500 47.38400 24.35500
H  28.05100 49.16400 21.97000
H  26.07300 51.27100 22.34800
H  28.98200 50.97600 20.80700
H  29.42400 51.61300 22.35100
H  27.94700 52.11400 21.68100
H  24.94500 48.70200 23.09600
H  25.67700 48.26700 21.75100
H  24.23200 49.99900 20.57500
H  23.67000 50.58600 22.11500
H  23.22600 48.95800 21.72300
H  21.86700 51.81800 25.39400
H  22.87800 53.29000 25.55600
H  21.81900 52.77500 26.93400
H  23.92800 50.72300 31.19200
H  24.87000 53.35600 33.87800
H  23.63100 54.66100 33.56300
H  25.19900 54.74600 32.86900

