158

Mg 17.14900 -2.60800 28.34000
C  16.07900 -0.16400 30.87700
C  18.51800 -4.34200 30.76000
C  18.35800 -4.37300 25.89200
C  15.61000 -0.26800 25.90800
N  17.15100 -2.34300 30.64000
C  16.67400 -1.33000 31.40000
C  17.08200 -1.58900 32.84700
C  18.08100 -2.78600 32.76800
C  17.90300 -3.22800 31.31000
C  19.57400 -2.30900 33.19000
C  15.83800 -1.91200 33.73700
C  15.87100 -1.66900 35.31000
H  17.09300 -0.99500 36.00600
N  18.17800 -4.21800 28.28700
C  18.66600 -4.84200 29.40100
C  19.43900 -5.95700 29.04200
C  19.40700 -5.99600 27.61900
C  18.66500 -4.79600 27.19900
C  20.06400 -6.95500 30.05600
C  20.04400 -7.05300 26.70900
O  19.96800 -6.98000 25.48800
C  20.78400 -8.26000 27.19500
N  16.95400 -2.39600 26.20000
C  17.60000 -3.32100 25.46400
C  17.21000 -3.15100 24.01700
C  16.37400 -1.82400 23.96200
C  16.30800 -1.45300 25.41900
C  18.35100 -3.08900 22.98200
C  15.00900 -1.91100 23.26100
C  14.93100 -1.13900 21.98500
N  16.17000 -0.63600 28.32600
C  15.53600 0.06900 27.25200
C  14.69500 1.18200 27.81900
C  15.07500 1.20500 29.20800
C  15.90200 0.04900 29.49800
C  13.82600 2.10100 27.09600
C  14.75400 1.83300 30.44700
O  13.97200 2.79500 30.67500
C  15.48700 1.00800 31.64900
C  16.61500 1.78300 32.30200
O  17.73700 2.01700 31.90700
O  16.12500 2.39400 33.39200
C  17.03800 3.16800 34.18700
H  18.95400 -4.87700 31.60700
H  18.63300 -5.06900 25.09700
H  14.98400 0.29600 25.21400
H  17.48000 -0.67900 33.29800
H  17.88000 -3.60400 33.46100
H  19.71100 -1.29600 32.81100
H  20.31600 -2.98200 32.76200
H  19.46700 -2.24900 34.27300
H  15.56600 -2.96000 33.61600
H  15.01100 -1.33900 33.31800
H  15.74400 -2.63500 35.79700
H  15.04600 -1.00800 35.57600
H  19.64000 -7.92800 29.80700
H  19.85800 -6.78000 31.11200
H  21.15000 -7.00900 29.97900
H  20.23800 -9.09100 27.64200
H  21.58200 -7.94500 27.86600
H  21.20800 -8.73900 26.31200
H  16.64300 -4.04200 23.74500
H  16.95900 -1.01400 23.52700
H  18.37100 -4.15700 22.76200
H  19.32800 -2.93000 23.43800
H  18.15700 -2.47400 22.10300
H  14.20500 -1.51700 23.88300
H  14.83600 -2.95900 23.02000
H  15.77800 -0.52600 21.67600
H  14.04500 -0.50900 22.06200
H  14.73800 -1.89100 21.21900
H  13.16100 2.55600 27.83100
H  13.20000 1.55900 26.38800
H  14.41700 2.83000 26.54300
H  14.83300 0.68600 32.46000
H  17.22800 4.13100 33.71400
H  17.99900 2.65700 34.23300
H  16.53800 3.46500 35.10800
Mg 6.97500 56.80900 41.76800
C  5.62400 53.59700 41.04500
C  9.93200 55.79500 40.85900
C  7.83100 60.18600 41.62700
C  3.68100 57.87600 42.39700
N  7.60100 54.91500 40.91300
C  6.95000 53.67700 40.71800
C  8.00000 52.58200 40.32600
C  9.39300 53.31100 40.57900
C  8.93400 54.75300 40.96000
C  10.17300 52.57800 41.69000
C  7.64600 52.21500 38.82800
C  7.61800 50.73300 38.41000
H  7.41500 50.35000 36.84900
N  8.57800 57.87600 41.22300
C  9.74700 57.25900 40.88000
C  10.76900 58.21700 40.62200
C  10.18400 59.51000 40.72200
C  8.76600 59.24700 41.18200
C  12.16700 57.83600 40.26100
C  10.81700 60.81900 40.45400
O  12.00300 60.96700 40.14300
C  10.16400 62.13800 40.57700
N  5.81700 58.82300 41.91400
C  6.50200 60.02100 41.96200
C  5.51700 61.20300 42.29300
C  4.18800 60.36000 42.54800
C  4.54300 58.93800 42.25000
C  6.04600 62.04700 43.46800
C  2.88100 60.86300 41.81600
C  1.70300 61.47200 42.61300
N  5.04200 56.00300 41.76200
C  3.83700 56.50200 42.19000
C  2.84300 55.53200 42.30500
C  3.56500 54.32100 41.92100
C  4.85200 54.66400 41.55400
C  1.42100 55.58300 42.84100
C  3.47300 52.88300 41.79700
O  2.63700 52.09600 42.16800
C  4.69000 52.37700 41.23000
C  4.33300 51.74500 39.90300
O  4.14000 52.32200 38.84100
O  4.22300 50.41200 40.02300
C  3.64400 49.62600 38.88800
H  10.93500 55.54300 40.50700
H  8.24500 61.19400 41.69700
H  2.66000 58.22400 42.56700
H  7.69100 51.79200 41.01000
H  10.08900 53.22700 39.74400
H  11.17100 53.01100 41.75100
H  10.17800 51.50000 41.53200
H  9.60300 52.91100 42.55700
H  8.33500 52.62100 38.08700
H  6.72100 52.69600 38.51000
H  6.86900 50.29500 39.06900
H  8.58000 50.32200 38.71700
H  12.43700 58.35100 39.33900
H  12.42200 56.79800 40.04600
H  12.85700 58.16400 41.03800
H  10.39800 62.47000 41.58800
H  9.11400 62.22400 40.29900
H  10.62200 62.85700 39.89800
H  5.49000 61.70200 41.32400
H  4.00100 60.31100 43.62000
H  5.36600 61.97300 44.31700
H  6.10800 63.08800 43.15100
H  7.07100 61.81200 43.75400
H  2.38200 60.09900 41.22000
H  3.25800 61.62300 41.13100
H  1.98600 61.23900 43.64000
H  0.79800 60.95700 42.29200
H  1.59800 62.49600 42.25400
H  0.75100 55.22000 42.06100
H  1.12500 56.61300 43.03600
H  1.33400 55.05400 43.79000
H  5.23800 51.64200 41.82000
H  3.29300 48.77700 39.47400
H  4.38300 49.45000 38.10700
H  2.85900 50.21900 38.41800

