158

Mg 41.90100 40.55200 25.95700
C  41.05700 43.01400 28.42200
C  42.29200 38.28200 28.38900
C  42.87900 38.39500 23.61000
C  41.46100 42.96800 23.57200
N  41.74400 40.75500 28.15900
C  41.33200 41.75300 28.97200
C  41.31600 41.31200 30.52600
C  41.54300 39.71400 30.42100
C  41.82100 39.55500 28.89900
C  42.59000 39.12600 31.37400
C  39.95200 41.72800 31.24200
C  39.57600 41.08300 32.51000
H  39.19800 42.01000 33.63400
N  42.48600 38.54400 25.93500
C  42.59400 37.81600 27.05600
C  43.05400 36.47900 26.77800
C  43.14300 36.37900 25.36000
C  42.87000 37.83200 24.86800
C  43.27900 35.43100 27.84400
C  43.50200 35.22900 24.39000
O  43.51000 35.31500 23.16700
C  43.64700 33.83800 24.97600
N  42.28700 40.69900 23.87400
C  42.66000 39.67300 23.11800
C  42.53800 39.97300 21.61300
C  41.64200 41.28200 21.70800
C  41.82800 41.66000 23.17000
C  43.93500 40.16200 20.97600
C  40.25800 41.22100 21.08300
C  39.32800 40.14900 21.58800
N  41.42600 42.58800 25.89900
C  41.29700 43.47700 24.84700
C  40.96900 44.81900 25.34600
C  40.87700 44.65500 26.70700
C  41.17900 43.30700 27.03200
C  40.70100 46.05000 24.52700
C  40.40600 45.34500 27.93300
O  39.90800 46.45100 28.10300
C  40.60800 44.30500 29.07400
C  41.59500 44.94600 30.00400
O  42.81200 44.73300 30.10300
O  40.91900 45.83000 30.86700
C  41.52700 46.17300 32.11600
H  42.27000 37.51400 29.16500
H  43.02800 37.65100 22.82500
H  41.16300 43.67700 22.79700
H  42.08100 41.90000 31.03400
H  40.62000 39.19200 30.67500
H  42.21000 38.32500 32.00700
H  42.83100 39.85200 32.15000
H  43.45900 38.82300 30.78900
H  39.10000 41.66100 30.56500
H  40.04100 42.76600 31.56200
H  40.38900 40.41100 32.78500
H  38.62900 40.57700 32.32600
H  42.27700 35.10600 28.12600
H  43.68100 35.85700 28.76300
H  43.84400 34.55800 27.51700
H  43.56500 33.16100 24.12600
H  42.82100 33.69800 25.67400
H  44.61400 33.89500 25.47700
H  42.08300 39.13600 21.08300
H  42.08000 42.07100 21.09600
H  44.50600 39.43500 21.55400
H  44.28900 41.18300 20.83700
H  43.87900 39.73100 19.97600
H  40.31200 41.09700 20.00100
H  39.96100 42.25700 21.24500
H  38.83500 39.63600 20.76300
H  38.58500 40.45700 22.32300
H  39.93900 39.49300 22.20700
H  39.66500 46.14300 24.20000
H  41.22800 45.99400 23.57500
H  41.14400 46.94200 24.96900
H  39.62600 44.21800 29.53700
H  42.58500 46.35900 31.93300
H  41.47500 45.33700 32.81300
H  40.94600 47.01400 32.49400
Mg -2.05800 34.46700 26.99900
C  -3.66500 32.67400 29.45900
C  -0.50300 36.39200 29.45100
C  -0.75000 36.49300 24.57200
C  -3.61200 32.57200 24.59200
N  -2.04400 34.43700 29.27900
C  -2.75900 33.61600 30.02300
C  -2.31200 33.72400 31.49400
C  -1.41900 35.01000 31.45400
C  -1.30500 35.30300 29.97600
C  -2.06600 36.05300 32.30200
C  -1.63100 32.49600 32.11300
C  -1.98700 32.10900 33.56900
H  -0.90200 32.31300 34.61700
N  -0.85000 36.24400 27.06800
C  -0.26400 36.85000 28.12800
C  0.51600 38.00000 27.68700
C  0.36900 38.08800 26.28700
C  -0.40000 36.86800 25.87800
C  1.23000 39.03000 28.62900
C  0.88700 39.11800 25.32500
O  0.42800 39.17400 24.20400
C  2.05100 39.90800 25.77000
N  -2.20900 34.59500 24.85600
C  -1.52700 35.41700 24.06800
C  -1.72100 35.05100 22.60000
C  -2.21600 33.61500 22.71500
C  -2.75400 33.58200 24.16400
C  -2.79600 35.98200 21.86500
C  -1.17700 32.43200 22.47300
C  0.32000 32.73400 22.51000
N  -3.30400 32.91100 26.92800
C  -3.96500 32.29600 25.92000
C  -4.88000 31.29700 26.42400
C  -4.72100 31.35000 27.76900
C  -3.88000 32.37300 28.04300
C  -5.73300 30.47900 25.54300
C  -5.12400 30.76500 29.04900
O  -5.90200 29.84400 29.22600
C  -4.41500 31.59400 30.20400
C  -5.50300 32.18600 31.00300
O  -6.20400 33.13600 30.71300
O  -5.60400 31.38900 32.15400
C  -6.42800 31.86700 33.16500
H  -0.07900 36.89000 30.32600
H  -0.32100 37.06800 23.74800
H  -4.03800 31.92200 23.82600
H  -3.24100 33.89200 32.03900
H  -0.49100 34.66700 31.91100
H  -3.02100 36.33600 31.85900
H  -1.41500 36.91400 32.45000
H  -2.22300 35.54500 33.25300
H  -0.55900 32.69200 32.12400
H  -1.92800 31.63300 31.51700
H  -2.05600 31.02400 33.49300
H  -2.99100 32.34200 33.92400
H  0.95200 40.04600 28.34800
H  2.31600 38.95500 28.68300
H  0.91800 38.78800 29.64500
H  1.74300 40.70100 26.45200
H  2.59300 40.28800 24.90500
H  2.57800 39.18700 26.39600
H  -0.81600 35.11100 21.99500
H  -3.07800 33.50700 22.05700
H  -2.78900 36.85600 22.51600
H  -3.76700 35.48800 21.86400
H  -2.40400 36.22400 20.87600
H  -1.36000 32.04100 21.47200
H  -1.20500 31.55300 23.11600
H  0.87500 32.81800 21.57600
H  0.82700 31.90600 23.00600
H  0.41500 33.57600 23.19500
H  -5.86500 31.00700 24.59900
H  -6.62900 30.37400 26.15500
H  -5.30100 29.48700 25.41400
H  -3.83600 30.90900 30.82400
H  -6.07400 32.78000 33.64200
H  -6.33400 31.14900 33.98000
H  -7.44900 32.06000 32.83500

