158

Mg 28.28900 56.81100 39.66200
C  26.36900 53.84700 39.29900
C  31.08100 54.89800 38.70100
C  29.98800 59.65000 39.39600
C  25.35700 58.50100 40.25000
N  28.65000 54.64500 38.97400
C  27.71000 53.69500 38.93500
C  28.31600 52.41200 38.39900
C  29.84500 52.61100 38.45900
C  29.90300 54.13900 38.76400
C  30.47300 51.77300 39.57100
C  27.79600 51.95200 36.97700
C  27.21600 52.98800 35.93000
H  27.47900 52.76700 34.38000
N  30.29100 57.19700 39.27100
C  31.24400 56.29500 38.83900
C  32.48100 57.06700 38.64000
C  32.15500 58.43900 38.83700
C  30.74500 58.46600 39.21300
C  33.76700 56.38300 38.25800
C  33.22400 59.55500 38.70600
O  34.33400 59.34600 38.32300
C  33.02900 60.98100 39.24900
N  27.71800 58.75400 39.67500
C  28.61500 59.74800 39.72000
C  28.03400 61.02900 40.14800
C  26.49100 60.74200 40.03700
C  26.54200 59.21500 40.11200
C  28.50900 61.50500 41.56400
C  25.78300 61.24300 38.71900
C  24.74800 62.38000 38.86100
N  26.26300 56.34300 39.68400
C  25.15900 57.09300 39.95700
C  23.94200 56.28100 40.05700
C  24.39300 54.93700 39.83100
C  25.77400 55.08200 39.59400
C  22.60900 56.79300 40.47200
C  24.04400 53.58800 39.80600
O  22.94400 53.03900 39.87900
C  25.27600 52.79000 39.53300
C  25.40100 51.91200 40.67600
O  24.70100 50.93100 40.84700
O  26.44100 52.22500 41.47400
C  26.69600 51.38000 42.65300
H  31.93600 54.30600 38.36800
H  30.45700 60.63300 39.48500
H  24.44200 59.08100 40.38400
H  27.94500 51.73600 39.16900
H  30.33300 52.47400 37.49400
H  29.95700 50.85800 39.86200
H  30.47600 52.40600 40.45800
H  31.43700 51.39000 39.23400
H  27.03100 51.26100 37.33200
H  28.47000 51.23000 36.51600
H  27.81900 53.86200 36.17400
H  26.16700 53.26000 36.04600
H  33.98600 56.47800 37.19500
H  33.78500 55.29600 38.34400
H  34.61800 56.78500 38.80900
H  32.47600 60.86100 40.18100
H  32.44800 61.61200 38.57600
H  34.03500 61.36500 39.42200
H  28.35700 61.86400 39.52600
H  25.91900 61.05500 40.91100
H  27.70000 61.44200 42.29100
H  28.85500 62.52900 41.42500
H  29.41200 60.92500 41.75300
H  25.23100 60.42500 38.25600
H  26.51200 61.51700 37.95700
H  24.71400 62.80100 37.85600
H  25.25000 63.10000 39.50700
H  23.80300 62.03900 39.28600
H  22.05900 57.25900 39.65400
H  22.79800 57.54300 41.23900
H  22.07200 55.94900 40.90400
H  25.07700 52.22700 38.62100
H  27.49900 51.95800 43.11100
H  27.17100 50.47100 42.28400
H  25.78800 51.13400 43.20300
Mg -10.28500 38.53900 41.60800
C  -8.77700 35.62700 40.32300
C  -7.95300 40.39800 39.89700
C  -12.12600 41.33400 42.23100
C  -12.84000 36.59200 42.98700
N  -8.67900 38.00500 40.08400
C  -8.18600 36.76300 39.86200
C  -7.02000 36.85900 38.83100
C  -6.51400 38.30500 39.19500
C  -7.81700 38.99400 39.75100
C  -5.35700 38.38400 40.20600
C  -7.61200 36.68600 37.40400
C  -7.00900 35.53000 36.51200
H  -6.46300 35.98000 35.14400
N  -9.99800 40.54800 41.24000
C  -8.96600 41.10900 40.55300
C  -9.16600 42.59300 40.53200
C  -10.31500 42.96600 41.26100
C  -10.91400 41.61200 41.64500
C  -8.10400 43.57000 39.87500
C  -10.79600 44.25500 41.61700
O  -10.05700 45.24500 41.46300
C  -12.03600 44.42900 42.45900
N  -12.19300 38.81800 42.32400
C  -12.72200 40.12200 42.52100
C  -14.13000 40.12600 43.08300
C  -14.35400 38.53600 43.22800
C  -13.05700 37.94200 42.82500
C  -14.49400 40.95000 44.34100
C  -15.51500 38.06600 42.40300
C  -16.86100 38.12900 43.11100
N  -10.73700 36.51100 41.69100
C  -11.74800 35.83300 42.40500
C  -11.47300 34.40100 42.32700
C  -10.39900 34.31300 41.46300
C  -9.97100 35.61400 41.08700
C  -12.15400 33.28100 43.09800
C  -9.51400 33.29800 40.80600
O  -9.51700 32.12800 40.90500
C  -8.41100 34.12800 40.00300
C  -7.04400 33.79700 40.51500
O  -6.57800 34.31600 41.53300
O  -6.37900 32.95600 39.66600
C  -4.96700 32.61600 39.99500
H  -7.14800 40.91600 39.37100
H  -12.77500 42.19400 42.40700
H  -13.62900 35.96300 43.40400
H  -6.36500 36.00000 38.98000
H  -6.20900 38.83600 38.29300
H  -4.97300 37.36400 40.21200
H  -5.60300 38.57300 41.25100
H  -4.59800 39.08000 39.84800
H  -7.51600 37.66100 36.92600
H  -8.68100 36.47800 37.44000
H  -7.85500 34.86800 36.32600
H  -6.18700 35.03400 37.02800
H  -7.95200 44.44200 40.51100
H  -8.45500 43.89300 38.89500
H  -7.13300 43.07400 39.89900
H  -11.80900 43.87800 43.37200
H  -12.95900 44.14500 41.95500
H  -12.12500 45.48900 42.69500
H  -14.61900 40.56900 42.21500
H  -14.54500 38.37000 44.28900
H  -15.33200 40.64000 44.96500
H  -14.82700 41.93600 44.01800
H  -13.53600 40.92100 44.86100
H  -15.36500 37.07500 41.97400
H  -15.69100 38.83000 41.64500
H  -17.63300 38.76900 42.68300
H  -16.86700 38.28400 44.19000
H  -17.26600 37.12500 42.99100
H  -13.22500 33.14800 42.95100
H  -11.89400 33.32600 44.15500
H  -11.67700 32.36700 42.74300
H  -8.57500 34.02600 38.93000
H  -4.45000 33.42200 40.51600
H  -4.35100 32.42600 39.11600
H  -4.87000 31.70600 40.58700

