158

Mg 0.20700 7.79300 26.34700
C  1.24500 9.51600 29.16700
C  0.13100 4.87900 28.03100
C  -0.16000 6.16800 23.40800
C  0.31000 10.85500 24.55300
N  0.73100 7.27800 28.32700
C  1.05200 8.13400 29.39800
C  0.99400 7.37600 30.66500
C  0.79200 5.83200 30.26800
C  0.47300 5.98800 28.77700
C  2.07600 4.96700 30.51500
C  -0.15900 7.99800 31.52900
C  0.19100 8.38600 32.98400
H  1.27200 7.58400 33.80500
N  0.08300 5.75700 25.79800
C  0.01100 4.74700 26.61700
C  -0.24200 3.51000 25.94100
C  -0.18300 3.84600 24.60000
C  -0.18100 5.31200 24.52500
C  -0.45100 2.19900 26.65800
C  -0.34900 2.94300 23.32600
O  -0.38700 3.36800 22.15400
C  -0.38600 1.50900 23.45600
N  0.02900 8.43300 24.37000
C  -0.08600 7.52000 23.35800
C  -0.12000 8.14800 22.03600
C  -0.36900 9.68400 22.38300
C  0.04100 9.67600 23.84800
C  1.09100 7.92300 21.08700
C  -1.82400 10.22400 22.18700
C  -2.03000 11.48100 21.28000
N  0.60300 9.83100 26.81600
C  0.70500 10.90000 25.88200
C  1.19100 12.06400 26.64100
C  1.50100 11.62100 27.94300
C  1.03500 10.22600 27.95300
C  1.57600 13.43300 26.03700
C  2.00400 11.94200 29.27000
O  2.47800 13.03400 29.69600
C  1.67000 10.61600 30.09100
C  2.78000 10.21800 30.97100
O  3.84700 9.69900 30.62900
O  2.54100 10.74000 32.25100
C  3.68500 10.78000 33.13600
H  -0.09100 4.01700 28.66300
H  -0.33100 5.55600 22.52000
H  0.25000 11.74900 23.92900
H  1.95100 7.42000 31.18400
H  -0.05500 5.35500 30.76100
H  2.75300 5.43700 31.22800
H  2.58900 4.73800 29.58100
H  1.63300 4.08800 30.98300
H  -0.99000 7.29800 31.44700
H  -0.42100 8.88300 30.95000
H  -0.74900 8.28800 33.52700
H  0.49100 9.43000 32.89500
H  -0.93500 1.52200 25.95500
H  -1.07000 2.38000 27.53600
H  0.48500 1.81300 27.06200
H  -1.35400 1.27300 23.89900
H  0.45100 1.14200 24.05000
H  -0.47200 1.20500 22.41300
H  -0.97800 7.68300 21.55000
H  0.26600 10.36000 21.81100
H  1.23000 6.87900 20.80800
H  2.00200 8.29300 21.55700
H  0.76500 8.43200 20.18000
H  -2.29800 10.25200 23.16800
H  -2.36100 9.40100 21.71600
H  -2.68100 11.20100 20.45200
H  -1.10500 11.82300 20.81700
H  -2.47900 12.35000 21.76000
H  2.47600 13.88400 26.45600
H  0.77500 14.09500 26.36400
H  1.51900 13.31900 24.95400
H  0.85100 10.87000 30.76400
H  4.67800 10.51500 32.77200
H  3.41000 10.08700 33.93000
H  3.80700 11.78900 33.53000
Mg 1.19400 43.09100 25.11900
C  3.03800 43.13900 28.12900
C  -1.66300 42.19500 27.20000
C  -0.47400 42.41600 22.38300
C  4.24900 43.41800 23.33500
N  0.79500 42.74100 27.36800
C  1.68400 42.98200 28.34900
C  1.01900 42.94800 29.76200
C  -0.47400 42.46900 29.47500
C  -0.47900 42.48100 27.96300
C  -0.77600 41.05200 30.14700
C  1.18200 44.34200 30.58700
C  1.37500 44.21700 32.16100
H  1.05700 42.99100 32.91100
N  -0.79900 42.50700 24.78900
C  -1.75200 42.06000 25.75300
C  -2.93900 41.59900 25.05500
C  -2.53900 41.60400 23.63500
C  -1.26900 42.24900 23.53500
C  -4.22300 41.23600 25.69200
C  -3.44000 41.15400 22.39800
O  -3.10800 41.37900 21.24100
C  -4.69700 40.39600 22.65100
N  1.81300 42.97800 23.14200
C  0.87500 42.75600 22.14200
C  1.59000 42.77500 20.80100
C  3.07000 43.20700 21.11000
C  3.07100 43.26300 22.64000
C  1.44700 41.35300 20.10800
C  3.51400 44.58400 20.52500
C  3.77500 44.66500 19.07500
N  3.19800 43.41800 25.59400
C  4.30700 43.50700 24.77200
C  5.53200 43.64800 25.57700
C  5.07400 43.43700 26.91600
C  3.68300 43.31500 26.89500
C  6.95500 43.81200 25.06600
C  5.44000 43.27400 28.30400
O  6.54400 43.13700 28.84600
C  4.13600 43.13800 29.09600
C  4.33000 41.97500 29.97600
O  4.11800 40.82800 29.70700
O  4.85800 42.38100 31.11600
C  5.46000 41.35800 32.00500
H  -2.52900 41.96100 27.82200
H  -0.87300 42.02700 21.44400
H  5.13500 43.51600 22.70400
H  1.63600 42.23500 30.30800
H  -1.18100 43.22900 29.80800
H  -0.99200 40.38900 29.31000
H  -1.59900 41.18700 30.85000
H  0.03200 40.72400 30.80100
H  0.18600 44.78100 30.52700
H  1.90800 44.99500 30.10400
H  0.64700 44.96200 32.48500
H  2.37000 44.58300 32.41200
H  -4.27100 41.66000 26.69500
H  -4.45300 40.17100 25.72400
H  -5.04600 41.69800 25.14700
H  -4.85800 39.65900 21.86400
H  -5.54500 41.03400 22.89900
H  -4.52300 39.70800 23.47900
H  1.12800 43.52000 20.15300
H  3.72600 42.37700 20.84800
H  2.38500 41.00600 19.67500
H  0.76400 41.54700 19.28000
H  1.08600 40.70300 20.90500
H  4.29600 44.98600 21.16900
H  2.67400 45.26700 20.65100
H  3.03700 45.25800 18.53500
H  3.80000 43.68100 18.60700
H  4.69800 45.20900 18.87500
H  7.59900 44.37800 25.73800
H  6.92000 44.42200 24.16300
H  7.44200 42.88400 24.76600
H  4.09500 44.06600 29.66500
H  6.39200 41.76900 32.39300
H  5.93700 40.57900 31.40900
H  4.89600 41.14700 32.91400

