158

Mg 24.64200 -7.11100 48.67000
C  27.13700 -5.12300 47.05400
C  22.54100 -6.47400 45.91900
C  22.61600 -9.58500 49.69600
C  27.16400 -8.14100 50.94700
N  24.87300 -5.96900 46.72200
C  25.96500 -5.24700 46.32100
C  25.64100 -4.55100 44.96700
C  24.11700 -4.84000 44.61200
C  23.79600 -5.79400 45.84400
C  23.19100 -3.58600 44.59300
C  26.56800 -4.95200 43.80900
C  27.39200 -3.92000 43.09900
H  27.21600 -3.69000 41.64100
N  22.68400 -7.76600 48.14500
C  22.04300 -7.28600 47.03200
C  20.70000 -7.89700 47.05200
C  20.63500 -8.81200 48.19000
C  22.03900 -8.82600 48.68200
C  19.69300 -7.73900 46.00500
C  19.49800 -9.63200 48.79600
O  18.39300 -9.62700 48.30600
C  19.61500 -10.33500 50.10700
N  24.86800 -8.57100 50.17000
C  23.88700 -9.60800 50.33100
C  24.16600 -10.39000 51.63700
C  25.56000 -9.84200 52.12600
C  25.88100 -8.77700 51.06600
C  23.00000 -10.43700 52.70200
C  26.56000 -11.03700 52.31200
C  27.25300 -10.96300 53.66700
N  26.67500 -6.57900 49.11400
C  27.54600 -7.18800 49.95900
C  28.87900 -6.62800 49.83400
C  28.76800 -5.75800 48.72300
C  27.43400 -5.86700 48.27700
C  29.99600 -6.95900 50.76600
C  29.46700 -4.84000 47.86800
O  30.64200 -4.36400 47.98800
C  28.44000 -4.39300 46.73400
C  28.31200 -2.92000 46.97000
O  27.98400 -2.35500 48.03400
O  28.55200 -2.28200 45.79800
C  28.69800 -0.80400 45.88100
H  21.86300 -6.28400 45.08400
H  22.13100 -10.43800 50.17300
H  27.90800 -8.54300 51.63700
H  25.75400 -3.48700 45.17800
H  24.00100 -5.39200 43.67900
H  22.64900 -3.56100 43.64800
H  23.62400 -2.61500 44.83700
H  22.40900 -3.64700 45.35000
H  26.00400 -5.41000 42.99600
H  27.23400 -5.69700 44.24500
H  28.45400 -4.16100 43.07400
H  27.17900 -2.96800 43.58600
H  18.68700 -7.71000 46.42300
H  19.77000 -8.56300 45.29700
H  19.81800 -6.76800 45.52600
H  20.09800 -11.29600 49.92800
H  18.59900 -10.51700 50.45600
H  20.16300 -9.64700 50.75100
H  24.28000 -11.41800 51.29200
H  25.48500 -9.30700 53.07200
H  22.12400 -9.91900 52.31300
H  23.36500 -9.89100 53.57100
H  22.66800 -11.42800 53.01300
H  27.36600 -10.85100 51.60200
H  26.15100 -12.04000 52.18900
H  28.29100 -10.73300 53.42700
H  27.18400 -11.93700 54.15300
H  26.93300 -10.28800 54.46000
H  30.07900 -6.23600 51.57700
H  30.87300 -6.90500 50.12100
H  29.83500 -7.96100 51.16400
H  28.92600 -4.66500 45.79600
H  28.93600 -0.54200 44.85000
H  29.43900 -0.43700 46.59100
H  27.69100 -0.46300 46.12400
Mg 45.94100 24.71200 28.51600
C  46.51800 27.04100 30.99200
C  44.97100 22.55200 30.86700
C  45.84200 22.17300 26.13600
C  47.20500 26.86100 26.16700
N  45.78000 24.81300 30.76700
C  46.03900 25.86500 31.58100
C  45.75500 25.54400 33.13100
C  45.17100 24.06100 32.92400
C  45.28900 23.75600 31.41700
C  45.84100 22.96700 33.77900
C  44.75600 26.55200 33.77200
C  45.24700 27.10200 35.17700
H  44.21800 26.95200 36.31900
N  45.32200 22.67700 28.45700
C  44.90500 21.96100 29.53900
C  44.57300 20.62300 29.14700
C  44.73900 20.48900 27.74700
C  45.29100 21.81500 27.39700
C  44.16100 19.55000 30.21200
C  44.67700 19.24900 26.85200
O  45.08400 19.21000 25.70600
C  44.00700 17.96300 27.41800
N  46.50200 24.50400 26.46200
C  46.49700 23.35100 25.76300
C  47.08000 23.51300 24.27700
C  47.19600 25.06600 24.29800
C  46.93900 25.54900 25.69300
C  48.39600 22.65500 24.12700
C  46.33400 25.78100 23.23300
C  45.02300 26.56200 23.58500
N  46.82400 26.53700 28.50800
C  47.16100 27.36300 27.45500
C  47.59300 28.65400 27.96700
C  47.32900 28.52100 29.32100
C  46.86700 27.28300 29.64600
C  48.10400 29.79600 27.15700
C  47.46100 29.32300 30.56800
O  47.76800 30.51500 30.67500
C  46.94100 28.38800 31.71300
C  48.09100 28.06200 32.68600
O  48.92300 27.22400 32.41700
O  47.92500 28.66300 33.91400
C  48.79700 28.26100 35.05500
H  44.66800 21.83900 31.63600
H  45.72500 21.54800 25.24800
H  47.41200 27.50000 25.30600
H  46.70000 25.47100 33.67000
H  44.10900 24.07100 33.16900
H  46.59700 23.38900 34.44200
H  46.35400 22.11200 33.33900
H  45.02800 22.64100 34.42700
H  43.76600 26.12800 33.94400
H  44.71400 27.41800 33.11200
H  45.36900 28.16200 34.95100
H  46.20400 26.73800 35.55100
H  43.11900 19.24000 30.14000
H  44.29900 19.89200 31.23800
H  44.85400 18.72000 30.07400
H  44.64200 17.33900 28.04600
H  43.69500 17.44400 26.51100
H  43.12200 18.22900 27.99700
H  46.31500 23.21900 23.55800
H  48.23000 25.32800 24.07200
H  48.58500 22.38800 25.16700
H  49.21800 23.17300 23.63300
H  48.23300 21.78400 23.49400
H  46.11600 25.19100 22.34300
H  46.99800 26.57500 22.89400
H  44.55600 26.03000 24.41300
H  44.35500 26.41900 22.73500
H  45.19000 27.63800 23.62100
H  47.59500 29.82700 26.19400
H  49.12700 29.64500 26.81200
H  48.02700 30.75500 27.67100
H  46.21200 29.01300 32.22900
H  48.78600 27.20200 35.31400
H  48.36100 28.93600 35.79100
H  49.82700 28.61600 35.01100

