158

Mg 30.46800 58.19700 41.65500
C  27.61400 56.36700 40.26100
C  32.35100 55.55800 40.56600
C  33.04900 60.17400 41.73400
C  28.23600 60.78300 42.16800
N  30.03400 56.31100 40.39700
C  28.79900 55.69800 40.11500
C  28.99300 54.29100 39.53800
C  30.45500 53.98900 40.10500
C  31.02300 55.36000 40.31600
C  30.42300 53.24400 41.45600
C  28.87300 54.24200 37.96700
C  28.11700 53.02900 37.37800
H  27.13900 53.27500 36.20700
N  32.46100 57.89900 41.31100
C  33.07700 56.74600 40.87700
C  34.51100 56.89000 40.91400
C  34.73900 58.24400 41.20800
C  33.39400 58.88200 41.35900
C  35.41300 55.81000 40.54700
C  36.14400 58.94800 41.23400
O  37.19200 58.31900 41.24500
C  36.20600 60.44200 41.22500
N  30.56600 60.13000 41.89500
C  31.83500 60.73700 42.00800
C  31.69400 62.23500 42.28100
C  30.18400 62.40400 42.66000
C  29.58700 61.00200 42.21300
C  32.70200 62.84400 43.29600
C  29.46500 63.63500 42.04700
C  28.46400 64.44700 42.93300
N  28.32000 58.55400 41.39600
C  27.58000 59.68700 41.62700
C  26.25300 59.48500 41.27500
C  26.17000 58.27800 40.69100
C  27.51300 57.69100 40.87100
C  25.02400 60.40800 41.46100
C  25.34800 57.34900 40.02000
O  24.22600 57.34100 39.59400
C  26.22500 56.11800 39.71500
C  25.68500 54.91400 40.36900
O  26.31300 54.24700 41.21300
O  24.40200 54.63700 40.02300
C  23.84200 53.38200 40.65600
H  33.02600 54.69900 40.57500
H  33.82500 60.93300 41.86000
H  27.60900 61.59400 42.54300
H  28.38000 53.59600 40.11100
H  31.04100 53.32800 39.46600
H  29.41100 53.00200 41.78100
H  30.93000 53.80500 42.24100
H  30.89800 52.27000 41.33300
H  29.88100 54.02400 37.61200
H  28.63000 55.24100 37.60600
H  27.65000 52.51100 38.21500
H  28.80400 52.26400 37.01500
H  35.67600 56.03100 39.51300
H  35.00200 54.80200 40.61100
H  36.33200 55.75600 41.13000
H  37.22000 60.81900 41.09800
H  35.82200 60.73800 42.20100
H  35.59900 60.95700 40.48000
H  31.83700 62.77000 41.34200
H  30.23200 62.41900 43.74900
H  32.33400 63.75200 43.77300
H  33.58200 63.13000 42.71900
H  33.11500 62.16000 44.03700
H  28.79600 63.36900 41.22800
H  30.19300 64.32100 41.61400
H  27.68100 64.77400 42.24800
H  28.98000 65.31500 43.34500
H  28.13100 63.66600 43.61600
H  24.50800 60.21600 42.40200
H  24.30700 60.12900 40.68900
H  25.29500 61.44900 41.28800
H  26.15800 55.95200 38.64000
H  24.65100 52.65400 40.59500
H  23.01500 53.04400 40.03100
H  23.58400 53.59600 41.69300
Mg -1.16900 33.98600 26.55800
C  -3.11800 32.16500 28.86200
C  0.12500 35.80100 29.16000
C  0.27000 36.05700 24.38500
C  -2.86900 32.41000 23.94000
N  -1.67500 34.08900 28.83800
C  -2.28300 33.10200 29.59500
C  -2.08500 33.29100 31.08500
C  -1.05500 34.46000 31.02900
C  -0.87600 34.86900 29.58200
C  -1.40900 35.67300 31.87300
C  -1.63700 32.02600 31.85500
C  -2.63300 31.59700 33.05300
H  -1.97600 30.95600 34.30000
N  0.26100 35.51800 26.76100
C  0.62700 36.12200 27.89900
C  1.66900 37.08000 27.56300
C  1.58900 37.26100 26.15600
C  0.68800 36.24800 25.68800
C  2.44500 37.96500 28.53800
C  2.36200 38.24700 25.33100
O  2.21700 38.33200 24.13500
C  3.39400 39.14600 25.87800
N  -1.46400 34.32500 24.41700
C  -0.64700 35.18500 23.75800
C  -0.87700 35.10300 22.25300
C  -1.79800 33.86900 22.11500
C  -2.00600 33.45200 23.56400
C  -1.40800 36.37400 21.54500
C  -1.25500 32.80900 21.16800
C  0.09800 32.20000 21.45100
N  -2.73600 32.57300 26.42200
C  -3.30400 32.02800 25.27700
C  -4.23600 30.95300 25.64500
C  -4.18200 30.90500 27.07200
C  -3.25200 31.91500 27.46800
C  -5.04800 30.16700 24.53600
C  -4.71800 30.23100 28.32800
O  -5.44600 29.29000 28.42300
C  -4.09500 31.14600 29.51000
C  -5.28000 31.69200 30.21700
O  -6.02600 32.56800 29.78100
O  -5.40700 31.01600 31.42100
C  -6.45500 31.54400 32.34200
H  0.72100 36.09500 30.02700
H  0.82700 36.62200 23.63400
H  -3.21500 31.86400 23.06000
H  -2.99000 33.73800 31.49800
H  -0.08200 34.09600 31.35900
H  -1.80600 35.48100 32.86900
H  -2.12700 36.24100 31.28200
H  -0.60200 36.40300 31.94300
H  -0.67200 32.29600 32.28300
H  -1.50200 31.19100 31.16700
H  -3.09600 30.72300 32.59600
H  -3.33400 32.37000 33.36900
H  2.39500 37.59500 29.56200
H  2.09800 38.99500 28.46300
H  3.50900 37.90000 28.31200
H  3.94000 39.60400 25.05300
H  4.07900 38.48700 26.41100
H  3.07400 39.94800 26.54200
H  0.02700 34.70800 21.78800
H  -2.82600 34.15600 21.89600
H  -1.37200 36.40500 20.45600
H  -0.79100 37.21300 21.86600
H  -2.38100 36.64900 21.95400
H  -1.20100 33.30200 20.19600
H  -2.01900 32.04700 21.01700
H  -0.03600 31.12400 21.33600
H  0.35000 32.46300 22.47800
H  0.92300 32.57600 20.84500
H  -4.42300 29.51500 23.92600
H  -5.54000 30.86300 23.85600
H  -5.77700 29.47700 24.96100
H  -3.63900 30.50400 30.26300
H  -6.22100 32.58400 32.57000
H  -6.51800 30.94700 33.25200
H  -7.40900 31.58200 31.81700

