158

Mg 1.81300 -1.30100 43.61500
C  5.28900 -0.88700 42.61000
C  1.18500 1.42800 41.45100
C  -1.34700 -2.07700 43.76600
C  2.84900 -4.49500 44.65000
N  3.14400 -0.05200 42.13800
C  4.46900 0.00500 41.95400
C  4.97600 1.16300 41.15200
C  3.67000 1.99200 40.93700
C  2.54900 1.09700 41.56300
C  3.58900 3.46000 41.48600
C  5.80700 0.85100 39.94000
C  7.23700 1.29300 39.93500
H  7.72900 2.10200 38.68400
N  0.16400 -0.32300 42.91900
C  0.13200 0.79800 42.04900
C  -1.24800 1.19500 41.89400
C  -2.04300 0.26600 42.62600
C  -1.13400 -0.77500 43.17500
C  -1.60300 2.46100 41.06200
C  -3.54300 0.24300 42.67100
O  -4.24200 1.09200 42.07300
C  -4.27300 -0.73100 43.54700
N  0.84500 -3.10100 44.06400
C  -0.47400 -3.11400 44.15600
C  -0.93800 -4.50800 44.70400
C  0.44400 -5.29800 44.95400
C  1.47700 -4.28800 44.47800
C  -1.95500 -4.49700 45.88900
C  0.48700 -6.68100 44.24100
C  -0.15000 -7.67500 45.19000
N  3.66200 -2.39900 43.86000
C  3.91800 -3.65900 44.35100
C  5.34200 -3.85000 44.64700
C  5.90700 -2.79000 43.87400
C  4.86400 -1.93700 43.48900
C  5.97900 -5.02900 45.25900
C  7.21400 -2.28000 43.44600
O  8.36900 -2.67900 43.61200
C  6.81900 -0.89400 42.73700
C  7.39400 0.15500 43.57000
O  6.86900 0.36700 44.61800
O  8.40800 0.83200 43.02000
C  8.94600 2.01200 43.69800
H  1.02600 2.21100 40.70600
H  -2.38800 -2.35100 43.94600
H  3.01900 -5.49500 45.05400
H  5.55800 1.73700 41.87300
H  3.44000 2.10600 39.87700
H  2.87700 3.39400 42.30900
H  3.34800 4.13300 40.66300
H  4.50700 3.81500 41.95300
H  5.33500 1.33200 39.08300
H  5.86900 -0.23600 39.87500
H  7.87800 0.41200 39.97200
H  7.49700 1.97100 40.74800
H  -1.52300 2.30400 39.98700
H  -0.93700 3.29300 41.28900
H  -2.62700 2.81500 41.18200
H  -4.69900 -1.61600 43.07400
H  -5.18000 -0.16200 43.75400
H  -3.88200 -1.03200 44.51900
H  -1.52600 -5.00300 43.93200
H  0.59100 -5.34100 46.03400
H  -1.48300 -4.67500 46.85500
H  -2.70500 -5.28300 45.80800
H  -2.46900 -3.53600 45.92100
H  1.48400 -7.11700 44.17800
H  0.02200 -6.49100 43.27400
H  -1.05900 -8.02300 44.70000
H  -0.47400 -7.20800 46.12000
H  0.48600 -8.54300 45.36800
H  6.19300 -5.86200 44.59000
H  5.28000 -5.40100 46.00800
H  6.91000 -4.68700 45.71100
H  7.34200 -0.84800 41.78200
H  9.63900 1.73500 44.49200
H  8.18600 2.75600 43.93400
H  9.53200 2.51400 42.92800
Mg 9.25000 47.13500 27.11200
C  7.27500 47.25200 30.13300
C  12.05500 47.68900 28.91900
C  10.87600 47.74300 24.24600
C  6.14700 47.29500 25.36800
N  9.64000 47.30400 29.28200
C  8.69600 47.26000 30.28300
C  9.40000 47.37700 31.70700
C  10.84300 47.81100 31.28200
C  10.91600 47.56000 29.69400
C  11.15100 49.30500 31.70400
C  9.24800 46.05700 32.57200
C  9.94900 46.09700 33.98100
H  9.17600 45.53500 35.18200
N  11.28800 47.39700 26.63000
C  12.36300 47.51400 27.54700
C  13.59300 47.63800 26.81100
C  13.24400 47.71600 25.46000
C  11.74300 47.65200 25.40000
C  14.98900 47.77000 27.60700
C  14.15000 47.93500 24.28400
O  13.79300 48.00400 23.10100
C  15.59700 48.05500 24.48400
N  8.53800 47.65200 25.10900
C  9.43800 47.80700 24.13500
C  8.77900 47.93600 22.79300
C  7.28000 47.57100 23.07200
C  7.29800 47.48800 24.59900
C  8.89800 49.39000 22.16700
C  6.72900 46.17100 22.59200
C  6.44000 46.07300 21.08300
N  7.15100 47.08800 27.56700
C  6.02200 47.17300 26.76000
C  4.77800 47.25600 27.50500
C  5.24200 47.23600 28.85400
C  6.62600 47.22400 28.84500
C  3.43200 47.43200 26.89800
C  4.71900 47.37600 30.11000
O  3.63000 47.54700 30.59000
C  6.07800 47.29300 31.11500
C  5.95900 45.96400 31.84600
O  6.33400 44.90900 31.47900
O  5.49700 46.25800 33.08100
C  5.19100 45.13300 33.99700
H  12.90300 47.67200 29.60700
H  11.32800 47.94500 23.27300
H  5.23300 47.17600 24.78200
H  8.82700 48.08400 32.30600
H  11.51100 47.10800 31.78000
H  12.23900 49.34200 31.76700
H  10.72700 49.61500 32.65900
H  10.81000 49.95000 30.89400
H  9.81800 45.22500 32.15900
H  8.21900 45.71600 32.69500
H  10.23300 47.14700 34.03700
H  10.82800 45.45700 33.90300
H  14.83500 47.87200 28.68200
H  15.43700 48.71300 27.29600
H  15.70200 46.95400 27.48700
H  15.84700 48.83900 25.20000
H  16.08200 48.33700 23.55000
H  15.99500 47.08500 24.78200
H  9.20400 47.23500 22.07500
H  6.61800 48.30500 22.61100
H  9.68100 49.96600 22.66000
H  7.98300 49.98200 22.19800
H  9.14600 49.36700 21.10600
H  5.75300 45.94700 23.02100
H  7.39900 45.36700 22.89700
H  6.59100 47.02700 20.57800
H  5.41600 45.69900 21.08800
H  7.10600 45.35100 20.61100
H  3.30100 46.78600 26.03000
H  3.21500 48.43000 26.51600
H  2.71500 47.12700 27.66100
H  6.13200 47.99600 31.94700
H  5.90300 44.34800 34.25200
H  4.22700 44.65700 33.81900
H  5.14000 45.67600 34.94100

