158

Mg 0.63200 7.65800 26.68300
C  1.20700 9.62500 29.43000
C  0.67700 4.87100 28.69600
C  0.48600 5.68700 23.97400
C  0.89100 10.52300 24.62800
N  1.03800 7.34200 28.83500
C  1.06800 8.24200 29.81700
C  1.12600 7.54600 31.30200
C  1.21600 6.02500 30.94800
C  0.97200 6.08100 29.41300
C  2.56800 5.29400 31.33500
C  -0.07900 8.00800 32.16200
C  0.32600 8.62600 33.46500
H  -0.45600 8.05300 34.66500
N  0.39500 5.51100 26.37800
C  0.47900 4.55900 27.34100
C  0.07800 3.25700 26.71800
C  -0.04200 3.53400 25.31200
C  0.30400 4.96500 25.17700
C  -0.18800 2.05400 27.58700
C  -0.42800 2.55400 24.22100
O  -0.50500 2.96100 23.03700
C  -0.65300 1.17200 24.51300
N  0.88500 8.04700 24.54400
C  0.78500 7.02600 23.64200
C  0.97500 7.66900 22.22900
C  0.54800 9.16800 22.47900
C  0.77400 9.29400 23.97800
C  2.48200 7.51000 21.64400
C  -1.01000 9.40600 22.19400
C  -1.27200 10.26700 21.00600
N  1.06000 9.67500 26.90200
C  1.14700 10.79100 25.98400
C  1.30400 12.03200 26.72900
C  1.30300 11.62300 28.01100
C  1.18200 10.17200 28.08700
C  1.38700 13.42600 26.07700
C  1.46000 12.09700 29.39900
O  1.69600 13.19500 29.81500
C  1.38900 10.78900 30.38200
C  2.48700 10.78400 31.40000
O  3.63900 10.38300 31.20800
O  1.97300 11.46500 32.45000
C  2.89400 11.49600 33.59800
H  0.53600 4.07300 29.42800
H  0.29300 5.11300 23.06600
H  0.83000 11.36700 23.93800
H  2.01900 7.98100 31.75100
H  0.52500 5.51700 31.62100
H  3.05700 5.09900 30.38100
H  2.37600 4.39500 31.92000
H  3.27000 5.96200 31.83400
H  -0.74200 7.14900 32.26600
H  -0.72000 8.72700 31.65200
H  -0.06400 9.64300 33.48700
H  1.38800 8.72000 33.68800
H  -1.12200 1.84900 27.06300
H  -0.38500 2.27500 28.63500
H  0.48200 1.20400 27.45800
H  -0.69900 0.63900 23.56300
H  -1.57900 1.09600 25.08100
H  0.20900 0.79700 25.06500
H  0.26800 7.15500 21.57900
H  1.20700 9.85400 21.94900
H  3.05000 7.47500 22.57400
H  2.63200 8.29600 20.90400
H  2.74200 6.49100 21.35800
H  -1.51400 9.71200 23.11000
H  -1.35100 8.42200 21.87100
H  -0.90200 11.23800 21.33500
H  -2.36000 10.32400 20.98700
H  -0.87200 9.91300 20.05600
H  1.16700 14.10000 26.90500
H  0.68000 13.54600 25.25600
H  2.41800 13.56300 25.75300
H  0.50700 10.85100 31.02000
H  2.29800 11.32500 34.49400
H  3.26300 12.51500 33.71200
H  3.66000 10.72100 33.59500
Mg 48.79500 35.80400 27.81600
C  46.63100 34.07100 30.08600
C  48.72600 38.50300 29.99300
C  50.41000 37.55200 25.55000
C  48.09600 33.29800 25.50300
N  47.62500 36.28400 29.74300
C  47.13400 35.28200 30.56700
C  47.15900 35.81100 31.98500
C  47.45200 37.32700 31.81400
C  47.87700 37.45700 30.37000
C  46.23400 38.27400 32.08900
C  48.40100 35.18500 32.74000
C  48.19000 34.71500 34.19000
H  49.00000 35.49200 35.18700
N  49.64800 37.66800 27.92000
C  49.52900 38.61000 28.87200
C  50.53000 39.63000 28.59000
C  50.98600 39.40500 27.24500
C  50.32900 38.17200 26.81800
C  50.73800 40.75200 29.63500
C  52.09900 40.07100 26.47400
O  52.59500 39.55200 25.48000
C  52.70000 41.45600 27.03100
N  49.06100 35.50400 25.77600
C  49.85600 36.33700 25.08400
C  50.12400 35.78500 23.65200
C  49.43700 34.39300 23.74100
C  48.87100 34.37200 25.10000
C  49.59400 36.65200 22.37700
C  50.27000 33.14700 23.40500
C  51.18000 32.43900 24.37800
N  47.71300 33.96600 27.79500
C  47.46500 33.13000 26.73800
C  46.51600 32.07600 27.15800
C  46.11300 32.48500 28.40500
C  46.86300 33.59300 28.77800
C  46.02400 30.90900 26.26000
C  45.21300 32.16600 29.55400
O  44.45000 31.27100 29.74700
C  45.48000 33.29400 30.65100
C  45.80700 32.62300 31.92900
O  46.77800 31.96400 32.18900
O  44.89300 33.00800 32.84900
C  45.27300 32.78000 34.30700
H  48.95900 39.25800 30.74700
H  50.97600 38.01200 24.73800
H  47.80000 32.45100 24.88000
H  46.23000 35.52400 32.47800
H  48.27100 37.70200 32.42700
H  45.68200 37.97900 32.98100
H  45.67600 38.13900 31.16200
H  46.59000 39.30400 32.08700
H  49.23400 35.86700 32.57500
H  48.65700 34.27800 32.19300
H  48.35600 33.63800 34.19400
H  47.13400 34.87100 34.40700
H  50.83500 40.45600 30.67900
H  49.89000 41.43500 29.59500
H  51.63100 41.34000 29.42500
H  53.23800 42.07800 26.31500
H  53.42300 41.35200 27.84000
H  51.85200 41.95900 27.49600
H  51.18900 35.57100 23.56700
H  48.63400 34.42200 23.00400
H  50.40300 36.78400 21.65900
H  49.29700 37.65100 22.69400
H  48.67300 36.29400 21.91600
H  50.97600 33.43900 22.62800
H  49.59600 32.38700 23.01200
H  50.84000 31.40400 24.36000
H  51.11900 32.99900 25.31200
H  52.21600 32.28600 24.07600
H  45.46000 31.18900 25.37000
H  45.40500 30.23700 26.85400
H  46.79800 30.20900 25.94700
H  44.61000 33.95000 30.65000
H  46.27200 32.38200 34.48700
H  44.46100 32.13500 34.64400
H  45.16100 33.76800 34.75300

