158

Mg -0.26100 43.86600 26.35600
C  1.71800 42.90600 28.84800
C  -3.03600 42.92700 28.22800
C  -2.29400 44.60500 23.67000
C  2.50900 44.44700 24.22700
N  -0.64800 42.98000 28.32100
C  0.37300 42.79800 29.24400
C  -0.22100 42.47300 30.61800
C  -1.68500 42.16700 30.28800
C  -1.81900 42.82000 28.88200
C  -2.12100 40.69800 30.23900
C  -0.04800 43.75500 31.54800
C  0.05500 43.67000 33.05200
H  -0.07000 42.21600 33.72200
N  -2.36400 43.73100 25.99500
C  -3.32100 43.42700 26.96100
C  -4.63200 43.71600 26.36900
C  -4.41800 44.12500 25.01400
C  -2.99300 44.11500 24.82000
C  -5.89700 43.44800 27.08700
C  -5.50400 44.48300 23.98200
O  -5.25100 44.74600 22.83000
C  -6.98000 44.48800 24.31200
N  0.02000 44.27500 24.20500
C  -0.98300 44.70000 23.37700
C  -0.34400 45.05100 22.01400
C  1.09700 45.45800 22.43400
C  1.20400 44.76400 23.79800
C  -0.42500 43.96600 20.85000
C  1.26900 46.96700 22.45800
C  0.15800 47.80400 23.26900
N  1.70400 43.58800 26.38800
C  2.71400 43.91600 25.50800
C  4.00700 43.65100 26.20600
C  3.64600 43.21800 27.51500
C  2.25900 43.13700 27.54700
C  5.38200 43.89200 25.69100
C  4.22200 42.96700 28.79500
O  5.41500 42.81400 29.05800
C  3.02300 42.95800 29.81600
C  3.20300 41.91000 30.84000
O  2.93300 40.73400 30.66000
O  3.69900 42.35500 32.01300
C  4.01600 41.32200 33.03900
H  -3.92400 42.84500 28.85800
H  -2.89700 44.74700 22.77000
H  3.18900 45.05400 23.62500
H  0.29500 41.62900 31.07600
H  -2.42400 42.71500 30.87200
H  -2.11400 40.42200 29.18400
H  -3.11100 40.60200 30.68600
H  -1.37800 40.09100 30.75600
H  -0.93600 44.31600 31.25700
H  0.80900 44.31600 31.17700
H  -0.61100 44.43700 33.44700
H  1.05100 44.02300 33.32200
H  -6.57600 44.28300 26.91200
H  -5.75600 43.41500 28.16800
H  -6.23800 42.52400 26.61900
H  -7.50300 44.89600 23.44700
H  -7.26100 45.09300 25.17500
H  -7.27100 43.45000 24.47100
H  -0.89300 45.94300 21.71100
H  1.83900 45.14200 21.70200
H  -1.45500 43.84200 20.51400
H  -0.12800 43.00800 21.27600
H  0.13800 44.38800 20.01700
H  1.46300 47.36200 21.46100
H  2.21100 47.12600 22.98200
H  0.05000 48.77700 22.78800
H  0.55800 48.02900 24.25700
H  -0.85700 47.44700 23.44300
H  5.63500 42.93400 25.23700
H  6.15700 44.10500 26.42800
H  5.33000 44.65000 24.91000
H  2.85500 43.94100 30.25600
H  3.05500 40.92100 33.36000
H  4.51300 41.76200 33.90300
H  4.64000 40.50200 32.68200
Mg -10.90800 17.32700 42.44300
C  -7.35900 16.65700 42.17000
C  -10.29000 20.51000 41.64500
C  -14.17700 17.61200 42.22500
C  -11.22000 13.79900 42.73700
N  -9.04200 18.33900 41.83300
C  -7.66900 17.98200 41.89900
C  -6.76800 19.15800 41.54000
C  -7.75100 20.35600 41.70100
C  -9.13900 19.73400 41.64000
C  -7.56200 21.13100 43.09700
C  -6.05100 19.06900 40.21600
C  -6.77800 19.30200 38.93200
H  -6.12700 18.85600 37.64300
N  -12.13700 18.94000 42.10300
C  -11.66700 20.18100 41.68000
C  -12.84300 20.96800 41.32800
C  -14.01600 20.18500 41.69800
C  -13.45500 18.82700 42.05100
C  -12.77100 22.34700 40.81200
C  -15.47000 20.66800 41.59300
O  -15.77600 21.80600 41.23300
C  -16.55400 19.71700 41.79300
N  -12.42400 15.93700 42.20500
C  -13.69100 16.35000 42.47400
C  -14.67000 15.13600 42.56100
C  -13.67200 13.99000 42.45700
C  -12.31500 14.62000 42.46200
C  -15.63100 14.98600 43.80200
C  -13.72100 12.95400 41.33800
C  -14.33700 11.61100 41.77700
N  -9.59700 15.50000 42.46100
C  -9.89400 14.17800 42.62300
C  -8.68000 13.45000 42.69500
C  -7.65900 14.39600 42.61700
C  -8.29800 15.59400 42.41800
C  -8.61800 11.92100 42.79700
C  -6.15400 14.63900 42.65000
O  -5.26100 13.81300 42.72900
C  -5.96700 16.09400 42.19300
C  -5.06400 16.78700 43.25700
O  -3.93000 17.16900 43.14200
O  -5.72600 16.79400 44.44100
C  -5.00700 17.45100 45.52600
H  -10.11700 21.58200 41.52700
H  -15.26800 17.64100 42.23200
H  -11.42800 12.74100 42.90700
H  -6.04800 19.31100 42.34500
H  -7.41400 21.08600 40.96500
H  -6.99500 20.67500 43.90700
H  -8.55700 21.17400 43.54000
H  -7.21600 22.15500 42.95600
H  -5.62000 18.07600 40.08400
H  -5.18000 19.72400 40.25800
H  -6.98800 20.36600 38.82700
H  -7.80000 18.93300 39.01600
H  -13.10500 22.18600 39.78700
H  -11.79000 22.82200 40.78700
H  -13.36000 23.08600 41.35400
H  -16.56900 19.00900 40.96400
H  -17.46900 20.30700 41.73800
H  -16.44400 19.17500 42.73200
H  -15.26500 15.05000 41.65200
H  -13.72100 13.42500 43.38800
H  -15.59800 15.92800 44.34800
H  -15.37200 14.12600 44.41900
H  -16.70500 14.86100 43.66100
H  -12.73700 12.65000 40.97900
H  -14.32900 13.37000 40.53500
H  -15.32300 11.58900 41.31300
H  -14.40300 11.62000 42.86500
H  -13.79000 10.74400 41.40600
H  -7.81700 11.58900 43.45700
H  -8.33800 11.62600 41.78600
H  -9.56100 11.45600 43.08400
H  -5.53500 16.14600 41.19400
H  -5.75000 17.28900 46.30700
H  -4.80900 18.48600 45.24600
H  -4.06600 16.91600 45.65000

