158

Mg 16.81600 -1.34600 27.88000
C  15.90000 0.81000 30.28300
C  18.80900 -3.02800 30.05600
C  18.26400 -3.11300 25.25500
C  15.21700 0.72900 25.39000
N  17.46100 -0.96400 29.87100
C  16.82700 -0.12600 30.76600
C  17.27700 -0.43300 32.19100
C  18.58400 -1.37600 32.00300
C  18.27400 -1.83600 30.49800
C  19.99300 -0.75900 32.10800
C  16.09000 -1.08500 32.97700
C  15.86100 -0.55100 34.38600
H  17.00900 0.13100 35.12100
N  18.06200 -3.09800 27.73300
C  18.79600 -3.64800 28.80100
C  19.50300 -4.77100 28.26000
C  19.40400 -4.76300 26.88400
C  18.54300 -3.62800 26.52800
C  20.31500 -5.67700 29.16800
C  20.12800 -5.74000 25.88000
O  19.95900 -5.66300 24.68400
C  21.05000 -6.79600 26.43700
N  16.78500 -1.18000 25.69900
C  17.52100 -1.99900 24.86800
C  17.40500 -1.59200 23.35300
C  16.24800 -0.51900 23.44600
C  16.03800 -0.29900 24.94600
C  18.68700 -1.02300 22.70500
C  14.86800 -0.92600 22.81500
C  14.85400 -0.78000 21.30100
N  15.74200 0.31400 27.83000
C  15.14900 1.12400 26.78900
C  14.33400 2.19300 27.34800
C  14.58800 2.06100 28.70600
C  15.48500 0.95900 28.94600
C  13.36300 3.08200 26.66300
C  14.27900 2.66900 29.97900
O  13.41000 3.52200 30.28200
C  15.11200 1.87000 30.97200
C  16.01200 2.88600 31.54800
O  17.19800 2.99300 31.24300
O  15.38800 3.53100 32.59200
C  16.20500 4.42800 33.42300
H  19.38500 -3.43700 30.88900
H  18.85500 -3.53000 24.43800
H  14.68900 1.34500 24.65900
H  17.65200 0.48400 32.64700
H  18.53900 -2.19900 32.71600
H  20.55900 -1.26100 32.89400
H  19.97400 0.23400 32.55800
H  20.54200 -0.60700 31.17900
H  16.22800 -2.16100 32.86900
H  15.16800 -0.76000 32.49600
H  15.49500 -1.38000 34.99300
H  15.01700 0.13700 34.34400
H  21.38500 -5.48600 29.07900
H  20.16000 -6.73800 28.97300
H  20.14800 -5.43100 30.21700
H  21.45100 -7.45900 25.67100
H  20.38000 -7.45800 26.98600
H  21.83100 -6.29000 27.00500
H  17.13000 -2.44500 22.73400
H  16.55700 0.44100 23.03100
H  19.45500 -0.92600 23.47200
H  18.49200 0.00200 22.39000
H  19.09200 -1.55900 21.84600
H  14.11900 -0.32800 23.33500
H  14.67500 -1.96800 23.07000
H  14.31000 0.14800 21.12400
H  14.49700 -1.70700 20.85200
H  15.79500 -0.58600 20.78700
H  12.68400 2.33000 26.26300
H  13.74100 3.58900 25.77500
H  12.96500 3.81600 27.36400
H  14.54600 1.63900 31.87400
H  15.58400 5.23200 33.82000
H  17.15500 4.60700 32.91900
H  16.37100 3.87800 34.34900
Mg 49.66900 45.12600 42.88700
C  46.47800 45.84900 41.63400
C  49.39100 41.99200 41.45000
C  53.00400 44.75900 43.02400
C  50.06200 48.56600 43.41500
N  48.17900 44.13500 41.57700
C  46.94200 44.59100 41.22600
C  46.03500 43.51700 40.62400
C  46.91800 42.27700 40.85900
C  48.22900 42.82800 41.31900
C  46.26600 41.32800 42.01600
C  45.75000 43.81300 39.14600
C  44.41900 43.16400 38.63300
H  44.40300 42.16700 37.43400
N  51.00200 43.55200 42.58700
C  50.70800 42.33100 42.01000
C  51.84200 41.48700 41.95100
C  52.95600 42.24500 42.41400
C  52.32700 43.57600 42.74400
C  51.72000 40.06600 41.60500
C  54.40000 41.79700 42.65300
O  54.66500 40.65300 42.51600
C  55.45800 42.75700 43.17500
N  51.31400 46.40600 43.36600
C  52.55300 46.01900 43.30200
C  53.53400 47.17100 43.65200
C  52.60600 48.44200 43.81300
C  51.19100 47.82900 43.51900
C  54.53900 46.86900 44.78400
C  52.84600 49.64100 42.87700
C  52.94700 50.98000 43.50800
N  48.45400 46.89600 42.92000
C  48.75000 48.18400 43.07500
C  47.56600 49.03800 42.83400
C  46.60600 48.09600 42.36300
C  47.23200 46.83400 42.33700
C  47.51800 50.44100 42.98800
C  45.20500 47.93200 41.91500
O  44.16600 48.61600 41.98500
C  45.02700 46.40600 41.57000
C  44.26700 45.79800 42.60900
O  44.62700 45.76800 43.78800
O  43.16200 45.20200 42.11200
C  42.38100 44.34900 43.00500
H  49.16100 40.99000 41.08100
H  54.09400 44.81800 43.00900
H  50.19000 49.63100 43.62200
H  45.04500 43.39700 41.06500
H  47.02000 41.79300 39.88700
H  45.23100 41.61900 42.19400
H  46.80300 41.39800 42.96200
H  46.36400 40.27700 41.74200
H  46.50900 43.31900 38.54000
H  45.73200 44.89800 39.03600
H  43.73800 43.99400 38.44500
H  43.96500 42.61000 39.45500
H  52.41000 39.39400 42.11500
H  51.97500 39.99900 40.54700
H  50.69000 39.71300 41.63700
H  55.63000 43.41400 42.32200
H  56.37800 42.26200 43.48700
H  55.05400 43.30300 44.02800
H  54.22800 47.46400 42.86400
H  52.49400 48.67200 44.87200
H  54.54200 47.69100 45.50000
H  55.55200 46.97300 44.39500
H  54.45800 45.88400 45.24400
H  52.07600 49.61200 42.10600
H  53.71200 49.44500 42.24500
H  52.03700 51.49800 43.20600
H  53.79100 51.40600 42.96600
H  52.91300 50.94100 44.59700
H  47.53400 50.78400 44.02200
H  46.69300 50.87500 42.42300
H  48.41200 50.86100 42.52700
H  44.43800 46.33700 40.65500
H  41.33500 44.62300 42.87100
H  42.59100 44.45000 44.07000
H  42.46900 43.30200 42.71800

