158

Mg 25.48100 0.60100 28.97000
C  27.29000 0.29600 32.08300
C  22.65800 0.67000 30.79400
C  23.94700 0.70000 26.04600
C  28.62600 -0.18600 27.40400
N  25.04300 0.34800 31.19200
C  25.93200 0.39200 32.24500
C  25.14700 0.43700 33.55400
C  23.66600 0.50200 33.04600
C  23.76300 0.43400 31.55200
C  22.66500 -0.55600 33.63700
C  25.53900 1.60800 34.50700
C  25.41300 1.29900 36.02300
H  26.48000 2.02400 36.92700
N  23.61000 0.79200 28.49100
C  22.56800 0.75900 29.38400
C  21.34000 0.86900 28.59300
C  21.67800 1.06200 27.23600
C  23.13100 0.88500 27.19700
C  20.00900 0.79600 29.19400
C  20.74800 1.35100 26.03600
O  21.13200 1.23700 24.84900
C  19.38700 1.94300 26.30500
N  26.19900 0.28000 27.01900
C  25.34200 0.39700 25.95200
C  26.13400 0.39700 24.61300
C  27.61800 0.16000 25.07100
C  27.48200 -0.02800 26.61300
C  25.53100 -0.45400 23.50500
C  28.70600 1.17700 24.55100
C  28.80100 2.39900 25.44900
N  27.58800 0.15300 29.56400
C  28.70200 -0.17400 28.81300
C  29.79100 -0.35300 29.65000
C  29.30600 -0.10100 30.89800
C  27.92000 0.11800 30.81400
C  31.23200 -0.67400 29.17700
C  29.71300 0.01200 32.26200
O  30.83700 -0.06300 32.81200
C  28.42800 0.25800 33.06000
C  28.26300 -0.88000 33.98800
O  27.83000 -1.97700 33.74100
O  28.80800 -0.51300 35.22100
C  28.59800 -1.28500 36.41100
H  21.69500 0.82500 31.28500
H  23.45600 0.94200 25.10200
H  29.58100 -0.19500 26.87400
H  25.40700 -0.47200 34.09700
H  23.28500 1.47100 33.36700
H  23.01100 -0.73900 34.65500
H  22.58500 -1.48900 33.08000
H  21.70000 -0.07900 33.80400
H  24.81000 2.41100 34.39800
H  26.48500 2.03500 34.17500
H  25.57200 0.22400 36.11700
H  24.40800 1.54300 36.36800
H  19.74300 1.80600 29.50700
H  20.06100 0.11000 30.03900
H  19.30800 0.39100 28.46400
H  18.69500 1.13900 26.55400
H  18.95100 2.38800 25.41000
H  19.40000 2.81900 26.95300
H  25.99900 1.43900 24.32400
H  27.92500 -0.84800 24.79000
H  24.45400 -0.59100 23.60300
H  26.05800 -1.39900 23.37700
H  25.65500 0.05500 22.55000
H  28.33700 1.66700 23.65000
H  29.71900 0.81400 24.38100
H  28.07500 2.37200 26.26100
H  28.62100 3.29100 24.84900
H  29.74900 2.58000 25.95600
H  31.31000 -0.59000 28.09300
H  31.48200 -1.68700 29.49500
H  31.91400 0.07900 29.57000
H  28.46800 1.20000 33.60800
H  29.58500 -1.53000 36.80200
H  28.22000 -2.28200 36.18800
H  27.98800 -0.82200 37.18700
Mg 46.75200 24.96200 28.19200
C  47.47500 27.34400 30.72300
C  46.00900 22.76000 30.80400
C  46.34700 22.69900 25.91300
C  48.00800 27.24400 25.81900
N  46.82900 25.06300 30.55100
C  46.99800 26.13000 31.31500
C  46.74600 25.90000 32.80200
C  46.21600 24.40200 32.76400
C  46.42300 24.01100 31.26000
C  46.81200 23.43200 33.77700
C  45.74500 26.96600 33.36100
C  44.97000 26.46700 34.62100
H  44.86000 27.45400 35.77800
N  46.20300 23.01400 28.34400
C  45.91400 22.28200 29.46400
C  45.59300 20.92100 29.13000
C  45.73100 20.89000 27.71800
C  46.09000 22.22300 27.25100
C  45.15300 19.81900 30.17200
C  45.64200 19.62100 26.82000
O  45.99400 19.56800 25.65900
C  45.29200 18.32700 27.47300
N  47.40500 24.84900 26.18700
C  46.95200 23.87100 25.38700
C  47.22600 24.11100 23.92200
C  47.56500 25.70600 23.87600
C  47.66900 25.96400 25.38700
C  48.47000 23.28600 23.48400
C  46.49500 26.61300 23.10300
C  45.21200 26.76800 23.89300
N  47.55900 26.81700 28.22900
C  48.02100 27.61200 27.16500
C  48.36500 28.93600 27.61100
C  48.25600 28.80800 29.04900
C  47.68200 27.59000 29.32500
C  48.79600 30.06600 26.69000
C  48.34100 29.53200 30.25000
O  48.48500 30.72600 30.60400
C  47.87400 28.63300 31.35700
C  49.04000 28.49100 32.27500
O  50.11200 28.10800 31.88700
O  48.77400 29.05600 33.50700
C  49.76000 28.74500 34.56200
H  45.58100 22.11500 31.57400
H  46.07300 21.91600 25.20400
H  48.39900 27.92400 25.05900
H  47.64100 26.03000 33.41000
H  45.14800 24.52300 32.94700
H  47.57700 23.89900 34.39800
H  47.48200 22.75100 33.25100
H  46.06600 22.83100 34.29700
H  45.06300 27.31800 32.58800
H  46.21300 27.88800 33.70500
H  45.52400 25.59500 34.96800
H  43.97600 26.24900 34.23200
H  44.33300 19.23300 29.75800
H  44.79000 20.32200 31.06800
H  46.00200 19.14600 30.28900
H  44.35800 18.44600 28.02200
H  46.06700 18.09700 28.20500
H  45.24800 17.50500 26.75900
H  46.31700 23.94900 23.34200
H  48.57000 25.92200 23.51300
H  48.34100 22.76200 22.53700
H  48.72400 22.53000 24.22700
H  49.31800 23.94200 23.28700
H  46.26100 26.16200 22.13900
H  46.97200 27.59200 23.05700
H  44.93400 25.86000 24.42800
H  44.36300 26.82900 23.21200
H  45.29700 27.57100 24.62600
H  48.53000 31.00800 27.17100
H  48.32100 30.12300 25.71000
H  49.87700 30.05900 26.55400
H  47.07700 29.19800 31.84000
H  49.32200 28.06600 35.29400
H  50.15600 29.61900 35.07900
H  50.64000 28.18600 34.24500

