158

Mg 48.83200 35.85700 27.66000
C  46.82800 33.95000 29.92300
C  49.33500 38.12000 30.09900
C  50.13900 37.91700 25.29000
C  47.88800 33.48600 25.22600
N  48.18600 35.98500 29.76800
C  47.45700 35.07900 30.48700
C  47.57000 35.39200 31.97800
C  47.89600 36.95700 31.95600
C  48.53100 37.01500 30.55200
C  46.60200 37.80800 31.97900
C  48.58000 34.53000 32.94200
C  48.69700 34.80700 34.41800
H  47.79700 35.88400 35.07700
N  49.67900 37.79400 27.74400
C  49.83800 38.53000 28.83700
C  50.47800 39.71900 28.45100
C  50.72000 39.74700 27.02300
C  50.14400 38.47700 26.62300
C  50.56000 40.92900 29.53300
C  51.20600 40.84800 26.12600
O  51.35600 40.59300 24.93200
C  51.59200 42.18300 26.75900
N  48.97600 35.80600 25.61600
C  49.63100 36.73200 24.87400
C  49.85300 36.26700 23.37500
C  49.40400 34.78800 23.46800
C  48.76800 34.62400 24.88200
C  49.04400 37.02700 22.30300
C  50.59800 33.72700 23.34400
C  50.63800 33.08100 21.90700
N  47.63700 34.01900 27.59100
C  47.35900 33.23300 26.45900
C  46.41600 32.19100 26.89500
C  46.21000 32.40100 28.28100
C  46.91700 33.60900 28.58400
C  45.82500 31.13000 26.05100
C  45.48600 32.00800 29.44900
O  44.69600 31.09700 29.65900
C  45.88800 32.92900 30.54700
C  46.51900 32.12600 31.64200
O  47.59200 31.51300 31.62400
O  45.68500 32.23800 32.70800
C  46.11600 31.68300 34.00900
H  49.44200 38.77800 30.96500
H  50.62000 38.59400 24.58200
H  47.74900 32.80400 24.38500
H  46.60800 35.19100 32.44800
H  48.51000 37.31400 32.78300
H  46.30500 38.17800 32.96100
H  45.71800 37.40000 31.48900
H  46.73900 38.63400 31.28100
H  49.45500 34.80000 32.35100
H  48.53700 33.44100 32.94200
H  49.70900 35.14900 34.63400
H  48.53900 33.85000 34.91600
H  51.59700 41.20600 29.72100
H  50.01900 40.61800 30.42600
H  49.94200 41.78200 29.25200
H  52.20300 41.89200 27.61400
H  50.77300 42.70500 27.25500
H  52.07200 42.97900 26.19000
H  50.90200 36.35900 23.09400
H  48.60400 34.56400 22.76300
H  48.04400 37.27600 22.65800
H  48.78800 36.54900 21.35800
H  49.48100 37.96500 21.95900
H  50.54500 33.01800 24.17000
H  51.52100 34.28300 23.50900
H  50.66100 31.99700 22.02300
H  51.47700 33.35700 21.26800
H  49.83200 33.50300 21.30700
H  45.03500 31.57500 25.44500
H  45.36600 30.46800 26.78500
H  46.64300 30.62200 25.54000
H  45.03700 33.50900 30.90300
H  45.67500 32.30800 34.78500
H  47.20300 31.74700 34.06300
H  45.77900 30.64600 34.00600
Mg 29.94900 57.50700 39.75400
C  27.10900 55.61400 38.90900
C  31.93200 54.74300 39.04300
C  32.59700 59.63600 39.53000
C  27.78000 60.45800 39.93000
N  29.57300 55.52100 39.06000
C  28.31300 54.92900 38.90900
C  28.41700 53.47100 38.58000
C  29.91900 53.09800 38.91300
C  30.54100 54.52300 39.01400
C  30.22500 52.22400 40.15600
C  27.98100 53.10900 37.18400
C  28.59800 53.97600 36.03400
H  27.69600 54.74000 35.02600
N  31.95700 57.23200 39.34200
C  32.58500 55.97700 39.10400
C  33.97400 56.24500 39.02000
C  34.19400 57.64100 39.11400
C  32.83900 58.25700 39.40200
C  34.98600 55.05500 38.86100
C  35.58300 58.23900 39.04800
O  36.52700 57.49400 38.90400
C  35.79800 59.71200 39.18000
N  30.16700 59.74800 39.72100
C  31.34500 60.35200 39.75200
C  31.25600 61.80600 40.11200
C  29.68900 62.05800 40.19400
C  29.12400 60.66800 39.95500
C  32.04800 62.23300 41.37400
C  29.11000 63.26200 39.35800
C  29.76500 64.64500 39.67000
N  27.89900 57.93400 39.70300
C  27.19200 59.15800 39.86000
C  25.78800 58.80900 39.83100
C  25.70500 57.42200 39.40800
C  27.02200 56.99200 39.33200
C  24.61000 59.82600 39.92800
C  24.76900 56.41100 38.95000
O  23.51300 56.36100 38.90500
C  25.65300 55.06200 38.75800
C  25.20900 54.08000 39.82700
O  25.54500 54.11500 40.98700
O  24.25700 53.28700 39.27300
C  23.59400 52.40000 40.16700
H  32.47300 53.82400 38.80900
H  33.42100 60.35100 39.47000
H  27.11400 61.32200 39.99100
H  27.78800 52.91800 39.27900
H  30.36600 52.54700 38.08600
H  31.11300 51.63200 39.93300
H  29.39300 51.57200 40.42400
H  30.43300 52.88100 41.00000
H  26.89300 53.05800 37.14700
H  28.32200 52.08400 37.03600
H  29.28400 53.36800 35.44300
H  29.18900 54.82900 36.36700
H  34.64500 54.34400 38.10900
H  35.11900 54.51500 39.79900
H  35.92800 55.34500 38.39600
H  35.14200 60.24900 38.49500
H  36.78800 59.95200 38.79300
H  35.72600 60.00000 40.22900
H  31.55800 62.41300 39.25900
H  29.40500 62.37500 41.19700
H  32.54600 61.36300 41.80100
H  31.38600 62.62200 42.14800
H  32.79700 62.99700 41.16600
H  28.09000 63.45900 39.68900
H  29.28500 63.06000 38.30100
H  30.79100 64.43700 39.97400
H  29.36700 65.20600 40.51600
H  29.77600 65.25300 38.76500
H  25.07100 60.70600 40.37700
H  23.79800 59.44300 40.54500
H  24.20700 60.10400 38.95400
H  25.40000 54.71900 37.75400
H  24.25600 51.88800 40.86600
H  22.99200 51.67900 39.61500
H  22.94500 53.04400 40.76100

