158

Mg 1.15200 8.29500 25.57300
C  1.88800 10.28900 28.36000
C  1.84100 5.60900 27.49100
C  0.90100 6.45800 22.79400
C  1.22500 11.13800 23.67200
N  1.98800 8.03000 27.71800
C  1.86700 8.90500 28.71600
C  1.85400 8.28000 30.07400
C  2.08000 6.76100 29.68600
C  1.94700 6.79000 28.23200
C  3.37900 6.05600 30.16400
C  0.55800 8.56700 30.80000
C  0.64600 8.76000 32.28100
H  1.71600 7.91200 33.01200
N  1.17800 6.33500 25.21600
C  1.42800 5.34000 26.17600
C  1.26100 4.06400 25.50200
C  0.82300 4.34000 24.17900
C  0.99600 5.80600 24.00100
C  1.24000 2.76000 26.28400
C  0.23600 3.39000 23.15300
O  -0.27800 3.73400 22.09100
C  0.14300 1.84900 23.38600
N  0.86200 8.81400 23.45500
C  0.85700 7.81300 22.53300
C  0.78400 8.48500 21.11400
C  0.66600 9.99000 21.43900
C  0.83900 10.00400 22.93100
C  2.03400 8.09000 20.11900
C  -0.57800 10.67500 20.95600
C  -0.52900 12.17100 20.49200
N  1.62000 10.20100 25.85500
C  1.55300 11.28000 25.01300
C  1.71000 12.52100 25.72300
C  1.83200 12.20400 27.00800
C  1.88900 10.77900 27.07400
C  1.60100 13.93500 25.12600
C  2.02800 12.66800 28.44000
O  2.13700 13.80000 28.86600
C  1.95000 11.45800 29.33000
C  3.14300 11.59400 30.25600
O  4.33400 11.47500 29.97200
O  2.75500 11.80300 31.59000
C  3.91100 12.01800 32.46300
H  1.91600 4.71100 28.10700
H  0.84400 5.71100 21.99900
H  1.35100 12.02100 23.04200
H  2.72900 8.65500 30.60500
H  1.27800 6.10700 30.02800
H  4.01000 6.77300 30.68900
H  4.08400 5.81200 29.36900
H  3.04600 5.25200 30.82100
H  -0.16700 7.75600 30.74200
H  0.04200 9.44700 30.41500
H  -0.27500 8.48200 32.79400
H  0.92700 9.80700 32.39300
H  1.90100 2.00500 25.85800
H  0.24000 2.34100 26.17000
H  1.32000 2.84500 27.36800
H  1.11100 1.53100 23.77400
H  -0.22200 1.49200 22.42300
H  -0.57400 1.71100 24.19500
H  -0.13600 8.04000 20.73400
H  1.58100 10.45500 21.07400
H  2.75200 7.51100 20.69900
H  2.59900 9.00400 19.94000
H  1.65900 7.57400 19.23500
H  -1.34500 10.48100 21.70600
H  -0.86400 10.05100 20.11000
H  -1.19200 12.17100 19.62700
H  0.50000 12.49200 20.33200
H  -0.90500 12.72700 21.35100
H  1.18600 13.88300 24.11900
H  2.52800 14.50200 25.04100
H  0.96600 14.47200 25.83200
H  1.01700 11.57600 29.88000
H  4.64600 12.72900 32.08600
H  4.24000 10.99600 32.65100
H  3.53400 12.26900 33.45500
Mg 9.25000 47.13500 27.11200
C  7.27500 47.25200 30.13300
C  12.05500 47.68900 28.91900
C  10.87600 47.74300 24.24600
C  6.14700 47.29500 25.36800
N  9.64000 47.30400 29.28200
C  8.69600 47.26000 30.28300
C  9.40000 47.37700 31.70700
C  10.84300 47.81100 31.28200
C  10.91600 47.56000 29.69400
C  11.15100 49.30500 31.70400
C  9.24800 46.05700 32.57200
C  9.94900 46.09700 33.98100
H  9.17600 45.53500 35.18200
N  11.28800 47.39700 26.63000
C  12.36300 47.51400 27.54700
C  13.59300 47.63800 26.81100
C  13.24400 47.71600 25.46000
C  11.74300 47.65200 25.40000
C  14.98900 47.77000 27.60700
C  14.15000 47.93500 24.28400
O  13.79300 48.00400 23.10100
C  15.59700 48.05500 24.48400
N  8.53800 47.65200 25.10900
C  9.43800 47.80700 24.13500
C  8.77900 47.93600 22.79300
C  7.28000 47.57100 23.07200
C  7.29800 47.48800 24.59900
C  8.89800 49.39000 22.16700
C  6.72900 46.17100 22.59200
C  6.44000 46.07300 21.08300
N  7.15100 47.08800 27.56700
C  6.02200 47.17300 26.76000
C  4.77800 47.25600 27.50500
C  5.24200 47.23600 28.85400
C  6.62600 47.22400 28.84500
C  3.43200 47.43200 26.89800
C  4.71900 47.37600 30.11000
O  3.63000 47.54700 30.59000
C  6.07800 47.29300 31.11500
C  5.95900 45.96400 31.84600
O  6.33400 44.90900 31.47900
O  5.49700 46.25800 33.08100
C  5.19100 45.13300 33.99700
H  12.90300 47.67200 29.60700
H  11.32800 47.94500 23.27300
H  5.23300 47.17600 24.78200
H  8.82700 48.08400 32.30600
H  11.51100 47.10800 31.78000
H  12.23900 49.34200 31.76700
H  10.72700 49.61500 32.65900
H  10.81000 49.95000 30.89400
H  9.81800 45.22500 32.15900
H  8.21900 45.71600 32.69500
H  10.23300 47.14700 34.03700
H  10.82800 45.45700 33.90300
H  14.83500 47.87200 28.68200
H  15.43700 48.71300 27.29600
H  15.70200 46.95400 27.48700
H  15.84700 48.83900 25.20000
H  16.08200 48.33700 23.55000
H  15.99500 47.08500 24.78200
H  9.20400 47.23500 22.07500
H  6.61800 48.30500 22.61100
H  9.68100 49.96600 22.66000
H  7.98300 49.98200 22.19800
H  9.14600 49.36700 21.10600
H  5.75300 45.94700 23.02100
H  7.39900 45.36700 22.89700
H  6.59100 47.02700 20.57800
H  5.41600 45.69900 21.08800
H  7.10600 45.35100 20.61100
H  3.30100 46.78600 26.03000
H  3.21500 48.43000 26.51600
H  2.71500 47.12700 27.66100
H  6.13200 47.99600 31.94700
H  5.90300 44.34800 34.25200
H  4.22700 44.65700 33.81900
H  5.14000 45.67600 34.94100

