158

Mg 7.17200 2.80200 28.10800
C  8.72600 1.82900 31.13400
C  4.90300 4.55900 29.77300
C  5.97300 3.84000 25.16800
C  9.28500 0.63700 26.47000
N  6.84700 3.17400 30.29100
C  7.61100 2.68100 31.37800
C  7.18900 3.34600 32.67900
C  5.78100 3.93000 32.29400
C  5.86100 3.95300 30.66000
C  4.49200 3.15100 32.82900
C  8.19300 4.33100 33.26500
C  8.97000 3.90800 34.50600
H  8.23800 3.29300 35.72400
N  5.70300 4.15500 27.51200
C  4.78400 4.77900 28.37400
C  3.85500 5.66200 27.64900
C  4.18400 5.41700 26.26000
C  5.31900 4.46300 26.24400
C  2.76300 6.51900 28.30800
C  3.60500 5.97500 24.95200
O  3.89200 5.56200 23.82700
C  2.53700 7.04400 25.11200
N  7.49200 2.24300 26.04100
C  6.85500 2.80600 25.03300
C  7.19000 2.13700 23.72400
C  8.38400 1.22400 24.12800
C  8.43600 1.34500 25.64000
C  5.89600 1.49000 23.14600
C  9.70600 1.40700 23.47000
C  10.71500 2.38900 24.14600
N  8.69600 1.49200 28.63600
C  9.46500 0.71500 27.83600
C  10.40100 -0.01700 28.63900
C  10.18900 0.39800 29.96300
C  9.09300 1.29500 29.89800
C  11.45000 -0.93900 28.06000
C  10.65700 0.31500 31.31200
O  11.56900 -0.36400 31.82300
C  9.78300 1.25200 32.08800
C  9.17300 0.38700 33.16600
O  7.99000 -0.01000 33.19700
O  10.04000 0.34700 34.27800
C  9.56600 -0.40500 35.39500
H  4.20000 5.19000 30.32100
H  5.69700 4.20300 24.17600
H  9.94600 -0.04300 25.92800
H  6.90100 2.53100 33.34300
H  5.59900 4.98000 32.52300
H  4.67900 2.61300 33.75800
H  4.15100 2.45900 32.05800
H  3.74300 3.92400 32.99800
H  7.74200 5.29700 33.49400
H  8.97400 4.53900 32.53300
H  9.50900 4.75600 34.92700
H  9.79400 3.33500 34.08200
H  2.73700 6.25900 29.36600
H  1.85400 6.03500 27.95100
H  2.70900 7.60500 28.23100
H  2.99800 7.93400 25.54200
H  1.67500 6.68400 25.67300
H  2.10400 7.27600 24.13900
H  7.48700 2.91200 23.01700
H  8.15000 0.17700 23.93200
H  5.01700 1.81700 23.70200
H  6.06200 0.41600 23.06700
H  5.78700 1.89100 22.13900
H  9.39500 1.89200 22.54500
H  10.14100 0.42000 23.31000
H  10.25000 2.99600 24.92300
H  11.05700 3.06200 23.35900
H  11.49300 1.80100 24.63300
H  12.20300 -0.41200 27.47300
H  10.99700 -1.75600 27.50000
H  11.93100 -1.33500 28.95400
H  10.53800 1.93200 32.48200
H  8.76000 0.10100 35.92700
H  10.37600 -0.61600 36.09300
H  9.15200 -1.37800 35.13100
Mg 35.06900 2.99500 29.88000
C  32.86200 4.28400 32.36500
C  37.31300 2.58600 32.13800
C  37.04900 1.88400 27.40700
C  32.43700 3.45600 27.59100
N  34.99400 3.40800 32.04800
C  34.03500 3.92800 32.88600
C  34.55200 3.76500 34.35800
C  36.07100 3.45100 34.24000
C  36.14500 3.12200 32.73400
C  37.11000 4.55800 34.52600
C  33.73300 2.69100 35.10000
C  33.30800 3.05800 36.54500
H  33.87200 4.25600 37.19500
N  36.90700 2.29300 29.75200
C  37.74500 2.19600 30.85500
C  38.90800 1.56800 30.51500
C  38.89400 1.35700 29.09900
C  37.59400 1.83900 28.69000
C  40.08100 1.22600 31.43300
C  39.98200 0.68000 28.28900
O  39.87200 0.51400 27.08200
C  41.28700 0.03300 28.92800
N  34.83100 2.83700 27.71700
C  35.82600 2.40800 26.89600
C  35.25500 2.32400 25.41800
C  33.71300 2.39500 25.64800
C  33.63000 2.95400 27.04100
C  35.75700 3.46700 24.45400
C  32.91900 1.05600 25.39900
C  33.10400 0.57600 23.94700
N  33.04200 3.75600 29.90300
C  32.08900 3.87500 28.83600
C  30.88000 4.40200 29.37300
C  31.11600 4.53600 30.76800
C  32.45300 4.15200 31.02300
C  29.55800 4.63900 28.59100
C  30.43100 4.90500 31.98800
O  29.33400 5.31700 32.28400
C  31.60300 4.73800 33.16100
C  31.54500 6.13800 33.75700
O  32.27400 7.07200 33.40700
O  30.72800 6.12300 34.88500
C  30.79100 7.22500 35.84200
H  38.17300 2.63800 32.80900
H  37.69000 1.56900 26.58100
H  31.65900 3.42300 26.82600
H  34.31800 4.73200 34.80300
H  36.28800 2.57600 34.85200
H  37.86400 4.13900 35.19300
H  36.54900 5.35600 35.01200
H  37.49500 4.95500 33.58600
H  34.27300 1.75000 35.21000
H  32.88100 2.38200 34.49400
H  33.52600 2.28100 37.27800
H  32.22700 3.18200 36.47700
H  40.34200 0.16900 31.40300
H  39.94500 1.51700 32.47400
H  40.97300 1.80900 31.20300
H  41.92500 0.75700 29.43400
H  41.93500 -0.49100 28.22500
H  41.01200 -0.70600 29.68100
H  35.52800 1.33400 25.05500
H  33.25300 3.19100 25.06200
H  34.98900 4.07300 23.97400
H  36.36100 3.06300 23.64200
H  36.37600 4.16900 25.01400
H  31.85200 1.17900 25.58200
H  33.28400 0.35000 26.14400
H  33.66500 1.35700 23.43300
H  32.22000 0.51100 23.31200
H  33.69000 -0.34200 23.99000
H  29.02500 3.70600 28.41000
H  29.75300 5.12500 27.63500
H  28.93100 5.34300 29.13900
H  31.34900 3.95400 33.87400
H  31.00000 6.70000 36.77300
H  29.82500 7.71900 35.94700
H  31.57400 7.97500 35.73200

