158

Mg 46.59900 44.35700 42.60000
C  43.26400 43.43400 42.93400
C  47.25300 40.96300 42.39000
C  49.84100 45.06600 41.88900
C  45.70100 47.70200 42.24700
N  45.37000 42.42400 42.80900
C  44.01000 42.31700 42.81500
C  43.54800 40.86800 42.79200
C  44.94900 40.13300 43.05800
C  45.90800 41.26400 42.64400
C  45.23400 39.65800 44.46600
C  42.84700 40.46700 41.52800
C  43.27100 40.99500 40.13800
H  43.98300 40.16200 39.04700
N  48.30600 43.13100 42.22100
C  48.38300 41.75400 42.23600
C  49.73300 41.29400 41.96200
C  50.47300 42.48600 41.70700
C  49.56000 43.65200 41.95800
C  50.15100 39.83800 42.07600
C  51.94100 42.46800 41.43400
O  52.54300 41.43800 41.29900
C  52.67200 43.84500 41.35600
N  47.55500 46.12000 42.05900
C  48.91600 46.16700 41.95400
C  49.46700 47.60600 41.97700
C  48.18800 48.45500 42.29400
C  47.05200 47.40400 42.12100
C  50.62300 47.98300 42.87100
C  48.06000 49.78300 41.46800
C  47.86300 51.13800 42.26800
N  44.82500 45.45900 42.58100
C  44.61600 46.82500 42.54300
C  43.25200 47.04800 42.80500
C  42.64600 45.75800 42.96700
C  43.64900 44.76900 42.75800
C  42.57800 48.42800 42.75800
C  41.46600 45.04200 43.25000
O  40.31200 45.40800 43.45600
C  41.84300 43.53100 43.30700
C  41.67700 43.03900 44.74800
O  42.29500 43.41600 45.72900
O  40.65000 42.09800 44.87600
C  40.55500 41.36000 46.12300
H  47.40200 39.88200 42.34200
H  50.89200 45.36100 41.93200
H  45.44500 48.76100 42.32800
H  42.88600 40.70000 43.64100
H  45.11900 39.35600 42.31300
H  45.76600 40.46800 44.96500
H  45.99600 38.87900 44.48900
H  44.29800 39.46100 44.98800
H  41.79500 40.64900 41.74900
H  42.96000 39.39600 41.36500
H  43.78500 41.95500 40.18800
H  42.31100 41.20600 39.66700
H  50.39700 39.29300 41.16500
H  49.45100 39.17500 42.58400
H  51.04900 39.85600 42.69300
H  52.23300 44.47700 40.58400
H  53.73300 43.65000 41.20100
H  52.56300 44.16700 42.39100
H  49.81700 47.76600 40.95700
H  48.35400 48.70100 43.34400
H  50.68600 48.99000 43.28400
H  51.54600 47.79600 42.32200
H  50.70200 47.32300 43.73400
H  47.32500 49.72500 40.66500
H  49.06200 49.91800 41.05900
H  47.01400 51.68900 41.86300
H  48.73000 51.79900 42.24500
H  47.71100 50.91600 43.32400
H  41.56900 48.20700 43.10600
H  42.46500 48.87700 41.77100
H  42.93200 49.12900 43.51400
H  41.11500 42.95200 42.74000
H  41.37200 41.60400 46.80200
H  40.62600 40.30400 45.85900
H  39.68100 41.65400 46.70500
Mg 41.44800 40.64900 27.07200
C  40.80000 43.08800 29.71900
C  42.12600 38.34600 29.44000
C  42.29600 38.66200 24.55400
C  41.29400 43.49700 24.79200
N  41.48200 40.81300 29.37700
C  41.03800 41.83700 30.22100
C  40.96700 41.32500 31.65100
C  41.37000 39.77100 31.58000
C  41.76100 39.61500 30.04500
C  42.53500 39.46400 32.53800
C  39.65900 41.62600 32.39700
C  39.71200 42.70500 33.44900
H  39.04200 42.40500 34.79300
N  41.94000 38.75400 27.00500
C  42.25300 37.97700 28.09100
C  42.77600 36.72000 27.62000
C  42.68900 36.70900 26.20300
C  42.24700 38.07600 25.85200
C  43.28200 35.61600 28.50800
C  42.99400 35.51800 25.23600
O  42.79400 35.59000 24.04900
C  43.62900 34.28400 25.65200
N  41.72800 40.99200 25.00000
C  42.14400 39.98400 24.14000
C  42.12000 40.42400 22.66200
C  41.93300 42.03800 22.79000
C  41.53700 42.17500 24.32700
C  43.28400 40.02000 21.78800
C  40.88100 42.49300 21.78600
C  39.38000 42.62400 22.32400
N  41.12600 42.82600 27.17400
C  40.90400 43.72900 26.18300
C  40.41100 44.93600 26.73000
C  40.40700 44.75500 28.14000
C  40.79200 43.42000 28.37200
C  40.16200 46.21400 25.96300
C  40.17700 45.40000 29.34000
O  39.90000 46.58700 29.56800
C  40.39800 44.36600 30.47100
C  41.38800 44.91800 31.39500
O  42.57700 44.75800 31.20000
O  40.85300 45.61300 32.42300
C  41.73100 46.39200 33.30900
H  42.29800 37.49700 30.10600
H  42.61600 37.95800 23.78300
H  41.24300 44.17600 23.93900
H  41.75300 41.87900 32.16400
H  40.50600 39.13100 31.76000
H  43.41400 39.59100 31.90700
H  42.46700 38.44500 32.91700
H  42.40200 40.15000 33.37500
H  39.27700 40.70600 32.83800
H  38.89300 41.98400 31.70900
H  39.10900 43.48300 32.97900
H  40.71600 43.03300 33.71900
H  42.40800 34.98800 28.67900
H  43.62700 35.90800 29.50000
H  44.09600 35.05000 28.05300
H  42.90400 33.80400 26.30800
H  44.52700 34.60400 26.17900
H  43.83100 33.60700 24.82200
H  41.21400 40.09800 22.15200
H  42.82800 42.58700 22.49700
H  42.94600 39.86500 20.76300
H  43.57200 39.05100 22.19400
H  44.12000 40.71600 21.85900
H  40.89400 42.04200 20.79300
H  41.13200 43.50300 21.46300
H  39.34300 42.38600 23.38800
H  38.68300 41.88300 21.93400
H  38.89900 43.59400 22.19700
H  39.95800 45.96900 24.92100
H  40.98800 46.92200 26.04200
H  39.32800 46.70800 26.46200
H  39.44100 44.47800 30.98100
H  41.61100 46.04400 34.33500
H  41.33900 47.40300 33.42600
H  42.77300 46.47700 33.00100

