158

Mg 9.13800 3.75400 27.45800
C  10.47400 2.21600 30.35300
C  7.56700 5.99600 29.39700
C  7.72800 4.95700 24.79400
C  10.46300 1.08100 25.51900
N  8.89800 3.90300 29.62600
C  9.62600 3.29800 30.61900
C  9.38800 3.93800 32.00200
C  8.20000 4.94900 31.68100
C  8.29200 5.02200 30.12900
C  6.83400 4.51300 32.14600
C  10.66400 4.48900 32.60100
C  11.07500 3.98000 34.02100
H  11.34800 5.05800 35.06100
N  7.92300 5.40700 27.10600
C  7.42500 6.23600 28.11700
C  6.49800 7.21200 27.49200
C  6.60300 6.98700 26.07100
C  7.38700 5.74200 25.93900
C  5.67400 8.26800 28.27200
C  6.07400 7.69200 24.81500
O  6.44900 7.44100 23.66800
C  5.09700 8.78600 24.98800
N  9.17900 3.10300 25.42200
C  8.42700 3.80200 24.51800
C  8.47100 3.24800 23.08500
C  9.37100 1.95600 23.33100
C  9.71300 2.07700 24.86600
C  7.13900 3.06500 22.34200
C  10.61000 1.71600 22.38100
C  10.49100 0.40100 21.68700
N  10.33900 2.06300 27.78100
C  10.82800 1.06200 26.91200
C  11.62900 0.11800 27.62400
C  11.59200 0.57000 29.00800
C  10.75700 1.69100 29.05700
C  12.31400 -0.99000 26.98600
C  11.93500 0.28200 30.31900
O  12.56800 -0.67700 30.75100
C  11.29500 1.35800 31.28400
C  10.34600 0.64800 32.28500
O  9.44700 -0.12700 32.02900
O  10.66900 1.07300 33.57200
C  9.95100 0.39100 34.64600
H  7.01200 6.65500 30.06700
H  7.30800 5.34400 23.86400
H  10.90500 0.30900 24.88600
H  9.02400 3.16400 32.67900
H  8.28700 5.94800 32.10700
H  6.18100 4.80000 31.32100
H  6.55500 5.12900 33.00100
H  6.79200 3.48100 32.49500
H  10.61800 5.56700 32.75400
H  11.47700 4.30500 31.89900
H  11.97700 3.48400 33.66300
H  10.24800 3.45200 34.49600
H  5.82600 8.40600 29.34300
H  4.64000 8.08600 27.98100
H  5.84600 9.25400 27.84200
H  5.70100 9.65700 25.24500
H  4.53900 8.60100 25.90500
H  4.41900 8.91700 24.14400
H  8.99800 4.04100 22.55400
H  8.71800 1.08600 23.38000
H  6.96900 3.78100 21.53800
H  6.25500 3.26100 22.94800
H  7.15100 2.04500 21.95700
H  11.57900 1.67900 22.87900
H  10.63400 2.64800 21.81700
H  9.57000 -0.17400 21.78400
H  11.34000 -0.20400 22.00700
H  10.58100 0.72500 20.65100
H  12.33400 -1.68800 27.82400
H  13.30500 -0.72500 26.61800
H  11.69200 -1.43100 26.20800
H  11.96300 2.04100 31.80900
H  10.68900 -0.04600 35.31800
H  9.33200 -0.45400 34.34500
H  9.35600 1.16700 35.12700
Mg 44.85000 4.08400 47.08300
C  43.36600 7.14700 47.22000
C  41.79100 2.57600 46.49900
C  46.39000 0.97900 46.40300
C  47.94600 5.58800 46.96000
N  42.76800 4.83400 46.82900
C  42.45400 6.13400 47.01800
C  40.92200 6.34100 46.97500
C  40.39400 4.81200 46.84700
C  41.69600 3.97400 46.72400
C  39.54000 4.37300 48.12300
C  40.31500 7.35000 45.89800
C  40.95900 7.29900 44.54400
H  40.13000 6.98000 43.36700
N  44.16700 2.03500 46.67500
C  42.88500 1.69400 46.45000
C  42.78800 0.24800 46.24500
C  44.12900 -0.21200 46.19300
C  44.95100 0.92900 46.35100
C  41.45500 -0.53400 45.90700
C  44.43400 -1.67700 45.80800
O  43.48200 -2.43700 45.65300
C  45.84600 -2.15000 45.63400
N  46.82100 3.45500 46.58800
C  47.22000 2.15600 46.53100
C  48.73200 1.93900 46.54500
C  49.26600 3.47900 46.69500
C  47.94600 4.22200 46.74600
C  49.32800 0.99600 47.64000
C  50.30200 3.89800 45.62200
C  51.62500 4.58000 46.14400
N  45.59700 6.00200 47.13100
C  46.85600 6.46700 47.11000
C  46.89200 7.89700 47.29300
C  45.50800 8.21500 47.38200
C  44.77800 7.00800 47.26600
C  48.04000 8.86500 47.43600
C  44.52200 9.27300 47.53400
O  44.69300 10.47700 47.74300
C  43.08200 8.58300 47.47300
C  42.38300 8.74600 48.81400
O  42.59300 8.18600 49.86900
O  41.45600 9.70800 48.64600
C  40.46700 10.01500 49.77400
H  40.84300 2.07000 46.30600
H  46.88500 0.02300 46.22200
H  48.91900 6.08300 46.98000
H  40.76800 6.80400 47.95000
H  39.84000 4.68300 45.91800
H  38.66800 3.87500 47.69900
H  39.21200 5.20600 48.74500
H  40.21000 3.75900 48.72600
H  40.14000 8.33800 46.32300
H  39.27900 7.05600 45.73300
H  41.80100 6.60800 44.50800
H  41.48800 8.24600 44.44000
H  41.51100 -1.59500 46.14700
H  41.17400 -0.36000 44.86800
H  40.63400 -0.17500 46.52800
H  46.32000 -1.78100 46.54400
H  46.28400 -1.66300 44.76300
H  45.89000 -3.22800 45.48200
H  49.03000 1.50000 45.59300
H  49.74200 3.48100 47.67600
H  49.56000 0.00000 47.26200
H  48.58300 0.90900 48.43000
H  50.23100 1.43000 48.06900
H  49.67400 4.60200 45.07700
H  50.54700 3.04000 44.99500
H  52.44200 4.20000 45.53100
H  51.75400 4.38500 47.20900
H  51.50400 5.65700 46.02900
H  47.69500 9.88500 47.27100
H  48.78500 8.63900 46.67300
H  48.42800 8.85900 48.45500
H  42.39800 8.99100 46.72900
H  41.04400 10.21700 50.67700
H  39.79100 9.17500 49.93400
H  39.86100 10.85700 49.44000

