158

Mg 24.20600 -6.07900 44.78400
C  26.50200 -3.68500 43.59200
C  21.69600 -4.54500 43.27600
C  22.30800 -8.83900 45.40000
C  27.04200 -7.61700 46.35000
N  24.17900 -4.36000 43.44500
C  25.19100 -3.48700 43.11500
C  24.69300 -2.39700 42.12400
C  23.13000 -2.62500 42.35100
C  22.94500 -3.92800 43.08400
C  22.42300 -1.50300 43.15300
C  25.26600 -2.64100 40.68200
C  25.44800 -1.37000 39.77400
H  24.73900 -1.35200 38.36600
N  22.26500 -6.58000 44.34200
C  21.38800 -5.80000 43.76700
C  20.07900 -6.39500 43.69400
C  20.29500 -7.68000 44.29500
C  21.67700 -7.74400 44.71000
C  18.86100 -5.70200 43.09400
C  19.16000 -8.81000 44.39400
O  18.04500 -8.69200 43.84900
C  19.41600 -10.10100 45.20400
N  24.62400 -7.92300 45.62200
C  23.62200 -8.86600 45.81200
C  24.20600 -10.14200 46.38100
C  25.55600 -9.65100 47.02700
C  25.79900 -8.32200 46.24200
C  23.32800 -10.88900 47.44800
C  26.75600 -10.65200 46.97900
C  27.35600 -10.91000 48.35600
N  26.39800 -5.69100 45.10700
C  27.36900 -6.35100 45.74900
C  28.59800 -5.72200 45.63400
C  28.29700 -4.59900 44.78100
C  26.92500 -4.59900 44.51900
C  29.98700 -6.22300 46.05400
C  28.90100 -3.56300 44.02700
O  30.05300 -3.17200 44.02700
C  27.79800 -2.86200 43.28000
C  27.67600 -1.43700 43.73200
O  27.49600 -1.06200 44.86400
O  27.78300 -0.61100 42.65200
C  27.77900 0.80200 43.00100
H  20.85600 -4.01800 42.81800
H  21.76800 -9.76700 45.60100
H  27.80000 -8.06000 47.00000
H  25.14800 -1.48600 42.51200
H  22.63000 -2.63100 41.38300
H  23.07900 -0.63400 43.21100
H  22.20800 -1.85200 44.16300
H  21.48100 -1.14200 42.74100
H  24.48500 -3.20800 40.17600
H  26.17800 -3.23900 40.67900
H  26.52200 -1.30100 39.59700
H  25.22200 -0.43300 40.28200
H  19.06000 -5.20700 42.14300
H  18.53400 -4.99900 43.86000
H  18.03400 -6.37300 42.86500
H  18.54800 -10.74800 45.33100
H  19.76400 -9.67400 46.14400
H  20.23600 -10.71000 44.82400
H  24.52300 -10.81800 45.58600
H  25.50300 -9.22900 48.03100
H  22.55000 -10.23200 47.83500
H  23.90600 -11.25700 48.29600
H  22.85600 -11.72500 46.93300
H  27.55100 -10.35400 46.29500
H  26.34100 -11.61300 46.67400
H  27.53400 -11.98400 48.40900
H  26.60700 -10.68900 49.11700
H  28.25700 -10.33100 48.55500
H  30.44300 -6.62500 45.14900
H  29.89300 -7.00200 46.81000
H  30.68400 -5.46700 46.41700
H  28.05500 -2.81400 42.22200
H  28.80900 1.08900 43.21500
H  27.09700 1.08500 43.80200
H  27.49100 1.32200 42.08700
Mg -12.10800 37.47900 41.94600
C  -9.65100 35.08900 41.62000
C  -9.56800 39.85400 40.63400
C  -14.50200 39.83600 41.63500
C  -14.39600 35.17500 42.92200
N  -9.97200 37.39900 40.98900
C  -9.18100 36.35100 41.15200
C  -7.83100 36.61500 40.57000
C  -7.72300 38.13200 40.54000
C  -9.23900 38.51400 40.64200
C  -6.96000 38.80100 41.66800
C  -7.72700 36.00400 39.12200
C  -6.65000 35.02900 38.73600
H  -5.67900 35.43200 37.64400
N  -12.07300 39.52500 41.13200
C  -10.94700 40.34000 40.81100
C  -11.35400 41.73700 40.73700
C  -12.76700 41.71100 40.82300
C  -13.18200 40.29800 41.25000
C  -10.52400 42.96700 40.43400
C  -13.64300 42.98100 40.70300
O  -13.15300 44.11000 40.55000
C  -15.14500 42.84300 40.66700
N  -14.26800 37.40400 42.01100
C  -14.98200 38.52300 41.98600
C  -16.40900 38.28000 42.52400
C  -16.33900 36.82300 43.07000
C  -14.92000 36.41200 42.64200
C  -16.88600 39.40300 43.55700
C  -17.41400 35.81600 42.58600
C  -18.40800 35.40600 43.78600
N  -12.04900 35.50000 42.12900
C  -13.05200 34.67600 42.69400
C  -12.46400 33.39600 42.95100
C  -11.14300 33.50100 42.48000
C  -10.91900 34.76500 42.07000
C  -13.23800 32.22000 43.60800
C  -9.89200 32.80100 42.33200
O  -9.62900 31.68200 42.66900
C  -8.77900 33.87300 41.92500
C  -7.81500 34.10200 43.05800
O  -6.69900 33.55500 43.11600
O  -8.32900 34.87700 44.15500
C  -7.53400 34.83600 45.39600
H  -8.76600 40.56800 40.43300
H  -15.33400 40.54300 41.65500
H  -15.06000 34.46000 43.41100
H  -7.02300 36.14200 41.12800
H  -7.44800 38.60200 39.59600
H  -7.66200 39.29700 42.33800
H  -6.25700 39.53400 41.27500
H  -6.42000 38.02400 42.20900
H  -7.68900 36.76900 38.34600
H  -8.64300 35.43200 38.97300
H  -7.14000 34.11000 38.41500
H  -6.09100 34.85500 39.65500
H  -10.84900 43.74000 41.13100
H  -10.59600 43.22900 39.37900
H  -9.47700 42.69500 40.56300
H  -15.69500 43.63700 40.16200
H  -15.28800 42.69800 41.73800
H  -15.51800 41.93300 40.19600
H  -17.00400 38.27500 41.61100
H  -16.44900 36.93100 44.14900
H  -15.98400 39.93500 43.85600
H  -17.42400 39.06800 44.44400
H  -17.56300 40.07500 43.02900
H  -16.96100 34.92300 42.15600
H  -17.97700 36.31200 41.79600
H  -18.17100 34.45400 44.26000
H  -19.39000 35.23200 43.34500
H  -18.44900 36.15400 44.57700
H  -13.77400 32.56100 44.49300
H  -12.58900 31.54600 44.16600
H  -13.95500 31.80400 42.89900
H  -8.10800 33.62800 41.10200
H  -7.72100 35.77500 45.91600
H  -6.44800 34.76200 45.33200
H  -7.91300 34.04400 46.04300

