158

Mg 34.85600 2.54700 29.47600
C  32.78600 3.58100 32.01000
C  37.44800 2.22000 31.66600
C  37.03200 2.12900 26.79200
C  32.15500 2.91300 27.13300
N  35.11900 3.08100 31.59400
C  34.04400 3.27700 32.51100
C  34.61100 3.27700 33.88200
C  36.10700 2.87600 33.71900
C  36.21400 2.65700 32.21500
C  37.15700 3.87600 34.32500
C  33.86700 2.15500 34.75500
C  33.82100 2.50600 36.26800
H  34.76100 3.52700 36.86300
N  36.88400 2.08100 29.25300
C  37.74400 1.99900 30.31600
C  39.01500 1.54900 29.78300
C  38.98900 1.59100 28.40200
C  37.60200 1.85400 28.07500
C  40.16500 0.99400 30.66100
C  40.02300 1.35400 27.31100
O  39.81600 1.41300 26.09100
C  41.50300 1.28100 27.55400
N  34.64900 2.61600 27.34000
C  35.69300 2.46700 26.43500
C  35.18600 2.69300 24.96000
C  33.66600 2.50900 25.12100
C  33.42000 2.67300 26.62900
C  35.65500 4.13700 24.50000
C  33.11200 1.24100 24.66100
C  32.86600 0.06200 25.53500
N  32.87700 3.17700 29.47200
C  31.89300 3.22400 28.46500
C  30.64200 3.68700 29.09700
C  30.98100 3.90600 30.45900
C  32.37500 3.56800 30.64800
C  29.41000 3.89800 28.46700
C  30.43300 4.26600 31.75800
O  29.31700 4.53000 32.19900
C  31.56900 3.99900 32.82100
C  31.82100 5.25100 33.65200
O  32.09900 6.35700 33.22500
O  31.32100 5.03600 34.93500
C  31.42200 6.07500 35.86000
H  38.24900 1.96500 32.36300
H  37.67200 2.14400 25.90800
H  31.28800 3.03300 26.48000
H  34.53100 4.32000 34.18800
H  36.29000 1.90800 34.18700
H  37.71600 3.35100 35.09900
H  36.68200 4.73400 34.80000
H  37.89700 4.18500 33.58700
H  34.35100 1.19500 34.57600
H  32.82900 2.03100 34.44500
H  33.80000 1.56600 36.81900
H  32.83400 2.95700 36.36800
H  40.23500 -0.04000 30.32200
H  39.82400 0.97900 31.69600
H  41.05400 1.60600 30.51100
H  41.76900 0.38200 28.11100
H  41.72900 2.18200 28.12400
H  42.07600 1.18300 26.63200
H  35.73500 1.99700 24.32500
H  33.16100 3.28500 24.54600
H  36.26600 3.93200 23.62100
H  36.37900 4.58000 25.18300
H  34.92700 4.90000 24.22700
H  33.80200 0.91300 23.88300
H  32.24400 1.62800 24.12700
H  32.87200 0.43200 26.56000
H  33.53600 -0.78600 25.39300
H  31.87200 -0.27200 25.23800
H  29.26800 3.71500 27.40200
H  29.08500 4.89900 28.74700
H  28.68600 3.33200 29.05300
H  31.30100 3.09500 33.36800
H  30.53100 6.69900 35.80600
H  32.26400 6.70400 35.57000
H  31.46400 5.64900 36.86300
Mg 35.73400 49.55600 24.85800
C  36.07800 47.86400 27.97800
C  34.54700 52.25700 26.46800
C  35.22800 50.97400 21.85200
C  36.93100 46.62400 23.34900
N  35.54900 50.00600 27.08200
C  35.71600 49.27200 28.16400
C  35.32200 50.04700 29.44000
C  34.70400 51.38700 28.89900
C  34.94800 51.22600 27.34900
C  33.17600 51.65100 29.24100
C  36.43800 50.17500 30.50200
C  36.10900 49.47600 31.86500
H  34.65800 49.55800 32.33500
N  35.01800 51.41000 24.27600
C  34.48100 52.36700 25.08100
C  33.92300 53.41100 24.31300
C  34.16400 53.13600 22.92500
C  34.81900 51.78500 22.93900
C  33.14200 54.57700 24.89800
C  33.65200 53.88900 21.68800
O  33.61500 53.37600 20.57100
C  33.05200 55.30600 21.91100
N  35.84500 48.84600 22.89400
C  35.72800 49.66200 21.75900
C  35.99700 48.89700 20.44500
C  36.56400 47.51700 20.98600
C  36.45300 47.64900 22.52100
C  34.84300 48.77200 19.41500
C  37.93600 47.10500 20.47900
C  39.14300 47.75400 21.20100
N  36.46000 47.65200 25.52900
C  36.74800 46.50100 24.76700
C  37.11000 45.43100 25.56900
C  36.72300 45.83400 26.85300
C  36.41800 47.23900 26.77500
C  37.65400 44.12800 25.14100
C  36.70100 45.47900 28.21700
O  36.93700 44.41600 28.73300
C  36.38700 46.80700 29.00500
C  35.30500 46.54400 29.98800
O  34.08600 46.57700 29.79700
O  35.88200 46.01200 31.13700
C  35.07200 45.35600 32.19600
H  34.06600 53.13900 26.89600
H  34.98300 51.48300 20.91700
H  37.35300 45.76200 22.83000
H  34.44300 49.55700 29.85900
H  35.31200 52.26900 29.09900
H  32.91300 51.25700 30.22300
H  32.47400 51.18500 28.55000
H  33.01600 52.72500 29.32900
H  36.48800 51.22200 30.80100
H  37.34500 49.76500 30.05800
H  36.70000 50.03200 32.59400
H  36.50600 48.46900 31.99200
H  33.02200 54.56400 25.98200
H  32.13600 54.55600 24.48000
H  33.59000 55.53800 24.64800
H  33.58900 55.98900 22.56800
H  32.01700 55.19400 22.23600
H  32.90600 55.73900 20.92100
H  36.79900 49.39900 19.90400
H  35.81200 46.78900 20.68200
H  33.92300 49.13400 19.87400
H  34.72500 47.71300 19.18600
H  34.98000 49.39400 18.53100
H  37.83500 47.29600 19.41100
H  37.97400 46.02700 20.64100
H  38.84900 48.55300 21.88100
H  39.82400 48.29100 20.54100
H  39.70700 47.05200 21.81600
H  38.50200 44.32800 24.48600
H  36.99100 43.45600 24.59800
H  37.91800 43.60100 26.05800
H  37.21400 47.04700 29.67500
H  34.95400 44.32500 31.86400
H  34.05800 45.75200 32.25700
H  35.56900 45.48800 33.15700

