158

Mg -0.41900 7.28300 27.27200
C  0.57700 9.36400 29.99000
C  -0.40100 4.64500 29.33100
C  -0.62900 5.31000 24.55400
C  0.28600 10.08200 25.24400
N  0.16500 7.05000 29.37700
C  0.27500 8.03700 30.31900
C  0.07400 7.44200 31.75800
C  0.09600 5.91200 31.49500
C  -0.01900 5.82500 29.96200
C  1.31600 5.13100 32.11500
C  -1.18800 8.10500 32.37600
C  -1.10700 8.50000 33.83600
H  -0.21800 7.64100 34.80700
N  -0.62700 5.25000 27.06100
C  -0.62500 4.32300 28.00500
C  -1.04800 3.02300 27.50900
C  -1.17800 3.22300 26.04800
C  -0.73300 4.61300 25.84300
C  -1.44900 1.79100 28.36300
C  -1.52700 2.26700 25.03600
O  -1.49100 2.55900 23.82000
C  -1.98100 0.96800 25.44900
N  -0.49400 7.65600 25.12400
C  -0.52200 6.68900 24.22100
C  -0.49900 7.23100 22.77500
C  -0.37100 8.80600 23.09500
C  -0.15300 8.86900 24.59100
C  0.49200 6.70400 21.73300
C  -1.68600 9.57400 22.68600
C  -1.69700 11.11900 22.79300
N  0.20400 9.34900 27.49900
C  0.47200 10.34800 26.61200
C  0.74200 11.62200 27.25800
C  0.79500 11.21800 28.58700
C  0.52700 9.82200 28.69300
C  0.84100 12.93100 26.55800
C  1.12500 11.77800 29.94500
O  1.55200 12.88800 30.23400
C  0.84100 10.57700 30.91000
C  2.03000 10.39700 31.81900
O  3.02000 9.90400 31.35400
O  1.90900 11.00400 33.03100
C  3.03300 10.73200 33.92700
H  -0.44100 3.76300 29.97300
H  -0.88000 4.73300 23.66200
H  0.49100 10.93900 24.59900
H  0.96700 7.62200 32.35600
H  -0.75400 5.37700 31.92100
H  0.89400 4.19700 32.48600
H  1.76000 5.72200 32.91500
H  2.09500 4.84200 31.40900
H  -1.99000 7.36900 32.31700
H  -1.42600 9.03700 31.86400
H  -2.12100 8.42000 34.22900
H  -0.85500 9.56000 33.88600
H  -2.52800 1.66600 28.27600
H  -1.35700 1.91700 29.44200
H  -0.99600 0.87300 27.99000
H  -1.21500 0.31800 25.87100
H  -2.27400 0.58000 24.47400
H  -2.87200 0.99000 26.07800
H  -1.44800 6.98400 22.29900
H  0.46200 9.34600 22.64400
H  0.95200 7.58800 21.29100
H  0.01700 6.03700 21.01300
H  1.29000 6.15800 22.23600
H  -2.48100 9.40800 23.41300
H  -1.99800 9.22100 21.70300
H  -2.14200 11.51100 23.70700
H  -2.22100 11.49200 21.91300
H  -0.68100 11.43600 22.55600
H  0.23900 12.97800 25.65100
H  1.84700 13.25500 26.29000
H  0.37200 13.67200 27.20700
H  -0.00800 10.94900 31.48300
H  3.37500 11.65700 34.39200
H  3.87000 10.19900 33.47600
H  2.63000 10.07000 34.69400
Mg 1.38400 41.93300 24.93100
C  2.32900 42.18800 28.37400
C  -1.54000 40.55900 25.97000
C  0.55600 41.41000 21.73800
C  4.60500 42.77200 23.97900
N  0.45900 41.55600 26.95300
C  1.03800 41.66500 28.19800
C  0.04800 41.35400 29.30000
C  -1.17300 40.77400 28.55800
C  -0.77200 40.94500 27.07200
C  -1.49400 39.33200 28.88500
C  -0.25500 42.63100 30.09400
C  -0.47400 42.45000 31.62200
H  -1.53600 41.49500 32.21700
N  -0.26200 41.21100 24.00300
C  -1.32600 40.66300 24.62300
C  -2.32000 40.21300 23.66100
C  -1.81100 40.49600 22.34000
C  -0.45700 41.05800 22.63500
C  -3.79800 39.83600 24.01000
C  -2.46200 40.35400 20.93500
O  -1.95800 40.74900 19.90200
C  -3.73900 39.67200 20.82800
N  2.39100 42.12800 23.10900
C  1.85200 41.79500 21.90500
C  2.95900 41.89200 20.77900
C  4.13700 42.62100 21.53600
C  3.70000 42.50900 22.94900
C  3.30000 40.52500 20.13500
C  4.29400 44.12800 21.08800
C  3.21200 45.10900 21.58800
N  3.15500 42.35800 25.92000
C  4.36200 42.73700 25.39400
C  5.28900 42.90000 26.46600
C  4.52000 42.69000 27.61600
C  3.20600 42.45200 27.26500
C  6.75000 43.17100 26.36900
C  4.68900 42.62800 29.06300
O  5.70900 42.75500 29.78100
C  3.28400 42.27200 29.59200
C  3.43000 41.06200 30.46200
O  3.80200 39.96700 30.07000
O  3.00500 41.33400 31.73000
C  3.04400 40.14000 32.68600
H  -2.53800 40.22700 26.26300
H  0.40100 41.10600 20.70100
H  5.63700 42.98700 23.69300
H  0.52200 40.64400 29.97800
H  -2.07800 41.36500 28.69800
H  -2.48100 39.39600 29.34200
H  -0.80700 38.89100 29.60700
H  -1.62100 38.69600 28.00900
H  -1.16000 43.21500 29.92300
H  0.52000 43.37500 29.91300
H  -0.63500 43.39700 32.13600
H  0.45800 42.05500 32.02700
H  -3.91500 38.86700 24.49400
H  -4.53900 40.00100 23.22700
H  -4.08500 40.61300 24.71800
H  -3.77800 38.86700 21.56200
H  -3.85300 39.06800 19.92700
H  -4.52800 40.42300 20.85900
H  2.56100 42.44800 19.93000
H  5.09200 42.09900 21.47800
H  2.46400 40.23300 19.50000
H  3.41800 39.76700 20.91000
H  4.23000 40.71500 19.59900
H  4.32900 44.29300 20.01100
H  5.28000 44.39400 21.46900
H  3.64200 45.68000 22.41100
H  2.24500 44.69000 21.86400
H  3.10700 45.81300 20.76200
H  6.97200 44.13700 25.91600
H  7.27500 42.45600 25.73600
H  7.30700 43.01100 27.29200
H  2.90900 43.09100 30.20600
H  4.06600 40.22000 33.05800
H  2.82200 39.14500 32.30200
H  2.35000 40.31600 33.50800

