158

Mg 9.51500 4.57700 28.17300
C  10.85800 3.20200 31.07800
C  7.54600 6.64400 30.08500
C  8.25800 5.81600 25.40100
C  11.22200 2.05000 26.38600
N  9.25200 4.85400 30.34200
C  9.96100 4.25700 31.33500
C  9.61200 4.85300 32.69000
C  8.44300 5.92300 32.37400
C  8.39500 5.85500 30.85100
C  7.07400 5.58100 33.00400
C  10.91400 5.43500 33.38400
C  11.52700 4.70900 34.60300
H  11.86200 5.59700 35.80900
N  8.03900 6.07100 27.76900
C  7.48200 6.82800 28.68900
C  6.81100 7.97500 27.99900
C  6.94900 7.73400 26.58900
C  7.80100 6.49800 26.53300
C  5.89600 8.96800 28.68200
C  6.35200 8.35300 25.38800
O  6.48100 7.88400 24.25500
C  5.62100 9.63400 25.50100
N  9.72500 4.00300 26.19100
C  9.06000 4.71600 25.24400
C  9.47100 4.21500 23.81800
C  10.27100 2.87700 24.10300
C  10.44100 2.99500 25.63400
C  8.38000 3.97900 22.77600
C  11.58700 2.75400 23.29000
C  11.69100 1.68300 22.24300
N  10.66900 2.92300 28.60300
C  11.29400 1.98100 27.79800
C  12.09100 1.08800 28.61000
C  11.95100 1.51400 29.94000
C  11.07300 2.62300 29.81500
C  12.88300 -0.02700 28.07300
C  12.29500 1.30800 31.25400
O  12.98800 0.40300 31.68900
C  11.52700 2.30700 32.09300
C  10.55800 1.59600 32.98500
O  9.36500 1.38200 32.75500
O  11.18400 1.20000 34.16400
C  10.36900 0.47600 35.12200
H  6.90700 7.25900 30.72100
H  8.06200 6.36100 24.47500
H  11.72000 1.29300 25.77600
H  9.34900 3.99900 33.31300
H  8.80000 6.84900 32.82400
H  6.83800 6.37200 33.71600
H  7.13200 4.64800 33.56400
H  6.34600 5.51200 32.19500
H  10.54700 6.34900 33.85200
H  11.67300 5.69000 32.64400
H  12.42500 4.17200 34.29900
H  10.86400 3.91100 34.93700
H  6.27600 9.98400 28.58200
H  5.83600 8.66400 29.72700
H  4.90700 8.98000 28.22400
H  4.70000 9.33400 26.00200
H  5.46400 10.07300 24.51600
H  6.32900 10.21100 26.09500
H  10.13300 4.96100 23.37900
H  9.60800 2.01500 24.02700
H  7.47500 4.42200 23.19000
H  8.29600 2.91600 22.55100
H  8.64600 4.51000 21.86200
H  12.48200 2.65400 23.90400
H  11.81000 3.71600 22.82800
H  10.67700 1.42100 21.94300
H  12.18900 0.84700 22.73300
H  12.24000 2.16600 21.43500
H  13.39100 0.48300 27.25500
H  12.21100 -0.85300 27.84200
H  13.57100 -0.33800 28.85800
H  12.20900 2.80800 32.78000
H  10.36500 1.03300 36.05900
H  10.81200 -0.43500 35.52600
H  9.36500 0.17600 34.82200
Mg -3.24600 35.68500 26.53800
C  -5.08800 33.83400 28.91200
C  -1.99800 37.59300 29.12800
C  -1.80400 37.67200 24.16600
C  -5.02100 33.97000 23.95200
N  -3.45600 35.58800 28.77900
C  -4.30700 34.80900 29.55500
C  -4.21600 35.12400 31.00000
C  -3.25200 36.38300 31.05700
C  -2.84700 36.54900 29.60000
C  -3.73800 37.67700 31.76900
C  -3.54400 33.87500 31.86500
C  -4.18300 33.47200 33.22000
H  -3.33100 33.22500 34.42400
N  -2.03600 37.34300 26.65900
C  -1.56500 37.94200 27.83000
C  -0.59400 39.00100 27.42000
C  -0.60000 39.06400 26.06200
C  -1.52900 38.02600 25.53700
C  0.23700 39.73800 28.40200
C  0.26400 39.89200 25.18900
O  0.26700 39.81400 24.00500
C  1.17900 41.02800 25.67000
N  -3.51400 35.84700 24.38900
C  -2.73700 36.75600 23.70300
C  -3.02200 36.57800 22.21800
C  -3.97300 35.30700 22.12000
C  -4.13800 34.98800 23.55400
C  -3.57200 37.82800 21.54000
C  -3.39900 34.20200 21.29300
C  -2.30800 33.30400 21.90400
N  -4.71100 34.12700 26.39600
C  -5.30000 33.54000 25.26700
C  -6.19500 32.49100 25.73900
C  -6.03800 32.52700 27.20000
C  -5.21800 33.56600 27.50800
C  -6.96600 31.50400 24.90100
C  -6.47000 31.99600 28.41700
O  -7.15400 30.97900 28.54000
C  -5.89900 32.78000 29.58100
C  -6.93900 33.41100 30.41200
O  -7.56200 34.35500 30.06400
O  -7.08600 32.71300 31.65000
C  -8.03600 33.34600 32.52300
H  -1.66000 38.27500 29.91100
H  -1.21500 38.21700 23.42500
H  -5.61500 33.50000 23.16500
H  -5.20600 35.43900 31.32800
H  -2.33300 36.14500 31.59400
H  -3.28100 37.85100 32.74400
H  -4.80300 37.54800 31.95900
H  -3.45400 38.57900 31.22600
H  -2.49400 34.13700 31.99400
H  -3.42100 33.00900 31.21500
H  -4.84800 32.63900 32.99400
H  -4.81100 34.31100 33.51800
H  1.31500 39.67700 28.25100
H  -0.09100 39.32100 29.35500
H  -0.06700 40.78400 28.36900
H  0.63400 41.80200 26.21100
H  1.81200 41.41300 24.87200
H  1.85300 40.62200 26.42500
H  -2.17800 36.34400 21.56900
H  -4.97400 35.52600 21.74900
H  -2.80200 38.27300 20.90900
H  -3.86300 38.57200 22.28200
H  -4.41800 37.64000 20.87900
H  -2.97200 34.57600 20.36300
H  -4.24700 33.56700 21.03500
H  -1.99400 33.77500 22.83500
H  -1.52600 33.01000 21.20300
H  -2.60500 32.34500 22.32800
H  -7.62100 30.83700 25.46000
H  -6.27200 30.81400 24.42200
H  -7.54700 31.91000 24.07300
H  -5.36100 32.04200 30.17600
H  -8.83500 33.74100 31.89700
H  -7.51500 34.05000 33.17100
H  -8.54300 32.57100 33.09800

