158

Mg 49.50100 35.77400 27.00800
C  47.02800 34.78100 29.29100
C  50.20400 38.50800 28.66000
C  51.63200 36.54100 24.51300
C  48.14800 33.21800 24.83600
N  48.68900 36.46500 28.76300
C  47.74900 35.92400 29.62400
C  47.52400 36.87300 30.81600
C  48.35800 38.15600 30.44000
C  49.25900 37.67100 29.25500
C  47.50600 39.46900 30.27200
C  47.86500 36.30600 32.22000
C  46.66500 36.20500 33.14600
H  46.48500 37.51200 33.92800
N  50.89900 37.29900 26.75000
C  51.10200 38.26800 27.58200
C  52.22600 39.08300 27.13300
C  52.65600 38.55800 25.86900
C  51.71200 37.48700 25.62700
C  52.66100 40.30300 27.84100
C  53.80700 38.96600 25.01400
O  54.15600 38.36400 23.97200
C  54.73700 40.11600 25.49000
N  49.65800 35.06300 24.93200
C  50.72800 35.56400 24.20400
C  50.99100 34.71300 22.88900
C  50.11700 33.40400 23.26500
C  49.22600 33.92200 24.33300
C  50.71900 35.27000 21.48600
C  50.97000 32.21200 23.74900
C  51.25400 31.12800 22.75600
N  47.96600 34.16000 26.99100
C  47.51000 33.25700 26.07200
C  46.37900 32.50200 26.64900
C  46.09500 33.14900 27.85000
C  47.14200 34.11500 28.07700
C  45.73800 31.22100 26.03900
C  45.25200 33.13500 28.97500
O  44.30900 32.44800 29.25200
C  45.85200 34.15100 29.95500
C  46.05900 33.42600 31.26200
O  47.10100 32.86800 31.66600
O  44.84100 33.50700 31.95800
C  44.90200 33.00700 33.36100
H  50.40600 39.46400 29.14600
H  52.41500 36.72700 23.77400
H  47.85000 32.39400 24.18400
H  46.44000 36.98700 30.79700
H  49.04700 38.30100 31.27300
H  47.89200 39.92800 29.36200
H  47.68900 40.14800 31.10500
H  46.46100 39.21400 30.09700
H  48.63800 36.91600 32.68700
H  48.30000 35.32000 32.05100
H  46.79400 35.36200 33.82400
H  45.75300 35.97800 32.59500
H  53.72200 40.27700 28.08900
H  52.22500 40.38900 28.83600
H  52.48600 41.18400 27.22200
H  54.15200 41.03500 25.54200
H  55.59000 40.16200 24.81300
H  55.04700 39.89400 26.51100
H  52.02000 34.35200 22.86900
H  49.48300 33.03900 22.45600
H  51.57600 35.14800 20.82400
H  50.63900 36.33900 21.68200
H  49.84300 34.84400 20.99600
H  50.46100 31.64900 24.53200
H  51.97800 32.47000 24.07200
H  50.76100 31.24300 21.79100
H  50.87700 30.16300 23.09400
H  52.31000 31.07300 22.49000
H  46.45900 30.41300 26.16600
H  45.62200 31.41700 24.97300
H  44.77600 30.96400 26.48200
H  45.17200 34.98700 30.12300
H  45.86600 32.75000 33.80000
H  44.33400 32.07900 33.29100
H  44.40800 33.72100 34.02000
Mg 29.76800 57.70100 40.71300
C  27.16100 55.46600 39.83800
C  31.98900 55.29100 39.48100
C  32.26200 60.02300 40.77800
C  27.48000 60.12500 41.43600
N  29.55300 55.63400 39.69000
C  28.44400 54.90100 39.59000
C  28.70600 53.46200 38.99600
C  30.29000 53.41200 39.06900
C  30.69700 54.87100 39.43800
C  30.89500 52.40400 40.06500
C  28.05400 53.06400 37.73000
C  27.66700 54.17100 36.67200
H  28.38300 54.11800 35.25000
N  31.85300 57.62800 40.22300
C  32.57400 56.53900 39.77500
C  33.90100 56.84400 39.59300
C  33.99000 58.26300 39.91900
C  32.66800 58.72900 40.36800
C  34.92200 55.86800 39.19400
C  35.30500 59.09600 39.85700
O  36.34000 58.69700 39.38100
C  35.32500 60.42200 40.44200
N  29.86700 59.80000 41.16300
C  30.97500 60.45500 41.14000
C  30.81400 61.95600 41.51000
C  29.31300 61.97000 42.06500
C  28.82400 60.59400 41.51300
C  31.73100 62.47500 42.61500
C  28.40600 63.22100 41.69600
C  28.20900 64.16400 42.83700
N  27.76200 57.84000 40.74900
C  26.95600 58.88900 41.11100
C  25.59500 58.50700 41.07800
C  25.63300 57.21300 40.64300
C  26.96500 56.82400 40.37600
C  24.35700 59.32800 41.32200
C  24.84000 55.99400 40.27500
O  23.65900 55.83000 40.24700
C  25.82500 54.84300 39.72400
C  25.78400 53.65900 40.57300
O  25.78300 53.68700 41.80600
O  25.70000 52.57900 39.77100
C  25.91600 51.27000 40.43500
H  32.66900 54.47100 39.24200
H  33.06300 60.76400 40.73100
H  26.75400 60.88100 41.74200
H  28.51900 52.70100 39.75500
H  30.79000 53.13400 38.14100
H  30.21200 51.58500 40.29100
H  30.93900 52.76200 41.09400
H  31.79000 51.90400 39.69700
H  27.10500 52.56600 37.93100
H  28.75000 52.41600 37.19800
H  27.82000 55.15100 37.12400
H  26.61600 53.95600 36.47800
H  35.89800 56.31300 39.00000
H  34.59500 55.26900 38.34500
H  35.17600 55.17500 39.99600
H  34.83400 61.15700 39.80400
H  36.37300 60.71400 40.37400
H  35.13500 60.62000 41.49700
H  30.94300 62.48300 40.56500
H  29.28400 61.90100 43.15300
H  32.63400 62.94300 42.22400
H  32.08900 61.61500 43.18100
H  31.18800 63.11400 43.31200
H  27.51900 62.99000 41.10700
H  29.11400 63.83200 41.13600
H  28.69900 65.12900 42.70300
H  28.52100 63.77500 43.80700
H  27.14700 64.36500 42.98100
H  24.43700 59.57500 42.38100
H  23.43800 58.75900 41.18200
H  24.23400 60.21900 40.70600
H  25.45300 54.62900 38.72200
H  26.02700 50.47300 39.70000
H  25.05400 50.92500 41.00700
H  26.76100 51.39000 41.11400

