158

Mg 0.20700 7.79300 26.34700
C  1.24500 9.51600 29.16700
C  0.13100 4.87900 28.03100
C  -0.16000 6.16800 23.40800
C  0.31000 10.85500 24.55300
N  0.73100 7.27800 28.32700
C  1.05200 8.13400 29.39800
C  0.99400 7.37600 30.66500
C  0.79200 5.83200 30.26800
C  0.47300 5.98800 28.77700
C  2.07600 4.96700 30.51500
C  -0.15900 7.99800 31.52900
C  0.19100 8.38600 32.98400
H  1.27200 7.58400 33.80500
N  0.08300 5.75700 25.79800
C  0.01100 4.74700 26.61700
C  -0.24200 3.51000 25.94100
C  -0.18300 3.84600 24.60000
C  -0.18100 5.31200 24.52500
C  -0.45100 2.19900 26.65800
C  -0.34900 2.94300 23.32600
O  -0.38700 3.36800 22.15400
C  -0.38600 1.50900 23.45600
N  0.02900 8.43300 24.37000
C  -0.08600 7.52000 23.35800
C  -0.12000 8.14800 22.03600
C  -0.36900 9.68400 22.38300
C  0.04100 9.67600 23.84800
C  1.09100 7.92300 21.08700
C  -1.82400 10.22400 22.18700
C  -2.03000 11.48100 21.28000
N  0.60300 9.83100 26.81600
C  0.70500 10.90000 25.88200
C  1.19100 12.06400 26.64100
C  1.50100 11.62100 27.94300
C  1.03500 10.22600 27.95300
C  1.57600 13.43300 26.03700
C  2.00400 11.94200 29.27000
O  2.47800 13.03400 29.69600
C  1.67000 10.61600 30.09100
C  2.78000 10.21800 30.97100
O  3.84700 9.69900 30.62900
O  2.54100 10.74000 32.25100
C  3.68500 10.78000 33.13600
H  -0.09100 4.01700 28.66300
H  -0.33100 5.55600 22.52000
H  0.25000 11.74900 23.92900
H  1.95100 7.42000 31.18400
H  -0.05500 5.35500 30.76100
H  2.75300 5.43700 31.22800
H  2.58900 4.73800 29.58100
H  1.63300 4.08800 30.98300
H  -0.99000 7.29800 31.44700
H  -0.42100 8.88300 30.95000
H  -0.74900 8.28800 33.52700
H  0.49100 9.43000 32.89500
H  -0.93500 1.52200 25.95500
H  -1.07000 2.38000 27.53600
H  0.48500 1.81300 27.06200
H  -1.35400 1.27300 23.89900
H  0.45100 1.14200 24.05000
H  -0.47200 1.20500 22.41300
H  -0.97800 7.68300 21.55000
H  0.26600 10.36000 21.81100
H  1.23000 6.87900 20.80800
H  2.00200 8.29300 21.55700
H  0.76500 8.43200 20.18000
H  -2.29800 10.25200 23.16800
H  -2.36100 9.40100 21.71600
H  -2.68100 11.20100 20.45200
H  -1.10500 11.82300 20.81700
H  -2.47900 12.35000 21.76000
H  2.47600 13.88400 26.45600
H  0.77500 14.09500 26.36400
H  1.51900 13.31900 24.95400
H  0.85100 10.87000 30.76400
H  4.67800 10.51500 32.77200
H  3.41000 10.08700 33.93000
H  3.80700 11.78900 33.53000
Mg 48.36500 34.51300 27.67000
C  46.38200 33.19200 30.19000
C  48.62000 37.46400 29.56100
C  49.55300 36.11700 24.97100
C  47.27300 31.84500 25.63300
N  47.71000 35.14200 29.66400
C  46.94300 34.43900 30.50300
C  47.04100 35.10300 31.95100
C  47.27300 36.58500 31.53300
C  47.94000 36.40000 30.17600
C  46.07900 37.59100 31.48700
C  48.26400 34.45800 32.67400
C  48.52900 34.98000 34.10700
H  47.64600 36.01100 34.78500
N  49.26200 36.50400 27.33000
C  49.24200 37.52600 28.24500
C  49.82600 38.64000 27.63300
C  50.16900 38.39100 26.25000
C  49.68800 36.94300 26.11400
C  49.95100 39.93700 28.40900
C  50.63000 39.25600 25.16500
O  50.72400 38.86400 24.02600
C  50.76300 40.72500 25.46300
N  48.35200 34.05100 25.61700
C  48.91300 34.88500 24.72800
C  48.95300 34.30500 23.30500
C  48.24800 32.94400 23.55200
C  47.84800 32.92800 25.03600
C  48.27300 35.17700 22.09400
C  49.08500 31.67700 23.04800
C  50.22700 31.06500 24.00500
N  47.19300 32.76000 27.87300
C  46.94300 31.70500 26.99700
C  46.16400 30.71200 27.72900
C  45.87600 31.30800 28.95700
C  46.52900 32.50600 28.99100
C  45.75600 29.28200 27.24700
C  45.17600 31.09000 30.18100
O  44.54000 30.10800 30.54200
C  45.42300 32.39100 31.05700
C  45.77600 31.95600 32.45800
O  46.75800 31.24000 32.79200
O  44.79700 32.47200 33.28800
C  44.96400 32.21900 34.71100
H  48.45900 38.41500 30.07200
H  49.74800 36.59000 24.00600
H  47.10000 30.97800 24.99200
H  46.23700 34.90300 32.65900
H  48.09800 37.02200 32.09600
H  45.15800 37.06700 31.23200
H  46.22100 38.26900 30.64500
H  46.02100 38.21200 32.38100
H  49.06200 34.59200 31.94500
H  48.21200 33.37000 32.66400
H  49.56800 35.31000 34.14900
H  48.47600 34.08400 34.72500
H  50.86700 40.44300 28.10200
H  50.12700 39.69900 29.45900
H  49.08800 40.58900 28.28200
H  50.03200 41.06800 26.19500
H  50.69800 41.37600 24.59100
H  51.74000 40.86600 25.92500
H  50.04200 34.29400 23.27100
H  47.30600 32.93200 23.00300
H  48.99300 35.38400 21.30300
H  47.98600 36.12400 22.55200
H  47.42800 34.61500 21.69700
H  49.40400 32.05400 22.07600
H  48.28000 30.94800 22.96300
H  49.65700 30.27800 24.49800
H  50.49900 31.86200 24.69700
H  51.10600 30.61300 23.54400
H  45.31200 28.84300 28.14000
H  46.64400 28.75900 26.89400
H  44.96100 29.48700 26.53000
H  44.47300 32.91500 31.16100
H  45.94400 31.87000 35.03600
H  44.29600 31.44100 35.08100
H  44.64100 33.05900 35.32600

