158

Mg -11.43700 38.84000 42.38800
C  -9.43700 35.98700 41.34600
C  -9.09700 40.81700 41.00500
C  -13.44100 41.47000 42.94300
C  -13.91300 36.62500 43.30200
N  -9.49600 38.32200 41.30500
C  -8.85000 37.17800 40.96500
C  -7.62800 37.45200 40.11200
C  -7.36000 39.00400 40.18800
C  -8.73300 39.42700 40.84100
C  -6.14500 39.40800 41.01100
C  -7.86600 36.91600 38.66400
C  -6.71600 36.03300 38.19300
H  -5.69400 36.67600 37.21200
N  -11.31100 40.85500 41.89500
C  -10.23500 41.49200 41.39300
C  -10.36800 42.91900 41.55200
C  -11.67000 43.18400 42.10400
C  -12.20100 41.81200 42.29600
C  -9.30000 43.87800 41.11500
C  -12.36100 44.50100 42.37500
O  -11.72500 45.55600 42.29900
C  -13.77600 44.66200 42.72600
N  -13.43300 39.02400 42.85800
C  -13.96400 40.18500 43.23600
C  -15.39100 40.14700 43.79000
C  -15.59000 38.56600 43.80500
C  -14.24500 38.01600 43.26200
C  -15.50300 40.98700 45.07400
C  -16.84000 38.01100 43.05600
C  -18.15700 38.71000 43.24100
N  -11.67000 36.69300 42.47500
C  -12.72500 35.97400 42.93600
C  -12.36300 34.52300 42.92400
C  -11.09300 34.50700 42.29500
C  -10.75100 35.88200 41.99200
C  -13.10600 33.41600 43.49800
C  -10.00800 33.63100 41.82600
O  -9.96300 32.37900 41.71400
C  -8.99600 34.57900 41.11400
C  -7.61900 34.26000 41.60100
O  -7.19000 34.78600 42.62500
O  -6.99100 33.40100 40.78500
C  -5.65700 32.92200 41.23700
H  -8.24300 41.37500 40.61700
H  -14.07800 42.30300 43.24600
H  -14.63200 35.91900 43.72100
H  -6.86300 36.78800 40.51300
H  -7.18300 39.33900 39.16600
H  -5.73400 40.33200 40.60500
H  -5.42800 38.58800 41.02400
H  -6.44100 39.55500 42.05000
H  -7.95800 37.73600 37.95300
H  -8.77400 36.31300 38.66600
H  -7.11000 35.05700 37.90900
H  -6.02700 35.67000 38.95500
H  -9.01000 44.49000 41.96900
H  -9.68700 44.52000 40.32300
H  -8.41100 43.36900 40.74400
H  -14.40500 44.00200 42.12800
H  -14.05400 45.70000 42.54300
H  -13.75800 44.57700 43.81200
H  -15.98100 40.50800 42.94700
H  -15.84600 38.25200 44.81700
H  -14.64200 41.63200 45.24800
H  -15.71700 40.34000 45.92600
H  -16.27500 41.75400 45.01800
H  -17.08300 36.99200 43.35800
H  -16.58000 38.00900 41.99700
H  -18.15400 39.05800 44.27400
H  -18.96300 37.99000 43.10400
H  -18.25000 39.52500 42.52400
H  -12.95300 33.45700 44.57600
H  -12.77700 32.46000 43.09200
H  -14.16100 33.62900 43.32100
H  -9.05100 34.39800 40.04000
H  -5.11900 33.87000 41.24800
H  -5.16100 32.32700 40.47100
H  -5.65400 32.38700 42.18700
Mg 1.00700 43.62600 25.69800
C  2.88500 43.41500 28.58800
C  -1.68400 42.50600 27.43400
C  -0.55600 42.95900 22.72100
C  3.99300 44.39900 24.01600
N  0.67300 43.13500 27.74200
C  1.51300 43.34400 28.71500
C  0.84400 43.20600 30.06900
C  -0.64900 42.73200 29.78000
C  -0.58500 42.79100 28.24900
C  -1.13000 41.36400 30.34900
C  0.97500 44.51500 30.92500
C  1.54200 44.37500 32.42300
H  1.29800 43.05800 33.16500
N  -0.89100 42.85500 25.12200
C  -1.80400 42.46800 26.02300
C  -2.99100 41.95900 25.27000
C  -2.73700 42.07300 23.93000
C  -1.32700 42.58200 23.85700
C  -4.13000 41.42000 25.96200
C  -3.53800 41.72600 22.65900
O  -3.12300 41.88000 21.49300
C  -4.94500 41.26700 22.72200
N  1.57100 43.85400 23.70800
C  0.69000 43.64100 22.70400
C  1.36700 43.99200 21.34100
C  2.74700 44.56300 21.77100
C  2.80400 44.37400 23.27900
C  1.44700 42.69400 20.50300
C  3.05100 46.09800 21.45300
C  3.76300 46.30600 20.10000
N  3.03500 43.91500 26.18900
C  4.14500 44.16700 25.39100
C  5.37200 44.04100 26.19500
C  4.88100 43.77500 27.46200
C  3.48800 43.71300 27.42500
C  6.75400 44.22500 25.65500
C  5.33700 43.56700 28.79300
O  6.44900 43.52900 29.29000
C  3.99100 43.46300 29.69100
C  4.13300 42.28900 30.54000
O  3.81200 41.16500 30.21700
O  4.90100 42.60500 31.64100
C  5.16300 41.50000 32.61300
H  -2.62300 42.31600 27.95900
H  -1.02600 42.80600 21.74700
H  4.81100 44.83000 23.43500
H  1.36600 42.36700 30.53100
H  -1.41200 43.49400 29.93700
H  -0.25200 40.82500 30.70600
H  -1.56400 40.70000 29.60100
H  -1.64000 41.56200 31.29200
H  -0.01800 44.95800 30.99900
H  1.62300 45.25700 30.45900
H  1.01700 45.18600 32.92800
H  2.56700 44.68100 32.63500
H  -4.39700 40.49900 25.44400
H  -4.98100 42.08300 26.12000
H  -3.91500 41.04800 26.96400
H  -5.65700 41.98100 23.13400
H  -5.07100 40.28000 23.16800
H  -5.30400 41.28200 21.69300
H  0.62300 44.69400 20.96400
H  3.62200 44.04500 21.37700
H  1.34900 41.81300 21.13800
H  2.45200 42.64800 20.08100
H  0.71100 42.78200 19.70500
H  3.63400 46.49300 22.28500
H  2.09400 46.62000 21.46300
H  3.86600 45.36300 19.56200
H  4.82300 46.54400 20.18300
H  3.18600 46.96400 19.44900
H  6.79100 44.65300 24.65300
H  7.35400 43.31500 25.63400
H  7.40900 44.87300 26.23600
H  3.90300 44.36700 30.29400
H  5.03400 42.06800 33.53400
H  6.15200 41.04200 32.60700
H  4.43300 40.69300 32.66500

