158

Mg -2.36700 17.43500 26.54800
C  -3.18300 15.15400 29.17600
C  -2.45500 19.95700 28.79500
C  -2.20200 19.47800 23.92800
C  -2.92900 14.64100 24.22200
N  -2.77500 17.52700 28.76300
C  -3.03000 16.50500 29.62100
C  -3.00000 17.09200 31.03600
C  -2.82200 18.64800 30.83500
C  -2.75100 18.72100 29.40400
C  -3.98900 19.57300 31.40300
C  -1.96300 16.45400 31.99800
C  -1.57700 17.19100 33.23300
H  -1.11200 16.34100 34.43900
N  -2.23700 19.47400 26.38100
C  -2.28000 20.34300 27.42500
C  -2.06700 21.65500 26.85300
C  -1.99100 21.56700 25.39900
C  -2.17300 20.14000 25.20100
C  -1.97100 22.97200 27.75600
C  -1.77500 22.62200 24.42100
O  -1.71000 22.40800 23.22700
C  -1.72700 24.08200 24.79200
N  -2.73200 17.07100 24.36200
C  -2.48000 18.15700 23.55500
C  -2.53600 17.77300 22.05500
C  -2.67200 16.20800 22.13500
C  -2.76800 15.92400 23.69000
C  -3.70800 18.53200 21.32400
C  -1.50000 15.47500 21.54400
C  -0.16000 15.70000 22.30100
N  -2.97000 15.31900 26.61200
C  -3.04400 14.32000 25.59800
C  -3.33800 13.09400 26.25900
C  -3.41500 13.31500 27.66500
C  -3.20900 14.71300 27.82400
C  -3.46300 11.76700 25.55300
C  -3.56200 12.72800 28.97600
O  -3.78300 11.61300 29.36200
C  -3.54000 13.90700 30.01100
C  -2.34200 13.53400 30.85800
O  -1.17200 13.58100 30.50100
O  -2.72400 12.87400 32.01100
C  -1.70900 12.37800 32.90300
H  -2.35200 20.76000 29.52800
H  -2.00200 20.05600 23.02400
H  -2.98800 13.79900 23.53000
H  -4.00600 17.00900 31.44700
H  -1.96400 19.12000 31.31300
H  -4.51000 19.86000 30.48900
H  -3.55500 20.42300 31.92800
H  -4.69600 19.06900 32.06200
H  -1.00200 16.41600 31.48400
H  -2.35800 15.49200 32.32500
H  -2.33300 17.93500 33.48600
H  -0.71900 17.78900 32.92500
H  -1.04000 23.52900 27.64700
H  -1.93600 22.67100 28.80300
H  -2.80200 23.62800 27.49400
H  -2.60500 24.21700 25.42400
H  -1.79600 24.67300 23.87900
H  -0.80000 24.25500 25.33900
H  -1.55500 18.03300 21.65800
H  -3.53300 15.85900 21.56500
H  -4.51200 17.79600 21.32700
H  -3.51600 18.76000 20.27600
H  -4.03400 19.36400 21.94900
H  -1.36800 15.84000 20.52500
H  -1.75000 14.43400 21.34000
H  -0.06300 16.60900 22.89600
H  0.44800 15.93600 21.42800
H  0.26000 14.90200 22.91300
H  -4.12400 11.87300 24.69300
H  -3.79600 10.99200 26.24400
H  -2.62100 11.26700 25.07400
H  -4.44300 13.94200 30.62100
H  -2.11100 11.90000 33.79600
H  -1.20800 13.29900 33.20200
H  -0.97100 11.70600 32.46500
Mg 16.88000 -2.29400 27.37000
C  15.64800 -0.13700 29.90300
C  19.08400 -3.49300 29.51300
C  18.13200 -4.11500 24.84200
C  14.71400 -0.59800 25.11700
N  17.31500 -1.86900 29.50600
C  16.67500 -0.97200 30.34800
C  17.23300 -1.20100 31.77700
C  18.53400 -2.05800 31.52300
C  18.33700 -2.46900 30.04000
C  19.88000 -1.43600 31.84600
C  16.17400 -1.93200 32.68700
C  16.17900 -1.71400 34.20000
H  17.37200 -0.88400 34.69700
N  18.35200 -3.61200 27.20900
C  19.15400 -4.03700 28.24600
C  20.11400 -5.02800 27.80300
C  19.75700 -5.28300 26.46500
C  18.67300 -4.34800 26.09900
C  21.20700 -5.69800 28.69000
C  20.35500 -6.31100 25.46600
O  20.02300 -6.53600 24.32100
C  21.54000 -7.12700 25.92200
N  16.47800 -2.28000 25.23000
C  17.12900 -3.14400 24.44000
C  16.53900 -3.05200 23.07000
C  15.25800 -2.12300 23.17400
C  15.43100 -1.68300 24.60000
C  17.59400 -2.50400 22.10200
C  13.91300 -2.79300 22.96400
C  13.51000 -2.81500 21.45500
N  15.39200 -0.70700 27.47800
C  14.67000 -0.09100 26.46200
C  13.84600 1.01200 27.03800
C  14.18600 0.94700 28.41300
C  15.13000 -0.08300 28.62500
C  12.77200 1.90200 26.39900
C  13.87400 1.50200 29.71700
O  13.09100 2.43100 29.95200
C  14.90100 0.93000 30.68500
C  15.71900 1.91800 31.45400
O  16.67300 2.56000 30.90500
O  15.32200 2.00700 32.76800
C  16.14100 2.97800 33.56300
H  19.85500 -3.89500 30.17400
H  18.28800 -4.77800 23.98900
H  14.02700 -0.11400 24.42000
H  17.50200 -0.20800 32.13900
H  18.43200 -2.91500 32.18800
H  20.34300 -2.12700 32.55000
H  19.83600 -0.41100 32.21500
H  20.55200 -1.52900 30.99300
H  16.12700 -2.98200 32.39600
H  15.18000 -1.58700 32.39900
H  16.35800 -2.68200 34.66800
H  15.28900 -1.26100 34.63600
H  22.14300 -5.94900 28.19100
H  20.78200 -6.64400 29.02600
H  21.40900 -4.94900 29.45600
H  22.38600 -6.47100 26.12700
H  21.85000 -7.80400 25.12600
H  21.30800 -7.82300 26.72900
H  16.18300 -3.99600 22.65600
H  15.30700 -1.25600 22.51600
H  18.55700 -2.21000 22.51900
H  17.32700 -1.59600 21.56200
H  17.84200 -3.29800 21.39700
H  13.06700 -2.31500 23.45700
H  14.04100 -3.82200 23.30100
H  14.16200 -2.18000 20.85400
H  12.50600 -2.40700 21.57100
H  13.41900 -3.84300 21.10400
H  12.09700 1.31700 25.77400
H  13.15900 2.63600 25.69200
H  12.26100 2.44900 27.19100
H  14.35900 0.51500 31.53400
H  15.92700 4.00200 33.25900
H  17.21400 2.80000 33.48800
H  15.87800 2.86200 34.61500

