158

Mg 35.92800 2.19700 30.30300
C  33.45300 3.22100 32.66900
C  38.27300 2.20800 32.79400
C  38.18800 1.41300 27.94600
C  33.50400 2.70600 27.74500
N  35.85000 2.69900 32.42500
C  34.74700 3.02200 33.18400
C  35.08400 3.13600 34.63500
C  36.64900 3.14200 34.64500
C  36.99400 2.64200 33.20400
C  37.26400 4.53600 35.16400
C  34.53200 1.94300 35.43900
C  33.78200 2.34700 36.72000
H  34.13900 3.70500 37.39800
N  37.94200 1.83200 30.38300
C  38.66300 1.80600 31.51300
C  40.01400 1.38900 31.21300
C  40.04700 1.08800 29.83200
C  38.70600 1.47200 29.27100
C  41.07500 1.05600 32.28400
C  41.20000 0.58400 29.06000
O  40.98700 0.39800 27.80100
C  42.55500 0.20100 29.73200
N  35.89300 2.05000 28.16500
C  36.93200 1.71800 27.44600
C  36.69800 1.79700 25.97200
C  35.15000 1.80900 25.90500
C  34.79500 2.23100 27.36400
C  37.50100 2.99700 25.31100
C  34.49500 0.46700 25.41500
C  33.57400 0.73700 24.19900
N  33.95500 2.89100 30.14600
C  33.09900 2.92700 29.02100
C  31.73700 3.26800 29.51800
C  31.88600 3.45600 30.93000
C  33.19000 3.13000 31.30900
C  30.46400 3.27100 28.71400
C  31.14000 3.83400 32.13700
O  30.00600 4.20400 32.32200
C  32.20600 3.62800 33.30100
C  32.38000 4.98500 33.97200
O  33.08200 5.94000 33.58700
O  31.44300 5.10400 34.91000
C  31.12500 6.42300 35.45100
H  38.98000 2.15700 33.62500
H  38.93400 1.35800 27.15100
H  32.77500 2.77500 26.93500
H  34.68000 4.07600 35.01000
H  37.00700 2.39300 35.35100
H  37.93100 4.89800 34.38200
H  37.76000 4.31300 36.10900
H  36.46900 5.26500 35.31800
H  35.28300 1.19000 35.67600
H  33.87100 1.42800 34.74100
H  33.91500 1.57000 37.47300
H  32.71700 2.23400 36.51600
H  41.12500 -0.03200 32.29600
H  40.66900 1.12600 33.29400
H  42.05900 1.48200 32.08700
H  43.16100 -0.12300 28.88600
H  42.43600 -0.69100 30.34700
H  43.03600 1.09800 30.12200
H  37.09400 0.85400 25.59700
H  34.94200 2.61800 25.20400
H  38.43700 3.19200 25.83500
H  36.87100 3.88600 25.32600
H  37.78800 2.64700 24.31900
H  33.88500 0.09000 26.23600
H  35.30200 -0.23800 25.21300
H  32.59700 0.39400 24.54100
H  33.85100 0.21200 23.28500
H  33.44800 1.80000 23.99200
H  30.46400 2.38500 28.08000
H  30.51200 4.09500 28.00100
H  29.59900 3.22800 29.37600
H  31.82900 2.92600 34.04500
H  32.01000 7.04200 35.59800
H  30.50300 6.32900 36.34000
H  30.61100 6.92300 34.62900
Mg 16.86600 52.69500 26.51800
C  18.83900 51.33700 29.04300
C  14.57400 53.65400 28.93900
C  14.82600 53.76800 24.06000
C  18.92100 51.28200 24.09900
N  16.79500 52.59000 28.72500
C  17.71900 52.05700 29.53900
C  17.37400 52.25500 30.98800
C  15.81300 52.48400 30.88800
C  15.73100 52.99900 29.41800
C  14.91600 51.22700 31.13100
C  18.20800 53.44300 31.54500
C  18.75800 53.31400 32.92100
H  17.81700 52.55700 33.86300
N  14.95100 53.56300 26.48500
C  14.28100 54.00400 27.59800
C  13.20600 54.92900 27.22400
C  13.26600 54.92800 25.80500
C  14.36000 54.05600 25.37100
C  12.35300 55.68600 28.20900
C  12.31700 55.67900 24.89700
O  12.43600 55.68500 23.69900
C  11.07000 56.38000 25.31900
N  16.77600 52.44800 24.29300
C  15.86200 53.03500 23.52000
C  16.15100 52.92300 22.05900
C  17.45900 52.10000 22.02100
C  17.76800 51.93900 23.53800
C  14.98300 52.37100 21.12000
C  18.50800 52.85700 21.20000
C  19.41600 53.99900 21.79600
N  18.52700 51.59600 26.48000
C  19.26600 51.09700 25.41800
C  20.46600 50.39600 25.92200
C  20.25700 50.43600 27.33500
C  19.13700 51.18100 27.61900
C  21.61300 49.76800 25.19000
C  20.84900 50.02100 28.55300
O  21.90600 49.43600 28.76400
C  19.92900 50.64600 29.74000
C  19.48000 49.64000 30.64600
O  18.51500 48.94100 30.38400
O  20.18700 49.65200 31.84200
C  19.66600 48.64400 32.81800
H  13.89600 53.90500 29.75700
H  14.25300 54.23700 23.25800
H  19.59700 50.87000 23.34600
H  17.55100 51.33900 31.55200
H  15.56300 53.25300 31.61900
H  14.21300 51.55800 31.89500
H  15.41000 50.33100 31.50700
H  14.43500 50.82300 30.24000
H  17.72000 54.40500 31.39000
H  19.13300 53.44600 30.96900
H  18.90800 54.30100 33.36000
H  19.70700 52.78600 33.01300
H  12.79800 55.69700 29.20400
H  11.31600 55.35300 28.24500
H  12.35000 56.73500 27.91400
H  11.41500 57.16600 25.99100
H  10.41400 55.69900 25.86000
H  10.42200 56.76600 24.53200
H  16.48900 53.90700 21.73400
H  17.21400 51.13200 21.58500
H  15.29600 51.55800 20.46500
H  14.58100 53.17400 20.50300
H  14.22100 51.98800 21.79900
H  17.96500 53.30100 20.36500
H  19.25400 52.19400 20.76400
H  19.07200 54.12400 22.82300
H  19.13100 54.94200 21.32900
H  20.49200 53.87500 21.67500
H  21.32300 49.66300 24.14400
H  21.81900 48.78600 25.61700
H  22.49200 50.37900 25.39300
H  20.49500 51.38700 30.30500
H  18.60300 48.44600 32.68200
H  19.74700 49.03800 33.83100
H  20.28900 47.74900 32.84600

