158

Mg -2.06700 17.13300 25.99000
C  -2.50800 14.88300 28.69900
C  -2.35500 19.68800 28.33800
C  -2.44900 19.25000 23.51800
C  -2.31300 14.42900 23.82000
N  -2.63500 17.18900 28.23400
C  -2.39800 16.21500 29.17800
C  -2.41500 16.76200 30.61200
C  -2.61900 18.31300 30.37000
C  -2.54600 18.42700 28.88000
C  -3.91900 18.86900 30.88500
C  -1.25900 16.24700 31.48300
C  -0.34400 17.07900 32.50200
H  -0.02200 16.47400 33.87000
N  -2.12500 19.21100 25.92500
C  -2.23500 20.06300 27.00000
C  -2.15500 21.46100 26.39200
C  -2.32800 21.34400 25.01300
C  -2.27100 19.91300 24.78300
C  -2.10100 22.69500 27.21800
C  -2.33700 22.37700 23.93400
O  -2.36000 22.08300 22.72300
C  -2.23700 23.82800 24.35000
N  -2.21700 16.83500 23.98500
C  -2.32200 17.91200 23.10800
C  -2.24700 17.40900 21.66000
C  -1.93300 15.88000 21.79800
C  -2.19900 15.68200 23.31800
C  -3.45500 17.66200 20.68400
C  -0.53800 15.44500 21.24400
C  -0.32300 15.58000 19.71700
N  -2.37700 15.06100 26.15800
C  -2.48500 14.07700 25.14600
C  -2.68800 12.81200 25.73300
C  -2.67300 13.09100 27.11300
C  -2.47300 14.45900 27.34300
C  -2.99700 11.53200 25.01300
C  -2.83000 12.40000 28.32200
O  -2.93100 11.20500 28.56900
C  -2.77400 13.60500 29.43200
C  -1.61700 13.29600 30.32100
O  -0.41900 13.18600 30.00900
O  -2.20600 12.90900 31.53600
C  -1.29200 12.24500 32.47200
H  -2.34100 20.59900 28.94000
H  -2.57700 19.82800 22.60000
H  -2.39200 13.66600 23.04300
H  -3.31800 16.40600 31.10800
H  -1.82900 18.91300 30.82300
H  -4.29900 18.35000 31.76500
H  -4.62300 18.90200 30.05300
H  -3.75600 19.90900 31.16600
H  -0.57200 15.81800 30.75300
H  -1.71800 15.40700 32.00400
H  -0.86700 18.02500 32.64300
H  0.64900 17.34900 32.14300
H  -1.17700 23.19800 26.93400
H  -1.96100 22.40300 28.25900
H  -3.07200 23.18700 27.15800
H  -2.59400 24.51000 23.57900
H  -1.19400 24.03900 24.58500
H  -2.96600 23.98000 25.14600
H  -1.40400 17.86600 21.14300
H  -2.66100 15.30800 21.22300
H  -3.77600 18.69900 20.58500
H  -4.36600 17.24800 21.11600
H  -3.38500 17.33800 19.64500
H  -0.38300 14.38100 21.42000
H  0.25000 15.91800 21.83000
H  0.71400 15.88500 19.57400
H  -1.08400 16.24500 19.30900
H  -0.36800 14.59500 19.25200
H  -3.15700 10.88900 25.87900
H  -2.23300 11.16700 24.32700
H  -3.79100 11.68500 24.28200
H  -3.73100 13.54500 29.95000
H  -0.64800 11.50600 31.99600
H  -1.91500 11.92700 33.30800
H  -0.59300 13.02000 32.79000
Mg 39.91500 9.05200 29.53400
C  41.68700 10.57300 32.02100
C  37.57400 8.06100 31.72800
C  38.37700 7.22800 26.95100
C  42.74300 9.42700 27.40600
N  39.77300 9.26500 31.69000
C  40.50400 9.99600 32.53700
C  39.88500 10.16000 33.97100
C  38.65800 9.24900 33.80700
C  38.65200 8.85600 32.30200
C  38.63300 7.95200 34.78800
C  39.50900 11.63000 34.42700
C  38.41500 11.82000 35.52600
H  38.81900 12.68600 36.63400
N  38.04800 8.00500 29.29400
C  37.27600 7.63600 30.37800
C  36.07800 6.99100 29.89200
C  36.21000 6.90300 28.50600
C  37.55500 7.40500 28.14900
C  34.99500 6.49000 30.78100
C  35.24700 6.28100 27.49600
O  35.49800 6.16100 26.33500
C  33.89500 5.73100 27.86800
N  40.58400 8.23500 27.56900
C  39.77900 7.54400 26.73100
C  40.41900 7.42000 25.31500
C  41.78500 8.07200 25.49300
C  41.70200 8.68800 26.90700
C  40.52500 5.94500 24.73900
C  42.11400 9.16000 24.41400
C  41.32400 10.50800 24.60200
N  41.81300 9.87500 29.65100
C  42.78600 10.05700 28.69600
C  43.84000 10.87100 29.23400
C  43.50400 11.09900 30.51400
C  42.19800 10.48600 30.75200
C  45.04700 11.28700 28.52000
C  43.90900 11.61500 31.72500
O  44.93600 12.25400 31.97500
C  42.74800 11.33000 32.73100
C  43.30700 10.52400 33.90800
O  43.86200 9.42800 33.81000
O  42.99900 11.13000 35.09200
C  42.98600 10.27800 36.24600
H  36.89000 7.80900 32.54200
H  37.88900 6.72300 26.11500
H  43.50400 9.63700 26.65100
H  40.58300 9.79400 34.72400
H  37.74700 9.78500 34.07100
H  38.67600 7.00800 34.24600
H  37.79700 7.90900 35.48600
H  39.55400 7.96900 35.37000
H  39.06700 12.11900 33.55900
H  40.33700 12.30300 34.65300
H  38.23400 10.85500 35.99900
H  37.49500 12.12900 35.03000
H  34.02300 6.80700 30.40300
H  35.12200 6.93700 31.76700
H  35.10600 5.40800 30.85600
H  34.02000 4.87900 28.53600
H  33.41000 5.28900 26.99800
H  33.18400 6.44700 28.27900
H  39.89900 8.04000 24.58500
H  42.59500 7.35900 25.64600
H  40.18600 5.23400 25.49200
H  41.59400 5.90900 24.53000
H  40.00200 5.85000 23.78700
H  41.85400 8.63600 23.49400
H  43.18700 9.35000 24.42100
H  40.85700 10.79500 23.65900
H  41.95900 11.30400 24.99200
H  40.57300 10.45300 25.38900
H  45.07600 12.37600 28.48100
H  45.13400 10.95000 27.48800
H  45.93100 10.95100 29.06200
H  42.35400 12.30000 33.03300
H  43.17800 10.90000 37.11900
H  43.85600 9.65000 36.43900
H  42.07900 9.67300 36.22800

