158

Mg 25.86300 1.77100 29.22600
C  27.81100 1.55200 32.18600
C  23.17300 2.21700 31.14600
C  24.18400 1.89700 26.37700
C  28.86200 0.73700 27.43400
N  25.60500 2.07300 31.41600
C  26.48300 1.91100 32.42100
C  25.84700 2.20700 33.83700
C  24.35100 2.29000 33.46500
C  24.31400 2.21700 31.87600
C  23.56500 1.14700 34.10400
C  26.42500 3.44900 34.57800
C  26.95400 3.28700 36.01900
H  26.65300 4.39000 37.13400
N  23.89900 1.96200 28.87800
C  22.91500 2.09200 29.80400
C  21.62800 2.17600 29.08500
C  21.90400 2.27900 27.66900
C  23.38800 2.00900 27.58000
C  20.33100 2.35300 29.84700
C  21.00500 2.60000 26.57500
O  21.37200 2.56100 25.38900
C  19.55400 2.95500 26.81400
N  26.43600 1.39200 27.23000
C  25.52000 1.57400 26.21700
C  26.13100 1.26100 24.81600
C  27.50500 0.63200 25.14200
C  27.63600 0.93600 26.67100
C  25.19800 0.27900 23.96500
C  28.71700 1.25000 24.37800
C  29.10500 2.69900 24.69600
N  27.87700 1.24200 29.65100
C  28.98700 0.91300 28.88300
C  30.19100 0.74300 29.69400
C  29.73100 0.98600 30.98000
C  28.32100 1.27900 30.89500
C  31.53400 0.40200 29.15100
C  30.17000 1.14500 32.29500
O  31.26600 1.07600 32.83600
C  28.90200 1.49600 33.19900
C  28.79800 0.52500 34.31500
O  28.48400 -0.67300 34.19000
O  29.28100 1.07400 35.51000
C  29.61600 0.17600 36.65900
H  22.25400 2.44600 31.69000
H  23.78300 2.07000 25.37600
H  29.76100 0.47600 26.87100
H  26.12000 1.31300 34.39800
H  23.95400 3.26700 33.74200
H  23.30400 0.38500 33.37100
H  22.67000 1.43300 34.65600
H  24.17300 0.48500 34.72100
H  25.77900 4.32600 34.54500
H  27.36200 3.67400 34.06800
H  28.03900 3.17900 36.02200
H  26.63000 2.27700 36.27000
H  20.42500 2.11900 30.90700
H  19.53300 1.69000 29.51200
H  20.19500 3.42400 29.70000
H  18.99600 2.06800 27.11400
H  19.14000 3.35600 25.88900
H  19.48100 3.71700 27.59000
H  26.29100 2.17100 24.23700
H  27.51300 -0.45500 25.07200
H  24.27900 0.00400 24.48200
H  25.72000 -0.63300 23.67600
H  24.79200 0.87100 23.14400
H  28.47400 1.22100 23.31600
H  29.63900 0.70200 24.57300
H  29.98900 2.51900 25.30700
H  28.35700 3.31500 25.19700
H  29.53500 3.22800 23.84600
H  32.06700 1.27500 28.77500
H  31.33700 -0.23500 28.28900
H  32.11800 -0.13700 29.89700
H  29.02900 2.53000 33.52000
H  30.42600 0.56500 37.27500
H  29.94800 -0.84400 36.46300
H  28.75500 -0.04800 37.28900
Mg -5.56500 26.06800 26.57800
C  -4.41600 27.66900 29.48300
C  -7.40900 24.09100 28.46300
C  -6.52500 24.51100 23.67700
C  -3.27600 27.87100 24.69200
N  -5.71000 25.89100 28.63900
C  -5.11700 26.58400 29.71400
C  -5.74700 26.25000 31.03200
C  -6.34100 24.81200 30.66800
C  -6.53300 24.89600 29.20800
C  -5.58600 23.55700 31.16000
C  -6.83200 27.20600 31.67500
C  -6.88500 27.27200 33.24500
H  -6.08300 26.20400 34.01900
N  -6.78800 24.51400 26.13600
C  -7.59100 23.91400 27.10000
C  -8.36000 22.86600 26.47700
C  -8.11200 22.91000 25.08500
C  -7.10600 24.00700 24.88000
C  -9.22200 21.94800 27.24600
C  -8.64900 21.97100 23.89200
O  -8.36900 22.15500 22.72000
C  -9.60200 20.85500 24.22100
N  -5.06900 26.28100 24.47000
C  -5.56300 25.47600 23.49000
C  -4.99600 25.77300 22.15200
C  -3.89800 26.81000 22.42200
C  -4.12000 27.04200 23.94300
C  -4.25800 24.52300 21.53200
C  -4.26800 28.08600 21.68000
C  -3.84500 28.25500 20.19900
N  -4.16900 27.52500 26.91400
C  -3.36200 28.18600 26.06600
C  -2.59000 29.16100 26.84100
C  -3.01900 29.00900 28.20600
C  -4.03200 28.02500 28.20300
C  -1.49400 29.97600 26.22400
C  -2.78400 29.56800 29.48100
O  -2.08400 30.46400 29.93300
C  -3.82300 28.77600 30.36400
C  -3.01400 28.30300 31.52800
O  -2.04300 27.56100 31.44000
O  -3.29900 29.04000 32.63600
C  -2.30200 28.83000 33.76600
H  -7.80600 23.39100 29.20000
H  -6.81000 23.98400 22.76400
H  -2.40700 28.29200 24.18200
H  -4.87900 26.18300 31.68800
H  -7.37300 24.76400 31.01500
H  -6.11300 23.13900 32.01800
H  -4.61400 23.89700 31.52000
H  -5.49300 22.87800 30.31300
H  -7.82900 27.07700 31.25500
H  -6.47100 28.17700 31.33500
H  -7.92100 27.37400 33.56800
H  -6.29200 28.17400 33.40100
H  -10.26700 21.92300 26.93700
H  -9.18900 22.25700 28.29100
H  -8.86400 20.92900 27.10700
H  -9.27300 20.23400 25.05400
H  -9.72900 20.20500 23.35500
H  -10.54400 21.15300 24.68100
H  -5.81700 26.16800 21.55400
H  -2.88400 26.44500 22.25800
H  -4.37500 23.64300 22.16500
H  -3.18500 24.55000 21.34500
H  -4.87100 24.32400 20.65300
H  -3.86300 28.91300 22.26400
H  -5.34000 28.26900 21.76300
H  -3.55300 27.29400 19.77500
H  -2.97800 28.91300 20.14300
H  -4.64700 28.81300 19.71600
H  -1.90100 30.66100 25.48000
H  -0.80500 29.31200 25.70300
H  -0.99000 30.56600 26.98900
H  -4.54200 29.50600 30.73700
H  -1.29400 28.97400 33.37600
H  -2.43600 27.86900 34.26300
H  -2.49300 29.58100 34.53200

