158

Mg 2.03700 -1.42500 44.14600
C  5.42000 -0.64600 43.60000
C  1.09900 1.41200 42.44900
C  -1.11100 -2.57100 44.18900
C  3.12500 -4.48400 45.59000
N  3.20700 0.10700 42.89100
C  4.57600 0.28500 43.03000
C  4.86600 1.67500 42.41200
C  3.45300 2.33800 42.29700
C  2.47100 1.24900 42.58700
C  3.33600 3.50800 43.26200
C  5.72900 1.70000 41.06700
C  6.52700 2.97700 41.02100
H  6.31600 3.83800 39.76500
N  0.21800 -0.63000 43.55100
C  0.05100 0.57400 42.89400
C  -1.38400 0.79500 42.79900
C  -2.08900 -0.30800 43.32200
C  -1.01000 -1.19400 43.84600
C  -1.98800 1.84900 41.84700
C  -3.61600 -0.51600 43.26000
O  -4.27600 0.36400 42.65900
C  -4.37700 -1.60100 44.01800
N  1.17800 -3.28900 44.68000
C  -0.19100 -3.50800 44.62600
C  -0.58800 -4.98400 44.95400
C  0.79100 -5.63600 45.28200
C  1.79500 -4.41000 45.16600
C  -1.59400 -5.22800 46.11100
C  1.21100 -6.81600 44.35900
C  1.67800 -8.10600 45.09100
N  3.90500 -2.40500 44.56900
C  4.15300 -3.55400 45.21800
C  5.58100 -3.65400 45.53700
C  6.16800 -2.51800 44.88500
C  5.05900 -1.82000 44.32500
C  6.40300 -4.70600 46.38100
C  7.40300 -1.78700 44.58300
O  8.51800 -2.06400 44.89800
C  7.03700 -0.56600 43.68600
C  7.44000 0.78500 44.33300
O  6.95000 1.16500 45.40800
O  8.38300 1.38000 43.57400
C  8.62000 2.72400 44.11100
H  0.81700 2.42400 42.15300
H  -2.12600 -2.95600 44.07400
H  3.65500 -5.34500 46.00100
H  5.47800 2.07700 43.22000
H  3.22300 2.70000 41.29500
H  2.64700 3.31900 44.08500
H  2.94200 4.37400 42.73000
H  4.24700 3.97900 43.63000
H  5.10000 1.55700 40.18800
H  6.34200 0.81200 41.21600
H  7.57600 2.68400 40.99400
H  6.38800 3.55900 41.93200
H  -2.64300 1.53200 41.03500
H  -1.14500 2.45300 41.51100
H  -2.63600 2.37600 42.54600
H  -5.34800 -1.19100 44.29600
H  -3.82500 -1.97300 44.88200
H  -4.67200 -2.36800 43.30200
H  -1.00600 -5.52800 44.10700
H  0.85400 -5.91200 46.33400
H  -2.00800 -4.33800 46.58400
H  -1.08400 -5.61100 46.99500
H  -2.41200 -5.92700 45.93400
H  2.01700 -6.53800 43.68100
H  0.37800 -7.25200 43.80700
H  1.49200 -8.20700 46.16000
H  2.72900 -8.34000 44.91800
H  1.21800 -8.97300 44.61700
H  6.85000 -4.06000 47.13700
H  7.17300 -5.19600 45.78600
H  5.76100 -5.48100 46.80000
H  7.42300 -0.68300 42.67400
H  7.81900 3.39500 43.80100
H  9.50900 3.23100 43.73400
H  8.61400 2.83100 45.19600
Mg 55.91200 24.65400 45.16900
C  53.24800 26.50900 43.87000
C  54.49000 21.82500 43.67900
C  58.78000 22.98600 45.80000
C  57.27000 27.61800 46.47100
N  54.13400 24.27100 43.59900
C  53.19600 25.19600 43.34400
C  52.15100 24.63000 42.38100
C  52.25100 23.13500 42.88000
C  53.75900 22.98400 43.26700
C  51.25000 22.78500 43.95200
C  52.64000 24.91500 40.93300
C  51.70100 25.25100 39.81200
H  51.71600 24.45600 38.39700
N  56.52900 22.65000 44.82800
C  55.78000 21.60900 44.14500
C  56.56800 20.42800 44.16300
C  57.72600 20.68400 45.02400
C  57.73500 22.18000 45.31400
C  56.11800 19.18900 43.39400
C  58.68600 19.60400 45.44100
O  58.47800 18.42500 45.09900
C  59.93600 19.78500 46.19300
N  57.83200 25.29300 45.83700
C  58.79700 24.35000 46.17400
C  60.00300 25.05200 46.79700
C  59.52400 26.47000 47.14200
C  58.15800 26.49100 46.46500
C  60.66200 24.27900 47.98400
C  60.47700 27.68600 46.76600
C  60.90200 28.59700 47.93000
N  55.48500 26.71800 45.07500
C  56.01600 27.78500 45.78100
C  55.24100 28.97700 45.67300
C  54.12800 28.53100 44.88400
C  54.29300 27.17200 44.61500
C  55.41900 30.25200 46.42300
C  52.85500 28.93300 44.32900
O  52.21700 30.00100 44.48400
C  52.22600 27.65500 43.56400
C  52.13400 27.96800 42.17900
O  52.96500 28.51600 41.47900
O  50.79200 27.86800 41.81800
C  50.33200 28.67000 40.66200
H  54.03900 20.87500 43.38600
H  59.66900 22.45500 46.14700
H  57.59700 28.45900 47.08600
H  51.10300 24.89400 42.52400
H  52.04800 22.48700 42.02700
H  50.60000 23.65000 44.08000
H  51.85400 22.42900 44.78700
H  50.65900 21.96500 43.54300
H  53.12400 24.00100 40.59000
H  53.46000 25.62600 41.03500
H  51.76400 26.32400 39.63000
H  50.70900 25.01200 40.19600
H  55.63900 18.49600 44.08700
H  56.95400 18.60100 43.01600
H  55.61100 19.36000 42.44400
H  60.28300 18.78100 46.43700
H  59.59200 20.25500 47.11400
H  60.82200 20.21300 45.72400
H  60.77300 25.10800 46.02700
H  59.39000 26.47800 48.22300
H  61.71200 24.25900 47.69200
H  60.34600 23.26600 48.23000
H  60.66300 24.91100 48.87300
H  60.03200 28.30000 45.98300
H  61.42700 27.28900 46.40800
H  60.90900 29.64600 47.63200
H  61.91200 28.28100 48.19200
H  60.25200 28.38600 48.77900
H  56.46500 30.49600 46.61000
H  54.93400 30.20400 47.39700
H  55.07500 31.02700 45.73800
H  51.20900 27.50300 43.92600
H  49.29100 28.96000 40.80000
H  50.27200 28.12900 39.71700
H  50.92300 29.58200 40.57800

