158

Mg 2.55700 -1.31400 44.24300
C  6.05200 -1.22500 43.81400
C  2.23200 1.37300 42.21600
C  -0.74200 -1.95500 44.25000
C  3.12000 -4.20300 46.24300
N  4.01600 -0.21900 43.03200
C  5.39800 -0.24900 43.04100
C  5.98200 0.85300 42.25800
C  4.69000 1.92700 42.16500
C  3.53500 1.00900 42.53200
C  4.78900 3.09100 43.18700
C  6.54900 0.54500 40.84200
C  7.68600 1.37000 40.26200
H  7.41700 2.43300 39.18600
N  0.93700 -0.42600 43.33700
C  1.04800 0.67300 42.51900
C  -0.32500 1.03900 42.20700
C  -1.16600 0.11600 42.72400
C  -0.37400 -0.84500 43.47400
C  -0.53700 2.42100 41.50000
C  -2.75200 0.16300 42.62000
O  -3.29600 1.14300 42.05800
C  -3.61300 -0.77800 43.27600
N  1.35500 -2.97200 44.89300
C  -0.01100 -2.81400 44.96400
C  -0.69400 -3.92000 45.75300
C  0.56700 -4.69600 46.35300
C  1.82600 -3.92800 45.81300
C  -1.69900 -3.50100 46.80900
C  0.57200 -6.24300 46.16400
C  1.11000 -7.01600 47.38600
N  4.22000 -2.42000 44.92400
C  4.27300 -3.53200 45.75500
C  5.65000 -3.91900 46.05700
C  6.41400 -2.92500 45.37600
C  5.49800 -2.12900 44.63800
C  6.26900 -5.09400 46.94400
C  7.76700 -2.51400 45.10700
O  8.79900 -2.89700 45.67800
C  7.53300 -1.41500 43.99400
C  8.16900 -0.20300 44.69400
O  8.14200 0.02800 45.88500
O  8.89700 0.60600 43.81600
C  9.36200 1.95300 44.36600
H  2.21200 2.25200 41.56900
H  -1.80700 -1.98400 44.48900
H  3.32900 -5.09500 46.83700
H  6.63200 1.35800 42.97200
H  4.56700 2.31500 41.15400
H  5.28200 3.87900 42.61800
H  5.25200 2.64200 44.06600
H  3.82200 3.46300 43.52600
H  5.73000 0.60000 40.12600
H  6.88100 -0.49300 40.81200
H  8.52200 0.72700 39.98700
H  8.00100 1.87600 41.17400
H  -1.53600 2.79600 41.27500
H  -0.14900 2.33700 40.48500
H  0.00900 3.21500 42.01000
H  -4.58000 -0.65900 42.78700
H  -3.60200 -0.44800 44.31500
H  -3.34500 -1.82300 43.12500
H  -1.27300 -4.50700 45.04000
H  0.46100 -4.35300 47.38300
H  -1.83300 -2.42100 46.75000
H  -1.41400 -3.83200 47.80700
H  -2.66600 -3.97500 46.64000
H  1.24200 -6.50800 45.34600
H  -0.42500 -6.58900 45.89000
H  0.50100 -7.90800 47.53500
H  1.16000 -6.35200 48.24900
H  2.11700 -7.31400 47.09200
H  6.72100 -5.80400 46.25100
H  5.43700 -5.59900 47.43500
H  6.98300 -4.67500 47.65300
H  8.17700 -1.57000 43.12800
H  10.19900 1.75400 45.03500
H  8.58200 2.46700 44.92900
H  9.72700 2.61600 43.58100
Mg -0.19800 7.96100 24.62200
C  0.44100 8.95900 28.01600
C  -0.38300 4.72900 25.70700
C  -0.58500 7.16900 21.48700
C  0.02900 11.35400 23.74700
N  0.05100 6.94900 26.67300
C  0.32400 7.53200 27.89400
C  0.62100 6.48100 28.96500
C  0.43500 5.08800 28.13000
C  0.01500 5.59600 26.79000
C  1.66100 3.99500 28.12500
C  -0.27900 6.41900 30.25600
C  0.56600 6.61800 31.52100
H  1.77900 5.77800 31.84700
N  -0.43300 6.19200 23.72800
C  -0.46600 4.92900 24.36400
C  -0.49400 3.89800 23.31100
C  -0.54000 4.62400 22.05100
C  -0.54200 6.03400 22.37600
C  -0.66600 2.42300 23.60300
C  -0.63000 4.07200 20.62500
O  -0.73700 4.82700 19.62200
C  -0.50500 2.56600 20.42500
N  -0.30400 9.10500 22.86400
C  -0.44500 8.50300 21.68200
C  -0.40400 9.54500 20.48100
C  -0.33600 10.83400 21.28500
C  -0.13100 10.40900 22.75300
C  0.79800 9.42800 19.49600
C  -1.63300 11.76800 21.15700
C  -2.89100 11.21700 21.86600
N  0.26500 9.81600 25.61000
C  0.18800 11.12500 25.13100
C  0.61500 12.05000 26.20600
C  0.66900 11.25800 27.29800
C  0.47300 9.88800 26.94300
C  0.86700 13.45900 26.02700
C  0.89600 11.32900 28.73600
O  1.10500 12.30600 29.51000
C  0.83700 9.81600 29.21900
C  2.18600 9.63300 29.73700
O  3.11300 9.15400 29.15100
O  2.19000 9.92300 31.09000
C  3.32400 9.44800 31.87600
H  -0.20200 3.68300 25.96300
H  -0.72900 6.87400 20.44600
H  0.01900 12.35700 23.31500
H  1.68000 6.54800 29.21400
H  -0.48100 4.61600 28.48600
H  1.53300 3.56700 27.13100
H  1.57900 3.23000 28.89700
H  2.60900 4.51000 28.28000
H  -0.75400 5.45200 30.41800
H  -1.04100 7.19500 30.19000
H  -0.14600 6.48500 32.33500
H  0.78400 7.68100 31.42000
H  -1.50900 2.07300 23.00700
H  -0.91700 2.25600 24.65100
H  0.28900 2.00100 23.29200
H  0.35200 2.16100 20.96300
H  -0.39100 2.49300 19.34300
H  -1.40600 2.07500 20.79300
H  -1.36100 9.34300 19.99900
H  0.55300 11.42300 21.05900
H  1.35800 10.34200 19.29700
H  0.38200 9.03700 18.56800
H  1.43000 8.66600 19.95200
H  -1.96900 11.87000 20.12500
H  -1.32100 12.71700 21.59400
H  -3.59800 10.97300 21.07300
H  -3.32700 12.11500 22.30400
H  -2.70800 10.30700 22.43800
H  1.65500 13.74900 26.72100
H  0.01000 14.09900 26.23800
H  1.19500 13.62500 25.00100
H  0.07600 9.78600 29.99800
H  3.47300 10.20100 32.65100
H  4.15300 9.35100 31.17500
H  3.16000 8.51500 32.41600

