158

Mg 46.96300 25.23600 27.49500
C  48.06400 27.40800 30.02100
C  45.67800 23.18300 29.89500
C  46.17200 23.02100 25.08000
C  48.70200 27.19100 25.22900
N  46.90200 25.35200 29.66400
C  47.29400 26.37800 30.53300
C  46.96000 26.03600 32.00000
C  46.29700 24.66400 31.94600
C  46.29000 24.35700 30.40700
C  46.94600 23.60300 32.80900
C  46.23300 27.08700 32.79300
C  46.70800 27.39600 34.29400
H  45.51100 27.32700 35.35700
N  45.94200 23.40700 27.46900
C  45.46400 22.72700 28.57000
C  44.81300 21.56900 28.09600
C  44.82200 21.55600 26.64400
C  45.70600 22.72200 26.27600
C  44.21600 20.52200 28.99600
C  44.09700 20.70100 25.69500
O  44.24900 20.76700 24.48900
C  42.89600 19.99300 26.15800
N  47.47800 24.98200 25.48200
C  47.01600 24.05600 24.65600
C  47.65400 24.18400 23.26900
C  48.12600 25.66300 23.21100
C  48.03300 26.02400 24.68700
C  48.78200 22.99300 23.06500
C  47.38000 26.64200 22.22300
C  48.17900 27.23200 21.01500
N  48.09000 26.99300 27.53400
C  48.67200 27.70800 26.53200
C  49.30800 28.87100 27.02400
C  49.24900 28.77500 28.43600
C  48.41900 27.64200 28.69000
C  49.89400 29.95300 26.25600
C  49.49900 29.39200 29.66600
O  49.98800 30.43100 29.98600
C  48.82800 28.43600 30.80900
C  49.88800 27.96100 31.72200
O  51.05900 27.81600 31.39500
O  49.46900 27.95700 33.07900
C  50.45000 27.46200 34.02500
H  45.20400 22.51400 30.61600
H  46.03200 22.33100 24.24600
H  49.14100 27.81400 24.44800
H  47.94100 25.96800 32.47000
H  45.24200 24.70800 32.21700
H  46.18600 23.04100 33.35100
H  47.57600 24.06700 33.56900
H  47.43500 22.84500 32.19800
H  45.16000 26.94500 32.65800
H  46.47100 28.02600 32.29200
H  47.11400 28.40600 34.34700
H  47.51000 26.72500 34.60000
H  43.13400 20.52100 29.12800
H  44.63700 20.43400 29.99800
H  44.42300 19.52300 28.61100
H  42.39200 20.49900 26.98100
H  43.11800 18.95100 26.38800
H  42.27600 20.03600 25.26300
H  46.86700 24.02400 22.53200
H  49.19700 25.73800 23.02300
H  48.85100 22.49200 24.03100
H  49.68200 23.47500 22.68200
H  48.47000 22.20700 22.37800
H  46.94400 27.48400 22.76200
H  46.47500 26.18200 21.82700
H  47.64400 26.98300 20.09900
H  49.24400 27.01000 20.94500
H  48.30500 28.31300 21.07100
H  50.89400 30.10500 26.66100
H  49.24700 30.80600 26.46400
H  49.95600 29.66400 25.20700
H  48.09500 29.05400 31.32700
H  51.04800 28.20500 34.55400
H  51.18100 26.82900 33.52200
H  49.93700 26.87200 34.78400
Mg 48.80900 35.46900 27.57900
C  46.57500 33.79400 29.69100
C  49.13600 37.91900 29.88900
C  50.74500 37.09300 25.36300
C  47.89600 33.09200 24.97600
N  47.92500 35.77700 29.57900
C  47.09700 34.93400 30.26900
C  47.25500 35.24700 31.72100
C  47.61500 36.80700 31.61900
C  48.29500 36.89400 30.27700
C  46.41700 37.86100 31.72900
C  48.32300 34.37500 32.49800
C  48.24200 34.24600 33.99800
H  47.20700 35.08100 34.72400
N  49.92600 37.20700 27.65200
C  49.89200 38.12200 28.67500
C  50.77500 39.25400 28.26800
C  51.28800 38.98700 27.01100
C  50.59100 37.74800 26.56300
C  51.04100 40.34800 29.20200
C  52.20000 39.77900 26.08500
O  52.37600 39.61300 24.91300
C  52.96700 40.93400 26.70600
N  49.13900 35.18500 25.40900
C  50.17100 35.92000 24.79500
C  50.68000 35.21300 23.55800
C  49.66400 34.03500 23.29600
C  48.83600 34.07200 24.59200
C  50.69300 36.06900 22.25400
C  50.22900 32.65300 23.04300
C  49.67300 31.68200 21.91200
N  47.49600 33.80700 27.31700
C  47.27500 32.90200 26.23500
C  46.40600 31.81500 26.65800
C  46.11800 32.18300 28.03800
C  46.80800 33.36400 28.36800
C  45.96200 30.65200 25.81600
C  45.28200 31.73200 29.09500
O  44.54400 30.75600 29.18700
C  45.50900 32.79300 30.27600
C  45.89200 32.05100 31.57500
O  46.74600 31.16700 31.57400
O  45.08700 32.33200 32.62900
C  45.25600 31.40500 33.75000
H  49.33600 38.70300 30.62300
H  51.65200 37.39800 24.83500
H  47.63700 32.40700 24.16600
H  46.29000 35.29500 32.22500
H  48.41400 36.93600 32.35000
H  46.72400 38.62000 32.44900
H  45.46100 37.42000 32.01300
H  46.39300 38.34700 30.75400
H  49.28000 34.73800 32.12300
H  48.18200 33.36600 32.10900
H  49.28700 34.32500 34.29800
H  47.88000 33.22400 34.10900
H  51.91500 40.17300 29.82900
H  50.10900 40.46800 29.75400
H  51.18700 41.30600 28.70400
H  53.31000 40.54500 27.66500
H  52.24600 41.74400 26.80900
H  53.80700 41.22400 26.07500
H  51.60800 34.68500 23.77700
H  48.96700 34.15200 22.46700
H  50.20600 36.99200 22.57200
H  50.20100 35.62800 21.38700
H  51.74200 36.19200 21.98700
H  50.07800 32.11100 23.97600
H  51.31700 32.67500 22.97700
H  50.34100 31.63500 21.05300
H  48.63600 31.78400 21.59100
H  49.68200 30.65800 22.28400
H  46.81500 29.98100 25.71400
H  45.80800 31.05200 24.81400
H  45.06000 30.12400 26.12300
H  44.60200 33.38400 30.40000
H  45.70000 30.42900 33.55700
H  44.30700 31.24200 34.26000
H  45.92000 31.95100 34.42100

