158

Mg -0.28200 43.18900 26.26600
C  2.20300 42.48500 28.70800
C  -2.65300 41.82400 28.39400
C  -2.37500 43.19400 23.76700
C  2.41100 43.66000 23.90700
N  -0.22400 42.21400 28.36800
C  0.87500 42.24200 29.19300
C  0.44000 41.90400 30.65400
C  -1.06700 41.47200 30.46100
C  -1.37000 41.84900 28.95600
C  -1.26200 39.98500 30.69800
C  0.92100 43.12700 31.47800
C  0.27400 43.31200 32.93700
H  -0.25900 42.05500 33.71600
N  -2.28000 42.80200 26.18000
C  -3.10700 42.29400 27.15700
C  -4.48700 42.46300 26.71200
C  -4.39800 42.70100 25.32000
C  -2.97300 42.90600 25.01400
C  -5.66900 42.00300 27.49600
C  -5.48100 42.79600 24.25300
O  -5.25800 42.94500 23.09300
C  -6.91700 42.53600 24.60200
N  0.05600 43.37500 24.09600
C  -1.06500 43.48100 23.33300
C  -0.64300 44.02900 21.95100
C  0.84000 44.55000 22.11100
C  1.14700 43.82300 23.41100
C  -0.90600 42.81100 20.95100
C  1.09100 46.08300 22.40800
C  1.17700 46.97100 21.19400
N  1.87200 43.11000 26.22500
C  2.77800 43.32600 25.24500
C  4.07100 43.28500 25.83300
C  3.87900 42.83300 27.12400
C  2.56900 42.76800 27.38300
C  5.33100 43.50300 25.07100
C  4.61800 42.48100 28.32600
O  5.84200 42.33800 28.55000
C  3.57200 42.41200 29.45900
C  3.75800 41.09200 30.09900
O  3.43100 40.01800 29.63200
O  4.34600 41.21100 31.35600
C  4.54400 40.04900 32.24600
H  -3.43700 41.58300 29.11500
H  -2.97900 43.25800 22.85900
H  3.28100 43.91000 23.29600
H  1.11300 41.08400 30.90400
H  -1.61000 42.10200 31.16600
H  -0.37200 39.40300 30.93800
H  -1.72900 39.50400 29.83900
H  -1.82300 39.88600 31.62700
H  0.74800 44.02100 30.88000
H  1.99700 43.17200 31.64800
H  -0.50700 44.04300 32.73000
H  0.99700 43.70300 33.65200
H  -5.46500 41.59600 28.48600
H  -6.12100 41.19300 26.92400
H  -6.33300 42.86400 27.57200
H  -7.01300 41.53500 25.02200
H  -7.43100 42.52700 23.64200
H  -7.08800 43.24100 25.41600
H  -1.24600 44.88800 21.65400
H  1.53200 44.00800 21.46700
H  -1.38300 41.95400 21.42600
H  0.03500 42.33600 20.67300
H  -1.38000 43.19600 20.04800
H  1.94700 46.26200 23.05900
H  0.28900 46.51000 23.01000
H  0.88400 46.43200 20.29300
H  2.24300 47.15800 21.05900
H  0.61800 47.90400 21.26200
H  6.14400 43.88700 25.68800
H  5.29700 44.38300 24.42800
H  5.68800 42.65700 24.48500
H  3.60300 43.22200 30.18800
H  5.00800 39.25300 31.66400
H  3.54000 39.66900 32.43600
H  5.13000 40.24400 33.14400
Mg -10.08500 18.41100 41.89700
C  -6.78500 17.66500 41.80200
C  -9.39500 21.74400 41.35000
C  -13.37300 19.01300 41.35600
C  -10.78000 15.04900 42.17800
N  -8.29900 19.46200 41.36700
C  -6.99500 19.00000 41.55100
C  -5.97000 20.07900 41.46700
C  -6.81700 21.39500 41.45900
C  -8.29700 20.83100 41.42200
C  -6.52300 22.38400 42.58200
C  -5.02800 19.88200 40.27100
C  -5.63600 19.11300 39.06500
H  -4.83400 19.21200 37.75800
N  -11.22800 20.14800 41.31100
C  -10.76400 21.40500 41.18400
C  -11.88700 22.31600 40.92500
C  -13.08400 21.55300 40.93400
C  -12.61000 20.18500 41.16700
C  -11.75400 23.76500 40.68100
C  -14.44200 22.13300 40.67000
O  -14.56900 23.32900 40.53200
C  -15.61300 21.18800 40.53800
N  -11.76700 17.25800 41.86300
C  -12.95100 17.71200 41.71200
C  -14.11600 16.69400 41.90400
C  -13.32300 15.39300 41.77500
C  -11.85200 15.89300 41.84200
C  -14.90500 16.92100 43.24400
C  -13.66100 14.50700 40.48400
C  -15.14300 14.10400 40.22800
N  -8.99600 16.66400 42.07100
C  -9.38800 15.34300 42.21600
C  -8.25300 14.45000 42.28700
C  -7.20500 15.39100 42.23900
C  -7.69100 16.67500 41.99800
C  -8.16900 12.98300 42.44000
C  -5.79200 15.48500 42.36500
O  -4.92500 14.60000 42.64200
C  -5.46100 16.94600 42.06100
C  -4.63600 17.52300 43.14100
O  -3.61000 18.09700 43.05500
O  -5.21100 17.20100 44.39500
C  -4.42300 17.51600 45.61600
H  -9.22400 22.81700 41.24600
H  -14.43600 19.05600 41.10800
H  -11.07200 14.01300 41.99200
H  -5.33900 20.01500 42.35400
H  -6.74000 21.90800 40.50000
H  -5.59200 22.18700 43.11200
H  -7.29300 22.50700 43.34400
H  -6.38500 23.29500 41.99900
H  -4.19300 19.32300 40.69200
H  -4.70600 20.84800 39.88100
H  -6.63200 19.53300 38.92300
H  -5.80100 18.07000 39.33600
H  -12.41500 24.16300 39.91100
H  -10.77600 24.07800 40.31800
H  -11.95300 24.35200 41.57800
H  -15.72700 20.76200 41.53400
H  -15.25400 20.48400 39.78700
H  -16.50900 21.59700 40.07000
H  -14.83900 16.92200 41.12100
H  -13.54000 14.89100 42.71900
H  -15.74000 17.57300 42.99000
H  -14.21900 17.39000 43.94800
H  -15.21100 15.95600 43.64700
H  -13.09200 13.58400 40.58900
H  -13.16900 14.97700 39.63200
H  -15.56600 14.53700 39.32100
H  -15.69100 14.49500 41.08500
H  -15.05900 13.02700 40.08700
H  -7.38100 12.37700 41.99200
H  -9.12000 12.53700 42.14700
H  -8.04400 12.90700 43.52000
H  -4.84400 16.93500 41.16200
H  -5.03900 17.98300 46.38500
H  -3.62400 18.20700 45.34600
H  -3.77400 16.75200 46.04500

