158

Mg 41.56600 7.87900 30.02100
C  43.18700 9.52700 32.57400
C  39.25600 6.75500 32.22200
C  40.25300 6.33300 27.44200
C  44.45800 8.61000 28.01400
N  41.40000 8.05100 32.17000
C  42.12300 8.81400 33.02000
C  41.49600 8.78000 34.43700
C  40.27100 7.85400 34.26100
C  40.31600 7.48100 32.82900
C  40.34200 6.66400 35.18600
C  41.30000 10.09900 35.08300
C  40.28000 10.11900 36.27200
H  40.64200 11.15600 37.33700
N  39.89600 6.74700 29.85800
C  39.07800 6.33700 30.85800
C  37.99600 5.56500 30.28100
C  38.23600 5.54000 28.88800
C  39.52000 6.20900 28.64300
C  37.00000 4.75200 31.07600
C  37.35900 4.89400 27.78700
O  37.56100 4.94900 26.57900
C  36.12000 4.16900 28.17300
N  42.33100 7.39700 27.95000
C  41.49100 6.87300 27.10200
C  42.05700 6.83600 25.69500
C  43.44900 7.67600 25.83700
C  43.45200 7.90900 27.34300
C  42.15700 5.40200 25.05500
C  43.62800 8.96700 24.97800
C  42.72900 10.18000 25.43700
N  43.38600 8.90300 30.16100
C  44.48800 9.08500 29.32000
C  45.52300 9.93700 29.97100
C  44.91000 10.21500 31.18400
C  43.75200 9.49900 31.29100
C  46.75400 10.52400 29.31100
C  45.14300 10.92000 32.42500
O  46.16900 11.59100 32.70600
C  43.95800 10.48400 33.44400
C  44.64200 9.71400 34.52600
O  45.02300 8.51300 34.46100
O  44.74800 10.60200 35.56300
C  45.28600 9.95500 36.79300
H  38.37700 6.57400 32.84500
H  39.67300 5.91400 26.61700
H  45.26800 8.99500 27.39200
H  42.14800 8.22900 35.11600
H  39.40000 8.49100 34.40900
H  40.27100 5.77300 34.56300
H  39.46000 6.65400 35.82600
H  41.17600 6.52200 35.87400
H  41.10300 10.82600 34.29600
H  42.25700 10.46000 35.46100
H  40.16900 9.16100 36.78000
H  39.24500 10.31700 35.99200
H  36.00000 5.12800 30.85800
H  37.09900 5.09800 32.10500
H  36.95900 3.66900 30.95800
H  35.29400 4.08200 27.46700
H  35.61100 4.76300 28.93300
H  36.51100 3.19900 28.47800
H  41.38500 7.42300 25.06900
H  44.29700 7.00900 25.68900
H  41.50200 4.69900 25.57000
H  43.16700 4.99800 24.97800
H  41.73800 5.51600 24.05500
H  43.27900 8.65900 23.99300
H  44.62200 9.33300 24.72100
H  41.89600 10.17100 26.14000
H  42.36300 10.82300 24.63700
H  43.47600 10.82300 25.90500
H  47.48100 10.68700 30.10600
H  46.61000 11.43300 28.72700
H  47.18200 9.71200 28.72400
H  43.45300 11.36500 33.84100
H  46.32700 9.70600 36.58800
H  44.80700 9.00000 37.00700
H  45.30100 10.53900 37.71300
Mg 6.76900 54.32100 41.03800
C  6.20900 50.84100 40.69600
C  9.99800 53.84200 40.22000
C  6.97100 57.70900 40.97700
C  3.46300 54.53600 42.00900
N  7.89200 52.55800 40.22800
C  7.52200 51.22200 40.27800
C  8.77100 50.27900 40.18300
C  9.91300 51.32700 40.25700
C  9.23800 52.67800 40.20700
C  10.88000 51.32900 41.55400
C  8.78100 49.24500 38.98600
C  8.81400 49.85100 37.58000
H  7.61600 49.80400 36.64600
N  8.30000 55.60200 40.68500
C  9.64000 55.19800 40.42600
C  10.48600 56.37900 40.30600
C  9.64100 57.50200 40.54600
C  8.23800 56.97100 40.79300
C  12.00700 56.31600 39.96500
C  10.11500 58.96400 40.59200
O  11.31700 59.30200 40.38600
C  9.10300 60.06400 40.84700
N  5.36800 55.91700 41.37200
C  5.73600 57.24500 41.26600
C  4.51500 58.11500 41.41800
C  3.46500 57.12700 42.00000
C  4.09000 55.76600 41.74900
C  4.68900 59.43300 42.22800
C  2.00000 57.18100 41.38100
C  1.89000 56.62300 39.95900
N  5.09100 53.02700 41.24000
C  3.87200 53.24400 41.74100
C  3.16000 52.02000 41.92300
C  4.02300 51.03800 41.47300
C  5.18900 51.70200 41.11300
C  1.78800 51.83300 42.38800
C  4.16500 49.61600 41.26600
O  3.42500 48.65800 41.52300
C  5.63700 49.43000 40.84100
C  5.39100 48.59100 39.69500
O  5.15700 48.96600 38.53900
O  5.50700 47.29500 40.10700
C  5.32200 46.18400 39.05700
H  11.06200 53.61600 40.12400
H  6.87700 58.79400 40.90100
H  2.52000 54.61900 42.55200
H  8.56700 49.66200 41.05800
H  10.52000 51.32500 39.35100
H  11.91900 51.46400 41.25300
H  10.86000 50.27500 41.83100
H  10.53900 51.99700 42.34500
H  8.05800 48.43300 39.06700
H  9.72200 48.73800 39.19400
H  9.65700 49.34800 37.10600
H  9.06600 50.90800 37.66500
H  12.52700 55.37100 40.11900
H  12.54400 56.95400 40.66700
H  12.13700 56.70700 38.95600
H  8.30200 59.97400 40.11200
H  9.45700 61.08400 40.70100
H  8.62400 59.92100 41.81500
H  4.12000 58.40600 40.44500
H  3.43100 57.21900 43.08600
H  5.71400 59.74800 42.42400
H  4.31500 59.32400 43.24600
H  4.17300 60.24300 41.71300
H  1.67000 58.21800 41.43600
H  1.24900 56.68600 41.99800
H  1.57900 55.58000 40.02000
H  2.79200 56.63200 39.34800
H  1.16400 57.27000 39.46500
H  1.20100 51.33800 41.61400
H  1.32800 52.77000 42.70200
H  1.79900 51.19600 43.27200
H  6.07100 48.83200 41.64200
H  6.28700 45.68000 38.99900
H  5.15200 46.62700 38.07500
H  4.52200 45.56500 39.46300

