158

Mg 39.85500 8.69000 28.59500
C  41.68300 9.78500 31.42800
C  37.69900 7.04400 30.95300
C  38.20400 7.27600 26.08000
C  42.48200 9.68800 26.61400
N  39.74700 8.42400 30.88400
C  40.50600 9.14700 31.80100
C  39.93700 9.08100 33.21200
C  38.94200 7.86600 33.07400
C  38.76600 7.75000 31.48800
C  39.40000 6.58200 33.77200
C  39.21300 10.37200 33.75200
C  39.60600 10.78900 35.19100
H  39.86800 12.32400 35.40700
N  38.06500 7.37200 28.49700
C  37.40300 6.87000 29.55900
C  36.34200 6.09000 29.09000
C  36.34200 6.20300 27.64600
C  37.58900 6.98500 27.33900
C  35.34300 5.49100 29.97700
C  35.39800 5.55600 26.61800
O  35.44600 5.78500 25.44200
C  34.19300 4.84100 27.11000
N  40.21900 8.60900 26.68100
C  39.31400 8.06100 25.80600
C  39.76900 8.21600 24.35900
C  41.07800 9.06100 24.53800
C  41.29800 9.11300 26.04700
C  40.10500 6.90300 23.53500
C  40.87000 10.47600 23.93700
C  40.05100 11.47800 24.67000
N  41.72800 9.49900 28.84000
C  42.66300 9.93000 27.95900
C  43.82400 10.47900 28.61900
C  43.40900 10.48800 29.98300
C  42.21200 9.76400 30.05400
C  45.07500 10.90500 27.90300
C  43.73100 11.01500 31.22600
O  44.76000 11.65800 31.59300
C  42.74100 10.51600 32.27200
C  43.45800 9.78400 33.38500
O  44.20900 8.85500 33.29700
O  43.25200 10.48700 34.56000
C  43.88700 9.99800 35.77400
H  37.14700 6.55800 31.76100
H  37.57000 6.80600 25.32500
H  43.22500 10.10300 25.93000
H  40.81500 8.89100 33.82900
H  37.95400 8.05200 33.49400
H  40.29600 6.73700 34.37300
H  39.45700 5.74400 33.07800
H  38.63000 6.34600 34.50700
H  38.13600 10.21700 33.67900
H  39.36400 11.12300 32.97600
H  40.52000 10.29900 35.52600
H  38.82300 10.38500 35.83200
H  35.15800 5.97900 30.93400
H  35.37600 4.40300 29.92900
H  34.39200 5.79900 29.54400
H  34.51900 4.09000 27.83000
H  33.57800 4.39200 26.33000
H  33.59300 5.58500 27.63400
H  38.94700 8.77500 23.91100
H  41.93300 8.47500 24.19900
H  41.14600 6.81800 23.22400
H  39.47700 6.95400 22.64500
H  39.98900 5.95800 24.06500
H  40.38000 10.28100 22.98300
H  41.84700 10.85300 23.63500
H  40.27500 11.35800 25.73000
H  38.99400 11.23200 24.57600
H  40.20900 12.50800 24.35100
H  45.73000 11.31700 28.67100
H  44.68600 11.69400 27.26000
H  45.59700 10.12200 27.35300
H  42.12800 11.33800 32.64100
H  43.25200 10.20600 36.63500
H  44.84600 10.49300 35.92300
H  44.05000 8.92200 35.71200
Mg 47.61800 34.10900 27.42000
C  45.80300 32.66800 29.84600
C  47.98700 37.03400 29.24800
C  48.69700 35.66700 24.66800
C  47.04900 31.20200 25.49700
N  46.84300 34.85700 29.29000
C  46.36700 33.94300 30.24200
C  46.37700 34.55000 31.63800
C  46.88300 36.06400 31.32300
C  47.32700 35.99900 29.88300
C  45.86200 37.20500 31.68100
C  47.17000 33.77000 32.75700
C  47.98300 34.61400 33.70700
H  47.13800 35.61000 34.51300
N  48.33600 36.06300 26.99700
C  48.48400 37.03900 27.93100
C  49.32100 38.12300 27.33700
C  49.38300 37.88700 25.92100
C  48.77800 36.49000 25.74300
C  49.91100 39.21700 28.11200
C  50.07900 38.61900 24.83300
O  50.24500 38.14800 23.70700
C  50.66200 39.97900 25.07500
N  47.83900 33.57500 25.33000
C  48.30700 34.39800 24.44300
C  48.72900 33.56700 23.17000
C  48.17800 32.16400 23.53900
C  47.68900 32.29100 24.87900
C  48.09800 34.02800 21.83900
C  49.29800 31.09200 23.37900
C  50.15400 30.78600 24.61600
N  46.76400 32.25700 27.63600
C  46.61000 31.15600 26.82100
C  45.76600 30.17500 27.45800
C  45.35000 30.76400 28.56600
C  46.03400 31.95900 28.70300
C  45.32000 28.93800 26.85900
C  44.41700 30.64300 29.69600
O  43.64600 29.76200 29.97200
C  44.66800 31.89900 30.54700
C  44.87300 31.49300 31.96700
O  45.77600 30.69300 32.36500
O  43.82900 32.00100 32.72900
C  43.92300 31.83200 34.18000
H  48.15000 37.89300 29.90200
H  49.04600 36.17000 23.76400
H  46.91900 30.22400 25.03000
H  45.32900 34.59600 31.93200
H  47.83400 36.30400 31.80000
H  44.92900 36.79400 32.06600
H  45.68500 37.71800 30.73500
H  46.20300 37.92200 32.42800
H  47.94600 33.17200 32.27900
H  46.49400 33.16500 33.36200
H  48.79800 35.12700 33.19700
H  48.38600 33.93800 34.46200
H  49.55700 40.13400 27.64000
H  51.00100 39.20100 28.12100
H  49.56000 39.25100 29.14400
H  51.54000 39.88400 25.71300
H  49.96400 40.68700 25.52400
H  51.10800 40.29800 24.13300
H  49.81600 33.50700 23.11300
H  47.19800 31.89300 23.14600
H  47.47400 34.89700 22.05100
H  47.50800 33.33800 21.23600
H  48.97300 34.19100 21.21200
H  49.98800 31.35500 22.57800
H  48.70600 30.25100 23.01600
H  49.90400 31.38600 25.49100
H  51.19200 31.03500 24.39300
H  50.03600 29.72500 24.83700
H  45.83500 28.68400 25.93200
H  44.24400 28.86800 26.70100
H  45.55700 28.26300 27.68200
H  43.81800 32.58100 30.55300
H  44.55600 32.65100 34.52300
H  44.49700 30.95900 34.49200
H  42.95500 31.82100 34.68100

