158

Mg 36.51500 49.37700 25.76300
C  37.00000 47.56300 28.80200
C  35.30000 51.98700 27.52800
C  35.73800 50.83500 22.80600
C  37.70100 46.58100 24.05800
N  36.27300 49.73900 27.91100
C  36.49300 48.90200 28.96200
C  36.18900 49.61600 30.31700
C  35.48300 50.95800 29.83400
C  35.66400 50.88200 28.30100
C  34.03800 51.13400 30.37800
C  37.44200 49.95400 31.21900
C  37.20700 49.70800 32.76400
H  35.88900 49.90800 33.48500
N  35.74600 51.28500 25.17600
C  35.25800 52.18000 26.09800
C  34.77500 53.32600 25.35000
C  34.98200 53.08400 23.93700
C  35.46400 51.67600 23.88200
C  34.18500 54.57200 25.98800
C  34.79100 53.94700 22.84200
O  35.18600 53.68600 21.72600
C  34.23800 55.28400 23.10600
N  36.59600 48.74600 23.75500
C  36.31500 49.59200 22.65500
C  36.63300 48.92700 21.35400
C  37.56000 47.78400 21.81600
C  37.35000 47.67700 23.28200
C  35.39500 48.52600 20.42300
C  39.09200 47.96500 21.54500
C  39.91100 46.70500 21.34000
N  37.07700 47.44100 26.27600
C  37.58300 46.45900 25.45300
C  37.74700 45.17200 26.21400
C  37.61600 45.62100 27.55400
C  37.21800 46.99900 27.53100
C  38.18300 43.85600 25.68600
C  37.69000 45.20600 28.95200
O  38.08900 44.14000 29.40000
C  37.28500 46.47900 29.90000
C  36.02500 46.01600 30.66900
O  34.87100 46.14100 30.27800
O  36.31100 45.41500 31.88400
C  35.15300 44.99100 32.71400
H  34.98200 52.87500 28.07700
H  35.71500 51.19500 21.77500
H  38.02700 45.83700 23.32900
H  35.42100 49.09900 30.89300
H  36.07200 51.76800 30.26500
H  33.92500 52.06400 30.93300
H  33.72200 50.29500 30.99800
H  33.27800 51.18800 29.59800
H  37.75400 50.99400 31.12000
H  38.34700 49.44800 30.88100
H  38.03800 50.26300 33.19800
H  37.45600 48.65200 32.86400
H  33.12600 54.68700 25.75500
H  34.78800 55.45600 25.78600
H  34.26000 54.33600 27.05000
H  33.22300 55.25700 23.50200
H  34.39700 55.86000 22.19400
H  34.90200 55.95400 23.65200
H  37.09200 49.65500 20.68600
H  37.16700 46.87500 21.36100
H  34.63000 48.29200 21.16400
H  35.51900 47.71800 19.70300
H  35.18000 49.41700 19.83400
H  39.39900 48.56000 22.40600
H  39.19800 48.58200 20.65300
H  39.21300 45.93300 21.01700
H  40.36800 46.39700 22.28100
H  40.62800 46.96500 20.56200
H  38.80200 44.02700 24.80500
H  37.33800 43.27800 25.31100
H  38.72700 43.43400 26.53100
H  38.11600 46.72400 30.56200
H  34.48400 44.31800 32.17800
H  34.53400 45.87500 32.86600
H  35.35900 44.37500 33.59000
Mg -11.86700 38.96800 41.22200
C  -9.88400 36.18300 40.17900
C  -9.15700 41.04500 40.20800
C  -13.82900 41.54000 41.52200
C  -14.48200 36.80900 42.03000
N  -9.79700 38.68400 40.36800
C  -9.28300 37.44600 40.01800
C  -7.87600 37.57600 39.36600
C  -7.56900 39.07500 39.75900
C  -8.94900 39.68800 40.05100
C  -6.54900 39.24800 40.96300
C  -7.90000 37.36400 37.84700
C  -7.06200 36.30700 37.12900
H  -5.79900 36.74000 36.35400
N  -11.55700 41.03900 40.85600
C  -10.40000 41.69900 40.49600
C  -10.58600 43.17200 40.47100
C  -11.93700 43.34000 41.00300
C  -12.52200 41.95000 41.12900
C  -9.55600 44.13100 39.92300
C  -12.58900 44.72800 41.22700
O  -11.94000 45.76600 41.01100
C  -13.89900 44.84800 41.89500
N  -13.92500 39.06600 41.62200
C  -14.42700 40.27500 41.78700
C  -15.87600 40.27000 42.55300
C  -16.01000 38.69800 42.79800
C  -14.73700 38.13500 42.07800
C  -15.95100 41.21900 43.79400
C  -17.36700 38.27000 42.26900
C  -17.95600 36.96900 42.97300
N  -12.18300 36.85400 41.19600
C  -13.30200 36.09000 41.55800
C  -12.92700 34.66300 41.44400
C  -11.62800 34.67900 40.87800
C  -11.21100 36.01000 40.73500
C  -13.74900 33.49400 41.99900
C  -10.48000 33.84200 40.56300
O  -10.40200 32.63900 40.60600
C  -9.37300 34.80000 39.92100
C  -8.03400 34.46100 40.40000
O  -7.65800 34.75300 41.51200
O  -7.30300 33.76200 39.43700
C  -5.93700 33.46400 39.89700
H  -8.23300 41.62500 40.15900
H  -14.54300 42.36300 41.60600
H  -15.25700 36.11600 42.36500
H  -7.21200 36.84700 39.83200
H  -7.08200 39.58900 38.93000
H  -5.56200 39.01200 40.56600
H  -6.79900 38.53300 41.74700
H  -6.60100 40.22900 41.43600
H  -7.82400 38.35100 37.39100
H  -8.92200 37.05000 37.63700
H  -7.68200 35.74600 36.43000
H  -6.64000 35.66100 37.89900
H  -8.57100 43.72300 39.69400
H  -9.35500 44.93500 40.63000
H  -10.00300 44.65500 39.07900
H  -14.74000 44.42700 41.34300
H  -14.11800 45.85400 42.25400
H  -13.71100 44.17900 42.73400
H  -16.62200 40.56500 41.81600
H  -15.88200 38.45800 43.85400
H  -15.01100 41.72500 44.01500
H  -16.32200 40.74900 44.70400
H  -16.64500 42.00000 43.48200
H  -17.17000 38.20000 41.19900
H  -18.06600 39.10200 42.35500
H  -18.98400 37.16600 43.27800
H  -17.40200 36.67900 43.86600
H  -17.89200 36.08700 42.33600
H  -14.83700 33.46200 42.05800
H  -13.45400 33.38200 43.04300
H  -13.57200 32.50100 41.58800
H  -9.34100 34.60000 38.85000
H  -5.30300 33.44900 39.01100
H  -5.74300 32.49400 40.35400
H  -5.56600 34.23400 40.57400

