158

Mg 46.93500 34.17900 27.25100
C  45.36100 32.58500 29.96200
C  46.96900 37.14900 29.01500
C  47.72900 35.78100 24.46400
C  45.93800 31.38800 25.28300
N  46.20000 34.74400 29.29100
C  45.87000 33.89700 30.32000
C  46.07400 34.55700 31.64700
C  46.16600 36.11400 31.26800
C  46.45700 36.03300 29.75400
C  44.85500 36.93300 31.62400
C  47.32500 33.99400 32.39200
C  47.37100 34.13000 33.91000
H  46.54900 35.26900 34.63300
N  47.39800 36.18200 26.84100
C  47.41500 37.24700 27.66700
C  47.90800 38.45900 27.01000
C  48.27100 38.06100 25.71300
C  47.86000 36.60900 25.62400
C  48.01300 39.75400 27.77100
C  48.77400 38.87800 24.54100
O  49.10500 38.44500 23.51100
C  48.91700 40.38400 24.77800
N  46.77900 33.68000 25.21400
C  47.26300 34.51300 24.23400
C  47.26800 33.90800 22.83100
C  46.86400 32.48100 23.19000
C  46.48400 32.53700 24.63500
C  46.40000 34.47200 21.63300
C  47.91100 31.45100 22.83200
C  47.55500 30.83200 21.52200
N  46.03500 32.26000 27.56100
C  45.63800 31.29500 26.64700
C  45.15900 30.15600 27.39500
C  45.01500 30.63800 28.69600
C  45.47100 31.95600 28.73000
C  44.80700 28.77600 26.86500
C  44.56400 30.27300 29.94200
O  44.26300 29.18400 30.40500
C  44.51300 31.56000 30.84100
C  44.79400 31.53100 32.29400
O  45.75200 30.98100 32.80800
O  43.80800 32.10300 33.01500
C  43.94800 32.01800 34.47800
H  46.98000 38.02700 29.66400
H  47.90600 36.34300 23.54500
H  45.58100 30.52700 24.71500
H  45.21600 34.39500 32.30100
H  47.05700 36.52500 31.74300
H  43.99600 36.35200 31.96300
H  44.47900 37.45900 30.74600
H  45.07800 37.66500 32.39900
H  48.28600 34.41600 32.10000
H  47.22000 32.95000 32.09600
H  48.37600 34.29200 34.30100
H  46.97700 33.14800 34.17300
H  49.08800 39.91300 27.68900
H  47.78000 39.74500 28.83600
H  47.34100 40.44700 27.26500
H  49.24600 40.66100 23.77600
H  49.77200 40.56000 25.43100
H  47.93500 40.81200 24.97800
H  48.31700 33.89600 22.53600
H  45.87700 32.35400 22.74400
H  45.86100 33.71300 21.06500
H  47.13200 35.02300 21.04400
H  45.71300 35.27900 21.88700
H  48.00300 30.67500 23.59200
H  48.87900 31.92500 22.66700
H  47.34200 31.59700 20.77600
H  46.64900 30.22600 21.54200
H  48.37300 30.26600 21.07500
H  45.62400 28.08200 26.66700
H  44.23800 29.03100 25.97000
H  44.11500 28.37500 27.60600
H  43.48600 31.92500 30.83000
H  44.69100 32.76300 34.76300
H  44.36400 31.04600 34.74000
H  42.99400 32.23000 34.96200
Mg 26.13200 50.56800 26.36200
C  23.62300 51.22000 28.75800
C  28.09000 49.23700 28.77000
C  28.50900 50.07900 24.02200
C  24.04400 51.95300 23.98600
N  25.88300 50.32300 28.56400
C  24.82100 50.58800 29.35000
C  25.12500 50.27200 30.82900
C  26.60900 49.87900 30.76700
C  26.90200 49.80800 29.23900
C  27.57900 50.84300 31.42900
C  24.09400 49.26300 31.42600
C  23.39000 49.72200 32.70200
H  23.49600 48.90400 34.00400
N  28.04300 49.77600 26.40700
C  28.68000 49.26100 27.50200
C  29.97500 48.72700 27.11400
C  30.11300 49.08100 25.71600
C  28.84800 49.63500 25.29900
C  30.96700 48.03000 28.02000
C  31.32000 48.75600 24.82300
O  31.39200 49.06300 23.62600
C  32.46400 48.03000 25.37900
N  26.30400 50.99900 24.34600
C  27.36700 50.60800 23.53800
C  27.07600 51.05300 22.00800
C  25.61700 51.67600 22.03500
C  25.24400 51.40300 23.52400
C  28.14800 51.95600 21.40300
C  24.62300 51.33300 20.91000
C  23.38900 50.42500 21.21900
N  24.18600 51.34500 26.31900
C  23.53500 51.98500 25.25400
C  22.26500 52.51800 25.71000
C  22.31800 52.32700 27.10000
C  23.44700 51.56700 27.39900
C  21.33600 53.31700 24.83700
C  21.59500 52.60400 28.37000
O  20.61600 53.28700 28.52800
C  22.46800 51.88200 29.45700
C  23.00900 52.99900 30.31800
O  24.02400 53.65900 30.05200
O  22.12300 53.20800 31.34800
C  22.47700 54.11700 32.44200
H  28.68200 48.78200 29.56700
H  29.27000 49.95100 23.24900
H  23.33900 52.49700 23.35300
H  25.03600 51.25000 31.30200
H  26.72500 48.89900 31.23100
H  28.11100 51.35200 30.62500
H  28.29200 50.20700 31.95400
H  27.01700 51.58600 31.99500
H  24.62300 48.34600 31.68400
H  23.47200 48.94900 30.58800
H  22.33800 49.64300 32.42500
H  23.52600 50.79300 32.85600
H  31.13600 46.98600 27.75600
H  30.77700 47.95000 29.09000
H  31.88900 48.61200 28.01900
H  32.21700 47.07700 25.84600
H  32.76500 48.71800 26.16900
H  33.27400 47.79900 24.68700
H  27.02600 50.10600 21.47200
H  25.70500 52.76200 22.06000
H  27.81400 52.95000 21.10600
H  28.34600 51.45000 20.45800
H  29.09500 51.91300 21.94200
H  25.16500 50.90100 20.06800
H  24.34600 52.35300 20.64300
H  23.09900 49.85300 20.33700
H  22.52300 51.00400 21.54000
H  23.73200 49.72400 21.98000
H  20.82300 54.12800 25.35500
H  20.59200 52.68300 24.35400
H  21.80800 53.86400 24.02100
H  21.93900 51.26500 30.18300
H  23.29800 53.65100 32.98600
H  21.66900 54.19000 33.17100
H  22.77500 55.11200 32.11300

