158

Mg 47.80500 25.58500 29.76500
C  48.38500 28.03500 32.32400
C  46.79200 23.42700 32.33100
C  47.44800 23.20000 27.44200
C  49.27100 27.72200 27.45200
N  47.59100 25.67800 31.98200
C  47.84200 26.81400 32.79600
C  47.47600 26.54200 34.32700
C  47.36000 24.93500 34.30200
C  47.25400 24.64200 32.75700
C  48.45100 24.13400 35.00400
C  46.13400 27.17500 34.78900
C  46.08100 28.15000 35.90300
H  46.74700 27.78100 37.29700
N  47.06000 23.63000 29.86000
C  46.61100 22.99000 30.95900
C  46.03500 21.72900 30.57400
C  46.19600 21.61700 29.12700
C  46.92000 22.86300 28.74600
C  45.35100 20.78300 31.51100
C  45.71900 20.52400 28.22600
O  45.78800 20.67800 27.03600
C  44.99000 19.32700 28.78800
N  48.41200 25.38300 27.78900
C  48.15000 24.27600 27.00100
C  48.74300 24.44900 25.60100
C  49.21900 26.00200 25.61700
C  48.95700 26.44100 27.00300
C  49.90600 23.45400 25.29700
C  48.53400 26.92300 24.56500
C  48.76000 26.49000 23.10300
N  48.61400 27.51000 29.80400
C  49.19300 28.21300 28.79500
C  49.70900 29.43300 29.30000
C  49.42000 29.47200 30.64800
C  48.81000 28.18800 30.95900
C  50.50900 30.46400 28.54000
C  49.49600 30.32700 31.93800
O  49.89300 31.48900 32.09200
C  48.92600 29.30800 33.13900
C  50.00600 28.88800 34.12000
O  51.16500 28.56200 33.77100
O  49.58600 28.83400 35.45100
C  50.64800 28.57300 36.52000
H  46.40200 22.68400 33.03000
H  47.32200 22.53200 26.58700
H  49.61700 28.50300 26.77200
H  48.36400 26.67800 34.94500
H  46.44600 24.57200 34.77200
H  48.99700 24.56100 35.84600
H  49.21700 23.93300 34.25500
H  47.98200 23.25500 35.44700
H  45.40200 26.37700 34.91800
H  45.84200 27.72300 33.89400
H  45.00700 28.22400 36.07500
H  46.32400 29.15300 35.55100
H  44.36300 20.52500 31.12700
H  45.35900 21.18600 32.52300
H  45.92300 19.86800 31.66200
H  45.40900 18.89600 29.69800
H  44.73100 18.58000 28.03700
H  44.06200 19.83800 29.04200
H  47.95900 24.29200 24.86100
H  50.27700 26.13500 25.38900
H  50.04600 22.83700 26.18500
H  50.86900 23.94300 25.14900
H  49.69600 22.70500 24.53300
H  48.92200 27.94000 24.63000
H  47.46500 26.97500 24.77200
H  47.77200 26.22800 22.72400
H  49.41500 25.62000 23.08000
H  49.21300 27.37200 22.64900
H  50.05000 30.68800 27.57700
H  51.45200 29.95800 28.33500
H  50.54300 31.37200 29.14200
H  48.17100 29.67300 33.83500
H  51.27400 27.76500 36.14000
H  50.04700 28.34100 37.39900
H  51.20600 29.45400 36.83700
Mg 30.84800 58.43600 41.45900
C  28.05900 57.02400 39.88600
C  32.77000 55.85100 40.23500
C  33.65800 60.33600 42.12900
C  28.94300 61.33700 41.95600
N  30.47800 56.68100 40.04400
C  29.25000 56.26500 39.57900
C  29.42900 54.89600 38.85200
C  30.87600 54.43300 39.25300
C  31.41300 55.70300 39.90400
C  30.90500 53.31300 40.26000
C  29.31800 55.08600 37.28600
C  28.19900 54.31300 36.54100
H  27.24000 55.16400 35.77100
N  32.95900 58.08400 41.32200
C  33.54700 56.96400 40.75100
C  34.94900 57.23000 40.68500
C  35.23900 58.44500 41.40500
C  33.90600 58.97800 41.70800
C  35.92700 56.20400 40.13100
C  36.61600 59.07200 41.73800
O  37.63900 58.58500 41.27400
C  36.72000 60.26900 42.63400
N  31.26600 60.49300 42.10800
C  32.51300 61.03800 42.21000
C  32.46200 62.56600 42.46100
C  30.94200 62.82200 42.71600
C  30.26600 61.47500 42.37700
C  33.52200 63.01900 43.60500
C  30.43300 64.13200 42.01100
C  31.12700 65.41700 42.35800
N  28.80400 58.96800 41.37500
C  28.19000 60.22100 41.52800
C  26.80200 60.05800 41.16500
C  26.70900 58.71800 40.67300
C  27.94400 58.20500 40.66100
C  25.61200 60.94400 41.24800
C  25.80200 57.79500 40.02800
O  24.54600 57.80100 39.88400
C  26.62800 56.61700 39.46900
C  26.20400 55.29300 40.07200
O  26.78600 54.77700 41.04300
O  25.17300 54.76900 39.34700
C  24.76200 53.40800 39.78500
H  33.39800 54.99700 39.97400
H  34.48500 61.01300 42.35200
H  28.33300 62.22900 42.11200
H  28.62000 54.18300 39.01800
H  31.51100 54.03800 38.46000
H  30.03200 52.66100 40.26400
H  31.03100 53.72500 41.26200
H  31.77500 52.66700 40.13600
H  30.20400 54.67500 36.80300
H  29.29400 56.13800 37.00400
H  27.53300 53.73900 37.18600
H  28.70300 53.59300 35.89700
H  36.94500 56.57700 40.02000
H  35.52200 55.73900 39.23200
H  36.05900 55.51000 40.96200
H  36.13900 60.25800 43.55600
H  36.31600 60.97800 41.91000
H  37.77800 60.46700 42.80800
H  32.80300 63.27900 41.70900
H  30.78000 62.82600 43.79400
H  33.03400 63.67400 44.32800
H  34.32400 63.55400 43.09600
H  33.87800 62.11800 44.10400
H  29.36100 64.22300 42.18700
H  30.50200 63.89600 40.94900
H  31.99800 65.25300 42.99200
H  30.44400 65.92300 43.04000
H  31.40300 66.02900 41.49900
H  24.73400 60.30000 41.19500
H  25.72500 61.57700 40.36800
H  25.70200 61.47900 42.19400
H  26.47600 56.63200 38.38900
H  25.65000 52.77800 39.73600
H  24.00900 53.00700 39.10600
H  24.31800 53.32300 40.77700

