158

Mg 0.16800 7.99800 26.55900
C  0.81900 10.16700 29.32900
C  0.20900 5.30400 29.08600
C  -0.05200 5.71200 24.23600
C  0.63300 10.53400 24.36000
N  0.55400 7.78600 28.94900
C  0.60800 8.85200 29.76300
C  0.38600 8.46100 31.23600
C  0.35200 6.85400 31.16500
C  0.44000 6.59600 29.62600
C  1.36400 6.11500 32.02300
C  -0.92400 9.04800 31.92000
C  -0.77500 9.20000 33.49000
H  -1.46400 8.14900 34.35700
N  0.03300 5.86300 26.65800
C  0.05600 4.96600 27.68400
C  -0.10500 3.68500 27.16900
C  -0.14000 3.70800 25.76700
C  -0.08400 5.15300 25.51100
C  -0.23700 2.44100 27.99300
C  -0.15900 2.57500 24.68700
O  -0.08200 2.78400 23.47000
C  -0.29500 1.23700 25.13300
N  0.40000 8.11400 24.55900
C  0.07200 7.04200 23.85300
C  -0.00400 7.45700 22.32700
C  -0.14400 8.99700 22.41300
C  0.30300 9.29300 23.86600
C  1.27800 6.99800 21.55200
C  -1.49400 9.61800 22.14400
C  -1.53600 10.43100 20.87800
N  0.80400 9.91100 26.69400
C  0.88700 10.83600 25.70200
C  1.24900 12.16600 26.25600
C  1.12500 11.92500 27.65000
C  0.86100 10.55500 27.90500
C  1.46600 13.41600 25.55500
C  1.11400 12.58300 28.90300
O  1.27800 13.76100 29.21900
C  0.89800 11.50400 30.02800
C  2.00400 11.56500 31.05200
O  3.12800 11.20600 30.86500
O  1.48300 11.94300 32.22600
C  2.48300 12.37100 33.28500
H  0.24400 4.47600 29.79700
H  0.01200 5.02700 23.38700
H  0.65100 11.33900 23.62200
H  1.34300 8.75500 31.66700
H  -0.63600 6.66000 31.58200
H  1.67800 6.74300 32.85600
H  2.20700 5.85500 31.38400
H  0.79800 5.27200 32.42000
H  -1.73800 8.35600 31.70900
H  -1.12000 9.98200 31.39300
H  -1.20400 10.15100 33.80500
H  0.29600 9.10800 33.67300
H  -1.08400 1.83700 27.66700
H  -0.60100 2.69200 28.98900
H  0.68700 1.86400 27.95700
H  0.65200 0.95700 25.59400
H  -0.42700 0.64300 24.22900
H  -1.25400 1.07800 25.62500
H  -0.83700 6.94800 21.84300
H  0.54900 9.41900 21.68500
H  1.11700 6.15900 20.87400
H  2.17500 6.82300 22.14600
H  1.48500 7.78200 20.82400
H  -1.76900 10.18000 23.03700
H  -2.27700 8.87900 21.97800
H  -1.26700 9.93100 19.94800
H  -1.01000 11.37900 20.99300
H  -2.55800 10.73300 20.64800
H  2.30800 13.93400 26.01500
H  0.52500 13.94900 25.68600
H  1.69500 13.32100 24.49400
H  -0.01100 11.75400 30.57500
H  2.94000 11.54300 33.82700
H  2.17000 12.97400 34.13800
H  3.28400 12.83900 32.71300
Mg -12.39500 37.92900 42.79700
C  -10.03400 35.46600 41.67400
C  -10.35100 40.26400 41.21100
C  -14.88600 40.00400 43.00900
C  -14.32300 35.22600 43.99100
N  -10.47700 37.80100 41.51000
C  -9.62000 36.71000 41.30200
C  -8.37200 37.04400 40.52200
C  -8.50700 38.60800 40.53200
C  -9.83000 38.94300 41.19400
C  -7.31500 39.26500 41.25700
C  -8.39000 36.32600 39.12500
C  -7.27400 35.30300 38.78100
H  -6.30600 35.56000 37.59000
N  -12.55400 39.91700 42.29400
C  -11.65000 40.75700 41.62800
C  -12.28400 42.13300 41.53800
C  -13.59200 42.02600 42.14000
C  -13.72700 40.60800 42.46200
C  -11.60500 43.34600 40.96400
C  -14.62300 43.13400 42.37300
O  -14.23000 44.27100 42.09400
C  -16.01200 43.03300 42.83500
N  -14.37800 37.60900 43.27300
C  -15.16700 38.66700 43.38000
C  -16.54900 38.16900 43.74100
C  -16.29400 36.78400 44.46300
C  -14.92500 36.45600 43.89300
C  -17.39200 39.14700 44.57600
C  -17.44700 35.73900 44.46200
C  -17.84500 35.40200 45.93100
N  -12.24000 35.75200 42.95000
C  -13.11200 34.81300 43.47600
C  -12.49800 33.47600 43.39500
C  -11.30800 33.69100 42.68400
C  -11.19900 35.09300 42.42000
C  -13.13000 32.20900 43.94300
C  -10.13800 33.01700 42.13200
O  -9.79800 31.88100 42.18900
C  -9.24600 34.15800 41.55200
C  -7.95300 34.17300 42.26200
O  -6.99300 33.52500 41.97200
O  -7.92300 35.14600 43.28700
C  -6.65500 35.59600 43.87300
H  -9.71000 40.97800 40.68800
H  -15.76200 40.65500 42.98200
H  -14.85900 34.38900 44.44200
H  -7.58600 36.63500 41.15700
H  -8.58600 38.92900 39.49400
H  -6.39300 38.69800 41.12600
H  -7.58900 39.35100 42.30800
H  -7.16500 40.19000 40.70000
H  -8.36400 37.08200 38.34000
H  -9.39600 35.90400 39.11900
H  -7.79300 34.36100 38.60500
H  -6.67900 35.17900 39.68600
H  -11.94600 43.71800 39.99800
H  -10.55000 43.10000 40.84200
H  -11.66000 44.10100 41.74800
H  -16.68500 42.64300 42.07200
H  -16.42100 44.02800 43.00800
H  -16.01900 42.52400 43.79900
H  -17.15500 37.86800 42.88700
H  -15.97000 36.95600 45.49000
H  -16.80700 40.05800 44.70400
H  -17.67900 38.69700 45.52600
H  -18.33700 39.46500 44.13500
H  -17.18900 34.79900 43.97300
H  -18.39100 36.18300 44.14800
H  -17.69100 34.35000 46.16900
H  -18.89800 35.43300 46.21300
H  -17.32900 36.04900 46.64000
H  -14.17200 32.41400 44.18700
H  -12.44900 31.86900 44.72300
H  -13.06000 31.40300 43.21200
H  -9.00800 33.91300 40.51700
H  -5.84300 34.87500 43.78600
H  -6.78000 35.85800 44.92400
H  -6.48700 36.56900 43.41100

