158

Mg 2.80400 -0.41100 43.73600
C  6.13500 0.00300 42.94200
C  2.09800 2.18200 41.64800
C  -0.43800 -1.45000 43.72800
C  3.73300 -3.25900 45.60200
N  3.99400 1.00400 42.56200
C  5.31500 0.96100 42.35000
C  5.83200 2.10000 41.48800
C  4.53200 3.01200 41.51400
C  3.43600 2.04100 41.94500
C  4.63200 4.21100 42.49900
C  6.20900 1.57400 40.04600
C  7.13100 2.55300 39.32400
H  6.74900 2.89500 37.87700
N  1.02900 0.35200 42.93400
C  0.96100 1.42500 42.04400
C  -0.34600 1.75700 41.64600
C  -1.15400 0.76300 42.30500
C  -0.18900 -0.23300 42.97100
C  -0.76000 2.94100 40.73500
C  -2.62300 0.64800 42.14100
O  -3.24400 1.30400 41.38400
C  -3.31500 -0.29300 42.97300
N  1.77200 -2.38700 44.25300
C  0.42400 -2.36400 44.33000
C  0.01200 -3.60900 45.11400
C  1.27200 -4.03900 45.91400
C  2.35100 -3.23000 45.24100
C  -1.26100 -3.44200 45.99800
C  1.54400 -5.50200 45.94000
C  1.50800 -6.24700 47.30600
N  4.59200 -1.42400 44.20700
C  4.80400 -2.55800 44.96600
C  6.30100 -2.76200 45.04500
C  6.84000 -1.73900 44.27400
C  5.75900 -1.02300 43.80600
C  6.94800 -3.77400 45.93200
C  8.08600 -1.14200 43.79900
O  9.24700 -1.33900 44.12600
C  7.66400 0.03100 42.84900
C  8.23400 1.26900 43.45800
O  7.79500 1.72700 44.52200
O  9.07900 1.88600 42.53400
C  9.35500 3.25300 43.01600
H  1.94600 3.00300 40.94500
H  -1.47200 -1.73400 43.93700
H  3.97100 -4.04300 46.32500
H  6.69600 2.63900 41.87800
H  4.47100 3.44200 40.51400
H  5.51400 4.18600 43.13900
H  3.73200 4.36700 43.09300
H  4.57500 5.07400 41.83500
H  5.36100 1.35600 39.39800
H  6.66400 0.58600 40.12600
H  8.19300 2.32300 39.23400
H  7.15800 3.45800 39.93100
H  -1.37700 3.58300 41.36300
H  -1.31700 2.62300 39.85400
H  0.06500 3.56900 40.39800
H  -4.38800 -0.16000 42.83400
H  -3.13900 -0.20800 44.04600
H  -2.93500 -1.25300 42.62400
H  -0.24200 -4.40600 44.41500
H  1.34100 -3.68800 46.94400
H  -2.14200 -3.85800 45.50800
H  -1.35100 -2.41000 46.33500
H  -1.07700 -3.99200 46.92100
H  2.50800 -5.68000 45.46300
H  0.82000 -5.97300 45.27600
H  1.23900 -5.62300 48.15800
H  2.43600 -6.78600 47.49700
H  0.76300 -7.03600 47.20400
H  8.03800 -3.77200 45.91000
H  6.63800 -4.79400 45.70600
H  6.63900 -3.55700 46.95500
H  8.13800 -0.20600 41.89600
H  9.68400 3.02000 44.02900
H  8.43000 3.82400 43.09700
H  10.16400 3.77500 42.50500
Mg 35.56700 48.47600 24.83600
C  35.84400 46.93500 27.94600
C  34.51900 51.27500 26.27000
C  34.88300 49.65200 21.78300
C  36.77800 45.52600 23.36400
N  35.24200 49.02900 26.97400
C  35.48700 48.30900 28.01100
C  35.07800 49.05000 29.30600
C  34.43100 50.38500 28.76200
C  34.75300 50.27500 27.22800
C  33.02500 50.65600 29.31700
C  36.34200 49.34300 30.25200
C  36.14000 49.13300 31.78500
H  34.66900 49.07800 32.28500
N  34.86000 50.25100 24.14800
C  34.49900 51.31800 24.89800
C  34.06300 52.41900 24.10400
C  34.16400 51.94000 22.76700
C  34.60000 50.52400 22.85000
C  33.67000 53.77000 24.66600
C  33.73600 52.77700 21.41600
O  34.13900 52.47400 20.28900
C  33.20600 54.20400 21.50700
N  35.87900 47.70200 22.82700
C  35.47800 48.40000 21.73700
C  35.98500 47.64600 20.46100
C  36.84600 46.54300 21.11800
C  36.45600 46.58600 22.51400
C  34.84200 47.07400 19.63900
C  38.38000 46.74600 21.03100
C  39.27400 45.50100 20.98100
N  36.10700 46.54300 25.43800
C  36.66700 45.48700 24.78900
C  36.93800 44.39400 25.63000
C  36.56100 44.95800 26.87600
C  36.19300 46.27400 26.73300
C  37.37800 42.97100 25.30000
C  36.49700 44.57000 28.30200
O  36.57100 43.49000 28.91000
C  35.98600 45.90200 29.04200
C  34.71300 45.61200 29.74200
O  33.55600 45.55800 29.27400
O  35.01500 45.31500 31.05300
C  33.91800 44.80800 31.83000
H  34.13300 52.15200 26.79400
H  34.61300 50.09100 20.82000
H  37.17900 44.62800 22.89100
H  34.36600 48.36000 29.76000
H  35.00300 51.18300 29.23500
H  32.69100 49.83000 29.94500
H  32.28600 50.67300 28.51600
H  33.15700 51.57900 29.88300
H  36.83200 50.29800 30.06300
H  37.10000 48.59500 30.01900
H  36.43700 50.09900 32.19500
H  36.69400 48.31700 32.24900
H  34.45400 54.51600 24.53800
H  33.44600 53.88300 25.72700
H  32.85300 54.03600 23.99600
H  32.21100 54.15900 21.94900
H  33.06500 54.54300 20.48100
H  33.93800 54.90300 21.91200
H  36.70400 48.26900 19.92800
H  36.57500 45.53500 20.80500
H  33.89200 47.14400 20.16900
H  35.06100 46.07000 19.27500
H  34.69500 47.59600 18.69300
H  38.65400 47.38700 21.86900
H  38.77200 47.37300 20.23000
H  38.59000 44.65200 20.96800
H  40.04000 45.52900 21.75600
H  39.90600 45.40900 20.09800
H  37.90100 43.03600 24.34600
H  36.55700 42.26200 25.18700
H  38.00500 42.61700 26.11800
H  36.69800 46.27400 29.77900
H  34.32500 44.56000 32.81000
H  33.55100 43.94300 31.27800
H  33.08900 45.46300 32.09900

