158

Mg 26.18500 1.48400 29.55800
C  28.33100 1.15600 32.37700
C  23.54300 1.77200 31.71500
C  24.25600 1.68600 26.88100
C  28.97500 0.63200 27.54900
N  25.96400 1.27700 31.87600
C  26.98100 1.32000 32.77500
C  26.36800 1.56000 34.19800
C  24.78600 1.47100 34.00100
C  24.74800 1.52300 32.43600
C  24.17000 0.14100 34.52500
C  26.86000 2.80100 34.89300
C  27.90100 2.68300 36.08500
H  27.66100 3.60400 37.23000
N  24.17600 1.65400 29.32400
C  23.28500 1.86000 30.36800
C  22.01200 2.11700 29.77200
C  22.09700 1.95400 28.37300
C  23.54500 1.64600 28.11700
C  20.75900 2.44000 30.48600
C  21.12400 2.05500 27.25500
O  21.33000 1.69800 26.12100
C  19.73800 2.67400 27.46200
N  26.57600 1.18200 27.44600
C  25.62400 1.38600 26.52900
C  26.26700 1.33100 25.09900
C  27.66900 0.82200 25.30400
C  27.78200 0.97600 26.89400
C  25.35200 0.59000 24.08300
C  28.82600 1.50900 24.58400
C  29.84600 0.65800 23.71000
N  28.22500 0.98700 29.88300
C  29.23200 0.79200 28.90400
C  30.51700 0.56500 29.63700
C  30.13900 0.70500 30.96400
C  28.78500 0.97900 31.03900
C  31.87900 0.45400 29.01600
C  30.77900 0.69000 32.22300
O  31.92800 0.46400 32.67400
C  29.55700 1.06700 33.25900
C  29.42900 0.01900 34.27700
O  28.96500 -1.08800 34.07000
O  30.00000 0.46300 35.45200
C  30.16400 -0.49800 36.51100
H  22.71000 2.03900 32.36900
H  23.64700 2.04300 26.04700
H  29.79100 0.37300 26.87100
H  26.60400 0.81000 34.95300
H  24.21500 2.36600 34.24900
H  23.51200 -0.34500 33.80500
H  23.54300 0.27500 35.40700
H  24.93400 -0.51400 34.94400
H  26.01000 3.36000 35.28500
H  27.31100 3.48400 34.17300
H  28.91600 2.87300 35.73500
H  27.87000 1.63400 36.37900
H  20.31900 3.36700 30.11900
H  20.86600 2.61400 31.55600
H  20.13800 1.56100 30.31300
H  19.17200 2.31400 28.32100
H  19.15800 2.47500 26.56100
H  19.91200 3.74700 27.54400
H  26.21700 2.36400 24.75600
H  27.73700 -0.25700 25.16800
H  24.47200 0.17200 24.57200
H  25.90100 -0.26300 23.68500
H  25.13800 1.39000 23.37400
H  29.34800 2.12900 25.31300
H  28.34600 2.21500 23.90700
H  30.83500 1.09300 23.85500
H  29.50600 0.44000 22.69800
H  29.83600 -0.33300 24.16400
H  32.63000 1.08100 29.49700
H  31.79400 0.76600 27.97500
H  32.12100 -0.60800 28.98500
H  29.83000 2.00700 33.73800
H  29.19800 -0.70000 36.97500
H  30.92400 -0.16600 37.21700
H  30.52100 -1.43500 36.08300
Mg 17.43900 52.18600 26.45800
C  19.63800 50.77700 28.76700
C  15.38900 53.05600 28.98100
C  15.42100 53.47700 24.15300
C  19.58800 51.02400 23.90000
N  17.51400 51.93500 28.61800
C  18.56600 51.40500 29.40600
C  18.22300 51.39200 30.87100
C  16.64500 51.78200 30.83300
C  16.50300 52.31600 29.41500
C  15.60200 50.71200 31.23600
C  19.12600 52.42200 31.53500
C  19.14600 52.54100 33.05700
H  18.09500 51.66000 33.84700
N  15.63300 53.23500 26.56000
C  14.96600 53.50100 27.70500
C  13.83300 54.31600 27.40200
C  13.91400 54.57800 26.02300
C  14.97800 53.74200 25.50400
C  12.98700 54.89600 28.52800
C  13.06600 55.42200 25.13700
O  13.37800 55.55300 23.97300
C  11.82500 56.06300 25.59900
N  17.32900 51.88300 24.30000
C  16.46700 52.71300 23.62000
C  16.80700 52.79600 22.11400
C  18.21900 52.14200 22.08100
C  18.38200 51.63600 23.54400
C  15.70500 52.05100 21.27800
C  19.48300 53.11300 21.82800
C  20.55700 52.60700 20.79000
N  19.17000 50.98900 26.31500
C  19.94100 50.68500 25.22300
C  21.05900 49.91400 25.66600
C  20.99900 49.89700 27.01900
C  19.84600 50.62800 27.41100
C  22.19800 49.50700 24.75700
C  21.67600 49.39300 28.23800
O  22.65300 48.76400 28.49500
C  20.87700 50.10900 29.43300
C  20.52000 48.93400 30.33100
O  19.78100 48.00000 30.06100
O  21.11500 49.08400 31.50700
C  20.53700 48.25000 32.58700
H  14.76200 53.39500 29.80800
H  14.98900 54.09900 23.36600
H  20.12100 50.62000 23.03700
H  18.33100 50.46100 31.42800
H  16.44500 52.60700 31.51700
H  14.91700 50.60000 30.39400
H  15.08500 51.08400 32.12000
H  16.09900 49.80600 31.58200
H  18.74600 53.40100 31.24400
H  20.17400 52.34000 31.24700
H  18.98300 53.58900 33.31000
H  20.14200 52.27900 33.41500
H  12.40800 54.08200 28.96400
H  12.22400 55.54400 28.09700
H  13.56800 55.40600 29.29800
H  11.31100 55.26500 26.13500
H  11.17500 56.43200 24.80600
H  12.06100 56.95300 26.18100
H  16.85800 53.83900 21.80000
H  18.16900 51.32600 21.36000
H  16.23900 51.30000 20.69600
H  15.15800 52.72600 20.62000
H  14.91800 51.65000 21.91700
H  19.94800 53.43600 22.76000
H  19.07400 54.06100 21.47700
H  21.45900 52.32100 21.33200
H  20.83800 53.36700 20.06200
H  20.16700 51.69500 20.33800
H  23.13600 49.89900 25.15300
H  22.17500 49.79900 23.70800
H  22.23200 48.41800 24.78600
H  21.53800 50.76200 30.00300
H  19.46800 48.41600 32.71600
H  21.00300 48.45700 33.55100
H  20.71400 47.20500 32.33200

