158

Mg 36.48400 0.41700 29.64300
C  34.26700 1.60500 32.01700
C  38.89300 0.43800 32.05600
C  38.74800 0.00400 27.15400
C  34.00900 1.11700 27.15500
N  36.50700 0.94200 31.77200
C  35.51700 1.41000 32.57000
C  35.93300 1.49300 34.01400
C  37.50700 1.38300 33.90800
C  37.66800 0.89900 32.47500
C  38.32500 2.70400 34.08100
C  35.20900 0.43500 34.85600
C  35.61800 0.25400 36.37200
H  36.41400 1.39600 37.09300
N  38.48600 0.14300 29.63000
C  39.31400 0.15100 30.75400
C  40.62000 -0.10400 30.32300
C  40.65200 -0.35300 28.93300
C  39.26200 -0.07500 28.48000
C  41.70700 -0.24500 31.33300
C  41.82300 -0.67000 27.94200
O  41.63500 -0.79800 26.69700
C  43.26200 -0.74800 28.45700
N  36.36400 0.45200 27.51000
C  37.45200 0.21300 26.75900
C  37.08000 0.19000 25.21500
C  35.62900 0.47400 25.23600
C  35.31100 0.71000 26.71000
C  37.93800 1.06000 24.22800
C  34.62500 -0.56400 24.52100
C  34.16800 -1.77900 25.38000
N  34.47900 1.07100 29.60300
C  33.65500 1.37100 28.51800
C  32.39800 1.91700 29.01300
C  32.58400 2.01600 30.41300
C  33.83900 1.46400 30.69200
C  31.34100 2.38500 28.12000
C  32.04000 2.50700 31.57400
O  31.00500 3.10000 31.78000
C  33.04000 2.21000 32.70500
C  33.25900 3.43500 33.48200
O  33.96600 4.39500 33.16900
O  32.73300 3.31900 34.76200
C  32.89900 4.53900 35.60000
H  39.64800 0.47100 32.84400
H  39.36100 -0.27500 26.29500
H  33.27000 1.31100 26.37500
H  35.77000 2.51400 34.35800
H  37.99600 0.70100 34.60400
H  37.72800 3.60800 34.20600
H  38.98700 2.84400 33.22600
H  39.10300 2.58300 34.83500
H  35.50900 -0.46900 34.32600
H  34.12400 0.53100 34.87800
H  36.32700 -0.55600 36.19800
H  34.89500 -0.18000 37.06300
H  42.23500 0.67400 31.58700
H  42.44400 -0.93800 30.92600
H  41.40200 -0.82000 32.20700
H  43.46100 0.03500 29.18800
H  43.88800 -0.63400 27.57100
H  43.45100 -1.72700 28.89700
H  37.19200 -0.82600 24.83800
H  35.38400 1.37400 24.67100
H  38.85700 1.37700 24.71900
H  37.34000 1.91300 23.90600
H  38.21100 0.37200 23.42800
H  34.93900 -1.00500 23.57600
H  33.71600 0.01000 24.33800
H  34.27500 -2.71100 24.82600
H  33.11400 -1.70000 25.64600
H  34.88700 -1.85700 26.19600
H  31.14600 1.63000 27.35900
H  31.72600 3.23700 27.55900
H  30.35600 2.55900 28.55500
H  32.62500 1.45900 33.37700
H  32.38500 5.38500 35.14200
H  33.97100 4.73300 35.62700
H  32.51000 4.32600 36.59600
Mg 41.83700 7.57100 29.23600
C  43.50800 9.17400 31.77900
C  39.64200 6.22500 31.55600
C  40.35500 5.91100 26.72300
C  44.14300 8.82400 26.96300
N  41.72000 7.69300 31.46300
C  42.41700 8.48800 32.27200
C  41.86500 8.42900 33.70800
C  40.81000 7.25200 33.62500
C  40.71300 6.99200 32.14200
C  41.11900 5.99500 34.49800
C  41.34500 9.81500 34.03700
C  40.48200 10.00900 35.28500
H  40.98800 11.01300 36.37300
N  40.19500 6.26500 29.16700
C  39.36700 5.87900 30.23100
C  38.31000 4.98900 29.75700
C  38.48500 4.87700 28.38500
C  39.74700 5.71300 28.05000
C  37.33200 4.32300 30.58200
C  37.57800 4.29600 27.33200
O  37.94100 4.18900 26.12100
C  36.24800 3.66900 27.71300
N  42.24200 7.27600 27.11900
C  41.53000 6.62000 26.31700
C  42.08000 6.54300 24.88000
C  42.97900 7.82900 24.86300
C  43.17000 8.01100 26.38000
C  42.88600 5.18100 24.62800
C  42.41800 9.05300 24.07400
C  41.31200 9.84100 24.69300
N  43.53100 8.78200 29.35100
C  44.36500 9.09400 28.35300
C  45.40400 9.87000 28.93400
C  45.12400 10.02100 30.35000
C  43.95200 9.26000 30.48600
C  46.58400 10.38900 28.19700
C  45.51900 10.58900 31.58500
O  46.45200 11.35000 31.90600
C  44.49700 10.12400 32.59400
C  45.33500 9.42400 33.64200
O  45.98200 8.35000 33.54800
O  45.25400 10.11500 34.83500
C  45.98000 9.41800 36.01600
H  38.86400 5.88500 32.24200
H  39.91000 5.45300 25.83700
H  44.86800 9.31100 26.30800
H  42.59200 8.20000 34.48700
H  39.81000 7.61800 33.86000
H  40.31300 5.73500 35.18500
H  42.04800 6.20000 35.03000
H  41.38300 5.14800 33.86500
H  40.82100 10.11500 33.12900
H  42.17900 10.47900 34.26500
H  40.39100 9.03600 35.76700
H  39.54100 10.34900 34.85200
H  36.29700 4.66200 30.63100
H  37.62500 4.38000 31.63000
H  37.24700 3.25800 30.36500
H  35.76000 3.40500 26.77500
H  35.65300 4.34000 28.33200
H  36.34000 2.75400 28.29700
H  41.30600 6.62700 24.11600
H  43.85600 7.56800 24.27200
H  42.49200 4.80900 23.68300
H  42.70800 4.39400 25.36200
H  43.96700 5.28100 24.52700
H  42.11700 8.69500 23.09000
H  43.23800 9.74300 23.87500
H  40.71400 9.26000 25.39500
H  40.71100 10.31000 23.91400
H  41.72700 10.67800 25.25500
H  46.45700 10.40800 27.11500
H  47.36700 9.63900 28.30800
H  47.08900 11.25100 28.63200
H  44.15500 11.06000 33.03600
H  47.05200 9.57100 35.88700
H  45.79900 8.34500 36.09100
H  45.64000 9.81400 36.97300

