158

Mg 0.31500 43.36600 26.54200
C  2.40400 43.19500 29.41800
C  -2.31600 42.83200 28.52700
C  -1.36200 42.62700 23.85100
C  3.28300 43.54200 24.67900
N  0.14600 43.02200 28.63100
C  1.02300 43.15200 29.68200
C  0.38600 43.16000 31.03900
C  -1.02600 42.61600 30.71400
C  -1.09400 42.72800 29.20200
C  -1.45500 41.21700 31.30500
C  0.32700 44.56200 31.68900
C  0.94500 44.52300 33.10100
H  0.54400 43.34000 33.92600
N  -1.55500 42.97900 26.18300
C  -2.53400 42.76400 27.18000
C  -3.77500 42.57900 26.53600
C  -3.58800 42.58800 25.14600
C  -2.13400 42.74800 25.03300
C  -5.11600 42.36500 27.26900
C  -4.54900 42.45800 23.94600
O  -4.28100 42.29000 22.76600
C  -6.04000 42.45700 24.34700
N  0.85900 43.17500 24.51700
C  -0.02900 42.87700 23.58600
C  0.62600 42.53600 22.25500
C  1.98700 43.29600 22.38600
C  2.07000 43.36200 23.91200
C  0.87500 41.03800 22.05700
C  2.05600 44.79200 21.85700
C  2.54900 44.93500 20.40200
N  2.43100 43.43100 26.90700
C  3.53500 43.62600 26.05900
C  4.77300 43.78600 26.72700
C  4.39200 43.48700 28.03900
C  2.96100 43.30100 28.11300
C  6.12700 44.13100 26.09100
C  4.85600 43.22600 29.44000
O  5.95400 43.08400 29.94200
C  3.58500 43.26900 30.33400
C  3.65200 42.19800 31.27600
O  3.17000 41.03500 31.10500
O  4.23700 42.54700 32.37000
C  4.34700 41.54600 33.51600
H  -3.17500 42.70100 29.18800
H  -1.82200 42.39800 22.88800
H  4.19500 43.78800 24.13200
H  0.87700 42.34800 31.57600
H  -1.85000 43.24800 31.04500
H  -0.75300 40.67300 31.93700
H  -1.56400 40.48800 30.50200
H  -2.39100 41.38500 31.83800
H  -0.70800 44.90300 31.73200
H  0.93100 45.25200 31.10000
H  0.49100 45.33800 33.66600
H  2.01300 44.66000 32.93200
H  -5.59800 43.34200 27.30400
H  -4.91400 42.00900 28.27900
H  -5.82300 41.61600 26.91100
H  -6.29500 43.19600 25.10700
H  -6.22300 41.44600 24.71200
H  -6.64500 42.59600 23.45100
H  -0.05600 42.91000 21.49200
H  2.85900 42.76700 21.99900
H  1.87900 40.74600 21.74800
H  0.15700 40.57000 21.38300
H  0.77500 40.53300 23.01700
H  2.69200 45.41700 22.48500
H  1.01700 45.12000 21.87500
H  1.88900 45.58800 19.83100
H  2.69900 43.94600 19.96900
H  3.49700 45.47300 20.43700
H  6.20000 45.18700 25.83100
H  6.31900 43.61100 25.15300
H  6.86900 43.85400 26.84100
H  3.69200 44.26300 30.77000
H  4.01600 40.54300 33.24700
H  3.70000 41.79100 34.35800
H  5.39500 41.52100 33.81500
Mg -4.63500 25.51100 25.75600
C  -3.59300 26.83000 28.83200
C  -6.65200 23.27600 27.62000
C  -5.35300 23.87800 22.91300
C  -2.24900 27.36600 24.14000
N  -5.01400 25.08700 27.98600
C  -4.57200 25.84500 29.06600
C  -5.16600 25.50500 30.42200
C  -6.04100 24.26500 29.94700
C  -5.91100 24.21600 28.40200
C  -5.52300 22.93000 30.61500
C  -6.06900 26.62400 30.99300
C  -6.25900 26.65700 32.50400
H  -5.73800 25.62700 33.42800
N  -6.05000 23.91300 25.26500
C  -6.78400 23.18400 26.20300
C  -7.60400 22.32600 25.53000
C  -7.24500 22.40600 24.10900
C  -6.19200 23.41700 24.00200
C  -8.65800 21.39300 26.14500
C  -7.68800 21.59100 22.90500
O  -7.14700 21.64800 21.76400
C  -8.77300 20.62300 22.95000
N  -3.85700 25.57200 23.82500
C  -4.32200 24.79400 22.81500
C  -3.50500 24.97500 21.54200
C  -2.49500 26.19900 21.95100
C  -2.80200 26.29900 23.44900
C  -2.99800 23.80200 20.78800
C  -2.58800 27.51700 21.10400
C  -3.72300 28.51800 21.49800
N  -3.26600 26.92700 26.31800
C  -2.41100 27.67600 25.52700
C  -1.71800 28.61100 26.35000
C  -2.10200 28.25700 27.68100
C  -3.02600 27.25500 27.61100
C  -0.73500 29.62800 25.93700
C  -1.84900 28.53600 29.08100
O  -1.09100 29.34700 29.56800
C  -2.86600 27.67300 29.88100
C  -2.05400 26.74300 30.81800
O  -1.21300 25.87500 30.48300
O  -2.32300 27.18500 32.11300
C  -1.50200 26.58700 33.11200
H  -7.27800 22.64800 28.25700
H  -5.70400 23.45800 21.96800
H  -1.43000 27.87800 23.63000
H  -4.35500 25.33100 31.12800
H  -7.09800 24.39700 30.17800
H  -4.80800 23.21100 31.38900
H  -4.95400 22.41900 29.83900
H  -6.37900 22.37900 31.00300
H  -7.05600 26.55700 30.53700
H  -5.59500 27.57600 30.75400
H  -7.32400 26.70100 32.72900
H  -5.87900 27.63400 32.80000
H  -9.68800 21.55000 25.82400
H  -8.66800 21.37500 27.23500
H  -8.51300 20.34200 25.89500
H  -9.05400 20.21500 21.97900
H  -9.68800 21.09600 23.30600
H  -8.48700 19.79500 23.59900
H  -4.29200 25.44200 20.95000
H  -1.46100 25.87600 21.83200
H  -3.05200 22.91200 21.41600
H  -2.00700 24.00000 20.38000
H  -3.64500 23.68600 19.91900
H  -2.74700 27.30200 20.04800
H  -1.70400 28.14900 21.19100
H  -3.15900 29.30800 21.99500
H  -4.52300 28.06300 22.08200
H  -4.21400 28.89100 20.59900
H  -1.20000 30.40400 25.33000
H  0.11500 29.14100 25.45800
H  -0.34600 30.15300 26.81000
H  -3.44700 28.31900 30.53900
H  -0.62100 27.22900 33.10400
H  -1.30600 25.54900 32.84000
H  -1.92800 26.69500 34.10900

