158

Mg -2.54700 16.79300 27.36200
C  -3.37700 14.56900 29.83100
C  -3.01300 19.36700 29.63700
C  -2.04600 19.13000 24.91000
C  -2.76000 14.32100 24.96000
N  -3.26100 16.93000 29.38400
C  -3.43300 15.90100 30.20700
C  -3.74900 16.35800 31.66200
C  -3.63000 17.89600 31.56600
C  -3.27900 18.07600 30.09700
C  -4.84400 18.84800 32.02900
C  -2.83100 15.83300 32.85600
C  -2.74300 16.70200 34.18000
H  -2.79000 15.97400 35.46800
N  -2.55200 18.96900 27.28200
C  -2.69000 19.78300 28.37000
C  -2.44600 21.15200 27.94000
C  -2.22600 21.12500 26.48300
C  -2.25500 19.75400 26.16200
C  -2.42600 22.33700 28.84200
C  -1.91200 22.31100 25.57800
O  -1.70600 22.16100 24.37700
C  -1.80100 23.64800 26.15700
N  -2.49800 16.72300 25.29500
C  -2.19500 17.84100 24.56300
C  -2.34500 17.45700 23.11800
C  -2.31400 15.89800 23.07200
C  -2.56800 15.63300 24.50900
C  -3.67700 17.93800 22.46300
C  -0.99900 15.25000 22.57400
C  0.22300 15.64000 23.40200
N  -2.81600 14.78200 27.38000
C  -2.85200 13.88300 26.33800
C  -3.06900 12.59400 26.85400
C  -3.17100 12.72800 28.21100
C  -3.13300 14.09600 28.47500
C  -2.96700 11.37300 26.08000
C  -3.31400 12.09800 29.50000
O  -3.50700 10.92000 29.81200
C  -3.33800 13.25700 30.57100
C  -2.09800 13.26000 31.34600
O  -1.13500 13.95500 31.13500
O  -2.22500 12.26400 32.30600
C  -1.09400 12.18900 33.27600
H  -3.16000 20.19700 30.33200
H  -1.79800 19.86300 24.13900
H  -2.75000 13.54800 24.18800
H  -4.78400 16.08300 31.86700
H  -2.76500 18.31100 32.08400
H  -4.53200 19.75900 32.54200
H  -5.52100 18.31300 32.69500
H  -5.51900 19.10700 31.21400
H  -1.80800 15.87300 32.48300
H  -3.15600 14.83100 33.13500
H  -3.50400 17.47900 34.25500
H  -1.79300 17.23500 34.22300
H  -3.18100 23.06400 28.54100
H  -1.50400 22.91800 28.85600
H  -2.52400 22.18200 29.91700
H  -1.53300 24.36900 25.38500
H  -0.98400 23.65400 26.87800
H  -2.77000 23.93600 26.56400
H  -1.44400 17.83000 22.63100
H  -3.09000 15.42100 22.47100
H  -4.33500 18.59100 23.03500
H  -4.27900 17.13400 22.03800
H  -3.33100 18.45300 21.56700
H  -0.71000 15.59800 21.58300
H  -1.14800 14.18500 22.39800
H  0.01200 16.27700 24.26100
H  0.77900 16.25400 22.69400
H  0.85600 14.80600 23.70400
H  -2.36600 11.63500 25.20900
H  -3.96000 11.10100 25.72300
H  -2.53500 10.47600 26.52500
H  -4.13000 12.95800 31.25700
H  -0.76700 11.16800 33.47400
H  -1.50100 12.72200 34.13500
H  -0.12300 12.59800 33.00000
Mg 6.21600 54.11800 40.93300
C  3.93500 51.38700 40.97600
C  8.61400 51.84900 40.03500
C  8.22600 56.67700 40.57700
C  3.37500 56.38900 41.32700
N  6.17700 51.96600 40.42300
C  5.13300 51.11100 40.36200
C  5.57000 49.75500 39.71800
C  7.14700 49.84400 39.69700
C  7.32400 51.31100 40.19900
C  7.84400 48.81000 40.51700
C  4.86300 49.52400 38.29500
C  4.30400 48.10600 38.03500
H  4.97500 47.37000 36.87200
N  8.17800 54.22700 40.31100
C  8.96700 53.19900 39.96100
C  10.29600 53.79600 39.70000
C  10.16300 55.21100 39.85600
C  8.77400 55.44100 40.20100
C  11.49300 52.95900 39.36500
C  11.40400 56.19700 39.60600
O  12.49800 55.72200 39.37400
C  11.20400 57.61400 39.66500
N  5.73900 56.28800 40.73500
C  6.83600 57.11000 40.75000
C  6.41000 58.54800 40.96700
C  4.87000 58.40300 41.26700
C  4.63000 56.93000 41.05300
C  7.15800 59.25500 42.07900
C  3.95900 59.35200 40.47100
C  2.99900 60.16100 41.25200
N  4.06500 54.03100 41.19000
C  3.13400 54.98500 41.42300
C  1.88500 54.36400 41.66700
C  2.07500 52.89100 41.57200
C  3.47900 52.75400 41.18100
C  0.53600 55.10800 41.91800
C  1.49100 51.60100 41.70000
O  0.39100 51.27300 42.13300
C  2.65300 50.55100 41.35300
C  2.25900 49.43800 40.35600
O  1.67900 49.66900 39.29400
O  2.57800 48.18800 40.78200
C  1.87600 46.98000 40.17400
H  9.34000 51.05300 39.85900
H  8.98300 57.46300 40.52700
H  2.53700 57.08900 41.36600
H  5.36300 48.92300 40.39100
H  7.58600 49.73100 38.70700
H  8.15900 49.07400 41.52600
H  8.69700 48.37400 39.99800
H  7.26200 47.90100 40.66500
H  5.63800 49.68200 37.54500
H  4.07000 50.25600 38.14200
H  3.22100 48.22500 37.98100
H  4.58200 47.55500 38.93400
H  12.06100 53.46500 38.58500
H  11.28800 51.95200 39.00000
H  12.14300 52.71500 40.20500
H  10.35800 57.87700 39.02900
H  12.12800 58.02500 39.26000
H  11.09200 57.91400 40.70700
H  6.67300 59.08300 40.05600
H  4.64100 58.55300 42.32200
H  7.86600 59.98700 41.69000
H  7.79900 58.54300 42.60000
H  6.57500 59.73400 42.86500
H  3.46900 58.78000 39.68300
H  4.59900 60.07900 39.97200
H  3.18700 61.20300 40.99200
H  3.06400 60.03500 42.33200
H  1.96900 60.02600 40.92200
H  -0.29200 54.55600 41.47400
H  0.49000 56.14700 41.59300
H  0.26500 55.09500 42.97400
H  2.87700 50.19500 42.35800
H  1.00300 47.15300 39.54500
H  1.45000 46.41100 41.00000
H  2.53300 46.33300 39.59300

