158

Mg 25.21200 2.00400 29.65200
C  27.18600 1.35600 32.35100
C  22.42000 2.45600 31.68000
C  23.15100 2.20000 26.83000
C  27.86500 1.37400 27.52200
N  24.86400 1.89500 31.76500
C  25.85100 1.75600 32.66600
C  25.37800 2.04300 34.08900
C  23.84400 2.32600 33.91600
C  23.67400 2.25200 32.35400
C  22.93500 1.27700 34.68100
C  26.13200 3.31300 34.71600
C  26.90000 3.19400 36.08400
H  26.40900 4.08400 37.22700
N  23.11200 2.29500 29.34600
C  22.17200 2.40100 30.33000
C  20.87800 2.42000 29.69700
C  21.08100 2.36600 28.27800
C  22.51900 2.25600 28.11500
C  19.54000 2.32100 30.48300
C  20.00200 2.20600 27.20900
O  20.17500 2.14100 25.98600
C  18.50300 2.16100 27.57700
N  25.43800 1.84400 27.54800
C  24.53100 2.11600 26.62000
C  25.16600 2.40100 25.20200
C  26.65500 2.24900 25.46500
C  26.66400 1.73400 26.89800
C  24.60000 1.55100 24.01900
C  27.48500 3.57600 25.38500
C  27.04700 4.72900 26.31400
N  27.13400 1.36000 29.83100
C  28.13500 1.16200 28.90600
C  29.41800 0.86400 29.55100
C  29.13600 0.92900 30.96600
C  27.72700 1.20900 31.04300
C  30.75900 0.62000 28.82500
C  29.68000 0.91700 32.34100
O  30.82400 0.85500 32.82500
C  28.41000 1.19000 33.21300
C  28.32200 0.10000 34.24500
O  27.80800 -1.00400 34.01400
O  28.82100 0.58000 35.37300
C  28.65700 -0.27000 36.54200
H  21.59200 2.80000 32.30200
H  22.53600 2.41000 25.95200
H  28.65300 1.35800 26.76600
H  25.64500 1.19800 34.72300
H  23.58500 3.33000 34.25300
H  23.56000 0.88700 35.48400
H  22.66700 0.58500 33.88200
H  22.03900 1.74100 35.09300
H  25.44200 4.15500 34.67600
H  26.87400 3.65500 33.99400
H  27.93800 3.51700 36.00000
H  26.75800 2.17300 36.43700
H  19.05500 1.34700 30.41400
H  18.85300 3.15700 30.35300
H  19.54000 2.34100 31.57300
H  18.12800 1.21300 27.96200
H  17.99900 2.18700 26.61100
H  18.20900 2.97700 28.23700
H  25.10800 3.46600 24.97300
H  27.11000 1.54500 24.76800
H  25.39800 0.89600 23.66900
H  24.25900 2.17600 23.19400
H  23.72000 1.02200 24.38700
H  27.41200 3.98400 24.37700
H  28.54700 3.40800 25.56300
H  27.71500 4.96100 27.14400
H  26.08300 4.47700 26.75700
H  26.81900 5.66900 25.81100
H  31.25200 1.58500 28.70400
H  30.48400 0.10300 27.90600
H  31.31800 -0.06500 29.46200
H  28.50800 2.18800 33.64000
H  29.56700 -0.85700 36.66200
H  27.81800 -0.96600 36.55700
H  28.56000 0.41600 37.38300
Mg 49.32000 46.35000 43.19100
C  45.98900 46.53200 42.16200
C  49.34600 43.15200 41.96800
C  52.67300 46.56700 43.17800
C  49.21200 49.95300 43.58200
N  47.75800 45.01900 42.17000
C  46.49700 45.30400 41.76400
C  45.88300 44.14400 41.02000
C  46.90200 42.99300 41.33100
C  48.07600 43.71400 41.92800
C  46.34900 41.87300 42.31100
C  45.64600 44.42000 39.48600
C  44.27100 44.00400 38.89700
H  44.25900 43.42000 37.50300
N  50.84100 44.96800 42.74900
C  50.62600 43.65700 42.39000
C  51.89800 43.10900 42.17100
C  52.97000 44.02800 42.55200
C  52.22100 45.21300 42.82700
C  52.05300 41.64400 41.69400
C  54.45500 43.74800 42.57700
O  54.88800 42.61900 42.41200
C  55.36000 44.85900 42.82300
N  50.70400 47.98400 43.43400
C  52.06500 47.74900 43.50300
C  52.81000 48.93000 44.16500
C  51.67700 49.99200 44.27000
C  50.46600 49.30200 43.70700
C  53.64200 48.87100 45.50100
C  51.85900 51.24800 43.44900
C  51.58600 52.61700 44.03600
N  47.82600 47.90400 43.12600
C  47.97800 49.31900 43.30500
C  46.60300 49.89200 43.15600
C  45.79900 48.76700 42.71200
C  46.63500 47.63000 42.66400
C  46.20800 51.27900 43.31500
C  44.47500 48.40500 42.27300
O  43.57000 49.14200 42.04800
C  44.54500 46.89700 41.90500
C  43.55800 46.14600 42.81400
O  43.74400 45.91300 43.99500
O  42.36700 45.87400 42.14400
C  41.31300 45.17800 42.89500
H  49.24100 42.12400 41.61700
H  53.73700 46.73800 43.35700
H  49.09600 51.02400 43.75500
H  44.94500 43.96900 41.54800
H  47.20300 42.37800 40.48300
H  46.80600 41.83200 43.30000
H  46.58300 40.87200 41.94700
H  45.26800 41.94300 42.43200
H  46.41300 43.88100 38.92900
H  45.74100 45.50400 39.42700
H  43.56700 44.83600 38.90700
H  43.84200 43.27000 39.57900
H  51.06700 41.18900 41.60100
H  52.75000 41.06500 42.29900
H  52.43300 41.65900 40.67200
H  55.08300 45.17700 43.82900
H  55.17000 45.71900 42.18100
H  56.36800 44.44500 42.78100
H  53.44000 49.18600 43.31300
H  51.41900 50.30000 45.28300
H  53.60700 47.86400 45.91700
H  53.32500 49.50200 46.33100
H  54.66800 49.13500 45.24500
H  51.41800 51.11600 42.46100
H  52.93000 51.30400 43.25100
H  51.57100 53.32700 43.21000
H  52.34000 52.87500 44.78000
H  50.60500 52.66600 44.50800
H  46.29700 51.85000 42.39000
H  46.76500 51.84700 44.06000
H  45.21500 51.55400 43.66800
H  44.28400 46.74700 40.85700
H  40.77500 44.38700 42.37200
H  40.68900 46.05100 43.08800
H  41.74200 44.65500 43.75000

