158

Mg 48.00800 15.84700 27.85900
C  45.71200 15.80100 30.49900
C  50.00900 17.88300 29.70600
C  50.12200 15.82000 25.31900
C  45.63100 14.16300 25.81000
N  47.85800 16.81700 29.78800
C  46.88300 16.46800 30.76100
C  47.21500 17.12200 32.15900
C  48.39300 18.10300 31.69800
C  48.80900 17.59100 30.29100
C  48.08700 19.59100 31.60800
C  47.69700 15.99700 33.19600
C  47.12400 16.03700 34.67700
H  48.13400 15.86600 35.81400
N  49.88300 16.68700 27.57800
C  50.50800 17.49000 28.41300
C  51.79700 17.81400 27.87600
C  51.93100 17.15900 26.62700
C  50.62100 16.48500 26.43800
C  52.74400 18.75900 28.61200
C  53.02000 17.29800 25.59700
O  52.85600 16.82700 24.47400
C  54.30500 17.93600 25.88900
N  47.78000 15.31200 25.77100
C  48.83800 15.39200 24.96700
C  48.60300 14.75000 23.62200
C  47.21400 14.02000 23.80300
C  46.78700 14.52100 25.21500
C  48.77400 15.64500 22.33800
C  47.23900 12.52800 23.73800
C  47.79100 11.68400 22.58700
N  46.10200 15.22000 27.97300
C  45.25500 14.48600 27.13600
C  43.98900 14.24300 27.82400
C  44.16500 14.70300 29.12400
C  45.44900 15.24800 29.22200
C  42.76300 13.48800 27.31500
C  43.50300 14.86100 30.44800
O  42.37000 14.56100 30.77800
C  44.56900 15.46900 31.43900
C  44.08900 16.54300 32.26600
O  43.53600 17.56800 31.83200
O  44.39200 16.27700 33.57100
C  43.94900 17.35000 34.45100
H  50.73200 18.50400 30.24000
H  50.82900 15.81400 24.48600
H  44.93600 13.57400 25.20700
H  46.34300 17.68300 32.49400
H  49.26100 17.96300 32.34200
H  48.78400 20.15900 32.22500
H  47.06900 19.80300 31.93600
H  48.28200 20.00400 30.61800
H  48.77700 16.03200 33.33300
H  47.72300 15.03500 32.68400
H  46.32800 15.30700 34.82100
H  46.73600 17.05100 34.77300
H  53.61700 18.17500 28.90300
H  52.57100 19.19200 29.59700
H  52.97800 19.55400 27.90400
H  54.03000 18.94200 26.20500
H  54.83000 17.95800 24.93400
H  54.87200 17.35500 26.61700
H  49.30200 13.92800 23.46700
H  46.54400 14.27000 22.98000
H  48.20500 15.21900 21.51200
H  49.78600 15.45500 21.98100
H  48.70500 16.71200 22.54700
H  46.25800 12.08400 23.90700
H  47.92600 12.33400 24.56200
H  47.15300 10.98500 22.04600
H  48.68300 11.14700 22.91100
H  48.18900 12.37600 21.84500
H  43.02300 12.44100 27.46900
H  42.66800 13.69900 26.25000
H  41.80200 13.79100 27.73200
H  44.74400 14.58500 32.05300
H  44.38900 17.24200 35.44300
H  42.88000 17.15000 34.52600
H  44.14000 18.36600 34.10500
Mg -8.56100 40.71900 43.11800
C  -7.54300 37.43500 42.40500
C  -5.53700 41.68100 41.46300
C  -9.67500 43.82500 43.05700
C  -11.53100 39.53300 44.34600
N  -6.73300 39.65000 42.17100
C  -6.56600 38.29600 42.00700
C  -5.39200 37.91000 41.12200
C  -4.54700 39.15000 41.12800
C  -5.64200 40.30700 41.56200
C  -3.43200 39.21000 42.14800
C  -5.67600 37.45900 39.64600
C  -4.85500 36.24200 39.13000
H  -3.84900 36.52100 37.95100
N  -7.71200 42.51000 42.39600
C  -6.47800 42.68000 41.80100
C  -6.35000 44.06200 41.48000
C  -7.44300 44.78300 42.05000
C  -8.34000 43.70400 42.56100
C  -5.10300 44.62900 40.82400
C  -7.60300 46.29600 42.16700
O  -6.82600 47.01900 41.56600
C  -8.82400 46.92200 43.00100
N  -10.40400 41.51700 43.52300
C  -10.59000 42.83800 43.47000
C  -11.96700 43.24000 44.05300
C  -12.49800 41.92300 44.62300
C  -11.42500 40.90300 44.12900
C  -11.96600 44.30900 45.24700
C  -13.92800 41.61800 44.16800
C  -14.69700 41.01500 45.31400
N  -9.47300 38.79700 43.32900
C  -10.66800 38.48300 43.94700
C  -10.74100 37.02700 43.99400
C  -9.52000 36.53300 43.38700
C  -8.79700 37.68800 43.05200
C  -11.80000 36.17400 44.52000
C  -8.76100 35.38300 42.94100
O  -9.03800 34.19200 43.05600
C  -7.49600 35.96000 42.22500
C  -6.24400 35.25100 42.60800
O  -5.53400 35.36100 43.64200
O  -6.06000 34.23000 41.70000
C  -4.93000 33.38200 42.11800
H  -4.55200 41.87400 41.03200
H  -10.17300 44.78800 43.19100
H  -12.48800 39.23500 44.78000
H  -4.87700 37.09700 41.63400
H  -4.03600 39.39100 40.19600
H  -3.76300 39.93500 42.89200
H  -2.47700 39.47600 41.69600
H  -3.32800 38.24400 42.64200
H  -5.49200 38.27000 38.94100
H  -6.71700 37.14700 39.56800
H  -5.57100 35.42300 39.05800
H  -4.30400 36.03400 40.04700
H  -5.45000 45.44400 40.18800
H  -4.63600 43.90400 40.15700
H  -4.35800 45.02200 41.51500
H  -8.44500 47.93100 43.16200
H  -8.98100 46.42300 43.95800
H  -9.74400 47.00500 42.42300
H  -12.49800 43.74900 43.24700
H  -12.32000 41.83800 45.69500
H  -11.90500 45.31800 44.83900
H  -11.17700 44.14200 45.98100
H  -12.80900 44.14500 45.91800
H  -13.91400 40.83500 43.41100
H  -14.40800 42.51400 43.77400
H  -14.31100 41.31800 46.28800
H  -14.60500 39.92900 45.29800
H  -15.75100 41.28600 45.26800
H  -12.61900 35.98100 43.82600
H  -12.29000 36.71900 45.32700
H  -11.37300 35.22900 44.85200
H  -7.71400 35.80600 41.16800
H  -4.61100 32.60700 41.42200
H  -5.11500 32.86300 43.05900
H  -4.02900 33.98600 42.22300

