158

Mg 29.09300 57.67300 41.06900
C  26.23600 56.01300 39.91700
C  31.13500 55.49400 39.30800
C  31.85700 59.62200 41.72300
C  26.96100 60.35700 42.01800
N  28.68900 55.97600 39.75900
C  27.47300 55.44500 39.43100
C  27.74000 54.02600 38.72500
C  29.31700 53.79800 38.75400
C  29.75500 55.20800 39.30100
C  29.76100 52.57600 39.58600
C  26.91300 53.75900 37.34400
C  26.77700 54.96700 36.39700
H  27.41700 54.79900 34.98700
N  31.19900 57.52800 40.69900
C  31.85300 56.48400 39.98900
C  33.27500 56.77200 39.88600
C  33.54400 58.05200 40.62200
C  32.19400 58.46000 41.07100
C  34.20500 55.73200 39.25600
C  34.85900 58.68800 40.79000
O  35.89100 58.09800 40.45000
C  35.10900 59.99800 41.56500
N  29.39300 59.77700 41.50000
C  30.60200 60.26400 41.85200
C  30.50000 61.72000 42.48100
C  28.99300 61.90600 42.66300
C  28.35000 60.63300 42.00400
C  31.32800 62.06500 43.75700
C  28.48300 63.27000 42.02400
C  27.23300 63.89300 42.76200
N  27.07100 58.03400 41.24400
C  26.32800 59.15300 41.59500
C  24.89200 58.84200 41.55700
C  24.86100 57.62700 40.87600
C  26.16800 57.22300 40.65600
C  23.83000 59.71700 42.00500
C  23.91400 56.66600 40.37400
O  22.66300 56.56100 40.44800
C  24.81800 55.56000 39.78200
C  24.56500 54.20900 40.35800
O  25.04500 53.66800 41.34900
O  23.60800 53.67200 39.48400
C  23.37800 52.26400 39.78200
H  31.72000 54.72900 38.79300
H  32.75300 60.06300 42.16300
H  26.32500 61.16400 42.38800
H  27.27800 53.30500 39.40000
H  29.69000 53.88500 37.73400
H  30.68800 52.77900 40.12200
H  29.95600 51.78000 38.86600
H  29.07300 52.25300 40.36700
H  25.91700 53.36500 37.54300
H  27.49200 52.92500 36.94500
H  27.12600 55.88800 36.86500
H  25.71700 55.19600 36.28800
H  35.08000 56.23300 38.84200
H  33.76100 55.28600 38.36600
H  34.51300 54.95100 39.95100
H  34.50900 60.86100 41.27800
H  36.10000 60.40800 41.37100
H  35.05600 59.73300 42.62100
H  30.77300 62.47300 41.74200
H  28.64700 61.96500 43.69500
H  32.08000 61.32500 44.03100
H  30.68800 62.08400 44.63900
H  31.73800 63.06500 43.61500
H  28.07500 63.02300 41.04400
H  29.23300 64.05500 41.93400
H  27.51500 64.92400 42.97700
H  26.99700 63.41900 43.71500
H  26.31500 63.82600 42.17700
H  22.82700 59.29300 41.96000
H  23.93900 60.70000 41.54700
H  23.92300 59.87900 43.07900
H  24.58500 55.50100 38.71900
H  23.82200 51.64600 39.00100
H  22.31600 52.11800 39.58500
H  23.61700 51.87200 40.77000
Mg 6.16900 53.42300 40.64600
C  5.43900 49.92600 40.40700
C  9.33800 52.64600 39.48500
C  6.69200 56.61100 40.09500
C  2.73300 53.96500 41.10700
N  7.22000 51.49200 40.18900
C  6.70200 50.23100 39.98100
C  7.81700 49.21900 39.55300
C  9.15900 50.12600 39.82400
C  8.55200 51.52300 39.75400
C  9.88200 49.83900 41.20700
C  7.66800 48.73400 37.97600
C  6.93300 49.73600 37.01700
H  6.16600 49.24800 35.63900
N  7.83700 54.51000 39.95300
C  9.08400 53.99200 39.54900
C  9.99400 55.02500 39.44800
C  9.21500 56.23200 39.65000
C  7.86600 55.86100 39.91400
C  11.42400 54.83400 39.11100
C  9.88000 57.58000 39.73700
O  11.06000 57.66400 39.63300
C  9.20400 58.80500 39.98600
N  4.85600 55.08800 40.58400
C  5.32400 56.34600 40.37800
C  4.17600 57.41300 40.52700
C  2.96700 56.55000 40.86000
C  3.50500 55.12900 40.86600
C  4.52100 58.52100 41.56500
C  1.70500 56.54500 39.90900
C  0.27400 56.45700 40.51300
N  4.42200 52.24900 40.83400
C  3.09000 52.59400 41.10300
C  2.31000 51.44900 41.36400
C  3.21100 50.40200 41.07800
C  4.45600 50.90400 40.79100
C  0.91400 51.39100 41.80300
C  3.31000 48.94000 40.97600
O  2.49300 48.05700 41.20000
C  4.71800 48.59800 40.43700
C  4.60100 48.01700 39.09700
O  4.24800 48.53500 38.05300
O  4.80100 46.68400 39.29900
C  4.66800 45.77400 38.13600
H  10.39400 52.46500 39.27400
H  6.81400 57.66600 39.84000
H  1.71500 54.27900 41.34700
H  7.66900 48.35900 40.20600
H  9.87100 50.05500 39.00200
H  9.32000 49.19000 41.87800
H  9.99300 50.76300 41.77500
H  10.83700 49.39900 40.92000
H  7.22200 47.74100 37.91500
H  8.71300 48.67400 37.67300
H  7.72900 50.36000 36.61000
H  6.21500 50.35000 37.56100
H  11.77800 53.84300 39.39600
H  12.00000 55.47300 39.78000
H  11.56600 54.98400 38.04100
H  8.51200 58.74200 40.82600
H  8.55000 59.00600 39.13700
H  9.90500 59.63000 40.11600
H  3.87200 57.91800 39.61000
H  2.63700 56.66700 41.89200
H  5.34800 58.18800 42.19200
H  3.68700 58.71200 42.24000
H  4.71500 59.44900 41.02700
H  1.79700 55.73900 39.18100
H  1.66200 57.48400 39.35700
H  0.29600 56.04000 41.52000
H  -0.49600 55.97400 39.91200
H  -0.14100 57.46400 40.55300
H  0.52100 52.38400 42.02300
H  0.94000 50.85800 42.75300
H  0.29300 50.99600 40.99900
H  5.33300 47.99000 41.10000
H  5.47000 45.03600 38.14600
H  4.52100 46.22100 37.15300
H  3.76600 45.20700 38.36600

