158

Mg 50.18800 34.56200 27.89100
C  48.05200 33.63100 30.54500
C  50.88200 37.38200 29.49700
C  51.95100 35.47500 25.21800
C  48.99000 31.69300 26.21400
N  49.58100 35.33000 29.80100
C  48.81000 34.71300 30.81600
C  49.08700 35.44700 32.13000
C  49.47100 36.92300 31.66400
C  50.09900 36.52600 30.22700
C  48.31900 37.93600 31.56800
C  50.21400 34.76700 32.90700
C  50.27300 34.92100 34.51700
H  49.18000 35.77800 35.24200
N  51.31000 36.17800 27.43000
C  51.49100 37.28800 28.21200
C  52.45800 38.13200 27.55700
C  52.73600 37.58400 26.25800
C  52.03500 36.34500 26.26800
C  52.95400 39.36200 28.29000
C  53.65300 38.06000 25.18900
O  53.86300 37.46800 24.13800
C  54.57400 39.17000 25.50300
N  50.15000 33.82600 25.85200
C  51.10800 34.34600 25.03600
C  51.43300 33.44000 23.87900
C  50.65100 32.08200 24.27300
C  49.83100 32.58700 25.52600
C  51.02700 34.08800 22.54000
C  51.61000 30.92200 24.60000
C  51.13300 29.51100 24.10600
N  48.77600 32.96500 28.18800
C  48.47100 31.86300 27.51100
C  47.58700 30.97700 28.23900
C  47.31500 31.67900 29.38900
C  48.12000 32.84200 29.37900
C  47.08300 29.68400 27.67900
C  46.52900 31.65800 30.61900
O  45.80400 30.83700 31.10500
C  47.01100 32.95800 31.44600
C  47.37400 32.46500 32.79300
O  48.34600 31.78200 32.95000
O  46.41800 32.92800 33.71400
C  46.63400 32.46700 35.06700
H  51.14300 38.20000 30.17100
H  52.75800 35.53700 24.48500
H  48.90500 30.77700 25.62500
H  48.18900 35.47400 32.74800
H  50.13400 37.45600 32.34500
H  47.67000 37.94400 32.44300
H  47.72500 37.58400 30.72500
H  48.68100 38.94900 31.39400
H  51.15700 35.13100 32.49900
H  50.07800 33.68900 32.81900
H  51.29500 35.15600 34.81300
H  50.15000 33.89600 34.86400
H  54.04200 39.36900 28.34500
H  52.54400 39.57600 29.27700
H  52.70100 40.22800 27.67900
H  54.11900 40.06800 25.92300
H  55.19500 39.45000 24.65300
H  55.25500 38.80500 26.27200
H  52.51200 33.29600 23.91900
H  50.02500 31.80600 23.42500
H  50.71900 35.10500 22.78000
H  50.16100 33.59700 22.09500
H  51.94200 34.05600 21.94700
H  51.69100 30.86200 25.68500
H  52.61300 30.91500 24.17300
H  52.02100 28.96900 23.78100
H  50.44600 29.56800 23.26200
H  50.74300 29.07900 25.02800
H  47.41300 29.62800 26.64200
H  45.99600 29.72900 27.73900
H  47.49300 28.83000 28.21800
H  46.11200 33.57100 31.51000
H  47.60300 32.79400 35.44400
H  46.58200 31.37900 35.09700
H  45.82900 32.73100 35.75300
Mg 36.78100 49.65600 24.95100
C  37.25700 47.64900 27.94900
C  35.49500 51.97900 27.05800
C  36.40600 51.46100 22.30400
C  38.02600 46.89300 23.11300
N  36.28700 49.69700 27.22100
C  36.67200 48.83800 28.23700
C  36.22700 49.39300 29.57600
C  35.77800 50.80900 29.25900
C  35.86300 50.81300 27.74800
C  34.31700 51.22600 29.72800
C  37.22200 49.18200 30.78500
C  37.35500 50.27800 31.86800
H  36.26300 50.38300 32.98500
N  35.99400 51.42100 24.68800
C  35.56800 52.29200 25.70000
C  35.16500 53.52100 25.19400
C  35.35800 53.42000 23.76600
C  35.98200 52.08400 23.48000
C  34.84700 54.76400 26.03600
C  35.09100 54.37200 22.66600
O  35.14200 54.08500 21.49500
C  34.72700 55.83700 22.91200
N  36.89900 49.11900 23.06300
C  36.81500 50.14000 22.14900
C  37.02700 49.58500 20.72900
C  37.70000 48.23000 20.95300
C  37.57800 48.06700 22.50500
C  35.78500 49.66600 19.78000
C  39.25300 48.26500 20.53700
C  40.30700 49.00500 21.31800
N  37.59800 47.66000 25.32400
C  38.02600 46.68200 24.47200
C  38.50800 45.54100 25.26600
C  38.26600 45.93500 26.64900
C  37.63600 47.20800 26.63900
C  39.04700 44.32700 24.66500
C  38.26900 45.39400 28.02500
O  38.67900 44.36600 28.50500
C  37.66900 46.53400 28.91700
C  36.54000 46.09900 29.77400
O  35.42200 45.93800 29.39200
O  37.02100 45.92700 31.09200
C  36.03100 45.39800 32.04200
H  35.14100 52.75700 27.73800
H  36.33300 51.98900 21.35100
H  38.46200 46.13100 22.46500
H  35.32100 48.86600 29.87500
H  36.41800 51.62100 29.60400
H  33.73400 51.31800 28.81100
H  34.26500 52.22400 30.16300
H  33.74000 50.48900 30.28800
H  38.23700 48.96300 30.45600
H  36.87000 48.36300 31.41300
H  37.24100 51.26000 31.41100
H  38.39000 50.21100 32.20300
H  35.33200 55.60100 25.53500
H  35.33800 54.73900 27.00900
H  33.77400 54.82300 26.22000
H  34.01100 55.90100 23.73200
H  34.09900 56.25100 22.12300
H  35.62400 56.42400 23.10800
H  37.72000 50.27200 20.24300
H  37.14600 47.39100 20.53200
H  35.08300 50.37100 20.22600
H  35.34700 48.66800 19.78600
H  36.01100 49.96300 18.75600
H  39.21700 48.67600 19.52800
H  39.63200 47.24700 20.45000
H  41.09200 48.32900 21.65800
H  39.65100 49.40200 22.09300
H  40.74500 49.85600 20.79600
H  39.84800 44.52600 23.95400
H  38.31700 43.62500 24.26200
H  39.55300 43.71900 25.41500
H  38.48600 46.92700 29.52100
H  35.43300 44.59500 31.61000
H  35.46400 46.21600 32.48500
H  36.43000 44.84500 32.89300

