158

Mg 9.34500 3.61100 28.18200
C  10.58500 1.84800 30.88600
C  6.97100 5.06200 30.23200
C  7.81000 5.05200 25.47300
C  11.09900 1.50000 25.98200
N  8.75200 3.28900 30.33400
C  9.53900 2.71000 31.25600
C  9.14000 3.18700 32.67600
C  7.95500 4.22100 32.47500
C  7.80100 4.16900 30.89000
C  6.66200 3.85400 33.23500
C  10.43900 3.74200 33.52600
C  10.18900 4.64600 34.75700
H  10.73500 4.19300 36.10200
N  7.69200 4.98900 27.89700
C  6.89400 5.45300 28.89600
C  5.93100 6.41400 28.34800
C  6.12800 6.37400 26.90200
C  7.18300 5.40400 26.67700
C  4.90300 7.23900 29.09600
C  5.48800 7.19200 25.78600
O  5.82000 7.07500 24.57300
C  4.29300 8.12400 26.11600
N  9.41200 3.24000 26.05200
C  8.82500 4.06200 25.13500
C  9.30700 3.91000 23.66400
C  10.39400 2.81200 23.94800
C  10.31700 2.46200 25.41200
C  8.21500 3.40100 22.71300
C  11.80500 3.25600 23.49800
C  12.51800 4.26700 24.36500
N  10.58600 2.01400 28.33900
C  11.19300 1.22600 27.31600
C  11.94100 0.21000 27.99800
C  11.79000 0.49900 29.40600
C  10.89300 1.55500 29.51300
C  12.81500 -0.79100 27.29100
C  12.32400 0.16200 30.76700
O  13.16500 -0.62100 31.10800
C  11.54600 1.09300 31.73900
C  10.83300 0.22900 32.66800
O  9.89700 -0.49100 32.37800
O  11.32800 0.29300 33.91100
C  10.54200 -0.35600 34.96700
H  6.29000 5.61700 30.88100
H  7.35100 5.52000 24.59900
H  11.85500 1.04700 25.33700
H  8.82600 2.27200 33.17700
H  8.18800 5.25300 32.73600
H  5.90100 3.62100 32.49000
H  6.29800 4.74100 33.75400
H  6.87900 3.03100 33.91600
H  11.10700 4.22400 32.81200
H  10.90300 2.83000 33.90300
H  9.11900 4.73000 34.94900
H  10.43300 5.65500 34.42500
H  4.88300 6.98200 30.15500
H  3.89500 7.06700 28.71800
H  5.11000 8.26900 28.80800
H  3.89300 8.49500 25.17200
H  4.51800 8.96200 26.77500
H  3.39900 7.59700 26.44700
H  9.76700 4.82500 23.29300
H  10.00600 1.97500 23.36700
H  7.38800 3.02900 23.31800
H  8.55800 2.51200 22.18400
H  8.03000 4.06300 21.86700
H  11.73300 3.74300 22.52600
H  12.43500 2.37600 23.36500
H  12.09700 4.50500 25.34200
H  12.74100 5.17200 23.79900
H  13.50000 3.89000 24.65100
H  13.39700 -0.32700 26.49500
H  12.25800 -1.58400 26.79400
H  13.49200 -1.31500 27.96500
H  12.12800 1.88800 32.20600
H  9.71300 -0.99800 34.66700
H  10.16000 0.49900 35.52400
H  11.16100 -0.99800 35.59400
Mg 0.93800 44.30300 24.75100
C  2.91200 43.92200 27.63300
C  -1.87800 43.78700 26.92200
C  -0.95100 43.80100 22.15800
C  3.73600 44.33100 22.77600
N  0.59800 43.88300 26.98200
C  1.52400 43.88800 27.92500
C  0.93800 43.89200 29.35000
C  -0.58100 43.59800 29.07100
C  -0.66200 43.75200 27.55000
C  -1.10300 42.15500 29.49500
C  1.19500 45.14300 30.22200
C  1.21800 44.94600 31.74900
H  1.09700 43.54000 32.35000
N  -1.14400 44.00800 24.55000
C  -2.12400 43.83300 25.52600
C  -3.47200 43.75900 24.86400
C  -3.22600 43.93800 23.41800
C  -1.69300 43.90600 23.35300
C  -4.78800 43.63900 25.65100
C  -4.12700 44.12700 22.20100
O  -3.67400 44.47100 21.12200
C  -5.61900 44.03800 22.40000
N  1.28700 44.16000 22.70200
C  0.39800 43.86800 21.83500
C  0.93800 43.79900 20.38100
C  2.38300 44.29100 20.54600
C  2.48900 44.38500 22.10000
C  0.64300 42.42500 19.72400
C  2.78700 45.54500 19.88200
C  4.18300 45.56200 19.13400
N  2.98800 44.30200 25.09400
C  4.05500 44.41300 24.19600
C  5.35500 44.40400 25.00600
C  4.89300 44.20900 26.33100
C  3.47800 44.10500 26.34500
C  6.70000 44.55800 24.35000
C  5.34200 44.05500 27.65900
O  6.51800 44.07000 28.08100
C  4.15100 43.89300 28.54700
C  4.34500 42.65200 29.29600
O  4.06400 41.49900 28.94300
O  4.74500 43.00400 30.52000
C  4.74300 41.90500 31.55500
H  -2.73700 43.80400 27.59600
H  -1.49200 43.67800 21.21800
H  4.59400 44.33100 22.10100
H  1.44900 43.06300 29.84000
H  -1.20200 44.40000 29.47000
H  -1.21800 41.53900 28.60300
H  -2.04700 42.29800 30.02100
H  -0.41400 41.66400 30.18200
H  0.39000 45.87000 30.11600
H  2.18200 45.53800 29.97900
H  0.43600 45.61600 32.10600
H  2.15800 45.38800 32.07900
H  -5.44600 44.50000 25.53600
H  -4.74800 43.63700 26.74100
H  -5.35200 42.74900 25.37500
H  -5.77500 43.01800 22.75100
H  -6.01800 44.13600 21.39100
H  -6.03100 44.77300 23.09200
H  0.31600 44.39500 19.71300
H  3.09200 43.52100 20.24200
H  0.22100 41.85400 20.55100
H  1.64100 42.05300 19.49200
H  -0.06000 42.38600 18.89200
H  2.93300 46.29800 20.65700
H  2.02100 45.91500 19.20100
H  4.01400 45.62300 18.05900
H  4.85700 44.73800 19.37000
H  4.85500 46.38000 19.39400
H  6.87800 44.24300 23.32200
H  7.25200 43.85300 24.97200
H  7.10000 45.57200 24.35300
H  4.26000 44.72500 29.24200
H  5.76900 41.55400 31.65800
H  3.96800 41.15100 31.41800
H  4.48300 42.44400 32.46600

