158

Mg 48.28100 34.77800 26.96400
C  46.48100 33.43400 29.69500
C  49.00100 37.58600 28.86600
C  49.79400 36.08200 24.28900
C  47.39800 31.94400 25.10000
N  47.86000 35.35400 29.03900
C  47.19300 34.64000 30.02200
C  47.42100 35.24100 31.41200
C  47.92200 36.66800 31.04100
C  48.30900 36.52800 29.54900
C  47.01100 37.80800 31.33000
C  48.49300 34.46400 32.28300
C  48.15000 34.32200 33.74800
H  47.09200 35.32700 34.33700
N  49.22400 36.61900 26.60100
C  49.47500 37.58700 27.52200
C  50.37200 38.54300 26.98100
C  50.63100 38.13600 25.67100
C  49.83600 36.93300 25.44200
C  50.99200 39.78300 27.74800
C  51.45900 38.81700 24.55300
O  51.45100 38.43000 23.42700
C  52.34200 40.00500 24.87700
N  48.48800 34.06900 24.95800
C  49.16400 34.91500 24.08100
C  49.36600 34.19500 22.72100
C  48.70900 32.74800 22.97700
C  48.06700 32.90000 24.40500
C  48.90600 34.95700 21.47500
C  49.65600 31.49600 22.99000
C  49.02800 30.22000 22.50800
N  47.26700 33.00600 27.27300
C  46.98200 31.90100 26.45400
C  46.21700 30.95800 27.16100
C  45.94800 31.53100 28.39500
C  46.61800 32.71900 28.49800
C  45.77800 29.61000 26.66400
C  45.24300 31.27300 29.67000
O  44.57800 30.31600 30.00500
C  45.65200 32.48700 30.65100
C  46.57400 31.86700 31.75300
O  47.64400 31.25900 31.63000
O  45.93100 32.03100 32.90900
C  46.39100 31.04400 34.01600
H  49.28000 38.46300 29.45400
H  50.43600 36.41600 23.47100
H  47.37300 31.02100 24.51700
H  46.48900 35.42100 31.94900
H  48.76900 36.99500 31.64400
H  46.56200 38.25700 30.44400
H  47.67700 38.55200 31.76700
H  46.14400 37.63000 31.96500
H  49.46000 34.96600 32.24100
H  48.71000 33.46500 31.90500
H  49.07500 34.51600 34.29000
H  47.74600 33.34800 34.02300
H  52.07700 39.70700 27.82600
H  50.59600 39.95600 28.74900
H  50.62800 40.62300 27.15600
H  52.78500 40.44200 23.98200
H  53.14300 39.79800 25.58700
H  51.71700 40.80500 25.27300
H  50.45100 34.09500 22.70800
H  47.97700 32.42100 22.23900
H  49.82100 35.16100 20.91800
H  48.32700 35.85700 21.68400
H  48.18700 34.35500 20.91800
H  50.05000 31.36500 23.99800
H  50.57100 31.71300 22.44000
H  49.48000 29.91100 21.56600
H  47.97300 30.32600 22.25200
H  49.03800 29.43600 23.26600
H  46.57800 29.13500 26.09600
H  44.96600 29.81300 25.96500
H  45.48100 29.10600 27.58300
H  44.80400 33.06500 31.01800
H  46.41800 30.00700 33.68100
H  45.87700 31.10000 34.97600
H  47.43100 31.32500 34.17600
Mg 16.72300 51.70800 25.18300
C  18.73200 50.61400 27.89000
C  14.44200 52.65300 27.53200
C  14.98500 52.84800 22.66400
C  19.14200 50.42200 23.00300
N  16.65100 51.85200 27.43300
C  17.52400 51.21700 28.33400
C  17.14800 51.48800 29.83500
C  15.63800 51.90400 29.72500
C  15.58500 52.17800 28.14900
C  14.60800 50.90500 30.31900
C  18.01200 52.65800 30.37600
C  18.51100 52.64500 31.88000
H  17.52200 52.09400 32.94000
N  14.97200 52.64900 25.05300
C  14.17400 52.98100 26.11200
C  13.00900 53.60100 25.59700
C  13.10700 53.71400 24.23200
C  14.37700 53.05000 23.86100
C  11.86700 54.24200 26.54300
C  12.23500 54.38200 23.25700
O  12.46800 54.60800 22.08400
C  10.82000 54.84100 23.72400
N  17.02900 51.72500 23.08200
C  16.14900 52.20600 22.21000
C  16.53200 51.99100 20.71600
C  17.93900 51.37100 20.89200
C  18.03800 51.15700 22.38800
C  15.68800 51.13900 19.82500
C  19.11200 52.21000 20.32100
C  20.24700 51.33600 19.63800
N  18.58800 50.70900 25.35300
C  19.42000 50.16900 24.39700
C  20.46900 49.47100 24.99900
C  20.28900 49.63800 26.38400
C  19.08600 50.37600 26.54200
C  21.69200 48.75700 24.36000
C  20.76100 49.32300 27.67800
O  21.80900 48.85900 28.00600
C  19.84700 49.97200 28.76700
C  19.48900 49.05800 29.79700
O  18.65400 48.16000 29.67700
O  20.14400 49.29400 30.96100
C  19.65100 48.56300 32.14700
H  13.70700 52.96900 28.27600
H  14.36300 53.16900 21.82600
H  19.80400 49.92700 22.29000
H  17.28500 50.59200 30.44000
H  15.36400 52.84100 30.20900
H  13.85600 50.60000 29.59100
H  14.08700 51.35100 31.16600
H  15.06300 49.97900 30.67000
H  17.47200 53.60500 30.38500
H  18.93900 52.76700 29.81300
H  18.62600 53.70300 32.11700
H  19.41100 52.03100 31.89400
H  12.14500 54.40700 27.58400
H  10.98400 53.60800 26.47000
H  11.71900 55.24400 26.14100
H  10.33600 54.18900 24.45100
H  10.24400 54.95800 22.80600
H  10.84000 55.87600 24.06600
H  16.64700 52.94600 20.20400
H  17.99000 50.36400 20.48000
H  16.18600 50.54200 19.06100
H  14.95300 51.74700 19.29800
H  15.04000 50.48200 20.40400
H  19.51400 52.76100 21.17100
H  18.74700 53.00400 19.67000
H  20.34800 51.48600 18.56300
H  20.04500 50.27100 19.75600
H  21.24600 51.46700 20.05500
H  21.44900 48.39400 23.36100
H  21.97200 47.88700 24.95500
H  22.53000 49.44400 24.47500
H  20.54000 50.69200 29.20300
H  19.39100 47.59000 31.72900
H  18.79200 48.97200 32.67900
H  20.37000 48.53500 32.96500

