158

Mg -1.81800 17.27100 27.02000
C  -2.00300 15.20100 29.77300
C  -1.94300 19.90800 29.23400
C  -2.19900 19.27900 24.47100
C  -2.29100 14.44400 24.97600
N  -1.79800 17.53200 29.21400
C  -1.98000 16.53000 30.13400
C  -2.03400 17.08600 31.61000
C  -2.28400 18.62800 31.35000
C  -1.95500 18.69800 29.84100
C  -3.63800 19.15200 31.81400
C  -0.78000 16.72400 32.41200
C  -0.29100 17.66700 33.56700
H  -0.05000 16.81700 34.84600
N  -1.97400 19.39600 26.87100
C  -1.90500 20.30300 27.87400
C  -1.84700 21.63300 27.35500
C  -1.97800 21.48800 25.92400
C  -2.01500 20.02800 25.68500
C  -1.77900 22.93000 28.16600
C  -2.06500 22.60300 24.87500
O  -2.25500 22.25700 23.68800
C  -2.19000 24.08100 25.25400
N  -2.27700 16.87800 25.02600
C  -2.38500 17.93800 24.14300
C  -2.71800 17.42300 22.71000
C  -2.37400 15.88900 22.89200
C  -2.46500 15.69600 24.39400
C  -4.04800 17.80100 22.13700
C  -1.11400 15.32600 22.11100
C  0.16800 15.28200 23.01100
N  -1.92500 15.22000 27.21200
C  -2.19900 14.22000 26.30900
C  -2.29200 12.95700 27.02700
C  -2.23000 13.26600 28.40800
C  -2.04300 14.67400 28.44700
C  -2.68900 11.60800 26.43400
C  -2.38000 12.77300 29.68200
O  -2.45100 11.57700 30.04300
C  -2.29000 14.01000 30.64800
C  -1.21600 13.51800 31.57800
O  -0.00000 13.45600 31.30400
O  -1.79800 13.09900 32.74900
C  -0.80600 12.33400 33.58500
H  -2.08700 20.65300 30.01800
H  -2.34700 19.95100 23.62300
H  -2.45000 13.58600 24.32000
H  -2.88800 16.60600 32.08700
H  -1.52800 19.32200 31.71700
H  -4.10300 19.56900 30.92100
H  -3.57000 19.94100 32.56300
H  -4.27200 18.42300 32.31800
H  0.07400 16.64100 31.74000
H  -0.99300 15.76600 32.88600
H  -1.04100 18.45200 33.66700
H  0.63300 18.14600 33.24200
H  -2.56700 23.60300 27.82700
H  -0.81700 23.39300 27.94700
H  -1.83600 22.66200 29.22100
H  -1.23700 24.30600 25.73300
H  -3.10800 24.17100 25.83400
H  -2.28900 24.79800 24.43900
H  -2.08900 17.90400 21.96000
H  -3.18700 15.31300 22.45000
H  -3.84700 18.10700 21.11000
H  -4.55300 18.60200 22.67800
H  -4.71200 16.93600 22.12900
H  -0.84100 15.92500 21.24200
H  -1.27600 14.31200 21.74700
H  0.10800 15.63000 24.04200
H  1.07000 15.82300 22.72300
H  0.51600 14.25700 23.14100
H  -2.43400 10.90200 27.22400
H  -2.03500 11.24100 25.64300
H  -3.72600 11.51700 26.11000
H  -3.25600 14.05300 31.15000
H  -0.27700 11.55800 33.03200
H  -1.54300 11.88000 34.24800
H  -0.17400 12.95600 34.22000
Mg 16.33600 52.44600 26.42800
C  18.09200 51.04600 29.20600
C  14.08200 53.68200 28.70200
C  14.36100 52.93300 23.90100
C  18.77100 50.95300 24.33500
N  15.98600 52.19800 28.66700
C  16.93200 51.75000 29.62400
C  16.46800 52.11000 31.06200
C  15.01500 52.53900 30.83900
C  14.98900 52.86800 29.31500
C  13.93300 51.48100 31.18600
C  17.32600 53.28100 31.69900
C  17.85100 53.04000 33.07100
H  17.01300 52.02100 33.92800
N  14.60300 53.33800 26.30100
C  13.82200 53.86600 27.31200
C  12.70600 54.66600 26.67000
C  12.64900 54.27300 25.30700
C  13.88700 53.45100 25.11500
C  11.73700 55.59700 27.43400
C  11.56800 54.65800 24.22800
O  11.61600 54.40200 22.99900
C  10.48100 55.60300 24.65800
N  16.64300 52.01400 24.39400
C  15.62000 52.27100 23.51200
C  15.98800 51.83500 22.10700
C  17.51300 51.47900 22.23000
C  17.65900 51.48200 23.73000
C  15.17800 50.65100 21.56200
C  18.38800 52.49700 21.44000
C  18.97700 53.77900 21.96300
N  18.11300 51.33600 26.70800
C  18.96300 50.78900 25.74600
C  20.05000 49.98800 26.35800
C  19.71100 50.11700 27.69000
C  18.53600 50.88800 27.82800
C  21.24100 49.35900 25.77000
C  20.22400 49.91300 29.03000
O  21.29500 49.44700 29.31700
C  19.20700 50.50900 30.06000
C  18.75600 49.34300 30.93000
O  17.79200 48.63800 30.64200
O  19.59200 49.22700 32.02200
C  19.39100 48.11300 32.87900
H  13.36500 54.19600 29.34500
H  13.85000 53.16100 22.96300
H  19.57500 50.56800 23.70300
H  16.60200 51.15300 31.56600
H  14.74400 53.49300 31.29200
H  13.55700 51.65200 32.19500
H  14.25600 50.45100 31.03600
H  13.10400 51.54400 30.48100
H  16.78000 54.22200 31.63700
H  18.19600 53.35100 31.04600
H  17.96200 53.94500 33.66900
H  18.82700 52.59900 32.87200
H  11.85900 56.60900 27.04900
H  12.05100 55.79500 28.45800
H  10.68800 55.30100 27.42900
H  9.66600 55.47100 23.94600
H  10.87600 56.60900 24.79600
H  10.05000 55.27000 25.60200
H  15.72000 52.62700 21.40800
H  17.80600 50.50800 21.83100
H  15.78800 49.74800 21.54600
H  14.95100 50.78800 20.50400
H  14.22000 50.46800 22.04900
H  17.96000 52.96100 20.55200
H  19.13400 51.90800 20.90600
H  18.47400 54.67000 21.58800
H  20.01600 53.75800 21.63300
H  18.98800 53.89600 23.04700
H  22.06400 49.26500 26.47800
H  21.53500 49.76200 24.80100
H  21.03200 48.29000 25.75100
H  19.73000 51.21700 30.70300
H  19.28900 47.21600 32.26700
H  18.40200 48.16100 33.33500
H  20.09500 48.06700 33.70900

