158

Mg -1.69600 18.38700 27.19500
C  -2.10900 16.08800 29.78400
C  -2.15100 20.88900 29.35100
C  -1.53400 20.46500 24.62000
C  -1.54700 15.67400 24.94200
N  -2.26000 18.45900 29.30400
C  -2.28000 17.43700 30.20100
C  -2.51000 17.85300 31.74400
C  -2.57500 19.44900 31.43600
C  -2.29700 19.63700 29.95700
C  -3.92000 20.14500 31.85000
C  -1.41600 17.50600 32.78500
C  -1.19200 18.41300 34.01400
H  -0.88900 17.77500 35.35100
N  -1.97700 20.42000 27.02000
C  -2.10400 21.29400 28.00200
C  -2.16100 22.63600 27.47600
C  -1.75800 22.53500 26.07700
C  -1.77000 21.08000 25.85700
C  -2.21400 23.87300 28.29300
C  -1.48300 23.66400 25.03000
O  -1.03500 23.33900 23.94200
C  -1.63800 25.05300 25.36100
N  -1.74500 18.11100 25.07100
C  -1.50100 19.16400 24.21400
C  -1.37000 18.70300 22.73700
C  -0.99500 17.21300 22.96100
C  -1.55800 16.96300 24.35700
C  -2.68800 18.95400 21.81700
C  0.49700 16.72700 22.80000
C  0.76500 15.27100 22.37000
N  -1.73200 16.31700 27.29700
C  -1.64300 15.34600 26.30700
C  -1.65100 14.01300 26.98700
C  -1.92500 14.27600 28.31100
C  -1.86800 15.73100 28.48600
C  -1.60900 12.69200 26.31300
C  -2.17500 13.70600 29.63300
O  -2.28100 12.52700 30.00700
C  -2.27400 14.82100 30.62700
C  -1.18400 14.66500 31.56300
O  -0.04000 15.11500 31.39900
O  -1.71500 14.01300 32.67200
C  -0.77900 13.76400 33.74400
H  -2.14900 21.72100 30.05900
H  -1.44500 21.12000 23.75100
H  -1.29300 14.82500 24.30400
H  -3.44900 17.38800 32.04500
H  -1.77800 20.00000 31.93600
H  -3.57100 21.03800 32.37000
H  -4.55500 19.51100 32.46900
H  -4.51600 20.48900 31.00500
H  -0.45500 17.30200 32.31300
H  -1.62500 16.61700 33.38000
H  -2.03800 19.09800 34.06900
H  -0.29000 18.94600 33.71500
H  -1.17500 24.19400 28.37200
H  -2.57200 23.56400 29.27500
H  -2.87800 24.66800 27.95400
H  -2.65200 25.38100 25.13600
H  -0.90100 25.59300 24.76700
H  -1.29500 25.27800 26.37100
H  -0.49800 19.16900 22.27900
H  -1.56200 16.64600 22.22200
H  -3.43200 19.62200 22.25100
H  -3.16600 18.03600 21.47700
H  -2.26100 19.57500 21.02900
H  1.10200 16.91500 23.68600
H  0.90800 17.33300 21.99200
H  1.66000 14.91500 22.88100
H  0.86800 15.24000 21.28500
H  -0.12000 14.65900 22.54200
H  -1.14800 11.79000 26.71400
H  -1.11300 12.75100 25.34400
H  -2.57900 12.44500 25.88100
H  -3.25800 14.80500 31.09400
H  -0.61700 14.63600 34.37800
H  0.14500 13.43200 33.27000
H  -1.23000 12.91800 34.26200
Mg 50.43900 46.21300 40.81000
C  47.28400 47.38900 39.96800
C  49.56200 43.11900 39.60700
C  53.53800 45.20100 41.34400
C  51.42800 49.57800 41.42000
N  48.66300 45.36400 39.97000
C  47.46500 46.04200 39.60000
C  46.45000 45.07900 38.96000
C  47.08500 43.74000 39.21600
C  48.55000 44.10300 39.60600
C  46.42300 42.88800 40.38700
C  46.15700 45.43100 37.43500
C  45.12700 44.50800 36.79200
H  45.68500 43.77700 35.54800
N  51.46200 44.40100 40.55300
C  50.86200 43.25800 40.11800
C  51.84800 42.17700 40.17300
C  53.00000 42.73800 40.72800
C  52.72800 44.15900 40.90800
C  51.55400 40.77400 39.81500
C  54.26800 41.95000 41.01900
O  54.33500 40.79400 40.67200
C  55.45700 42.52400 41.74400
N  52.29500 47.32500 41.14400
C  53.34400 46.57200 41.56200
C  54.51000 47.51900 41.88800
C  53.89100 48.92000 41.97300
C  52.45100 48.61900 41.49900
C  55.33000 46.99300 43.13400
C  54.54700 49.94000 40.98900
C  54.79800 51.22900 41.67600
N  49.48800 48.13000 40.77700
C  50.06200 49.37100 41.04000
C  49.01200 50.40900 40.86800
C  47.89600 49.62300 40.43000
C  48.25100 48.30700 40.42200
C  49.13400 51.88600 41.02300
C  46.49600 49.68900 40.02700
O  45.74100 50.63900 40.12400
C  46.15500 48.21300 39.55700
C  44.87300 47.69600 40.28800
O  44.79300 47.23100 41.41800
O  43.80100 47.97500 39.56100
C  42.45500 47.61100 40.02300
H  49.27500 42.11100 39.30100
H  54.60100 44.98600 41.46600
H  51.59300 50.61700 41.71200
H  45.54200 45.20800 39.55000
H  47.17400 43.19500 38.27600
H  45.79100 43.51900 41.01100
H  47.24600 42.56900 41.02600
H  45.85800 42.05500 39.96700
H  47.11300 45.56100 36.92700
H  45.61300 46.37200 37.35400
H  44.27800 45.14600 36.54500
H  44.70800 43.66200 37.33700
H  50.72500 40.78000 39.10800
H  51.27500 40.26300 40.73600
H  52.34300 40.18500 39.34700
H  54.95300 42.94200 42.61600
H  55.99200 43.29600 41.19100
H  56.09500 41.69000 42.03700
H  55.17100 47.47500 41.02300
H  53.72700 49.08400 43.03800
H  54.87400 46.13500 43.62700
H  55.58300 47.66700 43.95300
H  56.31800 46.61000 42.87800
H  53.89500 50.10500 40.13200
H  55.47100 49.53700 40.57400
H  54.74600 51.06300 42.75200
H  54.02700 51.91400 41.32200
H  55.76100 51.63300 41.36400
H  48.79400 52.17800 42.01600
H  48.64000 52.47300 40.24900
H  50.19400 52.10500 40.89900
H  46.11000 48.24200 38.46800
H  41.85900 47.45600 39.12300
H  41.92200 48.25400 40.72300
H  42.64200 46.63400 40.46900

