158

Mg -1.95500 17.28500 26.89100
C  -2.29300 15.27000 29.84900
C  -2.39400 20.02100 28.83500
C  -1.96500 19.03500 24.13300
C  -1.97000 14.25200 25.04100
N  -2.60300 17.55400 29.05800
C  -2.52600 16.66200 30.07400
C  -2.94900 17.28400 31.39600
C  -3.07500 18.80200 31.00900
C  -2.62200 18.78800 29.54800
C  -4.43900 19.44500 31.21800
C  -2.00000 17.15200 32.67400
C  -2.72900 16.94900 34.01900
H  -2.04100 16.17100 35.17200
N  -2.05600 19.25600 26.55900
C  -2.29600 20.25400 27.40800
C  -2.32700 21.59400 26.65400
C  -2.14700 21.26400 25.33400
C  -2.08000 19.75500 25.32600
C  -2.65900 22.87800 27.37400
C  -2.08700 22.22000 24.09800
O  -2.25200 21.85400 22.95700
C  -1.73800 23.71500 24.34900
N  -2.17900 16.73600 24.84700
C  -1.92200 17.67500 23.93600
C  -1.84900 17.00600 22.54800
C  -1.31400 15.60200 22.90400
C  -1.90200 15.50700 24.33500
C  -3.17500 16.93900 21.67700
C  0.20100 15.48400 22.92800
C  0.93100 15.41000 21.60600
N  -2.17000 15.16500 27.29300
C  -2.17700 14.05800 26.40200
C  -2.34800 12.81000 27.17800
C  -2.35100 13.26400 28.54500
C  -2.34800 14.66700 28.53500
C  -2.42300 11.46300 26.58300
C  -2.34900 12.80400 29.95100
O  -2.31700 11.65800 30.34900
C  -2.38000 14.13900 30.79400
C  -1.12800 14.09300 31.57700
O  0.00500 14.24100 31.14400
O  -1.49500 13.78100 32.82500
C  -0.30300 13.68700 33.71200
H  -2.48100 20.92400 29.44300
H  -1.82600 19.56500 23.18800
H  -1.65200 13.38700 24.45600
H  -3.93200 16.83400 31.53700
H  -2.35700 19.42600 31.54100
H  -5.02300 18.95400 31.99700
H  -4.94300 19.45000 30.25200
H  -4.33900 20.50200 31.46700
H  -1.50400 18.11500 32.79700
H  -1.15100 16.49100 32.50200
H  -3.72600 16.63500 33.71000
H  -2.85100 17.95700 34.41500
H  -3.03700 22.63000 28.36600
H  -3.54300 23.34400 26.93700
H  -1.80600 23.55400 27.31700
H  -0.99900 23.74100 25.14900
H  -2.63000 24.23200 24.70200
H  -1.34200 24.28300 23.50700
H  -1.10800 17.49400 21.91600
H  -1.65000 14.80800 22.23700
H  -3.09400 16.04000 21.06500
H  -3.16100 17.72300 20.91900
H  -3.96700 17.10000 22.40800
H  0.39600 14.53400 23.42700
H  0.61500 16.25100 23.58300
H  0.21100 15.36200 20.78900
H  1.66700 14.61600 21.73300
H  1.59300 16.27400 21.54500
H  -1.44000 11.00200 26.48000
H  -2.99300 11.45400 25.65400
H  -3.02300 10.94600 27.33200
H  -3.27700 14.00600 31.40000
H  0.06700 14.70700 33.81500
H  0.48700 12.98700 33.43900
H  -0.61500 13.39900 34.71600
Mg -1.61000 34.52400 26.68100
C  -3.41200 32.95300 29.20700
C  -0.16500 36.46600 29.07900
C  -0.05900 36.13300 24.30000
C  -3.49500 32.74600 24.31100
N  -1.86000 34.71900 28.83800
C  -2.57300 33.93300 29.73300
C  -2.27400 34.26800 31.20700
C  -1.26800 35.45500 31.04800
C  -1.11400 35.57700 29.54400
C  -1.68200 36.79800 31.77700
C  -1.60700 33.02000 31.92100
C  -2.35600 32.51300 33.15300
H  -1.53100 32.28000 34.42400
N  -0.10900 35.97700 26.66500
C  0.32200 36.70300 27.76500
C  1.30300 37.76600 27.38900
C  1.42200 37.59900 25.96700
C  0.47200 36.53400 25.53500
C  1.88600 38.77100 28.42700
C  2.29500 38.37400 25.03400
O  2.33000 38.18400 23.80300
C  3.22200 39.48500 25.64500
N  -1.72500 34.51400 24.68900
C  -1.00700 35.22500 23.84700
C  -1.33100 34.95100 22.35300
C  -2.15500 33.63400 22.49500
C  -2.47200 33.59000 23.94000
C  -2.07300 36.03100 21.59200
C  -1.38500 32.36000 21.96800
C  -0.04100 32.07300 22.67800
N  -3.22800 33.16600 26.72800
C  -3.84900 32.51600 25.67100
C  -4.69000 31.53000 26.27300
C  -4.63200 31.73500 27.62900
C  -3.65000 32.66800 27.86000
C  -5.45100 30.43700 25.62500
C  -5.08700 31.20700 28.93900
O  -5.90500 30.35600 29.13600
C  -4.26400 32.02200 30.04700
C  -5.35100 32.79000 30.77500
O  -6.04500 33.67600 30.35000
O  -5.41000 32.25800 32.11000
C  -6.44600 32.86400 32.96700
H  0.24800 37.03300 29.91600
H  0.40700 36.60000 23.42900
H  -3.90300 32.16200 23.48400
H  -3.16200 34.66900 31.69500
H  -0.27700 35.24500 31.44900
H  -2.55500 36.69800 32.42100
H  -1.91000 37.43300 30.92100
H  -0.78300 37.19400 32.24900
H  -0.63200 33.38400 32.24600
H  -1.41500 32.21700 31.20900
H  -2.80400 31.53200 32.99200
H  -3.18400 33.19700 33.33700
H  1.65800 39.81000 28.18800
H  2.97200 38.68000 28.42300
H  1.58700 38.61300 29.46300
H  3.87400 39.83900 24.84600
H  3.76600 39.03700 26.47600
H  2.60300 40.31000 25.99700
H  -0.36100 34.76700 21.89200
H  -3.08500 33.73500 21.93500
H  -2.90700 35.78800 20.93300
H  -1.31100 36.39400 20.90300
H  -2.27400 36.84200 22.29100
H  -1.27000 32.60700 20.91200
H  -1.99600 31.46200 22.05900
H  0.79600 32.33900 22.03200
H  -0.07100 31.01100 22.91900
H  0.03100 32.59500 23.63200
H  -6.49200 30.64900 25.86800
H  -5.41500 29.47900 26.14400
H  -5.17500 30.41300 24.57000
H  -3.82500 31.26500 30.69700
H  -7.24800 32.12700 32.99900
H  -6.88000 33.79700 32.60700
H  -6.04500 32.87000 33.98000

