158

Mg 47.77800 14.34700 27.38400
C  45.69200 14.39600 30.25300
C  50.03700 16.10000 28.97100
C  49.58300 14.41100 24.50600
C  45.03300 13.04200 25.58600
N  47.81800 15.24000 29.42100
C  46.89600 15.09500 30.47300
C  47.37500 15.70400 31.82700
C  48.67800 16.41400 31.27900
C  48.87800 15.89500 29.81600
C  48.55100 17.95400 31.33100
C  47.64500 14.63000 32.91400
C  47.51700 15.13800 34.35600
H  48.75600 14.96400 35.25800
N  49.66600 14.96800 26.89100
C  50.47200 15.64900 27.71300
C  51.79600 15.77800 27.12400
C  51.66600 15.18700 25.77700
C  50.27300 14.87400 25.65300
C  52.98000 16.25400 27.87000
C  52.71400 15.07000 24.69300
O  52.48200 14.59400 23.54400
C  54.02500 15.53400 24.89800
N  47.39200 13.76100 25.30000
C  48.28400 13.95000 24.33200
C  47.75900 13.26200 22.98000
C  46.39200 12.73000 23.39100
C  46.21900 13.21500 24.86200
C  47.81800 14.18000 21.78700
C  46.18200 11.15500 23.20100
C  46.97200 10.38500 24.28500
N  45.80900 13.78300 27.82600
C  44.74500 13.31200 26.94800
C  43.49300 13.13500 27.73100
C  43.89200 13.46900 29.00300
C  45.24000 13.94800 29.03200
C  42.23000 12.36500 27.27300
C  43.39100 13.58300 30.33600
O  42.29500 13.37900 30.76400
C  44.53600 14.23600 31.18800
C  43.99000 15.51800 31.81800
O  43.61000 16.48000 31.18200
O  44.05700 15.46800 33.18800
C  43.71100 16.72700 33.91600
H  50.88500 16.56300 29.48000
H  50.17500 14.35300 23.59000
H  44.21500 12.53800 25.06600
H  46.56800 16.39000 32.08700
H  49.52000 16.11200 31.90300
H  48.67700 18.28400 30.30000
H  49.30700 18.46900 31.92400
H  47.50700 18.20500 31.51400
H  48.67500 14.29000 32.80400
H  47.03200 13.74100 32.76500
H  46.86100 14.46400 34.90600
H  47.04900 16.12100 34.39500
H  53.61300 15.37300 27.97700
H  52.75100 16.37800 28.92900
H  53.42500 17.12400 27.38700
H  54.38800 15.10100 25.83000
H  54.07700 16.61700 25.00500
H  54.72800 15.25900 24.11100
H  48.47400 12.47700 22.73500
H  45.55500 13.02100 22.75700
H  48.33800 15.10900 22.01900
H  46.80300 14.47900 21.52800
H  48.34400 13.69800 20.96200
H  46.71100 11.02300 22.25700
H  45.16800 10.77900 23.06500
H  47.72500 9.79600 23.76100
H  46.34900 9.65100 24.79600
H  47.49400 11.03600 24.98600
H  41.86900 11.81900 28.14500
H  42.62000 11.58100 26.62500
H  41.48600 12.96400 26.74800
H  44.64900 13.54100 32.02100
H  43.08600 17.42900 33.36400
H  44.70500 17.09500 34.17100
H  43.18900 16.58000 34.86100
Mg 16.44800 51.93900 25.49300
C  18.07700 50.78000 28.48300
C  13.77500 52.69300 27.47400
C  14.85800 52.62300 22.85100
C  19.27300 50.63300 23.72100
N  16.12100 52.08700 27.73500
C  16.97600 51.62300 28.70200
C  16.39100 51.95600 30.06100
C  14.90400 52.37900 29.80500
C  14.90400 52.38300 28.27600
C  13.74700 51.50500 30.45700
C  17.28900 53.00000 30.82200
C  17.67800 52.63200 32.27000
H  16.82000 51.68000 33.18500
N  14.55900 52.55500 25.18100
C  13.57300 52.81700 26.09700
C  12.33900 53.18500 25.47100
C  12.63700 53.27500 24.03300
C  14.04300 52.83800 23.96400
C  11.06900 53.53100 26.33200
C  11.66300 53.49400 22.84000
O  12.03300 53.37100 21.71100
C  10.37200 54.12800 23.13800
N  16.98600 51.55800 23.58000
C  16.09200 52.06200 22.65400
C  16.69000 51.87000 21.23900
C  18.18000 51.46700 21.59600
C  18.16100 51.18900 23.08500
C  15.96100 50.81600 20.37800
C  19.25400 52.44900 20.96000
C  19.67200 52.25400 19.50400
N  18.34200 50.85200 25.95000
C  19.32300 50.36800 25.10800
C  20.43200 49.74000 25.85800
C  19.92000 49.82000 27.21000
C  18.69500 50.55100 27.23100
C  21.67300 49.20900 25.32700
C  20.23200 49.55100 28.58800
O  21.20900 48.93600 29.07300
C  19.03200 50.16000 29.50500
C  18.54200 49.12600 30.45000
O  17.89600 48.07200 30.08900
O  19.06400 49.31200 31.70900
C  18.82000 48.15300 32.61800
H  12.91200 52.97000 28.08400
H  14.42200 53.05000 21.94500
H  20.15400 50.43800 23.10700
H  16.44500 51.05400 30.67100
H  14.78600 53.38400 30.21000
H  13.15400 51.13900 29.61800
H  13.18500 52.15000 31.13300
H  14.12500 50.70600 31.09400
H  16.84400 53.99400 30.87000
H  18.21000 53.10100 30.24900
H  17.71000 53.60400 32.76400
H  18.73100 52.35500 32.33100
H  11.09500 54.50900 26.81300
H  10.90200 52.74300 27.06700
H  10.19000 53.59400 25.69100
H  9.66700 53.45200 23.62300
H  9.75400 54.56300 22.35200
H  10.46400 54.97700 23.81500
H  16.71700 52.79000 20.65500
H  18.45400 50.48100 21.22000
H  15.04400 50.51700 20.88500
H  16.59700 49.99100 20.05500
H  15.68700 51.29500 19.43800
H  20.18500 52.45500 21.52700
H  18.79700 53.43800 20.95600
H  18.88600 51.67900 19.01400
H  20.57600 51.69800 19.25300
H  19.69200 53.22900 19.01800
H  21.56000 48.12800 25.23700
H  22.43700 49.47700 26.05700
H  21.84700 49.69900 24.36900
H  19.51100 50.96600 30.06100
H  19.61400 47.42600 32.45200
H  17.79700 47.79300 32.51400
H  19.03300 48.50300 33.62800

