158

Mg 44.76700 4.90100 48.07400
C  42.54300 7.70900 47.83600
C  41.94700 2.87200 47.73600
C  46.86500 2.43900 47.95100
C  47.44800 7.25900 47.88500
N  42.53500 5.26000 47.81900
C  41.84800 6.48700 47.87000
C  40.32600 6.29400 47.72800
C  40.19400 4.71400 47.78300
C  41.65300 4.24800 47.72600
C  39.40500 4.21200 48.97000
C  39.58800 6.97500 46.53400
C  40.46200 7.17800 45.31100
H  39.85700 6.77800 43.90800
N  44.49400 2.92000 47.84300
C  43.24000 2.29600 47.66900
C  43.55000 0.82400 47.45400
C  44.97600 0.64500 47.53800
C  45.52300 2.00200 47.75000
C  42.41400 -0.16900 47.07600
C  45.65600 -0.68000 47.38300
O  44.92800 -1.63900 47.25700
C  47.17900 -0.87000 47.24200
N  46.87600 4.94700 47.57300
C  47.49300 3.72900 47.85500
C  48.93400 3.85800 48.39700
C  49.12800 5.35200 48.15300
C  47.71600 5.94400 47.87500
C  49.27900 3.26500 49.80300
C  50.24300 5.71000 47.13300
C  51.44100 6.47400 47.67700
N  44.99800 7.02700 47.94300
C  46.16000 7.82700 47.93900
C  45.77000 9.24300 47.93900
C  44.34300 9.23900 48.01100
C  43.95500 7.86800 47.87400
C  46.57000 10.42400 47.96900
C  43.14300 10.03700 48.07300
O  43.05000 11.21700 48.18400
C  41.93500 9.08900 48.04300
C  41.06000 9.18300 49.27500
O  41.08700 8.43000 50.21300
O  40.17400 10.20600 49.09200
C  39.11500 10.41300 50.02800
H  41.04000 2.26900 47.66900
H  47.51300 1.58400 48.15300
H  48.26300 7.97900 47.98300
H  39.88100 6.81100 48.57900
H  39.61800 4.51200 46.88000
H  38.35900 4.15400 48.66900
H  39.55300 4.93200 49.77500
H  39.78200 3.28100 49.39400
H  39.29100 7.97400 46.85400
H  38.67300 6.43700 46.28400
H  41.27600 6.47200 45.47900
H  40.70900 8.23600 45.23300
H  42.63800 -0.82600 46.23600
H  41.51100 0.37300 46.79600
H  42.15400 -0.80900 47.92000
H  47.71100 -0.64000 48.16500
H  47.53500 -0.30900 46.37800
H  47.36800 -1.92700 47.05500
H  49.63200 3.31000 47.76400
H  49.43100 5.77600 49.11000
H  48.43900 3.17800 50.49200
H  50.08900 3.81400 50.28300
H  49.63200 2.24700 49.64200
H  49.88500 6.29500 46.28600
H  50.67000 4.79300 46.72600
H  51.66000 6.12400 48.68600
H  51.16900 7.52900 47.69700
H  52.36200 6.22400 47.15100
H  45.84000 11.19900 47.73500
H  47.30900 10.30700 47.17700
H  46.99100 10.72900 48.92700
H  41.23000 9.37800 47.26400
H  38.22700 9.82100 49.80500
H  38.83500 11.46600 50.02600
H  39.48000 10.17500 51.02700
Mg 35.45900 2.83300 30.43900
C  33.04500 3.96900 32.81400
C  37.57800 2.47700 33.09400
C  37.60300 1.71300 28.25300
C  32.93800 3.25600 27.95900
N  35.33300 3.28800 32.69700
C  34.25600 3.72300 33.44600
C  34.57400 3.80500 34.94600
C  36.12100 3.62500 34.94700
C  36.40000 3.05900 33.47900
C  37.02700 4.85700 35.10000
C  33.72800 2.56000 35.46700
C  33.27000 2.49900 36.95700
H  33.83600 3.71000 37.82300
N  37.46700 2.20900 30.68600
C  38.21900 2.24500 31.87600
C  39.54800 1.79400 31.41900
C  39.53200 1.47400 29.98700
C  38.20800 1.76000 29.60200
C  40.65500 1.70500 32.43100
C  40.51000 0.76400 29.05900
O  40.23900 0.20900 28.00100
C  41.97000 0.58100 29.56600
N  35.27600 2.52400 28.42500
C  36.30600 2.02100 27.70900
C  36.03200 1.91700 26.21900
C  34.48000 1.93600 26.29700
C  34.16800 2.63300 27.61700
C  36.76900 3.08700 25.38500
C  33.74200 0.56900 26.19200
C  32.57900 0.20200 27.22900
N  33.40400 3.57700 30.32500
C  32.53600 3.65800 29.22100
C  31.19500 4.10000 29.73100
C  31.43600 4.30100 31.13300
C  32.76300 3.90800 31.45000
C  29.83900 4.25200 28.99900
C  30.73300 4.65600 32.41200
O  29.50700 4.91500 32.65700
C  31.77200 4.54300 33.49100
C  31.96600 5.85600 34.09900
O  32.34400 6.91000 33.64000
O  31.41100 5.82000 35.35900
C  31.46600 6.84800 36.43300
H  38.26600 2.33900 33.93000
H  38.34500 1.46900 27.49000
H  32.15400 3.36600 27.20800
H  34.18700 4.71400 35.40600
H  36.38000 2.79100 35.59900
H  37.78400 4.64700 35.85600
H  36.59500 5.85400 35.18300
H  37.59600 4.90000 34.17200
H  34.36300 1.67800 35.39100
H  32.98600 2.27700 34.72100
H  33.64600 1.63000 37.49700
H  32.18300 2.44700 37.00700
H  40.26500 2.09200 33.37200
H  41.45300 2.31800 32.01200
H  40.90700 0.64700 32.50900
H  42.22500 1.40300 30.23500
H  42.64000 0.52900 28.70800
H  42.00300 -0.40200 30.03600
H  36.41700 0.91100 26.05400
H  34.23600 2.66100 25.52000
H  37.35100 3.71700 26.05800
H  36.06000 3.71500 24.84600
H  37.48700 2.70400 24.66000
H  34.49500 -0.21900 26.20800
H  33.38000 0.40700 25.17600
H  33.02300 0.08300 28.21700
H  32.07500 -0.75000 27.05900
H  31.84600 1.00900 27.22800
H  29.87700 4.98700 28.19500
H  29.08300 4.36400 29.77600
H  29.49900 3.30500 28.58100
H  31.38400 3.85400 34.24200
H  30.49900 7.28700 36.67800
H  32.21000 7.58800 36.13600
H  31.75500 6.29900 37.32900

