158

Mg -2.86700 17.72900 27.03600
C  -3.25600 15.40500 29.60800
C  -3.24400 20.24500 29.36300
C  -3.00700 19.97600 24.51000
C  -3.09100 15.16700 24.82400
N  -3.52500 17.80900 29.26400
C  -3.38500 16.74800 30.07500
C  -3.27800 17.19700 31.50300
C  -3.59500 18.74700 31.42300
C  -3.48400 18.94500 29.91700
C  -4.93100 19.21700 32.10400
C  -1.95600 16.73500 32.21300
C  -1.40100 17.62200 33.42300
H  -1.15100 16.79900 34.70700
N  -2.98000 19.85600 26.98600
C  -2.99200 20.67100 28.07300
C  -2.72900 21.99100 27.67100
C  -2.54100 22.03700 26.26000
C  -2.83400 20.58600 25.81400
C  -2.78100 23.20200 28.60500
C  -2.05200 23.17000 25.31800
O  -1.90800 22.94400 24.12700
C  -1.52300 24.38500 25.95500
N  -3.20500 17.62200 25.01100
C  -3.30800 18.67700 24.11800
C  -3.49700 18.27700 22.69300
C  -3.56700 16.71700 22.81200
C  -3.24800 16.47300 24.28200
C  -4.74900 18.86400 21.86800
C  -2.56100 16.00000 21.92800
C  -1.07700 16.00200 22.37400
N  -3.02900 15.69900 27.16100
C  -3.04700 14.78800 26.17200
C  -3.08800 13.46500 26.72400
C  -3.19400 13.67600 28.00000
C  -3.12600 15.03600 28.26900
C  -3.09000 12.24300 25.97400
C  -3.21800 12.99500 29.20100
O  -3.25400 11.80500 29.42000
C  -3.30400 14.05700 30.30800
C  -2.17900 13.65900 31.19300
O  -1.04300 13.67900 30.87200
O  -2.66100 13.23700 32.40900
C  -1.78900 12.78400 33.47400
H  -3.04600 21.04800 30.07600
H  -2.82900 20.58300 23.62000
H  -3.30400 14.32400 24.16300
H  -4.03000 16.68900 32.10700
H  -2.68900 19.23100 31.78900
H  -5.31800 18.27500 32.49200
H  -5.55000 19.68600 31.33900
H  -4.83100 19.96600 32.89000
H  -1.12600 16.68200 31.50800
H  -2.11300 15.72800 32.59900
H  -2.16600 18.34900 33.69800
H  -0.49100 18.11900 33.08500
H  -3.11600 24.04900 28.00700
H  -1.77000 23.50700 28.87700
H  -3.55000 23.15500 29.37600
H  -0.77500 24.21500 26.73000
H  -2.33000 25.07000 26.21400
H  -1.05800 24.97800 25.16700
H  -2.55400 18.48600 22.18800
H  -4.56000 16.30600 22.62600
H  -5.31600 19.51500 22.53200
H  -5.37300 18.04100 21.51800
H  -4.44400 19.51100 21.04600
H  -2.68700 16.50100 20.96800
H  -2.95300 15.00100 21.73700
H  -0.97500 16.75800 23.15200
H  -0.45900 16.30300 21.52900
H  -0.78700 15.04800 22.81600
H  -2.93800 11.35000 26.58100
H  -2.35300 12.22000 25.17100
H  -4.07600 12.19100 25.51200
H  -4.28500 13.88200 30.74900
H  -1.83200 13.52900 34.26900
H  -0.73400 12.65500 33.23000
H  -2.13200 11.87800 33.97200
Mg 30.68900 57.06900 39.35300
C  28.01900 54.92400 38.29000
C  32.90000 54.78300 38.40700
C  33.01100 59.42400 39.50800
C  28.16700 59.51200 39.91800
N  30.44100 55.08300 38.15500
C  29.29200 54.32700 38.05500
C  29.68200 52.87200 37.78000
C  31.27200 52.80800 38.03400
C  31.56100 54.30100 38.27400
C  31.73600 51.85500 39.20700
C  29.19000 52.35500 36.34600
C  29.41100 53.17300 35.03800
H  28.40100 54.11800 34.40000
N  32.72700 57.01000 39.10100
C  33.50300 56.01300 38.68800
C  34.89600 56.41100 38.61100
C  34.92100 57.78000 38.99600
C  33.50900 58.08200 39.28100
C  35.93500 55.52500 38.09900
C  36.16200 58.62300 39.00400
O  37.19500 58.16000 38.60400
C  36.15800 60.09300 39.25800
N  30.65600 59.16500 39.68400
C  31.76000 59.94600 39.68900
C  31.36900 61.45500 39.86300
C  29.81100 61.37000 40.14900
C  29.49200 59.91500 39.87600
C  32.12900 62.29300 40.97100
C  29.00900 62.33100 39.17800
C  27.74900 63.06600 39.71000
N  28.53300 57.29000 39.19800
C  27.70400 58.32300 39.44600
C  26.29600 57.83000 39.21500
C  26.43100 56.47000 38.79500
C  27.79600 56.25900 38.75500
C  25.00800 58.42600 39.48800
C  25.63800 55.40500 38.30300
O  24.44000 55.27700 38.13000
C  26.65300 54.22800 38.00800
C  26.36800 53.15100 39.03100
O  26.80200 53.05300 40.17700
O  25.46000 52.27300 38.46100
C  24.76700 51.38300 39.39900
H  33.59100 53.94700 38.27700
H  33.63600 60.30900 39.36800
H  27.37000 60.21300 40.17500
H  29.18000 52.26300 38.53200
H  31.63600 52.52100 37.04700
H  32.14700 52.41500 40.04700
H  32.44200 51.10300 38.85400
H  30.85500 51.41200 39.67200
H  28.11100 52.21000 36.30400
H  29.71900 51.41500 36.18900
H  29.79900 52.44700 34.32300
H  30.25800 53.77600 35.36600
H  35.83400 55.43900 37.01700
H  35.68200 54.56800 38.55400
H  36.95100 55.69300 38.45800
H  37.12600 60.43700 39.62300
H  35.58300 60.17000 40.18100
H  35.75100 60.65200 38.41500
H  31.67300 61.87600 38.90500
H  29.65400 61.45600 41.22400
H  32.07800 63.37600 40.86100
H  33.18400 62.01800 40.94200
H  31.82900 61.94900 41.96100
H  28.64400 61.73900 38.33800
H  29.75200 63.05700 38.84900
H  27.62800 62.88700 40.77800
H  26.80000 62.71500 39.30400
H  27.84100 64.14800 39.62200
H  24.45600 57.89200 40.26100
H  24.40600 58.43100 38.57900
H  25.13400 59.48800 39.69700
H  26.44400 53.85400 37.00600
H  24.96300 51.64000 40.44000
H  24.99600 50.35200 39.12800
H  23.69300 51.49000 39.24800

