158

Mg 24.82000 -7.29500 47.71600
C  26.97100 -4.88800 46.65000
C  22.74000 -6.57200 45.12400
C  22.77800 -9.85100 48.76400
C  27.48000 -8.79100 49.59700
N  24.82200 -5.77000 46.17200
C  25.78900 -4.96700 45.87700
C  25.55900 -4.13100 44.53400
C  24.15200 -4.65400 44.13800
C  23.86600 -5.78800 45.20100
C  23.03300 -3.49900 44.18600
C  26.70900 -4.57000 43.51000
C  27.50000 -3.32000 42.99900
H  27.30900 -2.97300 41.52000
N  22.94200 -8.15400 47.01100
C  22.29500 -7.70100 45.91900
C  21.05900 -8.36300 45.83500
C  21.01400 -9.34700 46.95200
C  22.27500 -9.18200 47.65700
C  19.87300 -7.96800 44.86800
C  19.75200 -10.24800 47.29900
O  18.81300 -10.25300 46.52100
C  19.79600 -11.22300 48.46100
N  25.12600 -9.01100 48.98600
C  24.02800 -9.80600 49.37500
C  24.41600 -10.83500 50.43200
C  26.02400 -10.77700 50.30900
C  26.25400 -9.41900 49.62400
C  23.96600 -10.52200 51.86200
C  26.73900 -11.94000 49.54900
C  27.42500 -13.04200 50.36900
N  26.79800 -6.90900 48.19200
C  27.77800 -7.61500 48.91900
C  29.00400 -6.78600 48.99600
C  28.71700 -5.69200 48.09300
C  27.39700 -5.82900 47.60600
C  30.31800 -7.09700 49.81800
C  29.24200 -4.52900 47.51500
O  30.34000 -4.05700 47.66700
C  28.23600 -4.01900 46.46200
C  28.10700 -2.54800 46.77400
O  28.69700 -1.68200 46.20900
O  27.20900 -2.32900 47.77200
C  26.83500 -0.88700 47.74300
H  22.11600 -6.45100 44.23600
H  22.09400 -10.53500 49.27000
H  28.27900 -9.39300 50.03500
H  25.40100 -3.06900 44.72200
H  24.13300 -5.22300 43.20800
H  23.41700 -2.52600 44.49000
H  22.40100 -3.89200 44.98200
H  22.38100 -3.40800 43.31700
H  26.30900 -5.08600 42.63700
H  27.30000 -5.33400 44.01500
H  28.56200 -3.49500 43.16800
H  27.34700 -2.39300 43.55000
H  18.84500 -8.01500 45.23000
H  19.95000 -8.42600 43.88200
H  19.96500 -6.89300 44.71900
H  20.63100 -11.88300 48.22700
H  18.94600 -11.90500 48.42700
H  19.89600 -10.74600 49.43600
H  23.93900 -11.76200 50.11500
H  26.46900 -10.65700 51.29700
H  23.98200 -9.43900 51.98700
H  24.44400 -11.02300 52.70400
H  22.95200 -10.91500 51.93400
H  27.56400 -11.45000 49.03200
H  26.04500 -12.30400 48.79200
H  27.28300 -12.91500 51.44200
H  28.49700 -13.11400 50.18800
H  27.10500 -14.02600 50.02700
H  30.80500 -7.95300 49.35000
H  29.98600 -7.48500 50.78100
H  30.93200 -6.19900 49.89300
H  28.60900 -4.10600 45.44200
H  27.37600 -0.32100 48.50200
H  25.78600 -0.76900 48.01700
H  26.87400 -0.37900 46.78000
Mg 25.93900 0.12000 29.56300
C  27.65000 0.06300 32.61200
C  23.04500 0.66500 31.15800
C  24.55000 0.29800 26.62900
C  29.09300 -0.56300 27.93300
N  25.48800 0.29100 31.64000
C  26.31000 0.39100 32.74100
C  25.48400 0.38900 34.04000
C  23.97600 0.22600 33.55800
C  24.13200 0.50100 32.02000
C  23.37300 -1.20200 33.81000
C  25.80500 1.52800 35.03500
C  25.94300 1.09400 36.53400
H  25.29000 2.00900 37.57900
N  24.04700 0.35900 28.99600
C  22.98200 0.59500 29.75800
C  21.78200 0.79900 28.97900
C  22.25700 0.75300 27.58300
C  23.70900 0.55100 27.68600
C  20.47200 1.08700 29.69700
C  21.46000 0.86600 26.26200
O  22.00500 0.70700 25.16700
C  19.90800 1.14200 26.27000
N  26.76600 -0.12600 27.57600
C  25.89200 0.02700 26.48900
C  26.54100 -0.19600 25.11600
C  28.06200 -0.26400 25.56600
C  27.98700 -0.33900 27.09300
C  26.22300 -1.50200 24.31400
C  28.89800 1.03300 25.19600
C  30.33200 0.70700 24.75900
N  28.01400 -0.21700 30.08000
C  29.13300 -0.46700 29.34200
C  30.25700 -0.57300 30.24200
C  29.76200 -0.40000 31.55400
C  28.34700 -0.20800 31.44000
C  31.70300 -0.75700 29.82100
C  30.08100 -0.30900 32.92700
O  31.14800 -0.28600 33.43800
C  28.76200 0.04600 33.67100
C  28.65300 -0.97900 34.69900
O  28.24000 -2.13700 34.53400
O  29.14600 -0.53900 35.92800
C  28.83800 -1.36700 37.05500
H  22.17400 0.97900 31.73700
H  24.24800 0.37200 25.58200
H  29.93000 -0.79300 27.27100
H  25.74600 -0.57900 34.46700
H  23.36300 0.88700 34.17000
H  22.83600 -1.59900 32.94900
H  22.70200 -1.21200 34.66900
H  24.16100 -1.88400 34.12900
H  25.08100 2.34100 35.08200
H  26.76400 1.91300 34.68600
H  26.96500 0.93300 36.87700
H  25.46800 0.12100 36.66000
H  19.77500 1.72100 29.15000
H  20.53700 1.40000 30.73900
H  20.05300 0.08100 29.66700
H  19.41300 0.30900 26.76900
H  19.46300 1.19400 25.27600
H  19.73600 2.06100 26.83100
H  26.37900 0.65200 24.45000
H  28.63300 -1.14600 25.27500
H  26.96800 -1.65100 23.53300
H  25.21400 -1.34600 23.93400
H  26.13100 -2.37900 24.95500
H  29.09300 1.68200 26.05000
H  28.48800 1.67400 24.41600
H  30.39600 -0.27400 24.29000
H  30.91500 0.82000 25.67300
H  30.68400 1.41600 24.01000
H  31.92900 -1.81800 29.93600
H  32.37400 -0.45600 30.62500
H  31.93500 -0.31500 28.85200
H  28.91000 1.05400 34.05800
H  27.78100 -1.21700 37.27400
H  29.42000 -1.10800 37.94000
H  29.04200 -2.38700 36.72800

