158

Mg 40.79300 8.98700 28.11100
C  42.36200 10.41000 30.80200
C  38.28300 7.92900 30.21600
C  39.46400 7.32700 25.51800
C  43.39500 10.04100 26.01700
N  40.48100 9.04600 30.26800
C  41.20700 9.81000 31.19400
C  40.57600 9.72200 32.60300
C  39.29200 8.93100 32.34000
C  39.30000 8.66600 30.83500
C  39.08700 7.63100 33.14900
C  40.26100 11.10400 33.25300
C  39.78500 11.02000 34.69900
H  40.65000 11.56700 35.85200
N  39.05000 7.76300 27.87500
C  38.25600 7.38400 28.91300
C  37.16500 6.59600 28.34400
C  37.45700 6.43000 26.93300
C  38.73300 7.13900 26.68200
C  36.08500 6.00000 29.17600
C  36.62900 5.78100 25.80500
O  37.09900 5.67700 24.65600
C  35.29200 5.32300 26.04800
N  41.48000 8.58400 26.17200
C  40.60800 8.00000 25.25700
C  41.16500 7.96600 23.80400
C  42.30800 9.00200 24.00600
C  42.44200 9.23300 25.45500
C  41.57900 6.57400 23.24900
C  42.09600 10.27200 23.10000
C  41.26800 11.36000 23.78300
N  42.56300 9.90700 28.27900
C  43.59300 10.32100 27.36200
C  44.64100 11.05200 28.04600
C  44.17600 10.95900 29.34400
C  42.88300 10.35400 29.49100
C  45.84300 11.64100 27.38800
C  44.52000 11.49500 30.65000
O  45.52000 12.09800 31.03000
C  43.38200 11.12600 31.64800
C  44.00000 10.32300 32.74100
O  44.10100 9.09500 32.89600
O  44.41500 11.11800 33.70100
C  44.90500 10.57800 35.03400
H  37.51400 7.62600 30.93000
H  39.23200 6.67700 24.67100
H  44.23900 10.39200 25.41800
H  41.29100 9.18400 33.22500
H  38.36300 9.47800 32.50100
H  38.90600 6.75100 32.53100
H  38.32300 7.67500 33.92500
H  40.04600 7.31400 33.55900
H  39.56700 11.62700 32.59500
H  41.23500 11.59300 33.28400
H  39.65500 9.94700 34.83600
H  38.89900 11.64400 34.80900
H  35.99500 4.91600 29.12000
H  35.15300 6.49200 28.89800
H  36.14500 6.23800 30.23800
H  35.58800 4.67500 26.87300
H  34.83000 4.80200 25.21000
H  34.74400 6.24400 26.24600
H  40.43100 8.42900 23.14400
H  43.24400 8.52700 23.71400
H  40.91800 6.26000 22.44100
H  41.54100 5.86300 24.07400
H  42.62200 6.50900 22.93700
H  41.72100 9.92000 22.13900
H  43.10600 10.67800 23.04500
H  41.94000 12.09100 24.23000
H  40.58100 10.87000 24.47300
H  40.69500 11.75900 22.94500
H  46.53100 11.99500 28.15500
H  45.52400 12.57200 26.91700
H  46.32500 10.89500 26.75600
H  42.94800 12.03500 32.06500
H  44.75300 9.50000 35.08700
H  44.30200 11.03300 35.82000
H  45.95300 10.85700 35.14000
Mg -9.26200 40.76100 42.80100
C  -8.30000 37.57300 41.90000
C  -6.51200 42.05800 41.15000
C  -10.46200 43.96200 43.07100
C  -12.35800 39.62700 43.84100
N  -7.72300 39.85700 41.41500
C  -7.48800 38.52300 41.33500
C  -6.07600 38.24300 40.66700
C  -5.43400 39.72400 40.68600
C  -6.65300 40.64900 41.09200
C  -4.06600 39.83900 41.37800
C  -6.33200 37.65000 39.24300
C  -5.32800 36.58300 38.76700
H  -4.67200 36.65600 37.29900
N  -8.52700 42.74100 42.24400
C  -7.36500 43.06100 41.66500
C  -7.19900 44.44700 41.54600
C  -8.31300 45.11200 42.18000
C  -9.19800 43.95700 42.48500
C  -5.97500 45.06400 40.89900
C  -8.49200 46.56100 42.42100
O  -7.65800 47.33000 41.92100
C  -9.61500 47.02500 43.27200
N  -11.16500 41.69200 43.28800
C  -11.31700 43.02900 43.54800
C  -12.74100 43.39000 44.13900
C  -13.23900 41.95400 44.51900
C  -12.25500 41.06600 43.86300
C  -12.75300 44.42000 45.30600
C  -14.71500 41.67600 44.01000
C  -15.63800 41.02800 45.07000
N  -10.16700 38.96700 42.95700
C  -11.43000 38.60200 43.38800
C  -11.63200 37.20100 43.32400
C  -10.47000 36.73100 42.79200
C  -9.59100 37.86700 42.52300
C  -12.82700 36.38800 43.76000
C  -9.68200 35.51900 42.39100
O  -10.00700 34.36900 42.48400
C  -8.27900 36.06100 41.70800
C  -7.10100 35.42900 42.38700
O  -6.78600 35.62000 43.51700
O  -6.42600 34.57800 41.43500
C  -5.17900 33.94200 41.91200
H  -5.56100 42.45000 40.78300
H  -10.95100 44.87000 43.43100
H  -13.33100 39.16700 44.02800
H  -5.55100 37.63000 41.40000
H  -5.18400 39.99600 39.66100
H  -3.34000 39.54900 40.61900
H  -4.07600 39.02900 42.10700
H  -3.83200 40.81100 41.81300
H  -6.13300 38.38300 38.46200
H  -7.33500 37.25700 39.07700
H  -5.80900 35.60900 38.86000
H  -4.52800 36.61300 39.50700
H  -6.16400 46.02600 40.42300
H  -5.52800 44.41700 40.14400
H  -5.26900 45.20700 41.71700
H  -9.43000 48.01200 43.69700
H  -9.56200 46.29800 44.08200
H  -10.51700 47.07100 42.66300
H  -13.17900 43.77100 43.21600
H  -13.14100 41.69200 45.57200
H  -13.44700 45.23500 45.10400
H  -11.71000 44.71800 45.41300
H  -13.09500 43.98900 46.24800
H  -14.55000 41.07200 43.11700
H  -15.28500 42.52600 43.63500
H  -16.49800 41.68300 45.20600
H  -15.11100 40.75100 45.98400
H  -15.93900 40.09200 44.59900
H  -12.59700 35.32300 43.78400
H  -13.70300 36.48600 43.11900
H  -13.05500 36.64100 44.79500
H  -8.25300 35.76900 40.65800
H  -5.44600 33.33000 42.77300
H  -4.53400 34.77300 42.19700
H  -4.82800 33.27400 41.12500

