158

Mg 17.56300 -1.03200 28.04800
C  16.25500 1.04000 30.54500
C  19.06400 -2.90200 30.50700
C  19.24200 -2.69200 25.66900
C  16.29400 1.22400 25.62100
N  17.66700 -0.87800 30.32300
C  16.91900 -0.04500 31.08200
C  17.01000 -0.43500 32.60200
C  18.16400 -1.52600 32.50100
C  18.28400 -1.85400 31.07100
C  19.52000 -1.10200 33.24000
C  15.58800 -0.88200 33.18800
C  15.39400 -0.58900 34.64700
H  16.47800 -0.03400 35.52800
N  19.00000 -2.58000 28.07000
C  19.37300 -3.28000 29.18100
C  20.31200 -4.31100 28.85200
C  20.46800 -4.23100 27.42500
C  19.57600 -3.09400 26.98200
C  20.94100 -5.15200 29.89400
C  21.38500 -5.07300 26.50100
O  21.36400 -4.85400 25.30400
C  22.23300 -6.15000 27.02900
N  17.84100 -0.65100 25.96100
C  18.43300 -1.62500 25.21300
C  18.35700 -1.24500 23.69200
C  17.37200 -0.02000 23.71400
C  17.13500 0.20200 25.23900
C  19.67700 -0.85500 22.98200
C  16.00800 0.00200 22.90400
C  15.90900 0.88200 21.58600
N  16.37400 0.77400 28.01000
C  15.98400 1.58300 27.00500
C  15.23100 2.65200 27.55500
C  15.35300 2.50400 28.98200
C  16.04200 1.38000 29.17600
C  14.35800 3.63100 26.81200
C  14.97100 3.14300 30.23300
O  14.37900 4.21500 30.46000
C  15.46800 2.17500 31.28400
C  16.35000 2.93000 32.10200
O  17.56400 2.76100 32.18700
O  15.62300 3.66200 33.06800
C  16.30700 4.48900 34.07000
H  19.47700 -3.56700 31.26800
H  19.76400 -3.23700 24.88000
H  15.90400 1.90500 24.86100
H  17.37800 0.47600 33.07400
H  17.70000 -2.38600 32.98400
H  19.44700 -0.04200 33.48600
H  20.39800 -1.27200 32.61600
H  19.51800 -1.57300 34.22200
H  15.51800 -1.94900 32.97900
H  14.75000 -0.42500 32.66200
H  14.92000 -1.45600 35.10600
H  14.73100 0.27600 34.64300
H  20.19300 -5.57600 30.56400
H  21.59700 -4.56000 30.53300
H  21.44000 -6.02200 29.46700
H  22.77300 -5.84700 27.92600
H  23.01300 -6.40700 26.31200
H  21.61200 -7.03700 27.15100
H  17.96100 -2.07500 23.10700
H  17.91900 0.90700 23.54400
H  19.59500 0.12200 22.50600
H  19.76600 -1.48700 22.09900
H  20.52000 -0.91100 23.67200
H  15.16400 0.24000 23.55200
H  15.95100 -1.04100 22.59200
H  15.22600 1.73000 21.53300
H  15.72000 0.19200 20.76400
H  16.89000 1.31400 21.38700
H  13.32300 3.35000 27.01100
H  14.57000 3.52800 25.74700
H  14.65100 4.61900 27.16500
H  14.55800 1.88100 31.80800
H  16.03100 5.54000 33.98400
H  17.38800 4.35500 34.11500
H  15.89600 4.22800 35.04600
Mg 47.37800 15.65400 27.49900
C  45.48200 16.08100 30.41400
C  49.94300 17.53600 28.96800
C  48.94100 15.79000 24.59700
C  44.66100 14.17800 25.99800
N  47.64100 16.74700 29.45600
C  46.78300 16.55200 30.55000
C  47.53900 17.07900 31.80900
C  48.81400 17.80000 31.26700
C  48.85100 17.35600 29.79600
C  48.89500 19.26500 31.46300
C  47.81000 16.00100 32.92400
C  47.45200 16.38600 34.40000
H  47.43500 17.90200 34.82200
N  49.31500 16.35200 26.96000
C  50.21500 17.10600 27.66400
C  51.40900 17.30700 26.86700
C  51.06600 16.79900 25.56600
C  49.71600 16.30700 25.66100
C  52.69300 17.95300 27.40400
C  51.92000 16.66700 24.31400
O  51.49700 16.23000 23.27500
C  53.43400 17.08700 24.39900
N  46.99800 14.89500 25.55600
C  47.81400 15.03500 24.53000
C  47.12000 14.76700 23.19400
C  45.91200 13.89400 23.66000
C  45.82200 14.28100 25.14100
C  46.68300 16.06100 22.47100
C  46.15500 12.40600 23.47500
C  46.60900 11.59600 24.62100
N  45.45400 15.26900 28.02200
C  44.50800 14.58600 27.35700
C  43.28500 14.57900 28.15200
C  43.64500 15.09100 29.41200
C  44.95600 15.51300 29.22500
C  41.89900 13.93500 27.75700
C  43.19700 15.30400 30.74600
O  42.13400 15.02000 31.27800
C  44.41400 15.98300 31.47200
C  44.09200 17.22500 32.31300
O  43.95000 18.34600 31.94900
O  43.71900 16.75300 33.52500
C  43.21000 17.84000 34.43300
H  50.79400 18.02400 29.44800
H  49.38800 15.98400 23.62000
H  43.72300 13.78700 25.60000
H  46.99000 17.88200 32.30100
H  49.64100 17.41400 31.86200
H  47.92000 19.71200 31.65700
H  49.23800 19.72700 30.53700
H  49.54200 19.52100 32.30100
H  48.85600 15.69500 32.91400
H  47.22800 15.11600 32.66700
H  48.12600 15.91600 35.11600
H  46.42100 16.04600 34.50100
H  53.40000 17.15300 27.62400
H  52.45000 18.73800 28.12000
H  53.00700 18.57400 26.56500
H  53.58600 18.15800 24.53500
H  53.90100 16.61700 23.53400
H  53.78900 16.54400 25.27500
H  47.88000 14.18000 22.67900
H  44.97000 14.16700 23.18600
H  47.32400 16.27600 21.61700
H  46.75000 16.95100 23.09700
H  45.67600 15.98500 22.06000
H  46.98100 12.20700 22.79200
H  45.30800 12.03000 22.90000
H  47.04700 10.68600 24.21200
H  45.78200 11.13400 25.16000
H  47.32800 12.05000 25.30300
H  42.05200 12.86700 27.60100
H  41.46100 14.43100 26.89100
H  41.14300 14.02900 28.53700
H  44.62900 15.17100 32.16700
H  42.20700 18.15400 34.14600
H  43.91100 18.65500 34.25200
H  43.26900 17.64900 35.50500

