158

Mg 35.86600 1.56300 30.44600
C  33.45300 2.25300 32.80500
C  38.24000 1.87000 32.92900
C  38.25800 1.15300 28.06400
C  33.45600 1.97300 27.85800
N  35.79300 2.06800 32.59300
C  34.70300 2.15500 33.38300
C  35.03500 2.24700 34.82400
C  36.58400 2.59600 34.83500
C  36.88300 2.10100 33.37000
C  36.82300 4.09900 35.15400
C  34.63900 1.00400 35.56500
C  33.95200 1.09500 36.91000
H  34.53700 2.24200 37.77700
N  37.93700 1.31800 30.54800
C  38.79400 1.41800 31.62700
C  40.19500 1.06200 31.21200
C  40.18400 0.92000 29.82400
C  38.73700 1.18500 29.39100
C  41.31100 1.09600 32.25500
C  41.35000 0.58600 28.88500
O  41.20600 0.42700 27.70600
C  42.77100 0.12100 29.49000
N  35.87400 1.81100 28.22400
C  36.95800 1.33600 27.56800
C  36.63000 1.22800 26.07900
C  35.10400 1.46400 25.98200
C  34.74900 1.70800 27.40200
C  37.57500 2.07100 25.10000
C  34.34200 0.34900 25.09700
C  33.70000 -0.76500 25.96400
N  33.87300 2.13100 30.28000
C  33.01500 2.13400 29.18200
C  31.67800 2.35100 29.67600
C  31.78900 2.39400 31.07000
C  33.12400 2.31700 31.38900
C  30.46500 2.59000 28.73100
C  31.05400 2.53500 32.26700
O  29.84500 2.71600 32.51500
C  32.15300 2.52600 33.48000
C  32.05900 3.87300 34.05700
O  32.69700 4.85400 33.73500
O  31.25400 3.80300 35.19600
C  31.27500 5.01200 36.15600
H  38.95300 2.07000 33.73200
H  39.01900 0.87900 27.32900
H  32.68200 1.77700 27.11200
H  34.44700 3.08100 35.20600
H  37.13800 1.95300 35.51800
H  37.09900 4.15000 36.20800
H  35.88900 4.64900 35.03900
H  37.62400 4.45800 34.50900
H  35.50900 0.40700 35.83900
H  34.23300 0.33200 34.80900
H  34.03700 0.12700 37.40500
H  32.92800 1.24900 36.57000
H  41.76800 0.11700 32.39900
H  40.84300 1.37500 33.19900
H  42.08500 1.81400 31.98300
H  43.28100 1.02000 29.83700
H  43.41600 -0.30500 28.72200
H  42.65200 -0.68200 30.21700
H  36.79100 0.16900 25.87300
H  34.93600 2.41900 25.48300
H  38.50500 2.38800 25.57100
H  37.04400 2.98300 24.82800
H  37.82700 1.53100 24.18700
H  34.97200 -0.04900 24.30200
H  33.43200 0.76900 24.66800
H  32.63800 -0.84100 25.73000
H  33.83500 -0.64500 27.03900
H  34.15500 -1.74000 25.79300
H  30.06700 1.64600 28.35700
H  30.73300 3.15900 27.84100
H  29.64300 3.10500 29.22700
H  31.94600 1.77800 34.24600
H  30.25500 5.34500 36.35200
H  31.82700 5.85700 35.74400
H  31.78200 4.73000 37.07900
Mg 25.98900 51.14100 26.91800
C  23.88600 52.03500 29.58700
C  28.17000 49.97700 29.32900
C  28.09100 50.53000 24.48800
C  23.72800 52.59600 24.66700
N  26.06600 51.02800 29.27200
C  25.04000 51.46800 30.11600
C  25.41200 51.15000 31.61000
C  26.97100 50.89700 31.49200
C  27.06600 50.50600 29.98100
C  27.89800 52.15100 31.89800
C  24.66500 49.91300 32.20600
C  23.85700 50.16800 33.48600
H  24.61300 50.91800 34.66300
N  27.89400 50.39600 26.91200
C  28.57200 49.83100 28.01400
C  29.85700 49.25100 27.49200
C  29.90500 49.64000 26.12800
C  28.50400 50.13400 25.78600
C  30.95200 48.74900 28.40500
C  31.06500 49.37900 25.16700
O  31.08900 49.82600 23.98100
C  32.37200 48.78600 25.70200
N  25.95900 51.60500 24.79400
C  26.97200 51.27000 24.06200
C  26.77700 51.63000 22.58000
C  25.26900 52.31300 22.61600
C  24.92200 52.17700 24.08200
C  27.90800 52.66300 22.10600
C  24.22700 51.72700 21.56500
C  23.50400 50.44100 21.92600
N  24.27500 52.22400 27.09700
C  23.44100 52.65100 26.04100
C  22.19200 53.22600 26.62200
C  22.33700 53.00800 28.01200
C  23.61400 52.36600 28.23100
C  21.01500 53.81600 25.83800
C  21.65400 53.03100 29.28500
O  20.54700 53.50900 29.51000
C  22.67800 52.50900 30.38600
C  22.90100 53.68800 31.26400
O  23.55500 54.67200 30.99000
O  22.23000 53.47600 32.44800
C  22.56000 54.43400 33.48400
H  28.87900 49.46800 29.98500
H  28.74300 50.30600 23.64100
H  23.08900 52.97700 23.86700
H  25.29200 52.08000 32.16500
H  27.19500 50.01800 32.09500
H  27.49400 53.04100 32.38200
H  28.22100 52.48600 30.91200
H  28.73600 51.78700 32.49100
H  25.30200 49.03200 32.28400
H  23.92100 49.77400 31.42100
H  23.44000 49.23900 33.87600
H  23.02100 50.77700 33.14300
H  31.31000 47.75300 28.14500
H  30.58600 48.63800 29.42500
H  31.62700 49.60200 28.47800
H  33.05200 48.71300 24.85300
H  32.25300 47.82000 26.19200
H  32.72700 49.57500 26.36500
H  26.78200 50.68300 22.04200
H  25.32800 53.38500 22.43200
H  28.50400 52.34300 21.25100
H  28.68300 52.77100 22.86500
H  27.43500 53.62100 21.89300
H  24.74200 51.53900 20.62300
H  23.57000 52.57000 21.35300
H  23.67700 49.84900 21.02700
H  22.42400 50.58200 21.91800
H  23.85500 49.94100 22.82800
H  21.41000 54.66600 25.28200
H  20.35400 54.26300 26.58100
H  20.52300 53.01300 25.29000
H  22.10200 51.70600 30.84600
H  22.42300 55.48000 33.21000
H  23.63500 54.32400 33.62900
H  22.07100 54.16100 34.41900

