158

Mg -2.51400 17.09100 26.11200
C  -2.96500 14.90800 28.84800
C  -2.96500 19.74200 28.05700
C  -2.17400 18.88400 23.26700
C  -2.72200 14.12100 23.91200
N  -3.00500 17.29000 28.27700
C  -3.02500 16.24800 29.18900
C  -3.30400 16.85100 30.60500
C  -3.28100 18.41400 30.32700
C  -3.05600 18.50300 28.77900
C  -4.49600 19.20100 30.78200
C  -2.42300 16.30100 31.77000
C  -2.20600 17.28000 32.94200
H  -2.27000 16.70500 34.36500
N  -2.55800 19.04300 25.78300
C  -2.74300 20.02900 26.69500
C  -2.81400 21.33300 26.10600
C  -2.50300 21.04900 24.67600
C  -2.32900 19.57400 24.52500
C  -3.08800 22.67000 26.73800
C  -2.53000 22.06100 23.49300
O  -2.09400 21.79300 22.39700
C  -2.78500 23.52900 23.73700
N  -2.53800 16.53800 23.80400
C  -2.23600 17.50500 22.94600
C  -2.08700 16.98200 21.56300
C  -2.01400 15.42100 21.76900
C  -2.49200 15.30800 23.28600
C  -3.18700 17.43500 20.55100
C  -0.58300 14.86900 21.33200
C  0.62000 15.25900 22.26100
N  -2.61100 15.00100 26.33000
C  -2.77100 13.98600 25.32800
C  -3.09800 12.68800 26.01500
C  -3.08500 13.08200 27.37000
C  -2.81000 14.43500 27.50400
C  -3.40000 11.34900 25.38200
C  -3.28500 12.56300 28.73700
O  -3.53900 11.37500 29.07100
C  -3.10300 13.70300 29.71300
C  -1.97300 13.39000 30.64000
O  -0.78400 13.50900 30.44800
O  -2.53400 12.82700 31.73300
C  -1.61600 12.43700 32.81500
H  -2.97000 20.58900 28.74500
H  -1.91100 19.47400 22.38700
H  -2.71400 13.24400 23.26100
H  -4.35000 16.57600 30.73800
H  -2.41500 18.95500 30.70800
H  -4.24800 20.18300 31.18400
H  -5.06500 18.54500 31.44000
H  -5.25100 19.22500 29.99600
H  -1.43500 16.16600 31.32800
H  -2.88600 15.35300 32.04600
H  -2.93500 18.09000 32.94600
H  -1.26800 17.82500 32.82900
H  -2.18100 23.18700 27.05000
H  -3.54400 22.59400 27.72500
H  -3.64700 23.31400 26.05900
H  -3.85200 23.46400 23.94800
H  -2.63200 23.93900 22.73800
H  -2.19200 24.00700 24.51700
H  -1.07000 17.26700 21.29100
H  -2.71200 14.78800 21.22000
H  -3.76100 18.24400 21.00400
H  -3.92400 16.66900 20.30800
H  -2.80700 17.81300 19.60200
H  -0.33900 15.39500 20.40900
H  -0.56800 13.77900 21.32000
H  1.06000 14.29500 22.51600
H  0.29600 15.80700 23.14600
H  1.39500 15.69400 21.63000
H  -4.22600 10.86700 25.90600
H  -2.52400 10.72900 25.57300
H  -3.75100 11.40500 24.35200
H  -4.01300 13.78600 30.30700
H  -0.93100 13.24800 33.05900
H  -1.05600 11.56900 32.46700
H  -2.26500 12.09200 33.62000
Mg -11.41400 15.98600 43.74800
C  -7.91400 16.60300 43.60100
C  -12.05400 19.18600 42.85200
C  -14.61600 15.08200 43.90800
C  -10.52900 12.49300 44.09300
N  -10.12100 17.62800 43.24100
C  -8.73300 17.71100 43.18400
C  -8.21900 19.14700 42.74500
C  -9.52800 19.99300 42.85100
C  -10.68200 18.85600 42.94400
C  -9.46300 20.87600 44.12400
C  -7.49600 19.01600 41.37000
C  -6.02700 19.49400 41.26300
H  -5.06400 18.76800 40.35000
N  -13.07200 16.94800 43.36500
C  -13.15000 18.30700 42.92000
C  -14.50700 18.59700 42.70000
C  -15.33800 17.40100 42.94300
C  -14.32400 16.37800 43.37600
C  -14.97700 19.94400 42.26600
C  -16.81600 17.27200 42.74400
O  -17.36300 18.32900 42.34300
C  -17.59000 16.04000 43.03300
N  -12.51100 14.00700 43.91900
C  -13.87500 14.02900 44.21400
C  -14.27600 12.63600 44.68600
C  -13.04200 11.68300 44.49800
C  -11.97900 12.73900 44.17900
C  -14.98200 12.60700 46.06600
C  -13.19400 10.50300 43.46000
C  -12.41700 9.25500 43.96200
N  -9.69500 14.74500 43.99300
C  -9.50200 13.38300 44.06800
C  -8.05800 13.10600 44.28000
C  -7.43000 14.33700 44.06300
C  -8.45800 15.32000 43.89600
C  -7.45900 11.77900 44.59400
C  -6.12500 15.02300 43.90600
O  -4.97100 14.56800 43.94400
C  -6.39500 16.51400 43.74800
C  -6.02100 17.27500 45.01300
O  -6.38400 17.08700 46.15800
O  -5.06500 18.19500 44.56500
C  -4.64500 19.23300 45.61300
H  -12.22200 20.25500 42.70700
H  -15.65000 14.96800 44.24200
H  -10.20800 11.44900 44.06800
H  -7.48000 19.40600 43.50300
H  -9.66000 20.64000 41.98300
H  -9.93200 20.38800 44.97900
H  -10.01400 21.80900 44.01000
H  -8.42900 21.07800 44.40200
H  -8.13200 19.60500 40.71000
H  -7.41900 17.96400 41.09400
H  -5.65100 19.74000 42.25700
H  -6.12600 20.48900 40.83100
H  -15.49200 19.92000 41.30500
H  -14.14900 20.64000 42.13000
H  -15.66300 20.28100 43.04300
H  -18.60400 16.20000 42.66800
H  -17.69900 15.85100 44.10100
H  -17.07200 15.21500 42.54300
H  -14.99200 12.35000 43.91500
H  -12.72000 11.28300 45.46000
H  -15.11000 13.63700 46.39900
H  -14.45500 12.04700 46.83900
H  -15.91900 12.06600 45.93100
H  -13.01800 10.79400 42.42400
H  -14.23400 10.17700 43.44600
H  -13.15900 8.67200 44.50800
H  -11.46100 9.44200 44.45100
H  -12.17100 8.71200 43.04900
H  -6.40800 11.80000 44.87800
H  -7.66500 10.95100 43.91500
H  -8.00500 11.40200 45.45900
H  -5.90600 16.89700 42.85300
H  -5.50400 19.43100 46.25400
H  -4.17800 20.08600 45.12200
H  -3.83400 18.83300 46.22100

