158

Mg 25.53100 -8.06700 47.36700
C  27.49400 -5.42600 46.58300
C  23.29700 -7.15100 44.85800
C  23.65700 -10.72700 48.13200
C  28.23200 -9.53100 49.35200
N  25.47300 -6.58800 45.84900
C  26.48800 -5.65300 45.66400
C  26.01300 -4.59400 44.52400
C  24.64400 -5.15400 44.08800
C  24.42900 -6.38100 44.97300
C  23.39400 -4.15300 44.21700
C  27.09100 -4.59400 43.51000
C  27.49000 -3.11000 43.07400
H  27.17500 -2.69000 41.63300
N  23.70500 -8.85800 46.59700
C  22.93600 -8.30100 45.57500
C  21.78500 -9.13700 45.42100
C  21.87500 -10.24000 46.35500
C  23.09100 -9.94500 47.14200
C  20.73100 -8.92900 44.37200
C  20.83600 -11.40800 46.43100
O  19.78500 -11.40300 45.78300
C  21.12500 -12.61300 47.18400
N  25.90800 -9.93100 48.54900
C  24.90700 -10.78500 48.79900
C  25.29900 -11.88700 49.78300
C  26.88700 -11.69300 49.83200
C  27.05400 -10.34700 49.22100
C  24.52800 -11.69400 51.15000
C  27.65500 -12.70700 49.03500
C  29.16600 -12.85700 49.42400
N  27.42700 -7.62100 47.90800
C  28.39000 -8.26400 48.65400
C  29.60300 -7.42600 48.70400
C  29.25300 -6.19500 48.03700
C  27.94900 -6.41300 47.48800
C  30.95700 -7.73200 49.32400
C  29.67300 -4.84100 47.66100
O  30.71500 -4.24100 47.84900
C  28.50800 -4.28000 46.74300
C  27.76600 -3.24500 47.47900
O  27.00300 -3.45600 48.45600
O  27.98800 -2.02000 46.85900
C  27.18500 -0.89600 47.42100
H  22.63300 -6.78900 44.07000
H  23.06400 -11.51900 48.59400
H  29.02300 -9.96800 49.96500
H  25.81400 -3.64200 45.01500
H  24.65000 -5.58300 43.08600
H  23.77800 -3.14000 44.09800
H  23.08400 -4.09500 45.26100
H  22.62200 -4.31600 43.46500
H  26.86300 -5.08200 42.56200
H  27.96400 -5.11400 43.90300
H  28.56300 -2.98100 43.21600
H  26.98400 -2.37800 43.70300
H  21.09000 -9.34100 43.42900
H  20.60600 -7.87400 44.13100
H  19.76300 -9.38900 44.57100
H  20.97400 -12.40300 48.24300
H  22.19500 -12.79800 47.08600
H  20.50500 -13.43300 46.82400
H  24.96900 -12.82100 49.32800
H  27.11200 -11.84800 50.88700
H  23.86800 -12.53900 51.34400
H  23.89600 -10.80700 51.10800
H  25.23200 -11.48900 51.95600
H  27.37100 -12.59600 47.98800
H  27.22100 -13.62300 49.43500
H  29.68900 -12.28700 48.65700
H  29.61300 -13.85000 49.36400
H  29.59000 -12.44200 50.33900
H  30.77400 -8.54800 50.02400
H  31.39600 -6.84800 49.78500
H  31.68000 -8.08000 48.58600
H  29.00700 -3.88500 45.85800
H  27.26000 0.07900 46.94000
H  27.35400 -0.79100 48.49300
H  26.14300 -1.20200 47.51600
Mg 26.43200 -0.10800 28.60700
C  27.88300 -0.61200 31.78900
C  23.44100 0.01200 30.30400
C  25.04500 0.26300 25.71500
C  29.50700 -1.11000 27.09700
N  25.69000 -0.47800 30.85700
C  26.53100 -0.42900 31.93700
C  25.78800 -0.21300 33.28200
C  24.32400 -0.19000 32.77800
C  24.42700 -0.29100 31.22600
C  23.41600 -1.33400 33.28300
C  26.33600 1.01600 34.11700
C  26.77300 0.75300 35.58000
H  26.57600 1.87500 36.62400
N  24.55400 0.13100 28.05900
C  23.43200 0.21900 28.90500
C  22.26100 0.59700 28.11000
C  22.70600 0.68100 26.78200
C  24.14200 0.41900 26.79800
C  20.84800 0.72700 28.65700
C  21.85900 0.93300 25.47200
O  22.44200 0.99900 24.39500
C  20.36100 1.03300 25.52100
N  27.16200 -0.23000 26.63900
C  26.36700 -0.05800 25.61400
C  27.17900 -0.04200 24.32000
C  28.45300 -0.80700 24.75400
C  28.41700 -0.72300 26.26300
C  26.40300 -0.76500 23.15900
C  29.71300 -0.09600 24.17000
C  30.93300 -1.00500 23.84800
N  28.31300 -0.66400 29.24600
C  29.41500 -1.05700 28.53200
C  30.48900 -1.21600 29.42600
C  29.99900 -1.00200 30.69400
C  28.60700 -0.78800 30.57400
C  31.99000 -1.55900 29.14200
C  30.35200 -1.01400 32.12800
O  31.40400 -1.29600 32.67800
C  29.00900 -0.72800 32.84600
C  28.81900 -1.84700 33.83100
O  28.14200 -2.88800 33.63900
O  29.45500 -1.48700 35.01500
C  29.11500 -2.25200 36.21000
H  22.53400 0.08800 30.90800
H  24.51100 0.32400 24.76400
H  30.41700 -1.45200 26.60100
H  26.16400 -1.10400 33.78400
H  23.90400 0.80100 32.95000
H  22.55100 -0.95800 33.82900
H  23.92000 -1.99600 33.98800
H  23.00200 -1.90900 32.45400
H  25.54600 1.76700 34.13300
H  27.20700 1.59500 33.80900
H  27.83600 0.52900 35.67100
H  26.26800 -0.09100 36.04900
H  20.10500 0.09700 28.16800
H  20.47500 1.73100 28.45500
H  20.69800 0.51200 29.71500
H  20.02300 1.87400 26.12600
H  20.10400 0.06300 25.94800
H  20.06400 1.22900 24.49100
H  27.40500 0.98600 24.03900
H  28.45100 -1.85700 24.45800
H  26.95900 -1.67400 22.93200
H  26.34900 -0.07700 22.31500
H  25.39500 -1.07600 23.43500
H  30.11800 0.61800 24.88700
H  29.51800 0.40500 23.22200
H  31.04600 -1.71900 24.66400
H  31.87900 -0.48900 23.68500
H  30.78700 -1.56500 22.92500
H  32.06300 -1.77900 28.07700
H  32.26000 -2.41700 29.75800
H  32.58700 -0.73500 29.53300
H  29.06700 0.19100 33.42900
H  28.91700 -3.29400 35.95700
H  28.24600 -1.74900 36.63500
H  29.94200 -2.14900 36.91200

