158

Mg 48.27600 44.60900 43.80500
C  44.79700 44.25300 43.39300
C  48.57000 41.14300 43.34800
C  51.59100 44.95300 43.49600
C  47.81400 48.06400 43.78000
N  46.80600 42.87700 43.36600
C  45.43900 42.98600 43.46500
C  44.74500 41.59400 43.38300
C  45.97000 40.63500 43.77800
C  47.22300 41.58000 43.54800
C  46.02100 40.05900 45.17900
C  44.11400 41.08700 42.14300
C  44.32900 41.81900 40.72300
H  45.07800 41.03900 39.67500
N  49.81500 43.25300 43.37400
C  49.74800 41.86200 43.39000
C  51.07200 41.29100 43.25200
C  51.99400 42.40500 43.24900
C  51.11200 43.61700 43.39100
C  51.43600 39.89100 42.96700
C  53.47900 42.28200 42.99100
O  54.03000 41.24100 42.95100
C  54.42100 43.44700 42.87900
N  49.52100 46.20500 43.76100
C  50.89100 46.11800 43.78000
C  51.49700 47.51400 43.79900
C  50.37200 48.51100 44.02500
C  49.14100 47.57100 43.80000
C  52.72600 47.75700 44.67200
C  50.38400 49.88100 43.20200
C  49.79000 51.06300 43.94200
N  46.68100 45.96500 43.66500
C  46.65300 47.32400 43.74200
C  45.29300 47.82600 43.59600
C  44.56400 46.65100 43.44500
C  45.43300 45.51100 43.49400
C  44.90700 49.29900 43.73700
C  43.20900 46.11200 43.39600
O  42.17000 46.70300 43.35800
C  43.30600 44.58300 43.40900
C  42.62700 44.06400 44.66300
O  41.60800 43.37200 44.69900
O  43.23700 44.50600 45.79600
C  42.88700 43.86200 47.04700
H  48.63400 40.05400 43.30800
H  52.67700 45.05800 43.48000
H  47.81100 49.14000 43.96800
H  44.05200 41.66700 44.22100
H  46.08000 39.76100 43.13500
H  45.29000 40.56200 45.81200
H  46.99200 40.15800 45.66300
H  45.66300 39.03400 45.07900
H  43.04800 41.04300 42.36500
H  44.38900 40.06300 41.89100
H  44.93200 42.69500 40.96200
H  43.40400 42.15900 40.25800
H  52.05300 40.00300 42.07600
H  50.56800 39.28800 42.70200
H  51.85100 39.42600 43.86200
H  53.90600 44.13300 42.20600
H  55.26600 43.21100 42.23200
H  54.58600 43.80100 43.89700
H  51.92400 47.64800 42.80500
H  50.43300 48.69400 45.09800
H  53.63600 47.64700 44.08200
H  52.80900 47.26600 45.64100
H  52.75900 48.83100 44.85500
H  49.67500 49.91300 42.37400
H  51.33400 50.11200 42.72000
H  49.56900 50.82900 44.98400
H  48.83900 51.33200 43.48300
H  50.43500 51.93100 43.80900
H  44.93900 49.74800 42.74500
H  45.63800 49.71600 44.43000
H  43.90800 49.27500 44.17200
H  42.61300 44.20000 42.66000
H  43.75500 43.82400 47.70600
H  42.50700 42.84000 47.03900
H  42.15800 44.47100 47.58200
Mg -5.10600 25.52300 25.22000
C  -3.57400 27.15200 27.83900
C  -6.81300 23.50400 27.57300
C  -6.49500 23.74600 22.77100
C  -2.99900 27.28600 23.03000
N  -5.09900 25.32700 27.45400
C  -4.50500 26.23500 28.30200
C  -5.03500 26.05200 29.69800
C  -5.73300 24.62800 29.56700
C  -5.92500 24.42300 28.09400
C  -4.87600 23.46300 30.07200
C  -6.01600 27.24700 30.11700
C  -6.05900 27.72800 31.66500
H  -5.62200 26.74900 32.70600
N  -6.53300 23.83900 25.20300
C  -7.03900 23.25200 26.25100
C  -8.09200 22.28900 25.78900
C  -7.97600 22.29400 24.34200
C  -6.96700 23.33400 24.03900
C  -8.88500 21.44600 26.64300
C  -8.65300 21.41000 23.36000
O  -8.54700 21.53000 22.16600
C  -9.50200 20.24800 23.83500
N  -4.85600 25.62100 23.18000
C  -5.44100 24.68000 22.39000
C  -4.93700 24.86400 20.94700
C  -3.97900 26.12900 21.01100
C  -3.92900 26.35300 22.52700
C  -4.30500 23.64300 20.40300
C  -4.34900 27.35500 20.08900
C  -3.20100 27.89100 19.21100
N  -3.58800 26.94700 25.41100
C  -2.79700 27.58500 24.40900
C  -1.87200 28.52600 25.06400
C  -2.16800 28.44500 26.44100
C  -3.20600 27.50300 26.55500
C  -0.85900 29.42500 24.34600
C  -1.85300 28.90600 27.77700
O  -1.09300 29.79400 28.03600
C  -2.84000 28.08000 28.70900
C  -2.03500 27.43500 29.75300
O  -1.14900 26.59300 29.50100
O  -2.58100 27.66800 30.95300
C  -1.67000 27.35100 32.17000
H  -7.40400 22.84900 28.21600
H  -6.87900 23.20100 21.90700
H  -2.32400 27.72700 22.29400
H  -4.23300 25.95800 30.43000
H  -6.75800 24.58200 29.93500
H  -4.44400 22.83400 29.29300
H  -5.48400 22.89100 30.77300
H  -4.02100 23.83900 30.63300
H  -7.04800 26.94000 29.94400
H  -5.76000 27.98800 29.36000
H  -7.12000 27.90700 31.83600
H  -5.48900 28.65500 31.72800
H  -9.92900 21.73500 26.53000
H  -8.71500 21.49600 27.71900
H  -8.65700 20.40500 26.41300
H  -10.34700 20.64900 24.39400
H  -8.86700 19.57100 24.40600
H  -10.00700 19.65000 23.07700
H  -5.74100 25.16500 20.27600
H  -2.99000 25.86800 20.63400
H  -4.35200 22.84700 21.14700
H  -3.25100 23.83600 20.20600
H  -4.74200 23.27100 19.47600
H  -4.51300 28.22300 20.72900
H  -5.14000 27.08700 19.38800
H  -3.50500 28.00800 18.17000
H  -2.27900 27.31100 19.22800
H  -3.16600 28.95400 19.44900
H  -1.38100 30.17200 23.74800
H  -0.50300 28.83300 23.50200
H  -0.01300 29.75600 24.94900
H  -3.51000 28.84700 29.09800
H  -2.02800 27.70800 33.13600
H  -0.67100 27.75100 31.99700
H  -1.54600 26.26800 32.17600

