158

Mg 9.23800 4.28000 27.70000
C  10.51600 2.68000 30.56700
C  7.46600 6.34000 29.81800
C  7.54100 5.38100 25.09400
C  11.03300 2.08400 25.70200
N  9.22700 4.63100 29.98200
C  9.73400 3.76200 30.88200
C  9.31300 4.19100 32.31000
C  8.28300 5.35200 32.04900
C  8.30500 5.47500 30.53800
C  6.86500 5.23600 32.61800
C  10.57500 4.34400 33.24300
C  10.59500 5.53600 34.17100
H  11.54100 5.51000 35.32400
N  7.77200 5.74300 27.47600
C  7.17500 6.49300 28.43300
C  6.27500 7.47000 27.81500
C  6.28800 7.24700 26.39900
C  7.21100 6.04100 26.28900
C  5.51200 8.54200 28.67600
C  5.65200 8.12900 25.26200
O  5.82000 7.87800 24.08100
C  4.77500 9.24200 25.67600
N  9.18600 3.75300 25.69500
C  8.34800 4.35500 24.83600
C  8.63700 3.83000 23.44200
C  9.93500 2.98000 23.61500
C  10.13200 2.96900 25.11900
C  7.44100 3.09800 22.81000
C  11.21600 3.39000 22.85100
C  11.88400 2.20300 22.07600
N  10.45800 2.64600 27.98900
C  11.20000 1.84900 27.09900
C  11.93800 0.89600 27.77600
C  11.68600 1.14900 29.12800
C  10.81200 2.25300 29.21900
C  12.62800 -0.33300 27.16800
C  11.91700 0.62300 30.46500
O  12.53800 -0.31900 30.88600
C  11.23100 1.63400 31.46800
C  10.41500 0.89900 32.52700
O  9.25300 0.55000 32.33300
O  11.13700 0.93500 33.73100
C  10.47600 0.47800 34.95100
H  6.95700 7.03700 30.48700
H  7.18000 5.88300 24.19400
H  11.58600 1.36400 25.09600
H  8.88700 3.28600 32.74300
H  8.70800 6.27700 32.43800
H  6.54800 6.13800 33.14100
H  6.79400 4.36200 33.26700
H  6.07500 5.22800 31.86700
H  11.49000 4.44500 32.66000
H  10.61000 3.54300 33.98100
H  9.61300 5.52400 34.64300
H  10.77200 6.48900 33.67300
H  5.49400 9.51600 28.18800
H  5.92500 8.67300 29.67700
H  4.49400 8.20600 28.87300
H  4.18000 9.60300 24.83700
H  5.33300 10.09100 26.07000
H  4.15900 8.90600 26.51000
H  8.90000 4.72500 22.87800
H  9.72500 1.95000 23.32700
H  6.61200 3.07900 23.51700
H  7.80000 2.09800 22.56800
H  7.18800 3.66500 21.91400
H  12.03800 3.88300 23.36900
H  10.90000 4.09800 22.08600
H  11.54800 2.32900 21.04600
H  11.47300 1.24500 22.39400
H  12.97000 2.13400 22.13900
H  13.66800 -0.07900 26.96500
H  12.15100 -0.83200 26.32400
H  12.65800 -1.03600 28.00000
H  11.96100 2.12800 32.10900
H  10.68200 1.29200 35.64600
H  10.88800 -0.48000 35.26700
H  9.39400 0.43400 34.83100
Mg 30.89000 58.12000 40.23200
C  28.16400 55.99400 39.28200
C  33.02600 55.60700 39.55700
C  33.29400 60.38400 40.13100
C  28.40100 60.71800 40.50700
N  30.64600 56.16800 39.35400
C  29.45800 55.44400 39.12500
C  29.77800 54.01100 38.78400
C  31.17100 53.86100 39.38300
C  31.69200 55.26300 39.45500
C  31.25200 53.19300 40.78900
C  29.76700 53.77200 37.24700
C  28.93600 52.59400 36.75500
H  27.93000 52.94400 35.56200
N  32.95900 58.02200 39.96000
C  33.60000 56.90100 39.71900
C  35.03000 57.19100 39.54900
C  35.07100 58.61200 39.61100
C  33.72100 59.06400 39.94400
C  36.08400 56.13700 39.39200
C  36.35200 59.42300 39.23000
O  37.32100 58.82000 38.92900
C  36.28600 60.92500 39.03600
N  30.80800 60.20100 40.45800
C  31.98900 60.87000 40.46700
C  31.78100 62.42400 40.67100
C  30.18900 62.49200 40.91300
C  29.74800 61.06400 40.63700
C  32.67800 63.19600 41.60800
C  29.55000 63.61600 40.02500
C  28.30000 64.34300 40.59100
N  28.71300 58.36600 39.91300
C  27.85600 59.48600 40.07400
C  26.50900 59.10400 39.68800
C  26.55000 57.73800 39.39200
C  27.89800 57.34000 39.50000
C  25.33700 59.96000 39.76500
C  25.78100 56.54600 39.05700
O  24.56100 56.39900 38.84600
C  26.84300 55.39400 39.09900
C  26.43600 54.45000 40.23700
O  27.01900 54.30400 41.31900
O  25.31800 53.73900 39.83000
C  24.68500 52.79500 40.78100
H  33.60900 54.69200 39.43300
H  33.94400 61.26200 40.16100
H  27.73900 61.56700 40.69000
H  29.10100 53.34300 39.31600
H  31.81400 53.33300 38.67800
H  31.63300 53.94200 41.48200
H  31.78100 52.24200 40.72400
H  30.23700 53.09100 41.17400
H  30.72000 53.51500 36.78300
H  29.32500 54.63400 36.74800
H  28.31000 52.31200 37.60200
H  29.51100 51.73700 36.40300
H  36.22000 55.90600 38.33500
H  35.93200 55.20200 39.93100
H  36.99900 56.52400 39.84100
H  35.66600 61.25800 38.20400
H  37.32400 61.19900 38.84900
H  36.13800 61.50800 39.94500
H  32.03800 62.91700 39.73300
H  29.85800 62.61500 41.94400
H  32.10800 63.53000 42.47600
H  32.98700 64.11700 41.11400
H  33.53800 62.60500 41.92500
H  29.15900 63.13400 39.12900
H  30.29500 64.40100 39.89800
H  28.48200 65.41000 40.46200
H  28.01400 63.97100 41.57500
H  27.41200 64.14200 39.99200
H  24.54300 59.46500 39.20500
H  25.68700 60.94100 39.44100
H  25.00200 60.11000 40.79100
H  26.59300 54.91700 38.15200
H  24.43800 51.87300 40.25500
H  23.80800 53.14500 41.32400
H  25.43800 52.50300 41.51300

