158

Mg 1.65700 8.18400 25.97000
C  2.15200 10.26900 28.81400
C  2.09500 5.44800 28.23300
C  1.64400 6.09000 23.32200
C  1.52600 10.92000 23.97600
N  2.12700 7.90200 28.42400
C  2.21000 8.97200 29.28000
C  2.04200 8.38900 30.69200
C  2.24600 6.83800 30.47700
C  2.06300 6.66200 28.94100
C  3.70000 6.31600 30.92100
C  0.62500 8.66600 31.36900
C  0.62200 9.01900 32.85800
H  1.63000 8.53400 33.82100
N  1.81400 6.10900 25.80600
C  1.96500 5.18600 26.83000
C  2.13800 3.88600 26.25900
C  1.98700 4.00500 24.86800
C  1.80000 5.46600 24.60100
C  2.44500 2.64100 27.13900
C  2.01900 2.78700 23.89100
O  1.93800 3.02200 22.68800
C  2.07500 1.32900 24.22600
N  1.66400 8.49100 23.93800
C  1.54000 7.46200 23.02400
C  1.17500 7.99600 21.62700
C  1.18500 9.52800 21.78800
C  1.38700 9.71800 23.34500
C  2.05200 7.46400 20.45200
C  -0.07800 10.25400 21.28000
C  0.18000 11.45400 20.33500
N  1.84100 10.19900 26.28800
C  1.78000 11.21300 25.36200
C  2.01300 12.53600 26.01400
C  2.13400 12.16300 27.33500
C  2.11700 10.72900 27.47900
C  1.88200 13.93800 25.40600
C  2.32800 12.76300 28.70600
O  2.56000 13.92200 28.98100
C  2.13000 11.51200 29.67300
C  3.30900 11.62700 30.67200
O  4.49400 11.32300 30.44100
O  2.87900 12.03400 31.86900
C  3.99900 12.14900 32.86000
H  2.17800 4.63800 28.96100
H  1.44100 5.49200 22.43200
H  1.50400 11.82800 23.37000
H  2.83300 8.80000 31.31900
H  1.54200 6.30200 31.11400
H  4.47200 7.07900 31.02600
H  4.14000 5.74000 30.10700
H  3.84100 5.60300 31.73400
H  -0.01800 7.78800 31.31100
H  0.14000 9.41000 30.73700
H  -0.24000 8.53400 33.31700
H  0.45200 10.07800 33.05400
H  3.00000 1.88900 26.57800
H  1.47000 2.26500 27.45000
H  3.12700 2.98900 27.91400
H  3.09000 1.28700 24.62000
H  2.02800 0.67400 23.35600
H  1.34000 0.88900 24.90000
H  0.18000 7.58200 21.46300
H  2.08200 9.98200 21.36700
H  1.66400 6.49200 20.14600
H  3.08100 7.38000 20.80000
H  2.09400 8.12000 19.58300
H  -0.78700 10.52800 22.06100
H  -0.58500 9.52800 20.64400
H  0.00700 11.01900 19.35000
H  1.19200 11.85000 20.42000
H  -0.56200 12.22700 20.53200
H  1.01300 14.42400 25.84900
H  1.67700 13.74200 24.35300
H  2.81500 14.48000 25.55500
H  1.11700 11.53200 30.07400
H  4.79200 12.82600 32.54400
H  4.39700 11.14700 33.02400
H  3.72800 12.49500 33.85800
Mg 25.93800 49.63100 26.26100
C  23.76300 50.47700 28.82100
C  28.21100 48.57100 28.50900
C  28.15000 49.10900 23.68500
C  23.68000 50.92500 23.91200
N  26.02500 49.75800 28.52100
C  24.93000 49.92900 29.31200
C  25.28100 49.55000 30.75400
C  26.76200 49.02600 30.66400
C  27.05100 49.12500 29.10700
C  27.88500 49.72200 31.55200
C  24.21800 48.56600 31.43700
C  23.75200 49.02300 32.85600
H  24.70400 49.66500 33.96300
N  27.87900 48.95700 26.13900
C  28.58600 48.41400 27.16700
C  29.81000 47.79900 26.72000
C  29.84100 48.00700 25.23900
C  28.59200 48.70500 24.97200
C  30.81000 46.99900 27.61700
C  30.94000 47.54700 24.28600
O  30.83700 47.74300 23.10000
C  32.01500 46.66800 24.78900
N  25.95000 49.97500 24.06100
C  26.97500 49.72700 23.26700
C  26.68900 50.03000 21.82900
C  25.15800 50.30500 21.84800
C  24.82600 50.36700 23.31700
C  27.57200 51.18400 21.28300
C  24.36200 49.20600 21.05800
C  24.06300 47.86500 21.76100
N  24.14200 50.53500 26.32300
C  23.34800 51.01800 25.27200
C  22.08400 51.54700 25.84000
C  22.18500 51.33100 27.21500
C  23.50800 50.79300 27.45600
C  20.91600 52.06700 25.08400
C  21.49800 51.58000 28.46400
O  20.43100 52.13500 28.66100
C  22.50200 51.00200 29.57300
C  22.83800 52.08700 30.63200
O  23.62100 53.05600 30.51300
O  22.04200 51.90200 31.79200
C  22.26800 52.88300 32.83800
H  28.81300 47.92500 29.15200
H  28.82700 48.81300 22.88100
H  22.89700 51.28400 23.24100
H  25.29500 50.52600 31.23800
H  26.87200 47.97700 30.93600
H  28.56500 48.98200 31.97200
H  27.47700 50.32900 32.36000
H  28.60300 50.20600 30.89000
H  24.69500 47.58700 31.47100
H  23.27200 48.37800 30.93000
H  23.39800 48.03800 33.15900
H  22.78600 49.52600 32.81500
H  31.79300 47.44400 27.46100
H  30.74900 45.93900 27.37300
H  30.69700 47.00400 28.70100
H  32.69500 47.21200 25.44500
H  32.69300 46.36400 23.99100
H  31.56200 45.77700 25.22300
H  26.95000 49.25200 21.11100
H  24.90100 51.29000 21.45800
H  28.48700 51.17200 21.87500
H  27.06700 52.13300 21.46300
H  27.79700 50.98400 20.23600
H  24.87900 48.89300 20.15100
H  23.39300 49.63000 20.79700
H  24.01800 46.95000 21.17100
H  23.07600 47.99200 22.20700
H  24.73300 47.67600 22.60000
H  21.00100 53.15100 25.15800
H  20.06400 51.77000 25.69500
H  20.71400 51.71000 24.07400
H  21.96400 50.25700 30.15900
H  23.00400 52.48500 33.53700
H  21.39100 52.97600 33.47900
H  22.62900 53.86300 32.52700

