158

Mg 45.10500 4.11000 48.78700
C  43.54700 7.05200 47.89900
C  42.32000 2.36500 48.13500
C  46.97500 1.40900 48.65500
C  48.25400 6.10400 48.97400
N  43.11900 4.71400 48.26800
C  42.68600 5.96200 47.88000
C  41.18300 5.96200 47.69600
C  40.78400 4.48300 47.71800
C  42.13100 3.79600 48.07200
C  39.56700 4.07800 48.59500
C  40.61000 6.84000 46.59300
C  39.23700 6.59500 46.01400
H  38.97200 6.49900 44.45300
N  44.71200 2.10100 48.62400
C  43.44500 1.57100 48.29400
C  43.56800 0.15700 48.02300
C  44.94700 -0.19300 48.07300
C  45.59600 1.15300 48.44300
C  42.32700 -0.65300 47.69300
C  45.52200 -1.51800 47.84300
O  44.82300 -2.45900 47.53500
C  46.93800 -1.84000 48.05300
N  47.28300 3.87000 48.94500
C  47.76200 2.53400 48.89800
C  49.28200 2.48300 49.10900
C  49.68300 4.02200 49.26300
C  48.33300 4.73000 49.02700
C  49.75400 1.45400 50.21100
C  50.99700 4.52100 48.54900
C  51.93400 5.39200 49.45800
N  45.77400 6.18400 48.59000
C  47.06500 6.82200 48.69300
C  46.88100 8.22400 48.46200
C  45.53800 8.36500 48.19400
C  44.90300 7.04300 48.22900
C  48.00200 9.25700 48.50900
C  44.54200 9.25800 47.85500
O  44.53800 10.47700 47.72400
C  43.25000 8.46300 47.71000
C  42.17900 8.96100 48.71400
O  41.76100 8.34600 49.70100
O  41.59800 10.04400 48.12500
C  40.30600 10.40100 48.74300
H  41.39000 1.87400 47.84300
H  47.58600 0.50400 48.67500
H  49.17900 6.67400 48.86200
H  40.73800 6.31600 48.62500
H  40.53000 4.09700 46.73100
H  38.79000 3.58800 48.00900
H  38.95800 4.93500 48.88100
H  39.92300 3.59600 49.50600
H  41.33900 6.65700 45.80400
H  40.61300 7.91600 46.76400
H  38.70800 7.50400 46.29900
H  38.82700 5.75000 46.56900
H  42.54200 -1.23800 46.79800
H  41.38200 -0.13200 47.54000
H  42.14200 -1.40000 48.46500
H  47.22000 -1.65200 49.08900
H  47.51100 -1.45500 47.20900
H  46.99800 -2.91900 47.91300
H  49.77300 2.14000 48.19800
H  49.77800 4.24200 50.32600
H  50.17500 2.02200 51.04100
H  50.66800 0.92500 49.94300
H  48.89900 0.92400 50.63100
H  50.68000 5.21800 47.77300
H  51.55400 3.68700 48.12200
H  51.98400 6.36000 48.95700
H  52.89800 4.88900 49.53400
H  51.56300 5.58400 50.46500
H  48.38400 9.51100 47.52100
H  48.73900 8.82200 49.18400
H  47.55700 10.08800 49.05700
H  42.91500 8.72600 46.70700
H  39.79700 10.96300 47.96000
H  40.36000 10.94400 49.68700
H  39.68500 9.52400 48.92300
Mg 41.38800 8.39000 29.97700
C  43.21800 9.69500 32.75000
C  38.98600 7.51300 32.21100
C  39.87100 7.17900 27.41600
C  44.13300 9.36100 27.93300
N  41.22800 8.54800 32.22300
C  42.02100 9.09000 33.19700
C  41.53700 8.96400 34.62300
C  40.09800 8.31600 34.33200
C  40.11300 8.08400 32.81700
C  39.76200 7.10900 35.18400
C  41.57400 10.33200 35.40300
C  40.64600 10.56300 36.65600
H  41.30000 10.24100 38.03900
N  39.62300 7.39700 29.83100
C  38.77100 7.10800 30.86300
C  37.57100 6.49900 30.29900
C  37.78500 6.58300 28.86400
C  39.17600 6.99800 28.63200
C  36.40200 5.97500 31.10600
C  36.74300 6.31900 27.72600
O  37.01300 6.26800 26.49600
C  35.22900 6.29500 28.03900
N  42.04400 8.17600 27.89200
C  41.10500 7.71000 27.04400
C  41.69600 7.75600 25.61100
C  43.04500 8.61400 25.69900
C  43.06100 8.76500 27.23500
C  41.91800 6.30900 24.98800
C  43.07200 9.96000 24.85200
C  44.18900 10.06600 23.91800
N  43.26300 9.25700 30.19500
C  44.22300 9.77100 29.26300
C  45.34900 10.31600 29.99000
C  44.97400 10.33400 31.30000
C  43.69200 9.64500 31.41400
C  46.47200 10.98900 29.42500
C  45.44200 10.79400 32.59700
O  46.38700 11.47900 32.95100
C  44.35200 10.32600 33.61800
C  44.99600 9.46200 34.59400
O  45.00900 8.22300 34.51400
O  45.44400 10.10500 35.70500
C  45.58100 9.36300 36.99000
H  38.11800 7.42500 32.86800
H  39.36300 6.84700 26.50700
H  44.90700 9.75200 27.26900
H  42.17500 8.26200 35.15900
H  39.30700 9.04700 34.49600
H  39.36300 6.24600 34.65000
H  38.97000 7.50100 35.82300
H  40.58300 6.84500 35.85000
H  41.47700 11.22500 34.78600
H  42.60100 10.40400 35.76000
H  39.77700 9.90600 36.61500
H  40.30600 11.59700 36.71700
H  35.50100 6.58900 31.11200
H  36.87100 5.84000 32.08000
H  36.14000 5.00400 30.68400
H  34.83000 5.46700 28.62500
H  34.73100 6.37600 27.07300
H  34.98000 7.25400 28.49300
H  41.00100 8.36500 25.03200
H  43.94000 8.08200 25.37800
H  41.26700 5.65900 25.57200
H  42.96800 6.04600 25.12100
H  41.56300 6.42400 23.96400
H  43.18100 10.75300 25.59200
H  42.08200 10.09800 24.41600
H  44.68200 11.03400 23.82700
H  43.79500 9.95400 22.90800
H  44.97700 9.31200 23.93300
H  46.67200 12.04200 29.62400
H  46.46200 10.85100 28.34400
H  47.32700 10.34800 29.64100
H  44.04200 11.23900 34.12800
H  45.85400 8.32200 36.81300
H  44.65900 9.34600 37.57100
H  46.34700 9.82500 37.61200

