158

Mg 55.06900 23.74700 44.78600
C  52.35700 25.74600 43.74100
C  53.28700 21.03800 43.55100
C  57.91100 21.99600 45.03400
C  56.75800 26.60500 45.86200
N  53.18000 23.48000 43.51900
C  52.23100 24.47500 43.36000
C  50.92400 23.89500 42.76400
C  51.13800 22.36600 43.02900
C  52.62600 22.27000 43.38300
C  50.27300 21.91100 44.28100
C  50.82900 24.14500 41.23300
C  49.30700 24.40600 40.87500
H  48.88500 24.21600 39.38400
N  55.50300 21.75000 44.32500
C  54.68300 20.76200 43.88200
C  55.39900 19.53000 43.81800
C  56.78700 19.73500 44.23100
C  56.83400 21.21100 44.57300
C  54.65400 18.33700 43.40400
C  57.82400 18.69600 44.36800
O  57.61500 17.50700 44.12400
C  59.28000 18.99800 44.84500
N  57.23000 24.31700 45.04700
C  58.07100 23.35300 45.27100
C  59.42900 23.93600 45.77600
C  59.14000 25.49800 45.99600
C  57.65200 25.53200 45.58100
C  59.87100 23.20900 47.06400
C  59.91700 26.40700 45.03400
C  60.85300 27.44100 45.72400
N  54.73500 25.78400 44.86000
C  55.41000 26.80900 45.43000
C  54.50500 27.86000 45.70800
C  53.33200 27.60900 44.87700
C  53.54400 26.28600 44.48600
C  54.69400 29.12800 46.47100
C  52.10500 28.15800 44.27500
O  51.67400 29.33300 44.38000
C  51.47900 27.00400 43.54200
C  51.12300 27.42600 42.15400
O  51.94800 27.52300 41.24100
O  49.80500 27.69500 42.01100
C  49.42200 28.16300 40.74300
H  52.81000 20.10800 43.23300
H  58.81500 21.49600 45.38800
H  57.30000 27.46800 46.25400
H  49.98200 24.22900 43.20000
H  50.90800 21.60200 42.28700
H  50.02600 22.73900 44.94500
H  50.62300 21.08700 44.90300
H  49.30200 21.67100 43.84600
H  51.16500 23.33100 40.59100
H  51.62000 24.87000 41.03900
H  48.96000 25.42000 41.07300
H  48.65200 23.66800 41.33900
H  54.64200 18.34800 42.31400
H  53.63900 18.36200 43.80100
H  55.18700 17.47600 43.80700
H  59.62300 19.95000 44.43900
H  59.91100 18.20300 44.44700
H  59.29900 18.88200 45.92900
H  60.11700 23.76400 44.94800
H  59.28000 25.79700 47.03500
H  59.08600 22.56400 47.45800
H  59.86200 23.99000 47.82500
H  60.83600 22.70900 46.98300
H  59.21100 26.97900 44.43200
H  60.37900 25.79100 44.26300
H  60.39600 28.39400 45.99300
H  61.72100 27.66200 45.10300
H  61.16900 27.01500 46.67600
H  54.86300 28.89000 47.52100
H  53.77900 29.69500 46.30200
H  55.46600 29.71200 45.97100
H  50.53800 26.94700 44.09000
H  49.42100 29.25200 40.79400
H  48.43700 27.78600 40.46700
H  50.12300 27.88200 39.95700
Mg 50.64700 45.10700 42.51900
C  47.34300 45.71800 41.33400
C  50.17300 41.84500 41.32200
C  53.76800 44.73500 42.88700
C  50.79300 48.53200 43.16100
N  48.92300 43.95200 41.44900
C  47.65200 44.40000 41.15100
C  46.81900 43.28100 40.47000
C  47.57200 41.99100 41.01100
C  49.03000 42.61100 41.23100
C  47.08300 41.26400 42.31100
C  46.59600 43.45300 38.95400
C  45.17100 43.31700 38.48000
H  44.84700 42.33700 37.33400
N  51.81900 43.45500 42.25600
C  51.44900 42.19300 41.82800
C  52.60400 41.36300 41.84700
C  53.66300 42.13400 42.39600
C  53.13600 43.52600 42.52700
C  52.53100 39.90500 41.45700
C  55.01900 41.62500 42.69700
O  55.21600 40.41800 42.72800
C  56.25500 42.52400 43.04800
N  52.07800 46.47500 42.78400
C  53.38200 46.04000 43.04800
C  54.26100 47.23800 43.38200
C  53.30900 48.39100 43.65100
C  51.92300 47.73200 43.24900
C  55.19600 46.93300 44.59800
C  53.48400 49.73600 42.90200
C  53.26700 51.06100 43.71600
N  49.40100 46.79200 42.32200
C  49.61100 48.12300 42.66900
C  48.46400 48.92800 42.37100
C  47.52800 48.01900 41.83100
C  48.13400 46.72300 41.84300
C  48.17900 50.43800 42.68600
C  46.20200 47.87600 41.37200
O  45.27800 48.70700 41.25600
C  46.07700 46.41800 40.95600
C  44.88700 45.88200 41.71600
O  44.96300 45.28500 42.78600
O  43.69800 46.13000 41.13400
C  42.55900 45.34700 41.62500
H  49.87300 40.83100 41.04900
H  54.85800 44.72700 42.95800
H  50.75200 49.60200 43.37200
H  45.87000 43.38800 40.99600
H  47.69600 41.23900 40.23200
H  47.81500 41.35600 43.11300
H  46.96900 40.18600 42.19800
H  46.05600 41.60900 42.43000
H  47.15300 42.57900 38.61600
H  47.03500 44.37500 38.57500
H  44.85500 44.30800 38.15400
H  44.61500 43.06800 39.38400
H  53.32300 39.54500 40.80100
H  51.63700 39.57100 40.93000
H  52.44100 39.42100 42.43000
H  56.20900 42.99400 44.03100
H  56.32900 43.23800 42.22800
H  57.11700 41.85600 43.07800
H  54.86100 47.30600 42.47400
H  53.29200 48.57400 44.72500
H  55.01600 46.04100 45.19800
H  55.13900 47.83800 45.20300
H  56.24000 46.87100 44.29000
H  52.74900 49.68900 42.09800
H  54.51300 49.65900 42.55100
H  52.98300 50.82000 44.74000
H  52.40800 51.64000 43.37900
H  54.12200 51.73300 43.78900
H  47.16400 50.56300 43.06100
H  48.27100 50.99300 41.75300
H  48.86500 50.86100 43.42000
H  45.93300 46.31400 39.88000
H  41.72800 45.32400 40.92100
H  42.12400 45.65300 42.57700
H  42.97200 44.35200 41.79500

