158

Mg 23.34600 -6.39200 46.89800
C  25.73000 -3.95900 45.86100
C  21.07000 -4.84100 44.80200
C  21.51800 -9.20700 47.11800
C  25.94200 -7.97400 48.60700
N  23.45500 -4.55200 45.50400
C  24.49100 -3.67500 45.35000
C  24.07400 -2.60000 44.41500
C  22.48800 -2.73500 44.45600
C  22.32800 -4.14900 44.94100
C  21.72900 -1.73000 45.42200
C  24.69700 -2.73300 43.05900
C  25.01400 -1.45900 42.31400
H  24.23400 -1.28300 40.99700
N  21.48700 -6.88800 46.08300
C  20.68900 -6.11100 45.28100
C  19.48300 -6.86400 45.02800
C  19.53600 -8.09700 45.69300
C  20.91900 -8.09800 46.34900
C  18.35100 -6.30400 44.11300
C  18.47300 -9.13400 45.80900
O  17.43000 -8.91900 45.23700
C  18.66400 -10.38800 46.44200
N  23.72300 -8.25200 47.73800
C  22.73700 -9.28500 47.76400
C  23.15600 -10.50300 48.65000
C  24.57400 -10.07000 49.07900
C  24.81100 -8.67100 48.43300
C  22.21600 -10.64000 49.85700
C  25.60700 -11.19200 48.75200
C  26.14900 -11.25100 47.22900
N  25.44200 -5.97200 47.26200
C  26.29100 -6.73400 47.95600
C  27.56700 -6.02600 48.05600
C  27.40300 -4.89500 47.21300
C  26.09000 -5.01100 46.69500
C  28.77200 -6.55900 48.72000
C  28.07400 -3.74300 46.65900
O  29.19100 -3.29200 46.84400
C  26.96500 -3.09400 45.71500
C  26.66200 -1.66700 46.07700
O  26.43800 -1.20900 47.20700
O  26.71500 -0.86300 44.95100
C  26.44500 0.51600 45.26600
H  20.19500 -4.30000 44.43700
H  21.03300 -10.18300 47.05300
H  26.73500 -8.46100 49.17800
H  24.30700 -1.67000 44.93400
H  22.02800 -2.68700 43.46900
H  22.45200 -1.13400 45.97800
H  21.16700 -2.28700 46.17100
H  20.94200 -1.24000 44.84800
H  24.05000 -3.31800 42.40500
H  25.67600 -3.16900 43.25600
H  26.06600 -1.30000 42.07800
H  24.76400 -0.67500 43.02900
H  17.88700 -7.15400 43.61300
H  18.70700 -5.59700 43.36500
H  17.58700 -5.84300 44.73900
H  19.38000 -11.00100 45.89400
H  17.66600 -10.82700 46.45600
H  18.92300 -10.09500 47.45900
H  23.12600 -11.44600 48.10400
H  24.66100 -9.97600 50.16100
H  21.94100 -11.69200 49.93900
H  21.29100 -10.07900 49.72300
H  22.54900 -10.32100 50.84400
H  25.24300 -12.21300 48.86900
H  26.47800 -11.05400 49.39400
H  27.20900 -11.49600 47.16800
H  26.05500 -10.27800 46.74600
H  25.57900 -11.99100 46.66800
H  28.78100 -6.82700 49.77600
H  29.38800 -5.67400 48.55700
H  29.21400 -7.38300 48.16000
H  27.48400 -3.25000 44.76900
H  25.35900 0.60100 45.21200
H  26.97200 1.15200 44.55600
H  26.77000 1.07500 46.14300
Mg 41.32400 8.15000 29.59900
C  43.08000 9.70000 32.29600
C  39.25600 6.70500 31.78300
C  39.81800 6.49100 26.96500
C  43.99400 9.01000 27.48100
N  41.21600 8.14500 31.80500
C  41.92700 8.98800 32.74600
C  41.23200 9.00200 34.05700
C  40.06800 8.00500 33.88700
C  40.22300 7.52700 32.39900
C  40.19100 6.87200 34.92800
C  40.72300 10.40400 34.56400
C  40.12600 10.45900 36.06300
H  40.78200 11.43800 36.98600
N  39.69700 6.91600 29.38600
C  39.02000 6.37800 30.42300
C  37.95500 5.61200 29.94400
C  37.94600 5.69900 28.50200
C  39.16700 6.43800 28.19400
C  37.04200 4.78600 30.93700
C  36.86200 5.35700 27.53800
O  37.07900 5.55900 26.36600
C  35.59000 4.68300 28.04700
N  41.86400 7.72900 27.56500
C  41.07300 7.13600 26.63400
C  41.61800 7.25000 25.15100
C  42.90600 8.15400 25.41000
C  42.91900 8.30300 26.90300
C  41.89100 5.93900 24.52400
C  42.94800 9.45100 24.59700
C  42.03000 10.52200 25.08600
N  43.22600 9.02800 29.80400
C  44.12300 9.44700 28.85000
C  45.19000 10.24400 29.43700
C  44.78500 10.35400 30.81900
C  43.61500 9.63600 30.95400
C  46.33900 10.68200 28.72100
C  45.15100 10.95000 32.06300
O  46.04000 11.71400 32.42000
C  43.98700 10.57500 33.08000
C  44.66700 9.66900 34.11100
O  45.59300 8.91900 33.86400
O  44.10900 9.90700 35.35100
C  44.81600 9.21800 36.44000
H  38.61300 6.26900 32.55100
H  39.44800 6.03900 26.04200
H  44.76900 9.35700 26.79400
H  41.97000 8.53900 34.71300
H  39.13400 8.56500 33.82000
H  40.80400 7.05000 35.81200
H  40.65100 6.08300 34.33300
H  39.22100 6.46800 35.21600
H  40.05500 10.96100 33.90600
H  41.60000 11.05200 34.53900
H  39.94200 9.52300 36.59100
H  39.14400 10.88200 35.85100
H  36.73900 3.86300 30.44300
H  36.27500 5.47400 31.29300
H  37.60300 4.46300 31.81400
H  35.72500 3.68600 28.46400
H  34.72300 4.65900 27.38600
H  35.28000 5.28000 28.90500
H  40.86300 7.72600 24.52500
H  43.80900 7.57300 25.22200
H  41.80000 5.20400 25.32400
H  42.93800 5.88400 24.22500
H  41.33800 5.64200 23.63300
H  42.63400 9.17800 23.58900
H  43.95500 9.86400 24.55000
H  41.72000 10.24700 26.09400
H  41.17900 10.83200 24.47900
H  42.57600 11.45800 25.20400
H  46.02300 11.64600 28.32400
H  46.67200 9.92100 28.01500
H  47.11600 10.78600 29.47800
H  43.67600 11.52800 33.50800
H  45.90000 9.29900 36.36500
H  44.45300 8.19200 36.38300
H  44.61000 9.71600 37.38700

