158

Mg 23.82600 -6.58600 47.46600
C  26.44900 -4.30800 46.39200
C  22.01200 -5.38500 44.95100
C  21.85500 -9.11600 48.12400
C  26.34500 -8.00600 49.56100
N  24.25600 -4.95900 45.92500
C  25.29200 -4.19900 45.63100
C  25.01300 -3.16900 44.48000
C  23.49600 -3.36600 44.19700
C  23.17300 -4.63700 45.09800
C  22.66600 -2.03700 44.57500
C  25.85100 -3.45000 43.17900
C  26.60300 -2.19800 42.57800
H  26.54300 -1.99600 41.05000
N  22.08700 -7.28200 46.60000
C  21.52000 -6.66500 45.56200
C  20.33000 -7.34300 45.26900
C  20.14500 -8.33900 46.30700
C  21.38200 -8.31600 47.07200
C  19.45500 -6.92600 44.07500
C  18.87700 -9.10800 46.47600
O  17.86000 -8.90600 45.83600
C  18.80400 -10.13400 47.49500
N  24.14000 -8.37700 48.56800
C  23.13400 -9.26700 48.73800
C  23.38100 -10.19600 50.04200
C  24.88500 -9.90900 50.28000
C  25.16600 -8.66500 49.44200
C  22.38000 -9.87000 51.17500
C  25.98200 -11.03200 49.90100
C  27.19000 -11.16700 50.81400
N  25.90000 -6.19000 48.07100
C  26.71400 -6.88500 48.88500
C  28.04800 -6.24600 48.92600
C  27.92600 -5.18900 47.99600
C  26.65100 -5.26500 47.43300
C  29.18000 -6.73800 49.72800
C  28.63300 -3.99000 47.49800
O  29.75000 -3.51500 47.72200
C  27.69900 -3.40700 46.36800
C  27.40100 -2.03800 46.87900
O  26.73900 -1.79500 47.86900
O  27.80400 -1.03800 45.91800
C  27.56600 0.33300 46.43400
H  21.35900 -4.91700 44.21100
H  21.18000 -9.89800 48.47900
H  27.03300 -8.49400 50.25500
H  25.24400 -2.16100 44.82700
H  23.29700 -3.67400 43.17100
H  23.30600 -1.34200 45.11900
H  21.71400 -2.20400 45.07700
H  22.49500 -1.52900 43.62500
H  25.31500 -3.94600 42.36900
H  26.73800 -4.03500 43.42000
H  27.67100 -2.25600 42.78600
H  26.17600 -1.31600 43.05600
H  19.85500 -7.41500 43.18700
H  19.53100 -5.85400 43.89100
H  18.40100 -7.17300 44.20500
H  18.63800 -9.67700 48.47000
H  19.69000 -10.74100 47.30600
H  17.98100 -10.79100 47.21200
H  23.32600 -11.22700 49.69300
H  25.08700 -9.53700 51.28400
H  21.77600 -10.72900 51.46600
H  21.64300 -9.14600 50.82700
H  22.97300 -9.38600 51.95200
H  26.41300 -10.83800 48.91900
H  25.57800 -12.04100 49.81900
H  27.16100 -12.17900 51.21800
H  27.04300 -10.36500 51.53800
H  28.12700 -10.96400 50.29700
H  29.11700 -7.79800 49.97300
H  29.27800 -6.05600 50.57300
H  30.05600 -6.55500 49.10700
H  28.21500 -3.29300 45.41400
H  27.75800 0.38700 47.50500
H  26.53200 0.57600 46.19000
H  28.24400 0.92900 45.82300
Mg 47.50900 24.85500 28.02100
C  48.22300 27.24600 30.53000
C  46.84700 22.54300 30.50100
C  47.07400 22.50400 25.68000
C  48.46700 27.20900 25.52900
N  47.62900 24.97500 30.22800
C  47.81300 26.04800 31.04200
C  47.44700 25.76300 32.56400
C  47.23900 24.15500 32.46400
C  47.23700 23.86200 30.96200
C  48.19800 23.28800 33.27500
C  46.25000 26.62200 33.06700
C  45.63000 26.15700 34.45500
H  45.87400 26.98900 35.74900
N  46.99000 22.82200 28.09300
C  46.81300 22.05500 29.19200
C  46.55700 20.69300 28.82000
C  46.56200 20.61300 27.38300
C  46.85500 22.03100 26.99000
C  46.25400 19.64700 29.76900
C  46.28000 19.42300 26.41400
O  46.11500 19.47100 25.20200
C  46.05300 17.93900 26.89300
N  47.95000 24.86300 25.97000
C  47.62500 23.70300 25.24000
C  47.72100 24.00600 23.73100
C  47.89900 25.56000 23.62200
C  48.09900 25.94700 25.12900
C  48.86900 23.25900 22.97500
C  46.69900 26.38000 22.98600
C  45.35800 26.57900 23.73400
N  48.38000 26.81400 27.97400
C  48.71300 27.62100 26.91500
C  48.98800 28.92700 27.42400
C  48.85200 28.81600 28.81400
C  48.42700 27.53300 29.13600
C  49.54500 30.12000 26.61600
C  49.02900 29.58000 30.05000
O  49.46700 30.64600 30.24900
C  48.44200 28.58300 31.18900
C  49.42300 28.57300 32.33300
O  50.47800 27.96300 32.37500
O  48.97100 29.42600 33.31200
C  49.78600 29.36200 34.48200
H  46.81000 21.81500 31.31400
H  46.80200 21.84100 24.85600
H  48.63500 27.99800 24.79300
H  48.18900 25.84500 33.35800
H  46.23000 23.91700 32.80000
H  48.98300 23.95300 33.63400
H  48.52900 22.51100 32.58600
H  47.67100 22.84000 34.11900
H  45.50200 26.71500 32.28000
H  46.71700 27.58200 33.28600
H  45.92600 25.14100 34.71600
H  44.54500 26.15000 34.35100
H  46.99600 18.85200 29.83800
H  45.29400 19.18500 29.53600
H  46.21700 20.01500 30.79400
H  45.02600 17.88500 27.25600
H  46.76300 17.69400 27.68300
H  46.14800 17.16100 26.13500
H  46.75800 23.72700 23.30100
H  48.82000 25.80100 23.09200
H  49.14700 22.44100 23.64000
H  49.75400 23.85000 22.73700
H  48.48400 22.76300 22.08400
H  46.43000 26.06900 21.97700
H  47.21900 27.33400 22.89700
H  45.55800 27.35800 24.46900
H  45.00200 25.67000 24.22100
H  44.62600 27.02500 23.06000
H  50.63200 30.13300 26.54500
H  49.24100 31.02100 27.15000
H  49.19500 30.11700 25.58300
H  47.46300 28.96900 31.47400
H  49.62400 30.25100 35.09100
H  50.83100 29.09700 34.32200
H  49.39600 28.53100 35.06900

