158

Mg 2.95900 -0.88400 44.00900
C  6.46300 -0.31600 43.70600
C  2.49800 1.73300 41.71600
C  -0.26500 -1.87700 43.79600
C  3.71500 -3.80700 45.81500
N  4.38900 0.56400 42.95300
C  5.69300 0.62100 42.97500
C  6.20200 1.63400 41.93600
C  4.90500 2.28800 41.41400
C  3.78700 1.52600 42.08400
C  4.76000 3.85000 41.64200
C  7.12500 1.00500 40.80600
C  8.38400 1.77900 40.42600
H  8.21100 2.37900 39.01000
N  1.33800 -0.11100 43.01600
C  1.35700 0.97400 42.14500
C  -0.03400 1.25700 41.79500
C  -0.86200 0.29600 42.43700
C  0.03300 -0.61900 43.16000
C  -0.42100 2.48800 41.05300
C  -2.32200 0.24800 42.46000
O  -2.90100 1.10800 41.83500
C  -3.17900 -0.73000 43.21300
N  1.83300 -2.59200 44.79600
C  0.51900 -2.69600 44.62700
C  0.12400 -4.04200 45.04900
C  1.24800 -4.51000 46.05000
C  2.32900 -3.62500 45.50300
C  -1.23000 -4.13700 45.74200
C  1.53500 -6.08200 45.87600
C  1.88800 -6.74500 47.24500
N  4.70700 -1.90700 44.61600
C  4.85600 -3.05600 45.30900
C  6.27000 -3.33200 45.55500
C  6.95500 -2.23000 44.98000
C  5.92700 -1.44700 44.36400
C  6.86100 -4.47000 46.24400
C  8.24900 -1.62200 44.75600
O  9.41000 -2.01700 44.90200
C  7.98200 -0.34600 43.86000
C  8.25500 0.86400 44.66600
O  8.13100 1.02500 45.90200
O  8.65500 1.87200 43.80200
C  8.92300 3.18300 44.35900
H  2.13000 2.56500 41.11100
H  -1.25700 -2.29700 43.61900
H  4.06500 -4.74400 46.25200
H  6.79300 2.43100 42.38700
H  4.77500 2.08700 40.35100
H  4.12000 4.05700 42.50000
H  4.37200 4.46000 40.82600
H  5.74400 4.14500 42.00600
H  6.50200 0.85800 39.92300
H  7.40700 -0.02900 41.00800
H  9.29600 1.19800 40.55700
H  8.42700 2.67100 41.05000
H  -1.16000 2.26400 40.28400
H  0.40200 2.87300 40.45200
H  -0.84100 3.24800 41.71200
H  -2.93900 -0.75200 44.27600
H  -3.01600 -1.68900 42.72100
H  -4.24900 -0.52500 43.26300
H  0.10500 -4.70200 44.18200
H  1.04000 -4.12600 47.04900
H  -1.05700 -4.65600 46.68500
H  -1.90500 -4.71900 45.11500
H  -1.72600 -3.18000 45.89800
H  2.38400 -6.30300 45.22800
H  0.67400 -6.51100 45.36200
H  1.13200 -7.50300 47.45000
H  2.01300 -6.03700 48.06400
H  2.86200 -7.19300 47.04800
H  7.48800 -5.05500 45.57200
H  6.08200 -5.11400 46.65100
H  7.54200 -4.18000 47.04500
H  8.57300 -0.46500 42.95200
H  8.32100 3.29600 45.26100
H  8.72500 3.91200 43.57400
H  9.98800 3.08200 44.57100
Mg -12.32300 37.99800 41.91500
C  -10.23300 35.40700 40.83300
C  -10.28000 40.21000 40.15200
C  -14.52800 40.41600 42.50500
C  -14.24700 35.69700 43.44200
N  -10.59400 37.73800 40.58100
C  -9.88900 36.61300 40.29400
C  -8.83800 36.86100 39.19400
C  -8.71200 38.43300 39.33900
C  -10.02200 38.87000 40.03900
C  -7.44200 38.84700 40.21300
C  -9.03200 36.23500 37.76900
C  -7.78800 35.47900 37.17200
H  -6.78600 36.37600 36.30500
N  -12.34400 40.12600 41.50000
C  -11.41300 40.76800 40.81600
C  -11.84800 42.16800 40.81200
C  -13.16400 42.30400 41.44800
C  -13.39000 40.91000 41.88800
C  -11.02900 43.14800 40.16700
C  -13.94200 43.54800 41.73400
O  -13.51800 44.66000 41.44000
C  -15.30800 43.54400 42.34900
N  -14.14100 38.05400 42.69100
C  -14.89200 39.14600 42.88500
C  -16.21100 38.80500 43.72600
C  -16.12800 37.24700 43.94200
C  -14.77700 36.98500 43.29900
C  -16.19100 39.64400 44.94000
C  -17.21300 36.39200 43.26900
C  -17.91500 35.33600 44.09200
N  -12.32400 35.90600 42.06900
C  -13.07800 35.13500 42.93000
C  -12.53600 33.76800 43.09600
C  -11.32600 33.80600 42.32200
C  -11.31800 35.10200 41.67900
C  -12.99700 32.64900 43.99600
C  -10.15500 33.17500 41.81800
O  -9.73400 32.03900 42.01700
C  -9.55300 34.07800 40.65400
C  -8.03000 34.14600 40.77100
O  -7.24200 34.79600 41.46200
O  -7.57000 33.17300 39.90800
C  -6.11900 33.07600 39.83200
H  -9.58200 40.87300 39.63700
H  -15.32200 41.15000 42.65400
H  -14.81400 34.91200 43.94600
H  -7.88000 36.49500 39.56300
H  -8.67000 38.93800 38.37400
H  -6.81200 38.05200 40.61300
H  -7.82300 39.39200 41.07600
H  -6.81500 39.55200 39.66700
H  -9.26100 36.93300 36.96300
H  -9.78500 35.44900 37.81400
H  -8.14200 34.64700 36.56300
H  -7.24100 35.01200 37.99100
H  -11.66200 43.98600 39.87600
H  -10.48000 42.86700 39.26800
H  -10.29700 43.40000 40.93400
H  -15.97600 42.91200 41.76300
H  -15.66400 44.56000 42.52300
H  -15.26400 43.09400 43.34000
H  -17.09500 39.08000 43.15100
H  -16.07200 37.05700 45.01300
H  -15.13000 39.75300 45.16900
H  -16.60100 39.05900 45.76300
H  -16.73200 40.58900 44.89600
H  -16.74200 35.80900 42.47700
H  -17.88900 37.08800 42.77300
H  -17.96100 35.52200 45.16500
H  -17.61700 34.28900 44.03000
H  -18.91000 35.25700 43.65500
H  -12.36200 31.77100 43.87500
H  -14.03600 32.39800 43.78400
H  -13.11400 32.98200 45.02700
H  -9.95400 33.66500 39.72900
H  -5.69800 32.67400 40.75400
H  -5.74500 34.08400 39.65300
H  -5.87300 32.29100 39.11700

