158

Mg 0.88600 7.44100 25.44300
C  1.76700 9.46600 28.05600
C  1.27000 4.74400 27.54700
C  0.35800 5.46400 22.89200
C  1.01800 10.23800 23.29800
N  1.56000 7.07700 27.59000
C  1.67300 8.13000 28.47200
C  1.76500 7.57400 29.90400
C  1.87100 6.00800 29.72200
C  1.44800 5.92900 28.25000
C  3.24500 5.27500 30.16300
C  0.52500 8.05400 30.80700
C  0.67800 7.76500 32.23200
H  2.01400 7.32000 32.83500
N  0.77800 5.39400 25.24900
C  0.99600 4.47200 26.25100
C  0.78500 3.11700 25.72800
C  0.49900 3.24900 24.30500
C  0.52400 4.73800 24.07200
C  0.84200 1.92600 26.58600
C  0.19100 2.20000 23.23800
O  0.19600 2.52600 22.02800
C  0.07300 0.69500 23.67000
N  0.90100 7.77000 23.36800
C  0.44900 6.85800 22.50300
C  0.15200 7.40000 21.09900
C  0.30300 8.91700 21.26700
C  0.75200 8.97100 22.76100
C  1.12000 6.76200 20.10500
C  -1.14800 9.56100 21.08600
C  -1.06500 10.86300 20.30200
N  1.34000 9.52700 25.61500
C  1.29000 10.53900 24.66900
C  1.57400 11.76800 25.35200
C  1.83600 11.39100 26.59400
C  1.63000 10.03100 26.70300
C  1.52200 13.18200 24.76200
C  2.15000 11.93600 27.93200
O  2.42300 13.10600 28.25400
C  2.09200 10.65100 28.94000
C  3.31900 10.61300 29.69200
O  4.19700 9.85000 29.52900
O  3.17600 11.48900 30.75800
C  4.23700 11.35100 31.72400
H  1.32300 3.91300 28.25400
H  0.05100 4.75500 22.12000
H  1.17600 11.09300 22.63800
H  2.70600 7.90900 30.34100
H  1.12300 5.62100 30.41500
H  3.09400 4.39400 30.78700
H  3.90000 5.95700 30.70400
H  3.73200 4.93500 29.24800
H  -0.42100 7.62900 30.47100
H  0.51000 9.14400 30.77000
H  -0.08100 7.02900 32.49600
H  0.30300 8.65600 32.73700
H  0.91700 2.08600 27.66100
H  1.53400 1.10700 26.38500
H  -0.11700 1.44500 26.39300
H  -0.73300 0.57000 24.39300
H  0.96500 0.41200 24.23000
H  -0.16300 0.00700 22.85800
H  -0.80300 7.09300 20.67200
H  1.12500 9.30300 20.66400
H  0.79700 5.77100 19.78500
H  2.12000 6.68400 20.53100
H  1.23300 7.36900 19.20600
H  -1.58100 9.81600 22.05400
H  -1.80100 8.81900 20.62700
H  -1.43000 11.68100 20.92400
H  -1.63200 10.75100 19.37800
H  -0.00500 11.02300 20.10600
H  0.57600 13.33800 24.24400
H  2.31300 13.41500 24.04800
H  1.63400 13.98400 25.49200
H  1.23300 10.84900 29.58200
H  5.09900 11.81500 31.24300
H  4.51600 10.33600 32.00800
H  3.94800 11.95600 32.58300
Mg 25.53100 -8.06700 47.36700
C  27.49400 -5.42600 46.58300
C  23.29700 -7.15100 44.85800
C  23.65700 -10.72700 48.13200
C  28.23200 -9.53100 49.35200
N  25.47300 -6.58800 45.84900
C  26.48800 -5.65300 45.66400
C  26.01300 -4.59400 44.52400
C  24.64400 -5.15400 44.08800
C  24.42900 -6.38100 44.97300
C  23.39400 -4.15300 44.21700
C  27.09100 -4.59400 43.51000
C  27.49000 -3.11000 43.07400
H  27.17500 -2.69000 41.63300
N  23.70500 -8.85800 46.59700
C  22.93600 -8.30100 45.57500
C  21.78500 -9.13700 45.42100
C  21.87500 -10.24000 46.35500
C  23.09100 -9.94500 47.14200
C  20.73100 -8.92900 44.37200
C  20.83600 -11.40800 46.43100
O  19.78500 -11.40300 45.78300
C  21.12500 -12.61300 47.18400
N  25.90800 -9.93100 48.54900
C  24.90700 -10.78500 48.79900
C  25.29900 -11.88700 49.78300
C  26.88700 -11.69300 49.83200
C  27.05400 -10.34700 49.22100
C  24.52800 -11.69400 51.15000
C  27.65500 -12.70700 49.03500
C  29.16600 -12.85700 49.42400
N  27.42700 -7.62100 47.90800
C  28.39000 -8.26400 48.65400
C  29.60300 -7.42600 48.70400
C  29.25300 -6.19500 48.03700
C  27.94900 -6.41300 47.48800
C  30.95700 -7.73200 49.32400
C  29.67300 -4.84100 47.66100
O  30.71500 -4.24100 47.84900
C  28.50800 -4.28000 46.74300
C  27.76600 -3.24500 47.47900
O  27.00300 -3.45600 48.45600
O  27.98800 -2.02000 46.85900
C  27.18500 -0.89600 47.42100
H  22.63300 -6.78900 44.07000
H  23.06400 -11.51900 48.59400
H  29.02300 -9.96800 49.96500
H  25.81400 -3.64200 45.01500
H  24.65000 -5.58300 43.08600
H  23.77800 -3.14000 44.09800
H  23.08400 -4.09500 45.26100
H  22.62200 -4.31600 43.46500
H  26.86300 -5.08200 42.56200
H  27.96400 -5.11400 43.90300
H  28.56300 -2.98100 43.21600
H  26.98400 -2.37800 43.70300
H  21.09000 -9.34100 43.42900
H  20.60600 -7.87400 44.13100
H  19.76300 -9.38900 44.57100
H  20.97400 -12.40300 48.24300
H  22.19500 -12.79800 47.08600
H  20.50500 -13.43300 46.82400
H  24.96900 -12.82100 49.32800
H  27.11200 -11.84800 50.88700
H  23.86800 -12.53900 51.34400
H  23.89600 -10.80700 51.10800
H  25.23200 -11.48900 51.95600
H  27.37100 -12.59600 47.98800
H  27.22100 -13.62300 49.43500
H  29.68900 -12.28700 48.65700
H  29.61300 -13.85000 49.36400
H  29.59000 -12.44200 50.33900
H  30.77400 -8.54800 50.02400
H  31.39600 -6.84800 49.78500
H  31.68000 -8.08000 48.58600
H  29.00700 -3.88500 45.85800
H  27.26000 0.07900 46.94000
H  27.35400 -0.79100 48.49300
H  26.14300 -1.20200 47.51600

