158

Mg 17.09600 52.03000 26.26700
C  19.09700 50.40600 28.63400
C  14.65000 52.40300 28.69700
C  15.06700 53.52900 24.03900
C  19.25400 51.05500 23.85100
N  17.03900 51.57600 28.48500
C  17.90600 50.92900 29.25600
C  17.35100 50.76000 30.69400
C  15.84800 51.07500 30.47400
C  15.83900 51.77300 29.13700
C  14.90200 49.79900 30.52500
C  18.04500 51.72200 31.69900
C  18.26800 50.98000 32.99900
H  17.25100 51.32300 34.10400
N  15.13900 52.96200 26.36600
C  14.35300 53.04000 27.45100
C  13.09000 53.70400 27.09600
C  13.30700 54.16400 25.78500
C  14.51700 53.50300 25.28900
C  11.95500 53.96700 28.16900
C  12.42000 54.92700 24.93100
O  12.61000 54.93500 23.69800
C  11.23400 55.60500 25.52100
N  16.98600 52.11200 24.24900
C  16.17100 52.87700 23.54500
C  16.50300 52.87600 22.05200
C  17.79700 52.08200 21.99400
C  18.07700 51.73000 23.47000
C  15.33600 52.36400 21.11100
C  18.95900 52.70000 21.11000
C  19.89100 53.78900 21.75500
N  18.86300 50.88000 26.20700
C  19.66800 50.60200 25.13300
C  20.78200 49.75200 25.58400
C  20.66700 49.71700 26.97200
C  19.46000 50.42000 27.28400
C  21.81000 49.13300 24.68200
C  21.29000 49.32400 28.21600
O  22.34500 48.78100 28.47600
C  20.33000 49.76700 29.27300
C  19.95600 48.75400 30.23900
O  19.03100 47.96400 30.20700
O  20.89300 48.81300 31.23500
C  20.67100 47.93800 32.39200
H  13.91500 52.41000 29.50400
H  14.65400 54.18000 23.26600
H  20.03700 50.73500 23.16000
H  17.36900 49.69300 30.91800
H  15.45300 51.80400 31.18100
H  13.88300 50.17800 30.61300
H  15.10900 49.23900 31.43600
H  15.09200 49.13100 29.68500
H  17.34800 52.51700 31.96200
H  18.99100 52.13200 31.34600
H  19.27600 51.20700 33.34500
H  18.25500 49.91100 32.78600
H  11.98200 55.02500 28.42700
H  12.05300 53.28200 29.01100
H  11.05100 53.66000 27.64300
H  10.84900 56.32900 24.80300
H  11.49400 56.20900 26.39000
H  10.45000 54.90800 25.81900
H  16.73900 53.92500 21.87300
H  17.68200 51.08200 21.57500
H  15.71300 51.70900 20.32600
H  14.80900 53.22600 20.70300
H  14.68600 51.74000 21.72500
H  18.49900 53.19000 20.25200
H  19.67600 51.95500 20.76400
H  20.92100 53.48200 21.93600
H  19.62000 54.23400 22.71300
H  19.98100 54.54100 20.97100
H  21.28700 48.88100 23.75900
H  22.24700 48.24700 25.14100
H  22.65300 49.80600 24.52400
H  20.72600 50.52600 29.94800
H  19.78900 48.14200 33.00000
H  21.58800 48.00800 32.97600
H  20.63700 46.94100 31.95300
Mg -12.80600 16.78500 42.64300
C  -9.64400 15.39700 41.76400
C  -11.65600 19.67300 41.07000
C  -15.89900 17.89600 42.56100
C  -13.84300 13.38600 43.12200
N  -10.91400 17.38600 41.40000
C  -9.73800 16.77400 41.50100
C  -8.63200 17.66800 40.90000
C  -9.14600 19.03800 41.05700
C  -10.63700 18.75500 41.24800
C  -8.52000 19.86300 42.23800
C  -8.12900 17.37900 39.49500
C  -6.59100 16.99200 39.29800
H  -6.43000 15.91900 38.24400
N  -13.63600 18.56900 42.08700
C  -13.01300 19.59300 41.38900
C  -13.94700 20.66400 41.15600
C  -15.23600 20.24200 41.64300
C  -14.98600 18.87900 42.15500
C  -13.47100 21.98500 40.67100
C  -16.57500 21.05400 41.49800
O  -16.63300 22.19000 40.99600
C  -17.87400 20.48400 41.85400
N  -14.62000 15.72500 42.64500
C  -15.80200 16.47600 42.72600
C  -17.00400 15.62000 42.95200
C  -16.36400 14.20500 43.18400
C  -14.86400 14.39500 42.96600
C  -17.92700 16.12600 44.12500
C  -16.95100 13.11100 42.22000
C  -16.25800 12.69900 40.86900
N  -11.86800 14.78400 42.80400
C  -12.47400 13.53300 43.03700
C  -11.49100 12.53500 43.00700
C  -10.34400 13.22000 42.57800
C  -10.63600 14.55600 42.33800
C  -11.60700 11.11200 43.29100
C  -8.92000 13.08400 42.23400
O  -8.15600 12.14800 42.32800
C  -8.47200 14.42000 41.56200
C  -7.27300 14.82800 42.25300
O  -7.24100 15.30800 43.39900
O  -6.13100 14.46400 41.61000
C  -4.98600 14.21200 42.51300
H  -11.36100 20.64000 40.65700
H  -16.92700 18.20600 42.76100
H  -14.18600 12.41400 43.48300
H  -7.84700 17.48300 41.63400
H  -9.07700 19.73100 40.21800
H  -8.11500 20.77800 41.80700
H  -7.72400 19.34400 42.77300
H  -9.21700 20.09400 43.04300
H  -8.13800 18.33000 38.96300
H  -8.77500 16.68600 38.95500
H  -6.20000 16.56600 40.22200
H  -6.16000 17.93400 38.95800
H  -13.28700 22.09400 39.60200
H  -12.58800 22.30200 41.22400
H  -14.13600 22.82700 40.86400
H  -18.60500 21.22900 41.54100
H  -18.10400 20.31900 42.90700
H  -18.01600 19.61100 41.21800
H  -17.56300 15.77500 42.02900
H  -16.59000 13.82400 44.18000
H  -18.16800 15.21300 44.67000
H  -18.82600 16.55400 43.68300
H  -17.50200 16.86900 44.80000
H  -18.01700 13.29900 42.09200
H  -16.88400 12.26400 42.90200
H  -15.60200 11.85700 41.09000
H  -15.49400 13.45400 40.68500
H  -16.96000 12.51500 40.05600
H  -11.72100 10.60500 42.33300
H  -12.46500 10.95600 43.94500
H  -10.71700 10.77000 43.81900
H  -8.31700 14.30300 40.49000
H  -5.06300 13.45300 43.29200
H  -4.62800 15.13800 42.96300
H  -4.13200 13.79900 41.97700

