158

Mg 6.79800 53.95500 41.65700
C  6.18200 50.51000 41.55500
C  10.04300 53.38200 40.49300
C  6.93300 57.18100 40.81700
C  3.32000 54.30600 42.31700
N  7.82700 52.12700 40.90900
C  7.49000 50.84300 41.10600
C  8.69200 49.89600 40.96600
C  9.81800 50.92400 41.14600
C  9.19800 52.21900 40.75600
C  10.65400 51.00300 42.49300
C  8.74100 48.95800 39.63800
C  8.78800 49.79700 38.35600
H  7.76200 49.40800 37.27200
N  8.23600 55.13800 40.73500
C  9.54800 54.67700 40.36900
C  10.26000 55.80200 39.91600
C  9.33600 56.88200 39.76600
C  8.08700 56.43400 40.42100
C  11.66400 55.75200 39.29700
C  9.62100 58.17300 39.07600
O  10.73900 58.35900 38.62000
C  8.42500 59.20300 38.82200
N  5.34600 55.43500 41.59100
C  5.77100 56.71200 41.35300
C  4.58100 57.78400 41.65600
C  3.37200 56.79600 41.64200
C  4.04100 55.47900 41.87400
C  4.83000 58.49400 43.03300
C  2.35100 56.72200 40.48700
C  0.91200 56.38000 40.85100
N  5.12800 52.75200 42.09100
C  3.80900 53.01800 42.46000
C  3.04600 51.78200 42.76500
C  3.98300 50.78500 42.34600
C  5.18900 51.42000 41.90100
C  1.67100 51.63000 43.21200
C  4.12500 49.37500 42.25500
O  3.28500 48.52600 42.57500
C  5.58700 49.06400 41.73800
C  5.39200 48.39400 40.49200
O  4.85600 48.92300 39.48800
O  5.75300 47.14500 40.59500
C  5.51900 46.20700 39.41500
H  11.12900 53.26800 40.48300
H  6.90600 58.27200 40.77700
H  2.25900 54.43900 42.53700
H  8.62600 49.14900 41.75700
H  10.55200 50.65300 40.38700
H  10.71200 52.01300 42.89800
H  11.66700 50.61300 42.39100
H  10.24200 50.37300 43.28100
H  7.93700 48.22300 39.65500
H  9.67200 48.39400 39.69400
H  9.76600 49.79500 37.87400
H  8.74000 50.86100 38.59000
H  11.61300 55.98600 38.23400
H  12.16000 54.79000 39.41900
H  12.23100 56.58900 39.70400
H  7.61200 58.55700 38.48900
H  8.70400 59.83100 37.97600
H  8.25000 59.74300 39.75300
H  4.45000 58.56500 40.90600
H  2.81000 56.94500 42.56400
H  3.88000 58.50200 43.56700
H  5.15000 59.53500 42.97400
H  5.45900 57.97700 43.75800
H  2.57300 55.86700 39.84700
H  2.45300 57.63000 39.89300
H  0.90500 56.01600 41.87900
H  0.60400 55.53000 40.24200
H  0.30400 57.23500 40.55600
H  1.58600 50.66200 43.70600
H  1.14800 51.55900 42.25800
H  1.56400 52.51200 43.84200
H  6.24000 48.40000 42.30400
H  6.48000 45.74500 39.19100
H  5.25200 46.63300 38.44800
H  4.69200 45.52800 39.62400
Mg 17.01000 51.49800 26.56600
C  19.02500 50.33100 29.11500
C  14.66200 52.55000 28.90700
C  15.07400 52.78400 24.11300
C  19.42600 50.55400 24.23600
N  16.90400 51.54500 28.68400
C  17.88300 51.04600 29.54400
C  17.40900 51.32300 30.98400
C  15.85600 51.48700 30.91400
C  15.74300 51.80200 29.38800
C  14.98300 50.29200 31.29500
C  18.18600 52.45100 31.69200
C  18.14700 52.42400 33.18900
H  17.10800 51.65400 33.90300
N  15.03800 52.58500 26.56300
C  14.26900 52.88200 27.66300
C  13.11700 53.50400 27.10600
C  13.21400 53.71300 25.70900
C  14.48700 52.99300 25.38400
C  12.07300 54.02700 28.14000
C  12.29600 54.28400 24.71900
O  12.52300 54.34500 23.53600
C  11.11400 55.02400 25.20000
N  17.17400 51.56000 24.44600
C  16.22400 52.04900 23.73500
C  16.74700 52.22600 22.25700
C  18.12800 51.55100 22.30300
C  18.27700 51.20500 23.73000
C  15.85400 51.53000 21.12600
C  19.29500 52.44000 21.78600
C  20.16800 51.96000 20.52500
N  18.74800 50.49800 26.59500
C  19.57600 50.12400 25.57300
C  20.80700 49.49900 26.13500
C  20.58900 49.50900 27.60200
C  19.32600 50.14200 27.76000
C  22.02200 49.01200 25.32000
C  21.07200 49.17000 28.93000
O  22.04300 48.53900 29.30300
C  20.10700 49.69500 29.88700
C  19.61300 48.56500 30.62400
O  18.90400 47.66000 30.17400
O  19.89100 48.73700 31.96600
C  19.39500 47.85800 32.97600
H  14.05000 53.00700 29.68800
H  14.60600 53.33500 23.29500
H  20.23300 50.29900 23.54600
H  17.64700 50.44100 31.57900
H  15.63500 52.39700 31.47300
H  14.07700 50.64500 31.78800
H  15.64200 49.62300 31.84800
H  14.55700 49.88200 30.37900
H  17.84900 53.45800 31.44400
H  19.19300 52.45900 31.27600
H  18.10500 53.43700 33.59100
H  19.08500 51.93500 33.44900
H  12.24500 53.72800 29.17400
H  11.13000 53.57100 27.83800
H  12.10400 55.11700 28.13700
H  10.37000 55.27200 24.44300
H  11.30900 56.00200 25.64000
H  10.59400 54.33600 25.86600
H  16.66600 53.30600 22.13300
H  18.18100 50.60100 21.77200
H  15.50800 52.33200 20.47400
H  15.01700 51.01200 21.59300
H  16.35500 50.88600 20.40300
H  19.91500 52.60500 22.66700
H  18.97300 53.46700 21.61100
H  20.36000 52.73800 19.78600
H  19.58000 51.20200 20.00700
H  21.16500 51.61600 20.80000
H  22.25200 49.65900 24.47300
H  21.93300 47.95900 25.05300
H  22.91900 49.17800 25.91700
H  20.47900 50.49000 30.53400
H  18.60700 47.18700 32.63500
H  19.07200 48.39800 33.86700
H  20.20500 47.22500 33.34100

