158

Mg 7.84600 2.95200 26.81400
C  8.90200 1.54700 29.75300
C  6.16700 5.38500 28.68500
C  6.56700 4.39800 23.93300
C  9.05200 0.24300 24.98500
N  7.57200 3.41900 28.98600
C  8.13600 2.69900 29.97300
C  7.90700 3.38200 31.32700
C  6.80900 4.48000 30.94500
C  6.86700 4.47900 29.44900
C  5.38300 4.13500 31.47800
C  9.21800 3.94300 31.92700
C  9.78300 3.50100 33.26700
H  9.89900 4.67100 34.28200
N  6.49500 4.61300 26.32900
C  5.98700 5.48100 27.27800
C  5.25300 6.55000 26.62000
C  5.36800 6.25000 25.17600
C  6.18000 5.09200 25.07500
C  4.50700 7.61900 27.33200
C  4.71300 7.00600 24.03400
O  4.90600 6.62500 22.85000
C  3.77000 8.11800 24.31900
N  7.87500 2.39900 24.79900
C  7.29300 3.20300 23.79100
C  7.27000 2.41700 22.46600
C  8.25800 1.19700 22.75500
C  8.39300 1.23600 24.29800
C  5.75400 1.92000 22.07600
C  9.67600 1.33700 22.12300
C  10.08000 0.21000 21.19600
N  8.68300 1.17000 27.23800
C  9.21900 0.22000 26.39100
C  9.93400 -0.71900 27.15100
C  9.76200 -0.24500 28.47300
C  9.03800 0.91600 28.47200
C  10.79300 -1.85700 26.69100
C  10.17900 -0.48600 29.85400
O  10.85900 -1.34100 30.36900
C  9.64600 0.74300 30.70700
C  8.89000 0.15700 31.90900
O  7.83500 -0.42400 31.89700
O  9.64700 0.29700 33.03600
C  9.24800 -0.25700 34.36900
H  5.67200 6.16200 29.27200
H  6.24000 4.64000 22.92000
H  9.44800 -0.58400 24.39300
H  7.52900 2.72100 32.10700
H  7.01700 5.44900 31.39700
H  5.32300 3.33300 32.21400
H  4.73800 3.84100 30.65000
H  4.84300 4.97900 31.90700
H  9.05900 5.01400 32.05500
H  10.06000 3.71000 31.27600
H  10.66000 2.92400 32.97300
H  9.10300 2.77500 33.71100
H  3.48700 7.23500 27.31200
H  4.51100 8.65400 26.99000
H  4.77300 7.70800 28.38500
H  2.93800 7.65900 24.85200
H  3.34300 8.37400 23.34900
H  4.16900 9.02300 24.77700
H  7.78800 3.07100 21.76400
H  7.73900 0.27400 22.49800
H  5.09600 2.13900 22.91700
H  5.78400 0.86800 21.79000
H  5.43100 2.47400 21.19600
H  10.41400 1.48800 22.91100
H  9.67900 2.29900 21.61100
H  10.12100 0.73100 20.23900
H  9.31400 -0.54300 21.01200
H  11.08600 -0.12400 21.44900
H  11.30300 -2.28800 27.55200
H  11.44800 -1.45700 25.91700
H  10.26700 -2.64000 26.14400
H  10.52700 1.34800 30.92000
H  10.05200 -0.91500 34.69600
H  8.30500 -0.80300 34.40200
H  9.12100 0.57600 35.06100
Mg 25.61600 2.02300 30.31000
C  27.74200 1.84200 33.03900
C  23.09600 2.49300 32.62100
C  23.32000 1.77900 27.78400
C  28.13300 1.28600 28.15200
N  25.41300 2.02500 32.69800
C  26.47300 2.13500 33.52200
C  26.00900 2.47000 35.02300
C  24.48600 2.69800 34.80700
C  24.27500 2.40100 33.29400
C  23.56800 1.78000 35.66000
C  26.80300 3.72900 35.57800
C  27.59600 3.60900 36.85400
H  27.32300 4.59700 37.94700
N  23.51800 2.00800 30.31700
C  22.64800 2.30300 31.31200
C  21.25900 2.27000 30.78900
C  21.31200 1.95300 29.45200
C  22.78900 1.84400 29.13400
C  19.98800 2.49000 31.62500
C  20.14900 1.61600 28.48400
O  20.38300 1.35100 27.31200
C  18.70200 1.71300 28.97200
N  25.66900 1.56100 28.22300
C  24.68000 1.73300 27.34900
C  25.19100 1.95800 25.88800
C  26.67200 1.53300 26.03900
C  26.87800 1.51700 27.54600
C  24.33100 1.21000 24.86100
C  27.67000 2.41900 25.33700
C  27.80400 3.87900 25.75100
N  27.53100 1.60500 30.48100
C  28.47900 1.33900 29.57300
C  29.74400 1.13200 30.21700
C  29.48500 1.22900 31.56000
C  28.14600 1.61600 31.70200
C  31.07900 0.66300 29.59800
C  30.09400 1.10800 32.87700
O  31.27000 0.85400 33.13200
C  28.97100 1.51500 33.95000
C  28.70500 0.44100 35.01400
O  27.83700 -0.40400 34.84100
O  29.50500 0.52300 36.10000
C  29.25800 -0.37600 37.19900
H  22.29000 2.79500 33.29200
H  22.55900 2.03000 27.04200
H  29.00100 1.20700 27.49500
H  26.26900 1.54500 35.53700
H  24.17800 3.74300 34.83600
H  23.40100 0.87000 35.08400
H  22.61200 2.30200 35.72100
H  23.89600 1.63600 36.68900
H  26.01800 4.45700 35.78300
H  27.48300 4.04900 34.78800
H  28.66200 3.65200 36.63100
H  27.39200 2.62500 37.27800
H  19.39100 3.31800 31.24300
H  20.11300 2.55700 32.70500
H  19.49700 1.54100 31.41000
H  18.03700 1.61300 28.11500
H  18.65700 2.65200 29.52500
H  18.37700 0.86600 29.57700
H  25.07400 3.02600 25.70600
H  26.69700 0.50200 25.68500
H  24.95200 0.51400 24.29800
H  23.85300 1.90100 24.16600
H  23.57500 0.58400 25.33500
H  27.55700 2.29500 24.26000
H  28.64500 1.95100 25.47600
H  28.80100 4.20400 26.04900
H  27.17400 4.13000 26.60500
H  27.47100 4.57700 24.98300
H  31.37200 1.32500 28.78200
H  31.00200 -0.35200 29.21000
H  31.82100 0.67100 30.39600
H  29.26100 2.45200 34.42500
H  28.77800 -1.26500 36.78800
H  28.66100 0.09200 37.98200
H  30.26300 -0.53500 37.58800

