158

Mg -2.13700 17.17300 26.43300
C  -2.77300 15.16800 29.21800
C  -2.40900 20.03800 28.68500
C  -1.99500 19.28800 23.83400
C  -2.21000 14.54300 24.46500
N  -2.84000 17.53700 28.64000
C  -2.74100 16.57000 29.57500
C  -2.55700 17.15300 30.96800
C  -2.74100 18.66500 30.86000
C  -2.61200 18.81700 29.29800
C  -3.96000 19.20800 31.52000
C  -1.18700 16.85400 31.63200
C  -0.90500 17.62400 32.95200
H  -0.70600 16.69800 34.20200
N  -2.21100 19.35500 26.27100
C  -2.37800 20.35300 27.29200
C  -2.48300 21.63000 26.64800
C  -2.21800 21.49800 25.26100
C  -2.07300 20.01500 25.02800
C  -2.66400 22.86100 27.55000
C  -2.12500 22.58600 24.22300
O  -1.93300 22.38000 23.04700
C  -2.21300 24.02300 24.66400
N  -2.04800 16.96800 24.45600
C  -2.08000 17.93600 23.54600
C  -2.19300 17.41400 22.12800
C  -1.94900 15.90900 22.34800
C  -2.12200 15.75300 23.85500
C  -3.45700 17.90600 21.40700
C  -0.53300 15.36100 21.85200
C  -0.45500 14.39200 20.67500
N  -2.40500 15.22900 26.74100
C  -2.39500 14.23000 25.77300
C  -2.45000 12.95400 26.44600
C  -2.59800 13.24100 27.83600
C  -2.57900 14.65900 27.90500
C  -2.53200 11.60600 25.75600
C  -2.72600 12.64700 29.16300
O  -2.87800 11.47400 29.52000
C  -2.79100 13.92400 30.12900
C  -1.53100 13.64000 30.86000
O  -0.39800 13.97200 30.39900
O  -1.72500 13.00100 31.97200
C  -0.51500 12.86300 32.79800
H  -2.40000 20.80900 29.45800
H  -2.09600 19.93800 22.96200
H  -2.06800 13.63300 23.87800
H  -3.34100 16.68800 31.56500
H  -1.89400 19.25000 31.21900
H  -3.63900 20.19300 31.86000
H  -4.33900 18.58200 32.32800
H  -4.73600 19.42800 30.78700
H  -0.41200 17.05300 30.89100
H  -1.28900 15.78200 31.79600
H  -1.57000 18.39100 33.34900
H  0.03700 18.15600 32.82100
H  -3.36100 23.54200 27.06200
H  -1.72400 23.29100 27.89700
H  -3.09400 22.55800 28.50500
H  -3.19600 24.31300 25.03500
H  -2.08200 24.67800 23.80200
H  -1.46700 24.19000 25.44000
H  -1.30200 17.79200 21.62500
H  -2.80600 15.42500 21.87800
H  -3.23000 18.07200 20.35400
H  -3.75300 18.88000 21.79700
H  -4.22900 17.13700 21.45000
H  0.02700 14.93600 22.68500
H  0.07000 16.17200 21.44300
H  -0.05600 13.46500 21.08700
H  0.10100 14.92800 19.90600
H  -1.51200 14.27900 20.43400
H  -1.79900 10.96200 26.24200
H  -2.51000 11.58000 24.66600
H  -3.49000 11.16100 26.02700
H  -3.58900 13.88100 30.87100
H  -0.83700 12.77700 33.83600
H  0.13900 13.73200 32.86100
H  -0.02500 11.90300 32.63400
Mg -11.88500 16.30900 40.76500
C  -8.72000 14.83400 40.34700
C  -10.52900 19.22100 39.31900
C  -15.04300 17.64600 40.45900
C  -13.25300 13.02400 40.89100
N  -9.78200 16.92000 39.93200
C  -8.66300 16.21000 40.05100
C  -7.55600 17.04900 39.44000
C  -8.11900 18.46600 39.29500
C  -9.55500 18.20800 39.54200
C  -7.44400 19.55200 40.14300
C  -7.06500 16.45800 38.11500
C  -5.48500 16.49500 37.86800
H  -5.01700 17.07600 36.56500
N  -12.65500 18.19500 40.10400
C  -11.90100 19.20500 39.60100
C  -12.76400 20.37000 39.27700
C  -14.10500 19.96500 39.67900
C  -13.99600 18.60300 40.20600
C  -12.21100 21.69100 38.83500
C  -15.34100 20.88000 39.56700
O  -15.23600 22.04300 39.21200
C  -16.70500 20.36800 39.93400
N  -13.84200 15.41700 40.53200
C  -14.96400 16.15200 40.55600
C  -16.21700 15.26100 40.50800
C  -15.65700 13.84300 40.82800
C  -14.14200 14.12500 40.80700
C  -17.37200 15.73800 41.39600
C  -16.17900 12.73700 39.81100
C  -17.01000 11.64900 40.45900
N  -11.20500 14.31500 40.76900
C  -11.87600 13.15100 40.86200
C  -10.89000 12.04000 40.87000
C  -9.67100 12.69200 40.72200
C  -9.90000 14.05000 40.62200
C  -11.13900 10.55600 41.04900
C  -8.22400 12.40600 40.58800
O  -7.62000 11.30800 40.62000
C  -7.58500 13.77300 40.26900
C  -6.60100 13.92900 41.36900
O  -6.78900 14.10600 42.57500
O  -5.39500 14.10200 40.79400
C  -4.26600 14.44100 41.63000
H  -10.05700 20.12800 38.93500
H  -16.05100 18.06600 40.48300
H  -13.72600 12.04200 40.95800
H  -6.69400 17.17600 40.09600
H  -8.01000 18.86700 38.28700
H  -6.39200 19.30200 40.27700
H  -8.00900 19.72700 41.05900
H  -7.48900 20.49000 39.58900
H  -7.47400 17.12200 37.35300
H  -7.41700 15.44800 37.90000
H  -5.15700 15.46500 38.01000
H  -5.00400 17.10000 38.63700
H  -11.45000 21.54400 38.06800
H  -11.66100 22.21800 39.61500
H  -12.86900 22.48900 38.49300
H  -17.37600 21.22300 39.85500
H  -16.69000 20.02300 40.96800
H  -17.04600 19.66100 39.17900
H  -16.54300 15.36200 39.47300
H  -15.87100 13.61400 41.87200
H  -17.06200 16.15000 42.35600
H  -17.91000 14.83200 41.67600
H  -18.09800 16.34600 40.85600
H  -15.37700 12.24000 39.26500
H  -16.84400 13.18300 39.07200
H  -16.64300 10.68900 40.09500
H  -18.06100 11.75700 40.19000
H  -16.86400 11.58600 41.53700
H  -11.35600 10.36400 42.09900
H  -10.29700 9.92900 40.75300
H  -12.08800 10.38400 40.54200
H  -7.12200 13.83800 39.28400
H  -4.59300 14.65400 42.64800
H  -3.93100 15.41900 41.28700
H  -3.51700 13.64800 41.63500

