158

Mg 48.92400 36.32100 28.16300
C  46.83900 34.52300 30.32700
C  48.87200 39.06700 30.25700
C  50.83100 38.04100 25.98000
C  48.54200 33.75000 25.89300
N  48.00400 36.69600 30.05800
C  47.32700 35.75100 30.83400
C  47.21900 36.29100 32.26100
C  47.56500 37.82500 32.17200
C  48.23300 37.89800 30.75000
C  46.28200 38.74900 32.21600
C  48.33100 35.60100 33.14200
C  47.84100 35.34300 34.61100
H  46.75600 36.24500 35.17000
N  49.63900 38.33300 28.04200
C  49.54900 39.29500 29.04400
C  50.12600 40.51100 28.57900
C  50.79100 40.24100 27.38400
C  50.44800 38.78800 27.09600
C  50.13500 41.78400 29.38500
C  51.80000 41.08800 26.62700
O  52.52300 40.58600 25.77600
C  51.95800 42.55500 26.92800
N  49.66300 35.88900 26.28000
C  50.41500 36.75600 25.57600
C  50.96000 36.11900 24.32900
C  50.32100 34.65600 24.36300
C  49.39000 34.81400 25.54700
C  50.64700 36.89900 22.96200
C  51.31200 33.42200 24.46600
C  51.17500 32.23100 23.41500
N  47.92000 34.47300 28.08200
C  47.85600 33.52500 27.11400
C  47.10500 32.36700 27.66000
C  46.67800 32.73100 28.92800
C  47.16800 34.03400 29.07700
C  46.87900 31.06500 27.00600
C  45.85200 32.32600 30.05300
O  45.28300 31.28300 30.28600
C  45.88100 33.60100 30.96100
C  46.07800 33.24500 32.41500
O  46.98000 32.51300 32.74900
O  44.90500 33.58500 33.16500
C  44.76300 32.78100 34.42300
H  49.00200 39.92200 30.92400
H  51.53700 38.45500 25.25800
H  48.47900 32.93100 25.17400
H  46.22500 35.94500 32.54300
H  48.20200 38.16200 32.99000
H  46.17900 39.43500 33.05700
H  45.34800 38.18800 32.22500
H  46.21800 39.28800 31.27000
H  49.19000 36.27100 33.19900
H  48.76200 34.72000 32.66700
H  48.68200 35.36900 35.30300
H  47.61400 34.27800 34.63100
H  50.09000 42.77800 28.94000
H  51.08900 41.79700 29.91300
H  49.40000 41.77800 30.18900
H  52.33100 42.75600 27.93200
H  51.00800 43.08500 26.85300
H  52.63900 42.82200 26.12000
H  52.01700 35.92800 24.51000
H  49.71900 34.47600 23.47300
H  50.03400 37.77500 23.17500
H  50.12500 36.26600 22.24500
H  51.47500 37.37200 22.43400
H  51.26600 33.05100 25.49000
H  52.34000 33.77600 24.37700
H  50.41400 32.40100 22.65200
H  50.92800 31.29300 23.91400
H  52.14900 32.09900 22.94400
H  47.15100 30.23400 27.65700
H  47.41000 30.81600 26.08700
H  45.81200 30.88700 26.86500
H  44.92300 34.10100 30.82200
H  45.56800 32.11400 34.73000
H  43.79100 32.28900 34.45000
H  44.75100 33.46300 35.27300
Mg -1.67100 34.43100 27.27700
C  -3.05300 32.53800 29.87500
C  0.15500 36.14100 29.59900
C  -0.33700 36.11500 24.70000
C  -3.47900 32.58800 25.05200
N  -1.65000 34.48200 29.41300
C  -2.24600 33.61900 30.29800
C  -1.93100 34.02900 31.73900
C  -0.97200 35.24000 31.59200
C  -0.86200 35.37100 30.09900
C  -1.61300 36.51300 32.10100
C  -1.29100 32.87700 32.53600
C  -0.94000 33.25400 34.04300
H  -1.43200 32.36400 35.22100
N  -0.25700 35.91700 27.19400
C  0.42400 36.42000 28.24300
C  1.55500 37.29400 27.74200
C  1.39300 37.32500 26.31500
C  0.20400 36.42800 25.99400
C  2.49900 38.09300 28.71600
C  2.24200 38.03000 25.40600
O  2.13800 37.97600 24.20500
C  3.41900 38.78800 25.82200
N  -1.98100 34.48000 25.15200
C  -1.31600 35.24700 24.27700
C  -1.53400 34.81600 22.80100
C  -2.34500 33.56900 22.99000
C  -2.63700 33.49400 24.51700
C  -2.27400 35.87300 21.93400
C  -1.49200 32.47800 22.38200
C  -0.50000 31.78200 23.29700
N  -3.03500 32.93600 27.37300
C  -3.68600 32.26900 26.34800
C  -4.62200 31.21100 26.91700
C  -4.37700 31.27600 28.30400
C  -3.38700 32.28800 28.50500
C  -5.59400 30.39600 26.19600
C  -4.61100 30.58500 29.56800
O  -5.33400 29.65300 29.82400
C  -3.72500 31.31000 30.62100
C  -4.73900 31.67700 31.67300
O  -5.84200 32.20000 31.53800
O  -4.23100 31.25100 32.87900
C  -5.10700 31.38200 34.09600
H  0.73800 36.63700 30.37800
H  0.27500 36.58000 23.92400
H  -3.80300 31.91100 24.25900
H  -2.93200 34.18900 32.14000
H  -0.00300 35.10800 32.07300
H  -2.54600 36.30700 32.62500
H  -1.72500 37.22500 31.28300
H  -0.99800 37.03500 32.83500
H  -0.27200 32.72500 32.18000
H  -1.88600 31.97000 32.43500
H  -1.35500 34.23700 34.26200
H  0.14200 33.37100 34.10400
H  2.43000 37.74600 29.74700
H  2.22800 39.14500 28.63400
H  3.52900 37.84600 28.45900
H  4.01400 39.01300 24.93700
H  4.01800 38.22000 26.53400
H  3.14800 39.74000 26.27900
H  -0.51800 34.70900 22.42300
H  -3.30200 33.47600 22.47700
H  -1.56400 36.17100 21.16300
H  -2.63300 36.75000 22.47400
H  -3.01600 35.32700 21.35200
H  -0.77700 32.83800 21.64200
H  -2.11800 31.68300 21.97800
H  -0.57500 32.11300 24.33300
H  0.53000 32.08700 23.11400
H  -0.37500 30.72100 23.08000
H  -5.23500 29.37200 26.29500
H  -5.52400 30.49800 25.11300
H  -6.59400 30.47900 26.62200
H  -2.98900 30.64000 31.06500
H  -5.81500 32.17400 33.85200
H  -4.41300 31.56700 34.91500
H  -5.60600 30.45400 34.37500

