158

Mg 9.18700 4.64400 27.58000
C  10.59000 3.11200 30.22300
C  7.40900 6.63700 29.79800
C  7.48200 5.95600 24.94700
C  10.90400 2.52500 25.33400
N  9.05300 4.91900 29.84200
C  9.73600 4.16500 30.70500
C  9.38800 4.51100 32.18700
C  8.34100 5.68000 32.03200
C  8.29700 5.78900 30.47900
C  6.93800 5.42300 32.67400
C  10.74000 4.92800 32.95000
C  10.50600 5.58700 34.24500
H  11.19700 5.11200 35.53900
N  7.73200 6.12200 27.40100
C  7.10800 6.81800 28.36400
C  6.23900 7.89800 27.80400
C  6.24600 7.61100 26.42100
C  7.17100 6.53800 26.20400
C  5.43900 8.90400 28.62300
C  5.52600 8.34100 25.32100
O  5.66000 8.01800 24.14700
C  4.58100 9.38500 25.55200
N  9.20600 4.35400 25.47800
C  8.33000 4.89500 24.62700
C  8.59900 4.39400 23.19100
C  9.85300 3.46500 23.23300
C  10.03500 3.45100 24.81100
C  7.36700 3.84200 22.45400
C  11.05400 4.03700 22.39100
C  11.75100 3.04900 21.55600
N  10.53200 3.08100 27.64100
C  11.08100 2.31200 26.74500
C  11.94800 1.36300 27.39800
C  11.76900 1.56600 28.77300
C  10.89700 2.67100 28.84200
C  12.74700 0.36300 26.70200
C  12.13300 1.14400 30.16400
O  12.83400 0.26000 30.59400
C  11.37000 2.12900 31.10600
C  10.51300 1.35100 32.06800
O  9.37000 0.89200 31.82600
O  11.15500 1.26200 33.29600
C  10.29600 1.06100 34.44200
H  6.84700 7.31400 30.44400
H  7.14700 6.42300 24.01800
H  11.56000 1.86700 24.75900
H  8.79900 3.67100 32.55500
H  8.91800 6.52500 32.41000
H  6.76900 4.49600 33.22200
H  6.15100 5.47200 31.92100
H  6.69300 6.29100 33.28600
H  11.43000 5.53300 32.36200
H  11.23300 3.99500 33.22100
H  9.43100 5.51500 34.40800
H  10.76700 6.64000 34.13900
H  4.38900 8.64900 28.76700
H  5.57200 9.83600 28.07400
H  5.91100 9.04200 29.59500
H  3.64700 9.19600 26.08100
H  4.35200 9.71400 24.53800
H  5.11700 10.20300 26.03400
H  8.87400 5.26900 22.60300
H  9.68900 2.42800 22.93900
H  7.16900 4.40200 21.54000
H  6.54500 3.87600 23.16900
H  7.58700 2.81600 22.16100
H  11.66600 4.32600 23.24600
H  10.92400 5.03300 21.96800
H  12.55700 2.56900 22.11200
H  12.15900 3.62700 20.72700
H  11.11200 2.24400 21.19300
H  13.40800 0.71300 25.90900
H  12.07000 -0.18900 26.05000
H  13.27700 -0.32200 27.36300
H  12.07400 2.76300 31.64600
H  9.25100 1.21500 34.17100
H  10.61200 1.76400 35.21300
H  10.35300 0.03600 34.80800
Mg -8.12000 39.19500 39.96700
C  -7.73300 35.87400 38.94600
C  -4.79000 39.76500 39.13900
C  -8.68900 42.56000 39.73100
C  -11.49600 38.66200 40.24500
N  -6.52700 38.06000 39.02800
C  -6.53600 36.67800 38.86000
C  -5.12000 36.21600 38.49000
C  -4.14300 37.37900 38.95600
C  -5.18300 38.48300 39.07200
C  -3.38400 37.10800 40.26400
C  -4.95100 35.84300 37.00500
C  -5.29800 36.96400 35.99400
H  -6.53500 36.74800 35.04800
N  -6.92100 40.96100 39.50900
C  -5.59500 40.94300 39.31600
C  -5.06900 42.26900 39.17400
C  -6.22300 43.16700 39.15100
C  -7.35400 42.23700 39.49700
C  -3.69200 42.70000 38.82600
C  -6.16200 44.67200 38.79400
O  -5.10200 45.31300 38.61100
C  -7.51000 45.38000 38.58900
N  -9.78300 40.47200 39.96900
C  -9.74800 41.80800 40.03700
C  -11.20600 42.31900 40.39600
C  -11.95800 41.10600 40.90400
C  -11.07300 39.95800 40.22900
C  -11.28200 43.53400 41.29000
C  -13.49800 40.93900 40.66200
C  -14.36200 40.46500 41.87100
N  -9.36600 37.55100 39.81700
C  -10.72600 37.50300 40.02500
C  -11.15000 36.09700 40.03000
C  -10.05000 35.47400 39.48100
C  -8.99000 36.40000 39.38800
C  -12.59800 35.55300 40.06600
C  -9.53600 34.22900 39.05600
O  -10.03300 33.11400 39.03400
C  -7.99400 34.38800 38.72100
C  -7.07200 33.59700 39.47700
O  -6.76000 33.77600 40.64400
O  -6.56200 32.57100 38.62100
C  -5.56800 31.63400 39.15400
H  -3.72500 39.97000 39.01500
H  -8.92300 43.62700 39.71700
H  -12.53800 38.36100 40.36600
H  -4.81500 35.37900 39.11700
H  -3.55900 37.67800 38.08600
H  -3.39100 36.06900 40.59300
H  -3.67500 37.76100 41.08700
H  -2.36400 37.48500 40.19700
H  -5.53200 34.92600 36.90500
H  -3.89100 35.61100 36.89800
H  -4.39300 37.15400 35.41700
H  -5.42300 37.89100 36.55400
H  -2.97300 41.88100 38.79600
H  -3.33900 43.38500 39.59700
H  -3.80400 43.22100 37.87400
H  -7.94500 45.55900 39.57300
H  -8.04600 44.65900 37.97100
H  -7.34100 46.30600 38.04100
H  -11.55700 42.53300 39.38600
H  -11.78200 40.96400 41.97000
H  -12.06700 43.45800 42.04100
H  -11.45700 44.46100 40.74300
H  -10.39500 43.52300 41.92300
H  -13.75900 40.26300 39.84800
H  -13.83100 41.95700 40.46100
H  -14.68300 39.42800 41.78300
H  -15.32000 40.98500 41.91900
H  -13.85000 40.52400 42.83100
H  -13.12900 36.38600 39.60700
H  -13.05700 35.15400 40.97000
H  -12.63100 34.73900 39.34200
H  -7.87300 34.15200 37.66300
H  -4.67600 31.66800 38.52900
H  -5.91100 30.59900 39.16300
H  -5.20000 31.97900 40.12000

