158

Mg 24.72500 -5.88100 45.41500
C  26.95600 -3.62700 43.90500
C  22.39200 -4.85400 43.03100
C  22.74800 -8.39100 46.23500
C  27.38600 -7.27300 47.12700
N  24.73400 -4.47000 43.64400
C  25.76500 -3.62500 43.23400
C  25.33800 -2.70900 42.11800
C  23.78000 -2.96100 42.03500
C  23.61200 -4.18700 42.93600
C  22.82700 -1.80600 42.46800
C  25.98200 -2.99200 40.77500
C  26.35100 -1.79300 39.81700
H  25.61300 -1.80400 38.51500
N  22.76900 -6.44600 44.85200
C  22.00000 -5.89900 43.89900
C  20.72700 -6.55300 43.89700
C  20.72200 -7.57900 44.88000
C  22.06000 -7.53600 45.42800
C  19.49300 -6.15400 43.01500
C  19.52400 -8.39200 45.20600
O  18.49600 -8.18200 44.58200
C  19.52600 -9.37500 46.28600
N  24.96900 -7.52100 46.64000
C  24.02400 -8.49800 46.70600
C  24.44500 -9.70600 47.49600
C  26.01900 -9.44200 47.67500
C  26.18300 -7.96900 47.11500
C  23.61800 -10.14300 48.71100
C  26.83700 -10.36400 46.72500
C  26.82900 -11.84300 47.05000
N  26.68500 -5.47600 45.62400
C  27.63600 -6.10100 46.46500
C  28.86100 -5.29000 46.38000
C  28.61600 -4.26300 45.45300
C  27.30800 -4.50700 44.97100
C  30.11800 -5.48400 47.15600
C  29.12400 -3.12600 44.78600
O  30.21900 -2.55100 44.84900
C  28.13100 -2.75100 43.61400
C  27.73200 -1.34500 43.59400
O  26.92300 -0.79600 44.29500
O  28.64300 -0.68200 42.86300
C  28.57000 0.72800 42.74000
H  21.58400 -4.43900 42.42500
H  22.15900 -9.27300 46.49500
H  28.27800 -7.68900 47.60000
H  25.29600 -1.66500 42.43000
H  23.40500 -3.01200 41.01300
H  22.06300 -2.27000 43.09300
H  22.28300 -1.41900 41.60600
H  23.42100 -1.05600 42.99000
H  25.34300 -3.61800 40.15300
H  26.82600 -3.65500 40.96500
H  27.42500 -1.97300 39.75900
H  26.15100 -0.82600 40.27700
H  19.24800 -6.85700 42.21900
H  19.71000 -5.24600 42.45200
H  18.69100 -6.00300 43.73800
H  20.00500 -8.92900 47.15800
H  20.13300 -10.21100 45.93800
H  18.53100 -9.81800 46.34900
H  24.25900 -10.46400 46.73500
H  26.34600 -9.56100 48.70800
H  24.20800 -10.46300 49.57100
H  22.95400 -10.94500 48.38800
H  22.95900 -9.32600 49.00400
H  27.88000 -10.05200 46.79400
H  26.51000 -10.33000 45.68600
H  26.40800 -12.36100 46.18800
H  26.21300 -11.96300 47.94100
H  27.83200 -12.17700 47.31500
H  29.85000 -5.24400 48.18500
H  30.95400 -4.83900 46.88700
H  30.47100 -6.51500 47.15600
H  28.61200 -2.96900 42.66000
H  27.60700 1.06000 42.35400
H  29.30700 1.16300 42.06300
H  28.53200 1.31000 43.66000
Mg 48.03700 16.01500 28.51200
C  46.02700 15.64400 31.33900
C  50.16800 17.89700 30.37100
C  49.85100 16.47800 25.70500
C  45.54400 14.41700 26.62200
N  48.12200 16.65300 30.65800
C  47.24300 16.27700 31.64300
C  47.69100 16.75800 32.98000
C  48.90500 17.71100 32.61500
C  49.03500 17.48700 31.10600
C  48.65700 19.22100 32.92300
C  48.07700 15.62000 33.92000
C  48.00800 15.96800 35.43300
H  47.80300 17.42100 35.90900
N  49.81800 16.93100 28.13100
C  50.58900 17.62100 29.02400
C  51.87700 17.93700 28.38000
C  51.75100 17.67900 26.98900
C  50.40900 17.02300 26.89200
C  53.03400 18.57400 29.15200
C  52.71900 18.03200 25.90600
O  52.43800 17.84700 24.76100
C  54.00100 18.76700 26.15800
N  47.67800 15.67100 26.39900
C  48.60900 15.90500 25.44100
C  48.12800 15.33400 24.05300
C  46.90400 14.46900 24.43000
C  46.71100 14.86100 25.94700
C  47.82900 16.52000 23.12000
C  47.06700 12.83400 24.22800
C  47.40700 12.06100 25.48700
N  46.12000 15.31700 28.84800
C  45.19100 14.66300 27.99000
C  43.95900 14.34900 28.72500
C  44.25100 14.72300 30.03900
C  45.60300 15.20700 30.06600
C  42.68200 13.72700 28.22600
C  43.72100 14.87400 31.38200
O  42.64300 14.50100 31.89700
C  44.83100 15.41200 32.28600
C  44.35400 16.74700 32.88000
O  44.33500 17.83500 32.33700
O  43.92400 16.53300 34.15300
C  42.92200 17.48800 34.79600
H  50.83300 18.42700 31.05600
H  50.48200 16.47900 24.81400
H  44.89500 14.00200 25.84900
H  46.78500 17.30600 33.23800
H  49.83500 17.45100 33.12000
H  48.23600 19.77100 32.08100
H  49.60000 19.64700 33.26500
H  47.87300 19.41000 33.65700
H  49.09700 15.32800 33.67300
H  47.46500 14.75900 33.65200
H  48.96100 15.62500 35.83500
H  47.17500 15.33600 35.74200
H  53.96000 18.06100 28.89600
H  52.88200 18.63700 30.22900
H  53.16300 19.60900 28.83500
H  54.74500 18.34200 26.83100
H  53.55100 19.69000 26.52600
H  54.37900 19.03000 25.17000
H  48.93500 14.64900 23.78900
H  46.00200 14.68200 23.85700
H  48.18800 17.45500 23.55100
H  46.77700 16.58800 22.84300
H  48.44900 16.37800 22.23500
H  47.83400 12.42400 23.57100
H  46.10800 12.57300 23.78300
H  47.67200 12.70600 26.32500
H  48.24600 11.37100 25.40300
H  46.55700 11.45800 25.80800
H  42.70300 13.51200 27.15800
H  41.82900 14.32300 28.55000
H  42.55600 12.82200 28.82100
H  45.01700 14.79700 33.16700
H  41.87500 17.31800 34.54200
H  43.09000 18.51200 34.46200
H  43.06100 17.40200 35.87300

