158

Mg 49.59400 45.54200 42.86500
C  46.20700 45.19000 42.09300
C  49.99700 42.23600 41.97300
C  52.93700 45.87600 43.20900
C  49.26300 49.03000 43.00200
N  48.24400 43.91500 42.00100
C  46.87200 43.98300 41.92500
C  46.25000 42.69000 41.53200
C  47.44600 41.72400 41.59100
C  48.68300 42.62600 41.87600
C  47.21200 40.60100 42.64000
C  45.50000 42.69500 40.13800
C  46.08200 43.58000 38.98300
H  46.09400 42.92600 37.56400
N  51.25000 44.24400 42.70200
C  51.18000 42.92700 42.36200
C  52.52700 42.34700 42.47700
C  53.42000 43.43900 42.75000
C  52.53200 44.60500 42.84900
C  52.72200 40.94500 42.10100
C  54.89500 43.41500 42.77000
O  55.45700 42.34700 42.90400
C  55.88200 44.65800 42.78200
N  50.91200 47.18700 43.08300
C  52.25900 47.04500 43.22300
C  53.01700 48.38500 43.46400
C  51.78300 49.48500 43.38500
C  50.62800 48.53300 43.05800
C  53.87200 48.56300 44.71000
C  51.98000 50.54500 42.25100
C  51.96700 50.04600 40.80200
N  48.08000 46.88200 42.64700
C  48.03200 48.22700 42.72500
C  46.68600 48.75100 42.54700
C  45.92100 47.58100 42.26200
C  46.80000 46.46900 42.29400
C  46.24900 50.18500 42.64300
C  44.63100 47.01500 42.08200
O  43.57200 47.55200 42.09700
C  44.74000 45.46000 41.94600
C  43.82700 44.89500 42.96800
O  42.62100 44.71200 42.79400
O  44.43600 44.67400 44.17300
C  43.69000 44.13100 45.32900
H  50.28000 41.19000 41.83900
H  53.98100 46.08800 43.45000
H  49.05600 50.10200 43.01700
H  45.44800 42.52200 42.25200
H  47.57000 41.21500 40.63500
H  46.32700 40.79100 43.24700
H  48.07600 40.42200 43.28000
H  46.96300 39.68500 42.10300
H  44.51500 43.11800 40.33600
H  45.41500 41.64300 39.86700
H  47.06100 44.02500 39.16000
H  45.49200 44.47800 38.79900
H  52.54900 40.74000 41.04500
H  52.18400 40.27100 42.76800
H  53.79200 40.75400 42.18700
H  55.95900 45.01700 43.80900
H  55.43500 45.48200 42.22700
H  56.86900 44.38000 42.41100
H  53.63100 48.41300 42.56400
H  51.51300 49.88900 44.36100
H  54.92800 48.37300 44.51900
H  53.55100 47.92600 45.53500
H  53.73300 49.59200 45.04100
H  52.83400 51.21700 42.33500
H  51.19000 51.28300 42.39000
H  52.27900 49.00500 40.72100
H  52.73000 50.57600 40.23300
H  51.02200 50.21700 40.28600
H  45.23200 50.31300 42.27400
H  46.90400 50.72700 41.96100
H  46.43900 50.57600 43.64300
H  44.32900 45.23400 40.96200
H  43.34500 43.10300 45.21500
H  42.83200 44.76100 45.56300
H  44.38600 44.09500 46.16700
Mg -4.91600 25.24900 25.30500
C  -3.62400 26.46300 28.29300
C  -6.99100 23.16700 27.27000
C  -5.91100 23.70400 22.49800
C  -2.61700 27.20400 23.58400
N  -5.34800 24.97100 27.52600
C  -4.63500 25.57800 28.56500
C  -5.17000 25.10000 29.94200
C  -5.99800 23.86400 29.48600
C  -6.15200 24.00100 27.97500
C  -5.47200 22.42500 29.82600
C  -5.97600 26.21000 30.68000
C  -5.61900 26.50500 32.16800
H  -4.78900 25.36500 32.97600
N  -6.38600 23.72700 24.87100
C  -7.19300 23.04600 25.83900
C  -8.15600 22.23900 25.15500
C  -7.80600 22.39200 23.73200
C  -6.64300 23.28400 23.65800
C  -9.14400 21.29800 25.83500
C  -8.49800 21.64700 22.53700
O  -8.07000 21.81100 21.41300
C  -9.63000 20.63100 22.69000
N  -4.40500 25.48100 23.37000
C  -4.88800 24.67900 22.33400
C  -4.27000 25.12300 21.02500
C  -3.45700 26.39100 21.38500
C  -3.47100 26.29500 22.90700
C  -3.47100 24.09700 20.21400
C  -4.05100 27.70300 20.91200
C  -3.62700 28.09400 19.51400
N  -3.41600 26.57900 25.83100
C  -2.55600 27.38700 24.99700
C  -1.82000 28.31900 25.76000
C  -2.17200 27.92500 27.09300
C  -3.14300 26.88500 27.06800
C  -0.86100 29.35600 25.33100
C  -1.87200 28.14300 28.50300
O  -1.09100 28.89100 29.05600
C  -2.84300 27.26200 29.36400
C  -2.00300 26.41500 30.23500
O  -1.29400 25.50900 29.80600
O  -1.92100 26.84500 31.51400
C  -0.87100 26.26500 32.25500
H  -7.60500 22.44700 27.81500
H  -6.26400 23.32100 21.53800
H  -1.88300 27.79300 23.03100
H  -4.41600 24.72500 30.63400
H  -7.00200 23.92000 29.90600
H  -5.62800 21.80200 28.94600
H  -5.94300 21.87100 30.63800
H  -4.40200 22.47900 30.02700
H  -7.03000 25.93700 30.72900
H  -5.84900 27.16400 30.16700
H  -6.57400 26.56300 32.69000
H  -5.11100 27.46900 32.21200
H  -8.90500 20.26500 25.58100
H  -10.13200 21.54800 25.44900
H  -9.28500 21.40500 26.91100
H  -9.18000 19.72700 23.10100
H  -10.03800 20.45300 21.69400
H  -10.46100 21.02500 23.27500
H  -5.07700 25.41700 20.35400
H  -2.38800 26.30600 21.18900
H  -4.09300 24.04900 19.32000
H  -3.50600 23.08000 20.60400
H  -2.42200 24.34300 20.05100
H  -3.79600 28.49700 21.61300
H  -5.13900 27.76400 20.92500
H  -4.26600 27.77900 18.68900
H  -2.71200 27.64900 19.12500
H  -3.62100 29.17900 19.40700
H  -0.62900 29.26200 24.27000
H  -0.00400 29.19200 25.98400
H  -1.26300 30.35000 25.52700
H  -3.45500 27.88400 30.01800
H  0.03500 26.41400 31.66700
H  -1.05500 25.20100 32.40300
H  -0.77100 26.78400 33.20800

