158

Mg 47.66100 34.42400 27.00600
C  46.05800 33.33800 30.00400
C  48.54900 37.19900 28.57500
C  49.03800 35.22800 24.12700
C  46.43800 31.43100 25.50600
N  47.34800 35.07300 29.09600
C  46.75100 34.55500 30.17200
C  46.96800 35.45500 31.44200
C  47.35500 36.82000 30.74300
C  47.81600 36.34100 29.39300
C  46.19000 37.88300 30.51800
C  48.12900 34.86600 32.37200
C  47.72700 34.56600 33.88900
H  48.52800 35.40500 34.90700
N  48.58200 36.08200 26.40000
C  48.92200 37.15600 27.19900
C  49.58800 38.15900 26.32600
C  49.65900 37.61400 25.05500
C  49.05500 36.26200 25.12900
C  50.00600 39.46500 26.82800
C  50.12600 38.24300 23.85900
O  50.07000 37.73000 22.75400
C  50.63000 39.63200 23.90100
N  47.67100 33.41300 25.02000
C  48.43400 33.99200 24.04200
C  48.50800 33.01700 22.85500
C  47.64800 31.83200 23.24200
C  47.26700 32.18400 24.68200
C  48.09800 33.72000 21.49600
C  48.36300 30.48900 22.97500
C  49.46300 29.99800 24.02700
N  46.48700 32.75900 27.53700
C  46.15800 31.63700 26.85400
C  45.34200 30.77000 27.75500
C  45.24400 31.46700 28.91700
C  46.07700 32.58600 28.78100
C  44.73000 29.46000 27.50500
C  44.65200 31.34200 30.25300
O  43.98600 30.44400 30.74300
C  45.00400 32.68200 30.88900
C  45.18200 32.55800 32.33600
O  46.19400 32.20800 32.85300
O  43.91600 32.78500 32.92000
C  43.64300 32.34500 34.25000
H  48.89400 38.11300 29.06300
H  49.69500 35.40000 23.27200
H  46.14900 30.49300 25.02700
H  45.98900 35.44400 31.91900
H  48.14800 37.33600 31.28500
H  45.89700 38.02300 29.47700
H  46.60100 38.83900 30.84100
H  45.29000 37.81100 31.12900
H  48.93900 35.59000 32.46100
H  48.53400 33.96200 31.91900
H  47.98000 33.56300 34.23100
H  46.65400 34.71500 34.00700
H  50.95900 39.81100 26.42700
H  50.08400 39.30800 27.90400
H  49.20600 40.19000 26.67500
H  51.65500 39.61500 24.27100
H  49.87000 40.22400 24.41100
H  50.60200 40.01500 22.88100
H  49.54600 32.70000 22.75400
H  46.74400 31.82400 22.63300
H  47.31100 33.09700 21.07200
H  48.96600 33.67500 20.83800
H  47.81100 34.74000 21.75100
H  48.87400 30.55000 22.01400
H  47.62800 29.68400 22.98000
H  49.72000 30.72200 24.79900
H  50.32200 29.53100 23.54300
H  48.99300 29.20600 24.61000
H  43.68100 29.45000 27.80300
H  45.32000 28.61500 27.86100
H  44.69300 29.32500 26.42400
H  44.12000 33.31600 30.83200
H  43.02200 31.45100 34.29500
H  43.18400 33.15000 34.82400
H  44.58800 32.04000 34.70100
Mg 7.66100 53.42900 41.10100
C  7.07700 49.97400 40.66100
C  10.75600 52.94700 40.00400
C  7.83600 56.75800 40.52000
C  4.20400 53.83600 41.86100
N  8.72100 51.62500 40.31300
C  8.40700 50.29600 40.27900
C  9.61500 49.39000 40.07000
C  10.76400 50.43800 40.16300
C  10.07300 51.80800 40.11300
C  11.78500 50.33100 41.33300
C  9.68400 48.30200 38.96100
C  9.77700 48.84200 37.55000
H  8.48300 48.62400 36.77100
N  9.17500 54.73400 40.43200
C  10.36200 54.27400 40.11000
C  11.27400 55.39900 39.93600
C  10.46100 56.60300 40.07400
C  9.10000 56.08100 40.41800
C  12.72800 55.26200 39.68400
C  10.99000 57.97600 39.84700
O  12.13600 58.23400 39.47200
C  10.04300 59.13000 39.86400
N  6.13100 55.04400 41.00500
C  6.52200 56.33700 40.89400
C  5.36100 57.27600 41.14200
C  4.21200 56.35300 41.71800
C  4.85700 54.99100 41.43900
C  5.76500 58.56500 42.02900
C  2.84900 56.59300 41.00800
C  1.74500 56.88300 42.06000
N  5.95200 52.17900 41.22400
C  4.64000 52.47700 41.64700
C  3.90100 51.24400 41.79700
C  4.83600 50.24400 41.43500
C  6.04200 50.84700 41.07600
C  2.51000 51.04000 42.26200
C  4.98800 48.74700 41.26300
O  4.21400 47.77200 41.42000
C  6.38600 48.58500 40.76200
C  6.23800 47.85100 39.54300
O  5.76600 48.42300 38.54800
O  6.68100 46.54500 39.57300
C  6.53100 45.79300 38.30600
H  11.76800 52.80700 39.61800
H  7.88500 57.82500 40.29300
H  3.12600 53.90500 42.01800
H  9.49400 48.75800 40.94900
H  11.36700 50.35200 39.25900
H  12.54400 49.85900 40.70900
H  11.48400 49.55200 42.03300
H  12.23200 51.22300 41.77100
H  8.80300 47.67200 39.07900
H  10.53500 47.63300 39.09300
H  10.69600 48.45600 37.10700
H  9.93500 49.91900 37.49300
H  12.98000 54.94000 38.67400
H  13.01300 54.45900 40.36500
H  13.31500 56.13700 39.96500
H  10.53500 60.06900 39.60900
H  9.64500 59.13400 40.87900
H  9.18500 58.80900 39.27400
H  5.04500 57.59700 40.15000
H  4.16500 56.40500 42.80600
H  6.60100 58.32800 42.68700
H  4.98000 58.74900 42.76200
H  5.97900 59.45500 41.43800
H  2.55800 55.64100 40.56400
H  2.91100 57.33100 40.20800
H  1.63000 57.93000 42.34300
H  1.89700 56.46200 43.05400
H  0.81200 56.45900 41.68700
H  2.38500 50.01500 42.61100
H  1.88900 51.27200 41.39700
H  2.12700 51.56000 43.14000
H  6.91800 47.94000 41.46100
H  5.95200 46.30900 37.54000
H  6.04800 44.86300 38.60500
H  7.49900 45.38500 38.01400

