158

Mg 1.03600 8.18300 26.33500
C  1.60300 9.96000 29.36200
C  0.94700 5.32800 28.33900
C  0.71900 6.30700 23.56200
C  1.31300 11.06300 24.60900
N  1.24800 7.75000 28.58900
C  1.31500 8.61900 29.64200
C  1.19200 7.95700 30.94800
C  1.39700 6.48700 30.57600
C  1.14400 6.50100 29.07800
C  2.69100 5.78000 30.90100
C  -0.09400 8.41100 31.69200
C  0.01700 8.51800 33.22800
H  1.25400 7.93600 33.95300
N  0.83900 6.07500 26.02400
C  0.85100 5.11900 26.94400
C  0.55300 3.84500 26.28500
C  0.68300 4.11900 24.92500
C  0.74800 5.53800 24.77800
C  0.35400 2.52600 26.99600
C  0.60200 3.12400 23.66900
O  0.60100 3.53000 22.51200
C  0.57200 1.60900 23.86500
N  0.94000 8.60400 24.43000
C  0.82300 7.71300 23.41600
C  0.76300 8.45100 22.01500
C  0.83400 9.96000 22.39500
C  0.99700 9.85900 23.92100
C  1.71400 7.97000 20.87300
C  -0.46500 10.77400 21.91300
C  -1.73400 10.51600 22.74700
N  1.37700 10.10400 26.78600
C  1.51000 11.17100 25.96400
C  1.81800 12.37600 26.77200
C  1.83100 11.89000 28.06100
C  1.55800 10.53600 28.05200
C  2.04400 13.81900 26.21300
C  2.20000 12.28800 29.39000
O  2.57200 13.39800 29.84200
C  1.93400 11.01300 30.31900
C  3.15600 10.67200 31.07900
O  4.09000 9.87100 30.83900
O  3.17900 11.52100 32.18300
C  4.40600 11.54600 33.08100
H  0.82600 4.38700 28.88000
H  0.66400 5.89700 22.55100
H  1.22200 11.95700 23.98800
H  2.11800 8.15800 31.48600
H  0.60200 5.87500 31.00200
H  2.48100 5.07300 31.70300
H  3.45000 6.39800 31.38100
H  3.09700 5.17400 30.09100
H  -0.91200 7.72200 31.47700
H  -0.42800 9.37800 31.31800
H  -0.88000 8.07900 33.66400
H  0.08700 9.59800 33.35700
H  1.34400 2.08400 26.88100
H  -0.43600 1.95200 26.51200
H  0.01800 2.67100 28.02300
H  1.56500 1.18800 24.02300
H  0.31300 1.15500 22.90900
H  -0.13100 1.24800 24.61600
H  -0.26000 8.16900 21.76500
H  1.77900 10.39400 22.06700
H  2.42300 7.22000 21.22700
H  2.27900 8.88100 20.67800
H  1.23000 7.44200 20.05200
H  -0.54800 10.57000 20.84500
H  -0.27700 11.84200 22.02000
H  -1.58400 9.99900 23.69500
H  -2.40200 9.80800 22.25700
H  -2.18500 11.48900 22.94100
H  2.47100 13.72900 25.21400
H  2.76700 14.29800 26.87200
H  1.14300 14.42200 26.09400
H  1.08000 11.19900 30.96900
H  5.29300 11.02000 32.72900
H  4.13100 11.15700 34.06200
H  4.75800 12.57000 33.20800
Mg 29.98000 57.70900 40.03300
C  27.00100 55.82200 39.02700
C  31.94800 55.24600 38.77600
C  32.54400 59.95800 39.85600
C  27.67300 60.60200 40.20800
N  29.46000 55.77500 39.04700
C  28.23100 55.13000 38.88100
C  28.51400 53.62500 38.52900
C  30.07500 53.52500 38.26200
C  30.53600 54.91700 38.78700
C  30.79100 52.39400 39.04200
C  27.74500 53.07700 37.24700
C  27.50900 53.98100 36.01800
H  28.12900 53.82900 34.64700
N  31.99000 57.54600 39.60700
C  32.60200 56.43200 39.08900
C  34.01700 56.69900 38.86800
C  34.20000 58.05900 39.09800
C  32.88100 58.59700 39.52900
C  34.95700 55.58700 38.29300
C  35.49900 58.78300 38.87500
O  36.55700 58.20400 38.53000
C  35.65900 60.24300 39.12300
N  30.02700 60.03800 39.77600
C  31.30000 60.57100 39.98000
C  31.10900 62.06800 40.22200
C  29.55500 62.19800 40.48300
C  28.98600 60.93100 40.08000
C  32.10800 62.72700 41.31100
C  28.90600 63.44300 39.72600
C  28.22000 64.43000 40.64800
N  27.76700 58.18100 39.88200
C  27.07700 59.34300 40.00100
C  25.73900 59.05900 39.95500
C  25.63600 57.69500 39.52000
C  26.89400 57.18700 39.52800
C  24.63600 59.99700 40.19200
C  24.70300 56.66200 39.13200
O  23.49300 56.75000 39.01800
C  25.48100 55.45500 38.79500
C  25.04900 54.27500 39.65500
O  25.47400 54.05200 40.79300
O  24.07600 53.50500 39.06900
C  23.23000 52.63600 39.79600
H  32.62000 54.48500 38.37400
H  33.35500 60.66600 40.03400
H  26.92900 61.33800 40.52000
H  28.26900 53.00100 39.38900
H  30.25900 53.44100 37.19100
H  30.19900 51.68500 39.62000
H  31.46700 52.81400 39.78800
H  31.38200 51.79600 38.34900
H  26.78300 52.71000 37.60500
H  28.33100 52.18600 37.02000
H  27.78900 54.98300 36.34400
H  26.42200 53.95900 35.94200
H  35.13800 55.78400 37.23600
H  34.58200 54.58700 38.51200
H  35.86700 55.65900 38.88800
H  36.71800 60.43800 38.95300
H  35.45600 60.34400 40.18900
H  34.94500 60.76800 38.48800
H  31.18700 62.69200 39.33200
H  29.34600 62.21600 41.55300
H  33.05300 62.92000 40.80200
H  32.29800 62.09800 42.18000
H  31.59100 63.60500 41.69800
H  28.13000 63.11400 39.03600
H  29.58200 63.99100 39.06900
H  28.28300 65.44200 40.24900
H  28.56700 64.41400 41.68100
H  27.15000 64.22500 40.61900
H  24.76700 60.76400 40.95500
H  23.75300 59.43900 40.50300
H  24.55000 60.58600 39.27900
H  25.31700 55.24600 37.73800
H  23.74000 51.67900 39.89900
H  22.26000 52.55100 39.30700
H  23.03100 53.07500 40.77400

