158

Mg 2.61100 -1.32000 43.59100
C  5.97400 -0.46100 43.19300
C  1.86400 1.59600 41.81300
C  -0.41400 -2.54100 43.05700
C  3.71600 -4.49700 44.73300
N  3.78700 0.34300 42.71100
C  5.10900 0.47400 42.67900
C  5.55000 1.67500 41.78200
C  4.26800 2.45200 41.52500
C  3.22300 1.39300 42.02600
C  4.17600 3.83000 42.16500
C  6.15700 1.14000 40.45500
C  6.88100 2.23500 39.63300
H  6.24700 2.73200 38.42000
N  0.94600 -0.47200 42.82600
C  0.82700 0.79100 42.25500
C  -0.51100 1.12600 42.10500
C  -1.24300 -0.01100 42.50100
C  -0.29300 -1.10800 42.79700
C  -1.01700 2.44400 41.62300
C  -2.77500 -0.21100 42.61900
O  -3.58600 0.64300 42.23300
C  -3.42700 -1.37400 43.21900
N  1.87200 -3.39000 43.56000
C  0.48100 -3.50200 43.45000
C  0.18000 -5.03700 43.72000
C  1.56300 -5.65600 44.29500
C  2.41100 -4.44100 44.21800
C  -1.06200 -5.36800 44.69200
C  2.19700 -6.80300 43.43800
C  2.81300 -7.93000 44.30800
N  4.40600 -2.21100 44.16400
C  4.66300 -3.47000 44.57000
C  6.09500 -3.53200 44.87000
C  6.67200 -2.38500 44.39700
C  5.61300 -1.62800 43.87000
C  6.82500 -4.64900 45.52400
C  7.93300 -1.57600 44.21800
O  9.09500 -1.70200 44.62900
C  7.44500 -0.28900 43.40200
C  7.80300 0.83600 44.25000
O  7.17700 1.15900 45.22500
O  8.92900 1.48600 43.81400
C  9.37000 2.73200 44.56400
H  1.63800 2.55300 41.33600
H  -1.42100 -2.96100 43.04200
H  4.16600 -5.44100 45.04500
H  6.29300 2.24100 42.34500
H  4.01000 2.65800 40.48600
H  5.04500 4.06800 42.77900
H  3.27900 3.91500 42.77800
H  4.04400 4.56200 41.36800
H  5.37000 0.75900 39.80400
H  6.83900 0.30300 40.59800
H  7.82600 1.76200 39.36800
H  7.14900 3.06900 40.28100
H  -0.62200 2.56500 40.61400
H  -0.62800 3.10300 42.39900
H  -2.10400 2.42800 41.69700
H  -4.49900 -1.20000 43.30600
H  -3.17100 -1.66400 44.23800
H  -3.19100 -2.18800 42.53500
H  -0.02800 -5.27800 42.67700
H  1.47700 -5.98200 45.33200
H  -1.33000 -4.61700 45.43600
H  -0.95700 -6.30100 45.24500
H  -1.84200 -5.53000 43.94800
H  3.00200 -6.50200 42.76800
H  1.37400 -7.20000 42.84500
H  3.84300 -8.20500 44.07900
H  2.14600 -8.78800 44.23200
H  2.70700 -7.69600 45.36800
H  6.99900 -5.49800 44.86400
H  6.34500 -5.03500 46.42400
H  7.85200 -4.30900 45.65900
H  7.96000 -0.23800 42.44200
H  10.41700 2.64200 44.85500
H  9.00300 2.78800 45.58800
H  9.29100 3.70000 44.07100
Mg 35.99700 48.92600 25.62200
C  36.41400 47.06000 28.44600
C  34.97000 51.61200 27.24100
C  35.67100 50.35100 22.66900
C  36.81000 45.93500 23.76200
N  35.72200 49.25700 27.63900
C  36.05400 48.45300 28.64900
C  35.90600 49.21100 29.99000
C  35.36200 50.63600 29.59600
C  35.27700 50.50400 28.08600
C  33.93900 50.84400 30.25100
C  37.33800 49.20400 30.68800
C  37.31400 49.09700 32.18100
H  36.00800 49.19700 32.96700
N  35.28800 50.70500 25.05500
C  35.00200 51.70100 25.90200
C  34.66000 52.86100 25.14800
C  34.74400 52.52200 23.79800
C  35.28700 51.13700 23.81100
C  34.16100 54.23200 25.71700
C  34.45800 53.33300 22.54700
O  34.38800 52.87000 21.39600
C  34.24300 54.81700 22.69100
N  36.18700 48.19600 23.44800
C  36.05700 49.06200 22.44800
C  36.38700 48.51400 21.06400
C  36.99300 47.12800 21.47400
C  36.64300 47.05500 22.97900
C  35.17500 48.53500 20.10700
C  38.51100 46.93100 21.28400
C  39.01100 45.59500 20.63200
N  36.49800 46.86700 26.00100
C  36.77500 45.74100 25.16200
C  37.00800 44.52400 25.96900
C  36.88100 45.03800 27.29100
C  36.61000 46.44100 27.20900
C  37.18200 43.13300 25.38300
C  37.01400 44.62500 28.66900
O  37.36600 43.58800 29.21100
C  36.66300 45.97400 29.49700
C  35.47600 45.68600 30.30200
O  34.34900 45.73600 29.96300
O  35.86100 45.23900 31.53700
C  34.66700 44.99600 32.40100
H  34.68700 52.51000 27.79400
H  35.66500 50.84200 21.69300
H  37.02600 45.09800 23.09600
H  35.18700 48.71900 30.64500
H  36.02300 51.46100 29.86100
H  33.13100 50.75600 29.52500
H  33.84000 51.89900 30.50700
H  33.64600 50.27300 31.13200
H  37.75300 50.15100 30.34400
H  38.01100 48.45400 30.27300
H  37.93800 49.87900 32.61500
H  37.76500 48.14900 32.47400
H  34.79600 55.02900 25.32800
H  34.24200 54.45400 26.78200
H  33.26200 54.57500 25.20600
H  33.30200 55.14100 23.13400
H  34.14700 55.11700 21.64800
H  35.07500 55.28900 23.21500
H  37.00700 49.28000 20.59800
H  36.36300 46.48500 20.86000
H  34.30700 48.87900 20.67000
H  34.96200 47.55600 19.67800
H  35.25800 49.38100 19.42400
H  38.96100 47.05300 22.26900
H  38.98400 47.73000 20.71400
H  39.62800 45.05800 21.35200
H  39.63800 45.84500 19.77600
H  38.14300 45.02300 20.30300
H  37.90700 43.15300 24.56900
H  36.24900 42.74100 24.97800
H  37.42100 42.47800 26.22000
H  37.50100 46.30800 30.11000
H  33.81500 45.66200 32.26300
H  35.13700 45.14400 33.37300
H  34.36500 43.96100 32.24000

