158

Mg 26.08000 1.47600 28.99900
C  27.71000 0.85800 31.94300
C  23.08300 1.55400 30.90600
C  24.38900 2.05500 26.18500
C  28.95600 1.07300 27.21100
N  25.48100 1.20500 31.23300
C  26.37900 1.03900 32.27600
C  25.67800 1.16200 33.59800
C  24.13800 0.96100 33.17300
C  24.22200 1.16600 31.67400
C  23.43600 -0.37200 33.57000
C  26.02000 2.46300 34.37200
C  26.45700 2.28000 35.85200
H  26.15000 3.31100 36.97400
N  23.99100 1.83600 28.54700
C  23.00000 1.80500 29.46900
C  21.74100 2.08300 28.81600
C  22.03200 2.34800 27.45700
C  23.53300 2.06200 27.29900
C  20.46200 2.24500 29.59600
C  21.10100 2.75300 26.25300
O  21.53300 2.92900 25.13800
C  19.60100 2.93900 26.56100
N  26.63900 1.51000 26.97100
C  25.76000 1.78400 25.96400
C  26.47100 1.79100 24.65600
C  28.02000 1.57500 25.00400
C  27.91000 1.45800 26.48500
C  25.89100 0.71900 23.60600
C  28.92700 2.76900 24.49000
C  29.92600 2.48300 23.41000
N  27.91500 0.81300 29.37400
C  28.95700 0.73600 28.57400
C  30.14100 0.33700 29.37900
C  29.66900 0.44500 30.65400
C  28.32400 0.77900 30.63700
C  31.47900 -0.01600 28.94000
C  30.13500 0.42500 32.03600
O  31.21400 0.24200 32.58400
C  28.84000 0.65900 32.92400
C  28.68500 -0.46300 33.81400
O  28.23900 -1.54200 33.40200
O  29.08800 -0.20900 35.11200
C  28.86900 -1.25800 36.15500
H  22.13300 1.56800 31.44400
H  23.89700 2.27900 25.23700
H  29.91000 0.91900 26.70300
H  25.89800 0.27000 34.18500
H  23.62600 1.77300 33.69100
H  22.39400 -0.11400 33.75800
H  23.81900 -0.78500 34.50300
H  23.46400 -0.97400 32.66200
H  25.11800 3.07400 34.34300
H  26.81200 3.01400 33.86600
H  27.53500 2.19700 35.71400
H  26.09200 1.32200 36.22200
H  19.85300 1.34900 29.47300
H  19.74100 3.01700 29.32600
H  20.52400 2.58000 30.63100
H  18.99100 3.15200 25.68300
H  19.54100 3.69400 27.34500
H  19.20800 2.05200 27.05700
H  26.40800 2.73800 24.12000
H  28.37400 0.64700 24.55600
H  24.98600 0.23600 23.97400
H  26.59100 -0.07500 23.34600
H  25.75400 1.28900 22.68700
H  29.43300 3.25000 25.32700
H  28.32300 3.57300 24.06900
H  29.79900 1.43300 23.14900
H  30.95400 2.65300 23.72700
H  29.71400 3.09600 22.53300
H  31.88200 0.86100 28.43300
H  31.26900 -0.82800 28.24400
H  32.07200 -0.30900 29.80600
H  29.13900 1.50100 33.54800
H  28.07600 -0.82700 36.76700
H  29.76200 -1.25400 36.78000
H  28.71500 -2.26700 35.77400
Mg 10.64500 47.41200 25.50000
C  8.93400 47.73000 28.45600
C  13.40900 48.59000 27.06800
C  12.18800 47.19800 22.62700
C  7.61600 46.98000 23.85000
N  11.16500 47.87800 27.67000
C  10.30000 48.00300 28.69000
C  11.00500 48.53900 29.97400
C  12.30800 49.17500 29.37000
C  12.31600 48.49200 27.92600
C  12.12600 50.77100 29.26200
C  11.29300 47.55100 31.12200
C  11.14100 47.94500 32.61100
H  10.58700 46.82900 33.57500
N  12.64100 47.67900 24.95800
C  13.60800 48.11900 25.76100
C  14.89500 48.26900 25.04500
C  14.60200 47.84000 23.73600
C  13.09000 47.54700 23.69500
C  16.19600 48.67900 25.68100
C  15.49200 47.74000 22.40200
O  15.02600 47.39600 21.33700
C  16.98800 47.91600 22.48100
N  9.97300 47.45500 23.44700
C  10.79700 47.12800 22.45900
C  10.11200 46.74400 21.06100
C  8.70300 46.49400 21.62600
C  8.72300 47.02400 23.03800
C  10.09000 47.87700 20.00600
C  8.28900 44.98200 21.74000
C  9.30800 44.04600 22.48900
N  8.61600 47.31100 26.00000
C  7.47500 47.11100 25.23300
C  6.34100 46.96300 26.09300
C  6.82500 47.25800 27.37100
C  8.27300 47.44300 27.24600
C  4.95900 46.70100 25.57200
C  6.45900 47.46900 28.76500
O  5.38100 47.59500 29.36500
C  7.84400 47.67400 29.53700
C  7.89100 46.59700 30.58400
O  8.56800 45.57000 30.57500
O  6.90800 46.98300 31.44200
C  6.44000 45.93500 32.38100
H  14.26900 49.10900 27.49600
H  12.67900 46.91500 21.69300
H  6.61700 46.87600 23.41900
H  10.28200 49.28800 30.29600
H  13.14900 48.98000 30.03500
H  11.14200 51.14700 29.54200
H  12.30800 51.13100 28.24900
H  12.84700 51.23900 29.93300
H  12.31000 47.17600 31.00200
H  10.72900 46.62900 30.98000
H  10.53400 48.85000 32.60900
H  12.13800 48.22800 32.94800
H  16.56400 47.81200 26.22900
H  16.03100 49.45200 26.43100
H  16.92900 49.01600 24.94800
H  17.50900 47.51200 21.61300
H  17.38900 47.36300 23.33100
H  17.33400 48.91300 22.75200
H  10.40000 45.78000 20.64100
H  7.88300 46.95600 21.07600
H  11.10000 48.05400 19.63500
H  9.76500 48.72600 20.60700
H  9.38500 47.48900 19.27100
H  8.17600 44.64500 20.70900
H  7.33100 44.88800 22.25100
H  10.20300 44.62300 22.72000
H  9.55800 43.23000 21.81000
H  8.83500 43.65500 23.39000
H  4.96700 47.05200 24.54100
H  4.10400 47.05700 26.14700
H  4.74200 45.63500 25.63400
H  7.84100 48.66000 30.00100
H  5.51800 46.29600 32.83800
H  7.07400 45.76900 33.25200
H  6.23000 45.09400 31.72000

