158

Mg 17.05800 -1.56700 27.16000
C  16.22300 0.55700 29.80600
C  19.02200 -3.42100 29.42200
C  18.42700 -3.22400 24.59000
C  15.76500 0.80800 24.97500
N  17.66200 -1.37300 29.31900
C  17.04200 -0.49600 30.22800
C  17.35200 -0.90700 31.66900
C  18.47900 -1.96900 31.46000
C  18.37000 -2.33500 30.00000
C  19.95100 -1.67300 31.77800
C  16.15300 -1.45300 32.48100
C  16.17200 -1.23000 34.00700
H  17.42700 -0.76100 34.80100
N  18.43900 -3.21200 27.00300
C  19.09500 -3.87200 28.02600
C  19.77100 -5.02700 27.47100
C  19.52100 -5.00500 26.11000
C  18.76400 -3.80200 25.83300
C  20.53000 -5.98800 28.33400
C  19.96800 -5.99600 24.99400
O  19.48600 -5.88000 23.89700
C  21.03000 -7.06700 25.19000
N  17.06700 -1.20200 25.00700
C  17.72000 -2.06000 24.16000
C  17.72200 -1.54400 22.73600
C  16.78400 -0.25400 22.85100
C  16.45000 -0.22000 24.33400
C  19.16000 -1.31100 22.12000
C  15.44900 -0.38400 22.01800
C  15.04500 0.59600 20.98800
N  16.13800 0.24800 27.27700
C  15.54900 1.03900 26.33800
C  14.72200 2.02800 27.00600
C  15.02800 1.92400 28.33300
C  15.92500 0.83200 28.48000
C  13.79000 2.90100 26.23500
C  14.71400 2.51000 29.62200
O  14.07400 3.48700 29.98200
C  15.49700 1.59700 30.66500
C  16.50400 2.37500 31.48400
O  17.62700 2.71700 31.10400
O  15.99900 2.70700 32.65600
C  16.58000 3.62100 33.64900
H  19.69600 -3.96200 30.09000
H  18.84700 -3.77700 23.74700
H  15.43100 1.56600 24.26300
H  17.90600 -0.11900 32.17900
H  18.12200 -2.88200 31.93700
H  20.47700 -1.39800 30.86400
H  20.51300 -2.48600 32.23700
H  20.14700 -0.77700 32.36700
H  16.13300 -2.53000 32.31900
H  15.31800 -1.10100 31.87500
H  15.56600 -2.03300 34.42600
H  15.39400 -0.46600 33.98700
H  21.54400 -6.07500 27.94100
H  19.96100 -6.91700 28.32400
H  20.65100 -5.55600 29.32700
H  20.76300 -7.80800 25.94300
H  21.86800 -6.52700 25.63100
H  21.25200 -7.57700 24.25300
H  17.34600 -2.36200 22.12100
H  17.41700 0.56700 22.51400
H  19.25900 -0.52300 21.37300
H  19.49700 -2.29500 21.79500
H  19.91100 -1.06700 22.87200
H  14.63500 -0.36100 22.74200
H  15.46400 -1.39600 21.61500
H  14.49800 1.37300 21.52200
H  14.36000 0.14400 20.27100
H  15.88600 0.99500 20.42100
H  13.19800 3.53200 26.89700
H  13.13200 2.37400 25.54500
H  14.38000 3.55900 25.59600
H  14.71800 1.17400 31.29900
H  15.93400 4.48300 33.81700
H  17.63500 3.85400 33.50600
H  16.52300 3.06100 34.58300
Mg 43.83200 3.84400 48.18400
C  41.59500 6.43500 47.38100
C  41.24300 1.56300 47.77100
C  46.06900 1.28400 48.62500
C  46.43400 6.13300 47.98100
N  41.63600 4.03300 47.61000
C  40.94500 5.20800 47.33600
C  39.54300 4.84800 46.99900
C  39.39000 3.31200 47.33400
C  40.81100 2.92200 47.50100
C  38.53700 3.02400 48.53200
C  39.21200 5.37700 45.53700
C  38.05200 6.40300 45.58400
H  37.26700 6.38500 44.21600
N  43.70000 1.76900 48.25300
C  42.52000 1.04300 48.12500
C  42.77700 -0.41400 48.25700
C  44.21400 -0.50800 48.42100
C  44.76700 0.88800 48.44100
C  41.69300 -1.49500 48.30100
C  44.87600 -1.80200 48.61400
O  44.14800 -2.79500 48.73800
C  46.44800 -1.92300 48.36100
N  46.02000 3.73800 48.19100
C  46.69400 2.58400 48.49200
C  48.23700 2.86900 48.47600
C  48.30800 4.41000 48.20600
C  46.79200 4.79600 47.99400
C  48.95900 2.41500 49.85700
C  49.13900 4.82500 46.97400
C  50.72100 4.65100 47.18200
N  44.06200 5.86600 47.85800
C  45.17800 6.70000 47.94600
C  44.79000 8.10200 47.76600
C  43.39900 8.00300 47.47000
C  42.98900 6.63200 47.59700
C  45.68500 9.26300 47.49500
C  42.25600 8.79100 47.10700
O  42.17500 10.01700 46.89600
C  41.04100 7.83400 47.06100
C  40.03200 8.45700 48.02800
O  39.85400 8.17100 49.20000
O  39.27100 9.37000 47.40200
C  38.40700 10.19300 48.21300
H  40.42000 0.84600 47.76000
H  46.83500 0.52300 48.78800
H  47.28100 6.81600 48.06900
H  38.90800 5.39200 47.69800
H  38.92200 2.82000 46.48100
H  39.24100 2.97100 49.36300
H  37.87200 2.16100 48.52000
H  37.86700 3.86700 48.70200
H  38.96400 4.54200 44.88200
H  39.99200 5.94600 45.03100
H  38.28000 7.45900 45.73200
H  37.37000 6.09200 46.37500
H  41.72100 -2.04000 47.35800
H  40.65500 -1.17300 48.38000
H  41.86700 -2.05700 49.21900
H  46.74000 -1.41000 47.44500
H  46.60800 -2.97400 48.12300
H  47.17400 -1.55700 49.08700
H  48.70300 2.37200 47.62500
H  48.86400 4.85100 49.03300
H  49.80700 3.05700 50.09800
H  49.35700 1.42000 49.66000
H  48.22500 2.41200 50.66200
H  49.03000 5.90200 46.84700
H  48.86000 4.25500 46.08800
H  51.18500 4.25500 46.27800
H  50.90100 4.09300 48.10100
H  51.27000 5.57100 47.38300
H  46.65600 8.91100 47.14800
H  45.92200 9.72000 48.45600
H  45.23600 9.95500 46.78200
H  40.56300 7.84600 46.08200
H  37.91900 9.71200 49.06100
H  37.57300 10.62200 47.65700
H  38.98400 11.01000 48.64600

