158

Mg 45.22700 5.50300 48.76900
C  42.80600 7.97700 47.91000
C  42.73200 3.19800 47.80100
C  47.58700 3.14500 48.80000
C  47.60800 8.02300 48.73800
N  42.99200 5.55500 47.84800
C  42.20600 6.67700 47.83300
C  40.76200 6.32200 47.50300
C  40.81400 4.80700 47.68700
C  42.23500 4.47400 47.83700
C  39.89700 4.27400 48.81200
C  40.34700 6.77200 46.00000
C  38.85600 6.77400 45.63400
H  38.46700 6.56500 44.17300
N  45.20900 3.48500 48.39600
C  44.06400 2.73400 48.06000
C  44.57200 1.33100 48.03800
C  45.91900 1.26100 48.33700
C  46.26800 2.67000 48.53500
C  43.61300 0.21400 47.66800
C  46.69600 -0.05500 48.22100
O  46.29400 -1.06600 47.67900
C  48.08500 -0.16100 48.82200
N  47.27300 5.61900 48.75100
C  48.07300 4.47500 48.87600
C  49.49600 4.77100 49.04600
C  49.44600 6.37100 49.27100
C  47.99500 6.72900 48.76400
C  50.15800 4.03500 50.21400
C  50.68800 7.09700 48.56700
C  51.00800 8.45200 49.23900
N  45.21700 7.55200 48.40300
C  46.28200 8.43000 48.46600
C  45.82900 9.77400 48.32000
C  44.43700 9.68300 48.10000
C  44.12000 8.32000 48.16700
C  46.69500 10.94400 48.44000
C  43.24700 10.39700 48.01000
O  43.03600 11.60600 48.06100
C  42.08400 9.30500 47.88300
C  41.15300 9.66000 49.06700
O  41.14500 9.17300 50.17300
O  40.10200 10.34100 48.52700
C  38.99800 10.43300 49.36900
H  41.94600 2.44100 47.83500
H  48.32100 2.34100 48.88600
H  48.28600 8.82400 49.03900
H  40.06800 6.82400 48.17700
H  40.33100 4.38500 46.80500
H  40.52900 3.74000 49.52200
H  39.16500 3.60600 48.35800
H  39.46500 5.09500 49.38400
H  41.03600 6.31100 45.29300
H  40.62900 7.80100 45.77800
H  38.36200 7.70300 45.91600
H  38.38000 6.08400 46.33000
H  43.77700 -0.75300 48.14300
H  43.58300 0.07100 46.58800
H  42.59200 0.47400 47.94700
H  48.83400 0.32900 48.20000
H  48.33500 -1.20800 48.99700
H  47.95100 0.42200 49.73300
H  50.07300 4.56400 48.14400
H  49.34600 6.60500 50.33000
H  49.41500 3.35000 50.62200
H  50.56100 4.55700 51.08200
H  50.99400 3.42500 49.87200
H  50.48200 7.33200 47.52300
H  51.53900 6.42500 48.45500
H  52.03800 8.34800 49.58000
H  50.29700 8.69800 50.02800
H  51.08700 9.24000 48.49000
H  47.43300 10.96900 47.63800
H  47.32100 10.91800 49.33200
H  46.18500 11.90500 48.36800
H  41.55200 9.55400 46.96400
H  38.54700 9.45400 49.20400
H  38.38700 11.16200 48.83700
H  39.17500 10.64000 50.42500
Mg 54.37100 24.19800 45.42200
C  52.04300 26.50100 44.56800
C  52.55700 21.77000 43.89500
C  57.10700 22.01200 45.49300
C  56.47100 26.67100 46.69700
N  52.47800 24.18300 44.38200
C  51.65100 25.24900 44.12500
C  50.37700 24.80800 43.34200
C  50.46400 23.29200 43.55500
C  51.92900 23.00700 44.06700
C  49.35700 22.63100 44.47200
C  50.37300 25.42100 41.94300
C  50.73300 24.49700 40.80700
H  50.94300 25.01200 39.31200
N  54.74500 22.12000 45.00900
C  53.85400 21.33700 44.33400
C  54.37900 19.96300 44.30800
C  55.70500 20.03400 44.64700
C  55.91500 21.41400 45.11600
C  53.52900 18.79300 43.84200
C  56.67400 18.86100 44.65500
O  56.31100 17.76400 44.24900
C  57.98400 18.95700 45.24000
N  56.44300 24.34800 46.12400
C  57.38200 23.31000 45.92700
C  58.78500 23.67300 46.53900
C  58.57000 25.20500 46.92300
C  57.07800 25.41200 46.61500
C  59.27100 22.75900 47.63300
C  59.48100 26.27000 46.32000
C  60.12200 27.21800 47.40600
N  54.33600 26.21100 45.48700
C  55.24600 27.08000 46.17700
C  54.54700 28.37500 46.23200
C  53.32400 28.20600 45.58200
C  53.27100 26.89200 45.10500
C  55.06900 29.65200 46.90700
C  52.13100 28.88100 45.22300
O  51.78500 30.04000 45.31300
C  51.21900 27.78700 44.61800
C  50.67000 28.23400 43.26800
O  51.34900 28.65900 42.37200
O  49.31300 28.09900 43.23300
C  48.57100 28.68200 42.03200
H  51.80600 21.01600 43.65200
H  58.00400 21.39200 45.55800
H  57.05000 27.55400 46.97600
H  49.47800 25.15300 43.85100
H  50.47900 22.68600 42.64900
H  48.61900 23.32400 44.87600
H  49.78900 21.90100 45.15600
H  48.81400 21.96500 43.80100
H  51.16700 26.15200 41.79200
H  49.40900 25.86400 41.69200
H  49.94100 23.75300 40.72000
H  51.56300 23.86700 41.12500
H  53.55100 18.72900 42.75400
H  52.47800 18.93500 44.09500
H  53.80800 17.83400 44.27700
H  58.51700 18.00700 45.19800
H  57.94800 19.19100 46.30500
H  58.58800 19.66300 44.67100
H  59.43300 23.51400 45.67700
H  58.64500 25.36300 47.99900
H  59.81800 21.93200 47.17900
H  58.51400 22.36000 48.30900
H  59.99600 23.20800 48.31100
H  58.76700 26.83200 45.71900
H  60.19700 25.65500 45.77400
H  60.77700 26.58500 48.00400
H  59.33500 27.52000 48.09700
H  60.41000 28.12300 46.87100
H  55.26200 30.38200 46.12100
H  55.97200 29.42300 47.47300
H  54.36400 30.06300 47.63000
H  50.34400 27.67800 45.25800
H  48.31000 27.98900 41.23200
H  49.01800 29.56100 41.56700
H  47.67000 29.14500 42.43200

