158

Mg 26.97300 50.85000 26.92600
C  24.88100 51.78400 29.52100
C  29.35100 49.86100 29.24700
C  29.01400 49.90700 24.41200
C  24.74400 52.24400 24.65100
N  27.06300 50.81100 29.02600
C  26.06000 51.20600 29.97000
C  26.52900 50.95800 31.38300
C  28.01200 50.69600 31.25200
C  28.13600 50.38000 29.73100
C  28.87000 51.82900 31.83900
C  25.69000 49.67400 31.92100
C  25.18400 49.67300 33.32700
H  25.88800 50.34600 34.51300
N  28.92500 50.01600 26.79400
C  29.77000 49.62000 27.89400
C  30.96500 48.97500 27.47300
C  30.94000 49.04900 26.08600
C  29.57200 49.68600 25.65200
C  31.94700 48.30000 28.42400
C  31.99000 48.65200 25.13300
O  31.91400 48.73300 23.91800
C  33.22500 47.97500 25.56100
N  26.83800 50.88300 24.89200
C  27.78200 50.48300 24.03200
C  27.41800 50.73800 22.52300
C  25.93600 51.29800 22.60900
C  25.85600 51.54100 24.16500
C  28.38100 51.70700 21.75800
C  24.93500 50.27700 22.15200
C  23.47500 50.61200 21.70800
N  25.18200 51.84300 26.93000
C  24.38000 52.36900 25.96700
C  23.27800 53.01400 26.56400
C  23.33200 52.79500 27.98100
C  24.52100 51.98200 28.11200
C  22.22800 53.82000 25.82700
C  22.74900 52.93800 29.31300
O  21.64100 53.38300 29.65300
C  23.70800 52.23000 30.39600
C  24.09300 53.27800 31.39500
O  24.85400 54.26200 31.23200
O  23.58600 52.86000 32.55000
C  23.73500 53.66200 33.79400
H  29.95100 49.56600 30.11100
H  29.50200 49.58900 23.48800
H  24.07000 52.76700 23.97000
H  26.27500 51.79400 32.03500
H  28.23600 49.73600 31.71800
H  29.29900 51.49300 32.78300
H  28.30000 52.74800 31.97500
H  29.78800 51.92900 31.25900
H  26.17500 48.71100 31.76200
H  24.70800 49.60300 31.45300
H  25.07800 48.60000 33.48900
H  24.12100 49.89000 33.43600
H  33.01300 48.48700 28.30400
H  31.67300 47.24600 28.47100
H  31.79300 48.66400 29.44000
H  33.81600 48.62900 26.20200
H  33.84000 47.68500 24.70900
H  32.93400 47.04000 26.04000
H  27.53700 49.75500 22.06800
H  25.82300 52.21700 22.03400
H  29.15600 52.07400 22.43100
H  27.87000 52.60400 21.40700
H  28.87400 51.11100 20.98900
H  24.76900 49.49500 22.89200
H  25.39300 49.78300 21.29500
H  22.70700 49.97300 22.14400
H  23.42000 50.49500 20.62500
H  23.17100 51.63100 21.94700
H  22.10500 54.78800 26.31300
H  21.38900 53.16000 26.04400
H  22.33700 53.93900 24.74900
H  23.18300 51.40600 30.87800
H  22.80300 53.92100 34.29700
H  24.19400 54.63500 33.62000
H  24.30200 53.09300 34.53100
Mg -11.91500 39.26300 42.07700
C  -10.20600 36.31100 41.33100
C  -9.52300 41.00500 40.47200
C  -13.88300 42.06200 42.42200
C  -14.56800 37.28600 43.15400
N  -10.13700 38.64300 41.01300
C  -9.58500 37.38200 40.80100
C  -8.39500 37.40200 39.81300
C  -8.08500 39.00600 39.78500
C  -9.38200 39.61500 40.39900
C  -6.75400 39.40700 40.41500
C  -8.58100 36.76000 38.42200
C  -7.41600 35.81200 38.03100
H  -6.24100 36.41400 37.27600
N  -11.60500 41.29800 41.60700
C  -10.53900 41.84400 40.97400
C  -10.72600 43.27600 40.87400
C  -11.92200 43.58500 41.64200
C  -12.52700 42.22400 41.92700
C  -9.69900 44.16500 40.15800
C  -12.39600 44.98600 41.86100
O  -11.77200 45.94200 41.35000
C  -13.69100 45.35400 42.64600
N  -13.93300 39.62800 42.67000
C  -14.52800 40.85500 42.72100
C  -15.96400 40.72200 43.16100
C  -16.21300 39.19600 43.41800
C  -14.82800 38.63700 42.98100
C  -16.45900 41.59200 44.33600
C  -17.38900 38.50100 42.71200
C  -18.63700 37.94400 43.51800
N  -12.30500 37.26800 42.43300
C  -13.40800 36.62300 42.86000
C  -13.17200 35.15900 42.83800
C  -11.90000 35.03700 42.27100
C  -11.45000 36.27300 42.03200
C  -14.15200 34.03400 43.27700
C  -10.87700 34.04900 41.80400
O  -10.95000 32.81800 41.80200
C  -9.70100 34.92600 41.17500
C  -8.55700 34.68400 42.04000
O  -8.30400 35.22800 43.12800
O  -7.60800 33.89900 41.40700
C  -6.23000 33.81800 41.83000
H  -8.89500 41.52900 39.74700
H  -14.62200 42.84700 42.59200
H  -15.36600 36.62200 43.49400
H  -7.44800 37.06200 40.23200
H  -8.09200 39.32400 38.74200
H  -6.58600 38.86300 41.34400
H  -6.90100 40.46600 40.62400
H  -5.96200 39.13700 39.71600
H  -8.59500 37.44200 37.57100
H  -9.51800 36.20800 38.49100
H  -7.80300 34.96600 37.46200
H  -7.07500 35.48900 39.01400
H  -9.53900 45.10800 40.68100
H  -10.14000 44.23700 39.16400
H  -8.78500 43.60400 39.96600
H  -14.47600 44.99500 41.98100
H  -13.80200 46.42300 42.82700
H  -13.64300 44.77400 43.56800
H  -16.56700 40.86600 42.26500
H  -16.34500 38.94000 44.46900
H  -17.04600 42.41400 43.92500
H  -15.61300 42.09800 44.80100
H  -17.05300 41.03100 45.05600
H  -16.98100 37.65900 42.15200
H  -17.86100 39.08600 41.92200
H  -18.66000 36.85400 43.52600
H  -19.52900 38.46100 43.16500
H  -18.54900 38.07800 44.59600
H  -15.10200 34.10500 42.74900
H  -14.40700 34.20500 44.32300
H  -13.67500 33.05500 43.23500
H  -9.51700 34.62900 40.14300
H  -5.55900 34.28800 41.11100
H  -5.92000 32.77400 41.88500
H  -6.00500 34.20000 42.82500

