158

Mg 16.54900 -2.19100 27.10600
C  15.46900 -0.32000 29.94600
C  18.41300 -4.14200 29.27600
C  17.36900 -4.04900 24.53500
C  14.58000 -0.07500 25.13800
N  16.88200 -2.16300 29.40600
C  16.32300 -1.37200 30.32800
C  16.79800 -1.76200 31.72000
C  17.75900 -3.01800 31.47600
C  17.75300 -3.05200 29.95900
C  19.17800 -2.85600 32.02600
C  15.68500 -2.05200 32.82100
C  16.06800 -1.71700 34.23200
H  17.58000 -1.33200 34.58100
N  17.76200 -3.75300 26.90200
C  18.42200 -4.44900 27.90300
C  19.09000 -5.64700 27.33800
C  18.67400 -5.68100 26.03000
C  17.89300 -4.44500 25.73800
C  19.96300 -6.69500 28.19300
C  19.06600 -6.69200 24.97300
O  18.57800 -6.68900 23.85600
C  19.98900 -7.83100 25.38500
N  16.10600 -2.03100 25.13000
C  16.62600 -2.92100 24.23600
C  16.36500 -2.49600 22.80700
C  15.31900 -1.34900 23.00300
C  15.23800 -1.16000 24.50000
C  17.61400 -2.05700 22.01500
C  13.92900 -1.59400 22.32800
C  12.85200 -2.35100 22.98700
N  15.30100 -0.55600 27.39300
C  14.59000 0.23300 26.51800
C  13.88600 1.29600 27.13600
C  14.14800 1.07800 28.55000
C  15.07300 -0.00400 28.66300
C  12.98100 2.28700 26.45100
C  13.75700 1.55200 29.89500
O  13.05300 2.38100 30.35700
C  14.71400 0.65800 30.85600
C  15.56100 1.62000 31.54400
O  16.23600 2.49600 31.08000
O  15.32200 1.58400 32.88500
C  15.92000 2.61200 33.81400
H  19.02000 -4.80100 29.90100
H  17.57000 -4.66200 23.65400
H  14.01900 0.60900 24.49700
H  17.42400 -0.92000 32.01200
H  17.33700 -3.95100 31.84800
H  19.30200 -3.66300 32.74800
H  19.32100 -1.92100 32.56900
H  19.95100 -2.85800 31.25800
H  15.51400 -3.12800 32.79500
H  14.69200 -1.63800 32.65300
H  15.65200 -2.53900 34.81400
H  15.47400 -0.83500 34.47200
H  20.23000 -6.42600 29.21500
H  20.91700 -6.84800 27.68900
H  19.40700 -7.63200 28.17900
H  19.51000 -8.56000 26.03900
H  20.92200 -7.36000 25.69300
H  20.20800 -8.35000 24.45200
H  15.87900 -3.33700 22.31200
H  15.67100 -0.37700 22.65800
H  17.72500 -2.47600 21.01500
H  18.46600 -2.48600 22.54400
H  17.80600 -0.98700 21.93700
H  14.03900 -2.03800 21.33900
H  13.50300 -0.60800 22.14100
H  12.13900 -1.81200 23.61100
H  13.34500 -3.01800 23.69400
H  12.30700 -3.03300 22.33400
H  12.29600 1.68700 25.85100
H  13.63400 2.92600 25.85800
H  12.27900 2.82600 27.08800
H  14.03800 0.11400 31.51600
H  16.83600 2.19500 34.23200
H  15.15600 2.85800 34.55100
H  16.16100 3.49300 33.21900
Mg 45.85900 17.21000 27.98900
C  44.22200 16.97900 31.05800
C  48.18700 19.14500 29.54200
C  47.26600 17.50100 25.13600
C  43.21900 15.25500 26.62500
N  46.09300 18.04800 30.08100
C  45.35700 17.73900 31.12500
C  46.06000 18.18300 32.46800
C  47.20000 19.11000 31.94100
C  47.19200 18.73600 30.44600
C  47.01200 20.65600 32.26600
C  46.63100 16.99300 33.33900
C  46.94400 17.33300 34.88100
H  46.52100 18.67400 35.49400
N  47.51800 18.20800 27.40700
C  48.29900 18.99200 28.20900
C  49.31800 19.63500 27.35700
C  49.07500 19.14700 26.06000
C  47.96500 18.22400 26.15900
C  50.34900 20.52800 27.93100
C  49.75400 19.46400 24.72100
O  49.51900 18.99700 23.66900
C  50.85500 20.51700 24.74500
N  45.36100 16.30200 26.19800
C  46.15400 16.64400 25.10000
C  45.54800 16.16100 23.80200
C  44.44900 15.10100 24.27500
C  44.35000 15.50700 25.79700
C  44.83200 17.22800 22.93200
C  44.84200 13.57100 24.13500
C  44.35200 12.89600 22.83000
N  44.01200 16.35000 28.62300
C  43.05500 15.60600 27.95100
C  41.97000 15.14900 28.78000
C  42.37100 15.65900 30.08000
C  43.62400 16.32600 29.89100
C  40.80200 14.33000 28.43700
C  42.02500 15.83600 31.49600
O  41.01000 15.50400 32.15000
C  43.23500 16.63900 32.16500
C  42.79700 17.79600 33.01000
O  42.26200 18.83700 32.63400
O  42.98400 17.48300 34.34300
C  42.26000 18.33400 35.34400
H  48.94100 19.70600 30.09800
H  47.59300 17.75600 24.12600
H  42.43800 14.58900 26.25000
H  45.30600 18.74100 33.02300
H  48.10200 18.76000 32.44300
H  46.74100 21.21100 31.36800
H  47.93800 21.09700 32.63400
H  46.18800 20.70000 32.97800
H  47.52800 16.61700 32.84700
H  45.89300 16.20800 33.18000
H  48.01800 17.18500 35.00000
H  46.43800 16.65600 35.56900
H  51.18500 20.81200 27.29100
H  50.86000 20.22000 28.84300
H  49.91500 21.50600 28.13900
H  50.43300 21.32200 25.34600
H  51.08700 21.05000 23.82400
H  51.83100 20.23900 25.14300
H  46.30900 15.72700 23.15300
H  43.46000 15.25400 23.84400
H  45.13800 18.25000 23.15800
H  43.75000 17.10100 22.98400
H  45.14200 17.01100 21.91000
H  44.30300 13.03400 24.91600
H  45.91600 13.49800 24.30300
H  43.55300 13.52000 22.43000
H  43.92200 11.91600 23.03700
H  45.09800 12.88300 22.03500
H  40.47900 14.63100 27.44100
H  39.94800 14.40100 29.11000
H  41.13400 13.30200 28.29500
H  43.64500 15.81800 32.75300
H  41.20900 18.49800 35.10600
H  42.74700 19.30900 35.32100
H  42.33100 18.02300 36.38600

