158

Mg 26.13000 1.56900 29.39900
C  28.21200 1.22400 32.15400
C  23.54500 2.05800 31.39100
C  24.12500 1.58500 26.61000
C  28.81300 0.58100 27.25500
N  25.92600 1.56100 31.53600
C  26.90500 1.51000 32.49500
C  26.41700 1.80800 33.90200
C  24.89300 1.86400 33.58700
C  24.73300 1.86500 32.05800
C  23.80700 0.84000 34.15100
C  27.00800 3.13100 34.57300
C  27.66200 2.90400 35.87300
H  27.28600 3.81500 37.03300
N  24.12100 1.85000 29.03700
C  23.25500 1.99900 29.96900
C  21.99500 2.32200 29.38000
C  22.14200 2.05200 28.00100
C  23.48500 1.79400 27.82200
C  20.76100 2.60500 30.15200
C  21.06100 2.03700 26.96400
O  21.25500 1.74500 25.80200
C  19.65700 2.20500 27.39600
N  26.45300 1.03600 27.26900
C  25.47500 1.20800 26.30200
C  26.01400 1.22500 24.82900
C  27.47000 0.77700 25.06700
C  27.64400 0.94500 26.56100
C  25.25800 0.25300 23.86800
C  28.56600 1.53700 24.28100
C  28.52200 1.53800 22.71700
N  28.16600 1.01100 29.55300
C  29.13300 0.65200 28.68300
C  30.37800 0.43700 29.41800
C  29.99000 0.57900 30.73500
C  28.64700 1.00200 30.80600
C  31.79600 0.05900 28.95300
C  30.63000 0.59800 32.01500
O  31.81300 0.31800 32.37900
C  29.43700 0.92900 33.01500
C  29.23100 -0.30700 33.84600
O  29.30600 -1.49300 33.51200
O  29.10000 0.07600 35.12000
C  29.02500 -0.85700 36.22000
H  22.73300 2.21000 32.10500
H  23.51000 1.69500 25.71500
H  29.69000 0.29300 26.67100
H  26.63300 0.91700 34.49200
H  24.50900 2.83100 33.91400
H  23.46900 0.19400 33.34100
H  22.97800 1.34800 34.64300
H  24.29400 0.24900 34.92600
H  26.20600 3.80900 34.86400
H  27.67300 3.65400 33.88500
H  28.73500 2.98900 35.69800
H  27.58500 1.88500 36.25100
H  20.85100 2.72500 31.23200
H  20.19100 1.67600 30.12600
H  20.23800 3.48800 29.78500
H  19.08800 1.94300 26.50400
H  19.56000 3.28200 27.53300
H  19.40200 1.54800 28.22800
H  26.13000 2.25300 24.48500
H  27.52100 -0.30500 24.95000
H  24.89500 -0.56300 24.49300
H  25.87800 -0.18900 23.08800
H  24.45700 0.73000 23.30300
H  29.54600 1.20800 24.62800
H  28.43200 2.59100 24.52400
H  29.42300 1.90700 22.22600
H  27.73900 2.22900 22.40600
H  28.21800 0.54700 22.37900
H  31.89200 0.14500 27.87100
H  32.09900 -0.92600 29.30900
H  32.54500 0.73300 29.37000
H  29.69800 1.81400 33.59600
H  29.37300 -1.86000 35.97100
H  27.95500 -0.86400 36.42800
H  29.69700 -0.50800 37.00400
Mg 8.96000 48.79200 25.88600
C  6.78100 48.84700 28.55100
C  11.47000 50.13400 27.79700
C  10.90900 48.39100 23.27200
C  6.18300 47.90400 23.80800
N  9.11500 49.39000 27.92600
C  8.12500 49.14800 28.89600
C  8.62100 49.69300 30.33200
C  9.98700 50.48000 29.95900
C  10.21400 50.04400 28.45900
C  10.00400 52.03000 30.11700
C  8.77700 48.62700 31.45000
C  8.23800 49.04600 32.82900
H  8.27500 48.04600 34.01600
N  10.97200 49.12700 25.60400
C  11.88800 49.64900 26.52000
C  13.18300 49.54200 25.93000
C  13.08700 48.98900 24.59200
C  11.58200 48.88300 24.37900
C  14.44000 49.73800 26.85900
C  14.16900 48.59200 23.62400
O  13.99900 48.16300 22.49000
C  15.51500 48.82100 23.99500
N  8.57100 48.49700 23.76300
C  9.61800 48.29500 22.91900
C  9.14200 47.80700 21.55300
C  7.61600 47.82900 21.70000
C  7.44800 48.02100 23.21400
C  9.70300 48.36500 20.20200
C  6.85200 46.56600 21.15600
C  5.45800 46.77000 20.40900
N  6.84500 48.53400 26.09400
C  5.87700 48.26000 25.14800
C  4.52700 48.19200 25.91200
C  4.81700 48.44600 27.27600
C  6.22200 48.60200 27.30600
C  3.13700 47.97100 25.26400
C  4.30900 48.47300 28.57700
O  3.20300 48.29700 29.08900
C  5.48400 48.91700 29.46900
C  5.37600 47.91900 30.55900
O  5.77400 46.74900 30.47500
O  4.72400 48.40100 31.67800
C  4.57300 47.48600 32.78800
H  12.26500 50.60500 28.37900
H  11.48500 47.99400 22.43400
H  5.34200 47.50700 23.23600
H  7.87500 50.36100 30.76400
H  10.86600 50.20000 30.53900
H  10.29500 52.30700 31.13000
H  9.03600 52.45800 29.85400
H  10.69800 52.52500 29.43700
H  9.83600 48.38700 31.54400
H  8.19600 47.79600 31.04900
H  7.15800 49.14500 32.72100
H  8.72600 49.98600 33.08700
H  14.26500 49.88900 27.92500
H  14.99700 50.57200 26.43400
H  14.98200 48.81300 26.66000
H  15.88500 48.11800 24.74100
H  15.58600 49.88600 24.21600
H  16.23700 48.71200 23.18600
H  9.55600 46.80000 21.51000
H  7.19100 48.75900 21.32200
H  10.09000 47.54600 19.59600
H  10.59900 48.95400 20.39700
H  8.96600 48.87600 19.58200
H  6.57100 45.85400 21.93200
H  7.54100 46.01100 20.51900
H  4.75700 46.04200 20.81900
H  5.69700 46.58700 19.36200
H  5.13600 47.79500 20.59200
H  2.75600 48.88200 24.80300
H  2.45500 47.40900 25.90100
H  3.55400 47.23000 24.58100
H  5.30800 49.95900 29.73900
H  4.02000 48.08200 33.51400
H  5.55300 47.19000 33.16100
H  3.95600 46.62100 32.54200

