158

Mg 47.12700 25.18100 28.12300
C  48.27000 27.47900 30.85100
C  46.29000 23.01800 30.51500
C  46.74000 23.01600 25.61500
C  48.55800 27.55000 25.96000
N  47.29500 25.23100 30.42500
C  47.73900 26.24100 31.30500
C  47.41400 25.88200 32.78000
C  47.11200 24.34300 32.63400
C  46.81200 24.21300 31.15300
C  48.15700 23.24200 33.08600
C  46.24000 26.70600 33.35400
C  46.51000 27.41000 34.64800
H  45.35600 27.58600 35.60600
N  46.56100 23.32200 28.05800
C  46.24900 22.54500 29.15300
C  45.83600 21.23200 28.68400
C  45.92400 21.23000 27.30400
C  46.41200 22.55000 26.90200
C  45.35600 20.15300 29.58300
C  45.60300 20.04900 26.27300
O  45.79700 20.17400 25.08100
C  45.20000 18.65800 26.81600
N  47.66200 25.24900 26.07600
C  47.24500 24.27600 25.22900
C  47.33600 24.74400 23.80100
C  47.79900 26.22900 23.91800
C  48.01600 26.38500 25.39800
C  48.42500 23.92300 23.03700
C  46.72400 27.26800 23.51200
C  46.67800 27.70000 22.06700
N  48.16600 27.09800 28.26000
C  48.69900 27.85400 27.32200
C  49.36000 28.93100 27.94600
C  49.17300 28.95300 29.29200
C  48.39500 27.77500 29.48000
C  50.15400 29.99900 27.13500
C  49.50200 29.59900 30.54100
O  50.14100 30.62500 30.79200
C  48.77000 28.73100 31.67800
C  49.76600 28.44800 32.71200
O  50.52300 27.51700 32.72800
O  49.74100 29.44500 33.70800
C  50.58100 29.21000 34.88400
H  45.98200 22.36100 31.33000
H  46.43200 22.53500 24.68400
H  48.94000 28.15800 25.13800
H  48.33300 25.99800 33.35500
H  46.22000 24.07400 33.20000
H  48.92300 23.60600 33.77100
H  48.69300 22.81300 32.24000
H  47.60200 22.42000 33.53900
H  45.33500 26.11200 33.47400
H  46.10300 27.46300 32.58100
H  46.75100 28.47000 34.55800
H  47.23900 26.80700 35.18900
H  44.29700 19.98000 29.39100
H  45.50300 20.47200 30.61500
H  45.79200 19.18200 29.34800
H  44.33400 18.65800 27.47700
H  46.15000 18.43000 27.30000
H  45.02400 18.02200 25.94800
H  46.40500 24.61500 23.24900
H  48.71500 26.59400 23.45400
H  48.04900 22.99600 22.60400
H  49.05600 23.48600 23.81100
H  49.12600 24.42800 22.37200
H  46.66000 28.09300 24.22200
H  45.77700 26.73200 23.58200
H  47.44700 27.13700 21.53900
H  46.76200 28.78400 21.99500
H  45.72000 27.52200 21.57900
H  49.91300 30.07300 26.07400
H  51.19800 29.68800 27.16700
H  49.93600 30.94100 27.63900
H  47.92100 29.24900 32.12300
H  50.39500 30.12600 35.44600
H  51.64600 29.04200 34.72800
H  50.16500 28.42900 35.52000
Mg -1.46700 34.81900 27.29000
C  -3.15500 33.04200 29.82700
C  0.14300 36.62500 29.82800
C  -0.15000 36.74100 25.00000
C  -3.18800 33.03900 24.92900
N  -1.56600 34.91500 29.59700
C  -2.34400 34.05800 30.42700
C  -2.11700 34.42400 31.91500
C  -1.15400 35.69100 31.85900
C  -0.85100 35.83000 30.28400
C  -1.69800 36.93200 32.43800
C  -1.47000 33.10400 32.63900
C  -2.24700 32.47700 33.86100
H  -1.55000 32.54200 35.17500
N  -0.20700 36.54600 27.35000
C  0.40100 37.04200 28.48200
C  1.45000 37.98500 28.11400
C  1.42000 38.02800 26.67300
C  0.33100 37.09300 26.28700
C  2.25500 38.83600 29.05400
C  2.28400 38.80600 25.63500
O  1.98900 38.85600 24.44400
C  3.44900 39.50500 26.19100
N  -1.63400 34.87300 25.27800
C  -1.05700 35.82300 24.48600
C  -1.31400 35.73700 22.94100
C  -2.12800 34.40400 22.98500
C  -2.44900 34.11800 24.44700
C  -2.05300 36.92300 22.33900
C  -1.38800 33.18800 22.32700
C  -0.37800 32.39500 23.19700
N  -2.85000 33.34400 27.29400
C  -3.43100 32.68000 26.26900
C  -4.40600 31.72700 26.70300
C  -4.25500 31.82500 28.13900
C  -3.31200 32.83100 28.41900
C  -5.21800 30.81900 25.94600
C  -4.67300 31.16900 29.41400
O  -5.39300 30.21200 29.59900
C  -4.02400 31.95800 30.49500
C  -5.19100 32.51200 31.31300
O  -5.95300 33.48600 30.95400
O  -5.17600 31.88400 32.53000
C  -6.18100 32.15600 33.53400
H  0.67000 37.05500 30.68200
H  0.26600 37.43500 24.26600
H  -3.53100 32.50700 24.03900
H  -3.15700 34.63600 32.16200
H  -0.27800 35.40300 32.43900
H  -2.17600 36.73300 33.39800
H  -2.34400 37.45600 31.73300
H  -0.83700 37.54900 32.69700
H  -0.41000 33.16800 32.88100
H  -1.50200 32.32900 31.87300
H  -2.30000 31.40400 33.67700
H  -3.18400 33.02200 33.97500
H  3.29000 38.51300 29.16400
H  1.74100 38.72000 30.00800
H  2.21200 39.86400 28.69600
H  4.13100 38.78300 26.64000
H  3.19500 40.27100 26.92400
H  3.95700 40.05300 25.39800
H  -0.39200 35.51200 22.40300
H  -3.06700 34.59100 22.46500
H  -1.71800 37.83300 22.83700
H  -3.11900 36.70300 22.30500
H  -1.64200 36.96800 21.33100
H  -0.85000 33.59900 21.47200
H  -2.06900 32.46700 21.87400
H  -0.38500 32.79400 24.21100
H  0.56700 32.59600 22.69300
H  -0.57800 31.32400 23.25000
H  -5.39700 31.17500 24.93100
H  -6.09400 30.97100 26.57600
H  -4.73300 29.84500 26.00800
H  -3.47500 31.28900 31.15600
H  -7.02200 32.75000 33.17600
H  -5.73200 32.70000 34.36500
H  -6.54200 31.21000 33.93600

