158

Mg 25.02700 0.51400 29.43100
C  27.35300 0.37000 32.09300
C  22.58400 0.83200 31.72100
C  22.87000 0.41500 26.92000
C  27.69200 -0.31500 27.22400
N  25.02100 0.63000 31.64800
C  26.05000 0.57000 32.53800
C  25.55200 0.74400 33.94200
C  24.03500 0.69000 33.79800
C  23.83500 0.73800 32.30500
C  23.42800 -0.67100 34.37300
C  26.09400 2.04700 34.67000
C  26.75600 1.72400 36.01800
H  26.30500 2.55000 37.33300
N  22.96800 0.72000 29.37300
C  22.16200 0.80600 30.42500
C  20.82200 1.09100 30.01300
C  20.79900 0.99400 28.61400
C  22.22900 0.66300 28.19000
C  19.63200 1.46300 30.98000
C  19.73900 1.23900 27.71400
O  19.92000 1.28800 26.52700
C  18.30600 1.41600 28.07100
N  25.19300 -0.10900 27.37700
C  24.16800 0.11800 26.56500
C  24.62900 -0.01100 25.11400
C  26.14400 -0.16500 25.20200
C  26.40600 -0.18200 26.68700
C  23.84200 -1.12200 24.37100
C  26.93400 0.93100 24.43300
C  26.47300 1.24600 22.99800
N  27.09300 0.10300 29.53700
C  28.04400 -0.17900 28.58300
C  29.29200 -0.29600 29.16100
C  29.12500 -0.01700 30.51600
C  27.70400 0.13100 30.75000
C  30.64300 -0.62100 28.59700
C  29.76700 0.06400 31.83700
O  30.94400 -0.08900 32.16900
C  28.68200 0.52200 32.86000
C  28.68700 -0.45600 33.96500
O  27.95800 -1.41400 34.04900
O  29.62100 -0.09000 34.91500
C  29.72200 -1.09100 36.03900
H  21.78800 0.99700 32.45000
H  22.16200 0.38500 26.08800
H  28.51900 -0.60100 26.57100
H  25.76600 -0.19000 34.46100
H  23.54600 1.53500 34.28200
H  23.17100 -1.30300 33.52300
H  22.47400 -0.34100 34.78300
H  24.08200 -1.24700 35.02900
H  25.21000 2.67900 34.75400
H  26.88300 2.46200 34.04300
H  27.78700 2.05900 35.90300
H  26.73200 0.65300 36.21800
H  19.05600 0.54600 30.85100
H  19.04700 2.31200 30.62700
H  19.86800 1.58300 32.03700
H  18.06400 0.76500 28.91100
H  17.69100 1.29900 27.17900
H  18.26700 2.46200 28.37700
H  24.29200 0.91200 24.64200
H  26.40900 -1.17200 24.87900
H  23.25400 -1.66500 25.10900
H  24.56400 -1.84900 23.99900
H  23.19600 -0.77200 23.56600
H  27.85500 0.42600 24.14200
H  27.17000 1.81900 25.01800
H  25.74000 0.51700 22.65100
H  27.30300 1.07500 22.31400
H  26.01700 2.21900 22.81400
H  30.75400 -0.62100 27.51300
H  30.98600 -1.58500 28.97400
H  31.38300 0.13100 28.86900
H  28.84800 1.52900 33.24400
H  30.02500 -2.07800 35.69000
H  28.75400 -1.13900 36.53800
H  30.50100 -0.71600 36.70200
Mg 54.06200 24.59400 44.20300
C  51.64900 26.95500 43.41000
C  51.86000 22.17300 43.16200
C  56.66500 22.28700 44.10400
C  56.32400 27.16600 44.67000
N  52.08100 24.57700 43.28900
C  51.24400 25.61400 43.11400
C  49.91900 25.21900 42.48000
C  49.88600 23.75000 42.96200
C  51.40600 23.45800 43.16400
C  49.13600 23.48400 44.32400
C  49.90600 25.38700 40.93600
C  48.56100 25.64600 40.28300
H  48.36500 25.39900 38.83600
N  54.22900 22.47500 43.74500
C  53.18500 21.68000 43.29100
C  53.66500 20.35900 42.97200
C  55.08700 20.35300 43.12800
C  55.42600 21.70200 43.72900
C  52.77200 19.22000 42.41200
C  56.06100 19.23600 42.80800
O  55.67100 18.21800 42.23700
C  57.52400 19.34500 43.04500
N  56.19500 24.70100 44.49100
C  57.02700 23.61800 44.43800
C  58.47400 24.13700 44.75400
C  58.34600 25.68800 44.73400
C  56.85700 25.86800 44.67500
C  59.01000 23.46100 46.02700
C  59.17500 26.50600 43.71700
C  58.83500 26.49100 42.26400
N  54.07100 26.65400 44.15300
C  54.98300 27.56800 44.35300
C  54.41200 28.94100 44.34100
C  53.07100 28.70200 44.02800
C  52.91800 27.32700 43.82700
C  55.06100 30.24200 44.59600
C  51.80000 29.34900 43.76100
O  51.52700 30.52400 43.94600
C  50.83300 28.24100 43.22300
C  50.69300 28.64900 41.85000
O  51.54000 28.52900 40.99500
O  49.51100 29.23700 41.71100
C  49.10800 29.60700 40.31900
H  51.07300 21.46300 42.89900
H  57.48100 21.56800 44.20400
H  57.00200 27.98200 44.93000
H  49.03500 25.75800 42.82000
H  49.54600 23.05700 42.19200
H  48.23100 22.90400 44.14000
H  48.91100 24.44000 44.79600
H  49.77600 22.86500 44.95200
H  50.19100 24.43500 40.48900
H  50.58700 26.06900 40.42600
H  48.36300 26.70300 40.46000
H  47.79600 25.10200 40.83700
H  52.92500 19.01700 41.35200
H  51.73400 19.54900 42.45500
H  53.01600 18.25400 42.85400
H  57.99800 20.20600 42.57400
H  57.95400 18.43800 42.62200
H  57.71500 19.28700 44.11700
H  59.18900 23.87600 43.97400
H  58.78300 26.07300 45.65500
H  58.37400 22.59500 46.20900
H  58.94100 24.23300 46.79400
H  60.02200 23.06000 45.97100
H  60.13500 25.99600 43.79100
H  59.22200 27.50300 44.15400
H  58.53000 25.48900 41.96200
H  59.74200 26.88100 41.80100
H  58.01100 27.18800 42.11200
H  55.95500 30.29500 43.97600
H  55.39300 30.39600 45.62300
H  54.46600 31.10500 44.29600
H  49.86800 28.17200 43.72400
H  48.74500 30.63400 40.36700
H  48.31300 28.95100 39.96600
H  49.90000 29.47300 39.58200

