158

Mg 41.04100 41.77700 26.46900
C  40.36400 43.87500 29.26000
C  42.50500 39.65500 28.54100
C  42.06600 40.05500 23.71200
C  39.83300 44.34100 24.42400
N  41.39200 41.76700 28.68000
C  40.84800 42.63600 29.60700
C  40.97600 42.09900 31.01300
C  41.91600 40.84000 30.75700
C  41.93100 40.68400 29.23700
C  43.38600 40.92000 31.22700
C  39.65500 41.92100 31.82700
C  39.80900 41.26800 33.25000
H  39.00000 41.87800 34.34400
N  42.06700 40.08800 26.21500
C  42.58000 39.32000 27.16100
C  43.08000 38.09000 26.58800
C  42.87000 38.19800 25.20500
C  42.35800 39.50600 24.97800
C  43.68100 36.96900 27.38700
C  43.09300 37.14500 24.19300
O  42.84800 37.25200 23.00600
C  43.67200 35.82400 24.62400
N  40.90700 42.12700 24.40100
C  41.44000 41.29000 23.44700
C  41.25400 41.87100 22.01400
C  40.18700 43.02600 22.30000
C  40.27600 43.21600 23.78000
C  42.65200 42.38400 21.41100
C  38.70400 42.77300 21.84200
C  38.13900 41.46700 22.25400
N  40.26400 43.71300 26.68800
C  39.87800 44.65500 25.78900
C  39.62700 45.88700 26.43400
C  39.74200 45.62600 27.78700
C  40.15800 44.27700 27.92200
C  39.21400 47.14200 25.79100
C  39.63400 46.23100 29.09200
O  39.35600 47.31500 29.44200
C  40.02000 45.13300 30.13600
C  41.16600 45.57600 31.02000
O  42.31800 45.66000 30.64800
O  40.81200 45.87400 32.26000
C  41.92800 46.19800 33.20100
H  42.67500 38.81000 29.21100
H  42.29000 39.47800 22.81300
H  39.44000 45.17600 23.84000
H  41.62800 42.84800 31.46300
H  41.41700 39.96800 31.17700
H  44.16700 40.86900 30.46800
H  43.46700 40.10800 31.94900
H  43.47100 41.81600 31.84300
H  39.02500 41.34800 31.14700
H  39.18200 42.88000 32.04200
H  40.87900 41.27800 33.46000
H  39.48400 40.23000 33.17700
H  44.48000 36.59900 26.74400
H  42.88700 36.28700 27.69100
H  44.21200 37.42600 28.22200
H  43.21300 35.34000 25.48600
H  44.75700 35.91900 24.68100
H  43.56000 35.19300 23.74200
H  40.78400 41.11400 21.38600
H  40.57900 43.93500 21.84300
H  42.65900 43.47300 21.36300
H  42.82100 41.99200 20.40800
H  43.49600 42.13800 22.05600
H  38.60300 42.89700 20.76400
H  38.01100 43.53900 22.19100
H  37.12500 41.52800 22.64800
H  38.65700 40.97600 23.07800
H  38.18300 40.87200 21.34200
H  39.74200 47.22500 24.84100
H  39.44400 48.00800 26.41100
H  38.13900 47.28600 25.68800
H  39.17500 44.93900 30.79700
H  42.54600 46.96000 32.72700
H  42.40700 45.22700 33.32600
H  41.48000 46.63300 34.09400
Mg 16.44900 52.44500 26.82000
C  18.35200 50.86900 29.10500
C  14.01500 53.08800 29.35600
C  14.43300 53.97600 24.51700
C  18.62700 51.65000 24.17700
N  16.21300 52.09200 28.96000
C  17.27100 51.55500 29.67900
C  16.98900 51.74900 31.12600
C  15.53200 52.20100 31.25500
C  15.20300 52.51900 29.83300
C  14.53200 51.08600 31.71400
C  18.04800 52.81000 31.65700
C  18.24400 52.93900 33.13400
H  17.32700 52.04200 34.09700
N  14.51700 53.44900 26.97500
C  13.68000 53.60700 28.09700
C  12.57600 54.46800 27.83800
C  12.75200 54.84700 26.43300
C  13.93700 54.12100 25.89000
C  11.59600 54.89300 28.88500
C  11.97800 55.83100 25.54300
O  12.32700 56.00700 24.42500
C  10.78100 56.61200 26.14700
N  16.49100 52.59200 24.70500
C  15.50000 53.26700 23.97600
C  15.59700 53.03000 22.48800
C  17.14400 52.64000 22.32400
C  17.53300 52.42100 23.78300
C  14.68900 51.94300 22.01600
C  18.03200 53.54200 21.44000
C  19.00400 54.50600 22.16800
N  18.11400 51.41600 26.64800
C  18.88100 51.13600 25.51200
C  19.98300 50.31500 25.91600
C  19.82000 50.17300 27.34500
C  18.69000 50.89300 27.74300
C  21.02900 49.71200 24.96400
C  20.32500 49.54500 28.59200
O  21.32900 48.86400 28.67000
C  19.54500 50.17200 29.79400
C  19.08100 49.14000 30.66300
O  18.22300 48.35700 30.28600
O  19.59200 49.35100 31.93100
C  19.24600 48.40000 33.02700
H  13.24000 53.14900 30.12300
H  13.74400 54.30200 23.73500
H  19.45700 51.32000 23.54900
H  17.14800 50.74700 31.52400
H  15.41100 53.04600 31.93200
H  14.12500 50.59400 30.83100
H  13.79600 51.47600 32.41700
H  15.09100 50.29200 32.20900
H  17.78500 53.75900 31.19000
H  19.01700 52.53600 31.23900
H  18.06300 53.98400 33.38400
H  19.28300 52.68400 33.34600
H  10.69100 55.32800 28.46000
H  12.05500 55.65000 29.52100
H  11.22500 54.14500 29.58600
H  11.19600 57.12800 27.01300
H  9.90200 55.99700 26.34000
H  10.49400 57.36800 25.41500
H  15.36600 53.98300 22.01200
H  17.15200 51.67000 21.82700
H  15.19700 51.31200 21.28700
H  13.93400 52.47600 21.43800
H  14.11200 51.37000 22.74200
H  17.37700 54.16900 20.83600
H  18.57600 52.90700 20.74100
H  19.14800 54.25600 23.21900
H  18.62700 55.50400 21.94500
H  19.97900 54.41200 21.69000
H  21.88100 49.35400 25.54200
H  21.31500 50.50400 24.27200
H  20.64000 48.87600 24.38300
H  20.21600 50.94500 30.16800
H  18.30000 47.87500 32.89600
H  19.25100 48.87400 34.00800
H  20.03300 47.66600 33.19900

