158

Mg 40.99500 9.13400 29.44000
C  42.45400 10.28600 32.53900
C  38.53600 7.72700 31.28200
C  39.96400 7.64300 26.76800
C  43.99800 10.01400 28.00900
N  40.60300 8.98500 31.64600
C  41.21500 9.64500 32.73300
C  40.38500 9.62000 34.03900
C  39.15600 8.74500 33.63400
C  39.39700 8.49500 32.08500
C  39.08500 7.45700 34.41900
C  40.04900 11.08200 34.45600
C  39.03300 11.24700 35.65400
H  39.58300 11.42800 37.07300
N  39.40100 7.92300 29.05400
C  38.48400 7.47700 29.92900
C  37.40900 6.72400 29.18400
C  37.74700 6.79600 27.82300
C  39.04800 7.49300 27.86200
C  36.33200 5.93000 29.92200
C  37.03200 6.27500 26.62800
O  37.46100 6.24800 25.46200
C  35.64100 5.64800 26.82900
N  41.97400 8.64600 27.67800
C  41.24200 8.20500 26.62600
C  41.79500 8.39500 25.24100
C  43.07200 9.21800 25.65900
C  43.00900 9.38500 27.19200
C  42.26400 7.16400 24.44800
C  43.23700 10.56000 24.93300
C  42.03100 11.49200 25.02600
N  42.70900 10.10000 30.00800
C  43.86900 10.33400 29.33100
C  44.82000 11.10200 30.04700
C  44.23400 11.23300 31.30600
C  43.02700 10.49300 31.27800
C  46.08800 11.57300 29.61900
C  44.43400 11.78400 32.65200
O  45.22100 12.64300 33.08900
C  43.33000 11.11800 33.49000
C  43.86500 10.15200 34.55700
O  44.81400 9.38200 34.47500
O  43.00700 10.12000 35.65100
C  43.45000 9.23100 36.77200
H  37.65700 7.37500 31.82700
H  39.53600 7.22500 25.85500
H  44.83600 10.50000 27.50600
H  41.00400 9.14100 34.79800
H  38.15900 9.18300 33.59500
H  39.09700 6.57500 33.77900
H  38.17200 7.40000 35.01100
H  39.91400 7.51200 35.12500
H  39.60300 11.62200 33.62100
H  40.95700 11.53200 34.85600
H  38.40600 10.36500 35.78700
H  38.31400 12.04300 35.46400
H  36.45100 5.97600 31.00400
H  36.28200 4.85500 29.74600
H  35.40100 6.41600 29.63000
H  35.74800 4.87400 27.58800
H  35.30700 5.31300 25.84600
H  34.83200 6.31100 27.13600
H  41.20900 8.95500 24.51300
H  44.02300 8.74300 25.41600
H  43.20700 6.77600 24.83300
H  42.46300 7.48200 23.42500
H  41.62600 6.29300 24.59500
H  43.38300 10.33000 23.87800
H  44.03100 11.13300 25.41400
H  42.19100 12.48300 25.45100
H  41.30400 11.11000 25.74200
H  41.43000 11.66600 24.13300
H  46.08000 12.38700 28.89500
H  46.46700 10.71800 29.06000
H  46.82500 11.72800 30.40700
H  42.74100 11.93000 33.91600
H  44.38200 9.59100 37.20700
H  43.56600 8.18300 36.49500
H  42.76800 9.21900 37.62300
Mg 1.19000 42.94000 26.05000
C  3.50800 42.75600 28.61400
C  -1.21100 41.99900 28.22900
C  -0.87100 42.27400 23.42500
C  3.82500 43.22400 23.77600
N  1.30400 42.28300 28.15600
C  2.25200 42.49600 29.10300
C  1.73900 42.32700 30.57400
C  0.36700 41.71300 30.26400
C  0.15200 42.07900 28.80200
C  0.11700 40.24300 30.67800
C  1.67200 43.70700 31.38400
C  1.93500 43.64500 32.94100
H  1.59500 42.28300 33.65100
N  -0.81400 42.35400 25.88800
C  -1.66700 42.14300 26.94600
C  -2.95100 41.85000 26.43400
C  -2.84400 41.83200 25.02400
C  -1.38400 42.13800 24.71900
C  -4.12300 41.45900 27.31800
C  -3.97400 41.58600 24.05400
O  -3.79700 41.73700 22.85800
C  -5.37300 41.26100 24.47800
N  1.44500 42.82000 23.87300
C  0.41700 42.58600 23.05600
C  0.88300 42.56100 21.59300
C  2.36400 42.78300 21.70300
C  2.59500 43.01600 23.18100
C  0.27700 41.29700 20.85100
C  2.90000 44.03900 20.91500
C  2.72200 45.41700 21.54600
N  3.26800 43.15100 26.09300
C  4.26900 43.15900 25.11000
C  5.57900 43.18300 25.67500
C  5.31000 43.10600 27.08000
C  3.92800 42.98700 27.28800
C  6.89200 43.27200 24.97200
C  5.91900 42.99500 28.38100
O  7.09600 43.07300 28.68800
C  4.76200 42.96500 29.45200
C  5.02800 41.86900 30.41300
O  5.04000 40.68500 30.16200
O  5.26000 42.45500 31.68300
C  5.76000 41.59600 32.72700
H  -1.90200 41.86300 29.06400
H  -1.57900 42.04000 22.62800
H  4.75200 43.37700 23.21900
H  2.38700 41.64000 31.11900
H  -0.45100 42.18400 30.80800
H  -0.81000 40.24000 31.25100
H  0.92400 39.86300 31.30500
H  0.03000 39.65600 29.76400
H  0.66900 44.11000 31.24000
H  2.32600 44.36700 30.81500
H  1.29700 44.38700 33.42100
H  2.99200 43.86100 33.10200
H  -3.89600 41.58000 28.37800
H  -4.41400 40.42400 27.14000
H  -4.96400 42.13600 27.16400
H  -5.77000 42.06600 25.09700
H  -5.25900 40.27300 24.92500
H  -6.10200 41.31200 23.66900
H  0.62700 43.53500 21.17600
H  2.95100 41.88000 21.53500
H  -0.47800 40.69800 21.36000
H  1.07800 40.60200 20.60300
H  -0.14400 41.59800 19.89100
H  2.40300 44.01400 19.94500
H  3.96300 43.83700 20.78300
H  2.02000 45.41600 22.38000
H  2.22000 46.01100 20.78200
H  3.61400 45.89200 21.95300
H  6.85500 42.66300 24.06800
H  7.65700 42.82200 25.60400
H  7.30000 44.25100 24.71900
H  4.74500 43.96200 29.89400
H  4.99300 41.05100 33.27700
H  6.47200 42.07700 33.39800
H  6.28700 40.78900 32.21800

