158

Mg 47.47800 34.29700 28.31100
C  45.77400 32.40900 30.76300
C  47.34000 36.99300 30.64700
C  48.28200 36.31600 25.97100
C  46.94000 31.66800 26.04700
N  46.60300 34.64700 30.45300
C  46.09600 33.66000 31.29700
C  46.04900 34.21400 32.76900
C  45.94200 35.77300 32.49600
C  46.67500 35.84000 31.09200
C  44.64000 36.47500 32.60800
C  47.35800 33.78800 33.43500
C  47.19700 33.33600 34.93600
H  46.29100 34.30300 35.84900
N  47.93600 36.29900 28.30300
C  47.83100 37.25500 29.33300
C  48.56500 38.46600 28.90000
C  49.02700 38.18100 27.57400
C  48.37600 36.93300 27.17700
C  48.82000 39.55500 29.86900
C  49.92000 39.05100 26.61700
O  50.11400 38.78900 25.44400
C  50.45500 40.35100 27.10200
N  47.51400 33.99100 26.25300
C  47.82700 35.03500 25.47100
C  47.95900 34.67800 23.98500
C  47.66200 33.17200 24.07200
C  47.39100 32.86700 25.51400
C  47.06800 35.47700 22.93900
C  48.70500 32.18100 23.52300
C  48.59100 31.52400 22.14200
N  46.65000 32.33400 28.41800
C  46.48000 31.41800 27.36800
C  45.85000 30.23000 27.88600
C  45.45100 30.54000 29.20800
C  46.04500 31.84500 29.48300
C  45.52000 28.97100 27.11400
C  44.78000 30.10200 30.40900
O  44.06800 29.21600 30.64600
C  44.80500 31.36800 31.36100
C  44.87800 31.05100 32.79400
O  45.67300 30.33600 33.35100
O  43.81500 31.72200 33.39700
C  43.67400 31.79700 34.83300
H  47.34900 37.80900 31.37300
H  48.77100 36.76600 25.10400
H  46.82300 30.88400 25.29600
H  45.22200 33.79200 33.33900
H  46.53200 36.28700 33.25400
H  44.00900 35.79300 33.17800
H  44.25700 36.62200 31.59800
H  44.83900 37.35700 33.21600
H  48.21400 34.46100 33.38400
H  47.73200 32.88800 32.94800
H  48.17400 33.35400 35.41900
H  46.90900 32.28600 34.98300
H  49.89900 39.69200 29.81200
H  48.70300 39.38500 30.93900
H  48.29500 40.43400 29.49400
H  51.05000 40.05800 27.96700
H  49.68800 41.08600 27.34500
H  51.15300 40.65400 26.32200
H  48.94400 34.84100 23.54700
H  46.68900 32.88900 23.67200
H  46.28300 34.82300 22.55900
H  47.65000 35.81100 22.08000
H  46.54900 36.27400 23.47300
H  48.90500 31.33500 24.18200
H  49.63900 32.70800 23.72100
H  47.75000 31.96300 21.60500
H  48.58700 30.45100 22.33600
H  49.42400 31.70200 21.46300
H  46.20500 28.74700 26.29600
H  44.49600 29.07600 26.75500
H  45.65300 28.18700 27.86000
H  43.80600 31.80300 31.31500
H  42.93200 31.05300 35.12300
H  43.23000 32.78000 34.98300
H  44.51000 31.72200 35.52900
Mg -1.28400 34.19700 27.38800
C  -3.02800 32.90900 30.07100
C  0.37300 36.34600 29.40100
C  -0.34800 36.10400 24.64900
C  -3.32700 32.39800 25.16000
N  -1.31700 34.51500 29.51700
C  -2.04100 33.80500 30.50300
C  -1.65500 34.21300 31.92000
C  -0.63800 35.39100 31.68600
C  -0.41700 35.35300 30.11200
C  -1.25000 36.76400 32.23500
C  -1.01900 33.03000 32.71500
C  -1.71000 32.54600 34.03500
H  -0.78000 32.08600 35.15100
N  -0.07700 35.99900 27.06100
C  0.50300 36.65500 28.04000
C  1.38400 37.72100 27.48600
C  1.08100 37.78600 26.11500
C  0.17200 36.60100 25.87600
C  2.42900 38.41800 28.29700
C  1.53100 38.72600 25.08700
O  1.24300 38.70100 23.92400
C  2.43800 39.85600 25.47600
N  -1.71000 34.11800 25.24300
C  -1.17900 35.01700 24.33300
C  -1.71700 34.68800 22.93300
C  -2.17300 33.26900 23.00100
C  -2.37900 33.21100 24.60600
C  -2.65400 35.73900 22.24300
C  -1.31100 32.09600 22.42700
C  -0.30500 31.51300 23.35100
N  -2.84700 32.97100 27.58800
C  -3.62600 32.32500 26.56500
C  -4.55000 31.40600 27.21800
C  -4.36400 31.58500 28.57200
C  -3.35800 32.62900 28.76200
C  -5.38700 30.39900 26.51500
C  -4.74700 31.06400 29.84900
O  -5.47600 30.19000 30.22700
C  -3.91100 31.94600 30.85200
C  -4.84300 32.71900 31.66200
O  -5.25300 33.83500 31.29700
O  -5.13400 32.18200 32.84800
C  -6.01900 32.96900 33.66700
H  1.06100 36.95500 29.99200
H  0.01500 36.72100 23.82400
H  -3.86100 31.81100 24.40900
H  -2.59000 34.58400 32.34000
H  0.35700 35.15400 32.06400
H  -2.10800 36.52300 32.86200
H  -1.49500 37.33600 31.34100
H  -0.40900 37.23000 32.75000
H  0.04900 33.18800 32.86100
H  -1.08700 32.25100 31.95600
H  -2.26100 31.63500 33.79900
H  -2.52400 33.21400 34.31800
H  3.33600 38.72800 27.77900
H  2.78800 37.81200 29.12900
H  1.96800 39.29100 28.76000
H  3.43300 39.50600 25.75200
H  2.01800 40.39000 26.32900
H  2.57800 40.62100 24.71300
H  -0.76700 34.62000 22.40300
H  -3.17700 33.12200 22.60200
H  -2.31800 36.19400 21.31200
H  -2.80800 36.61800 22.86800
H  -3.60100 35.22100 22.08600
H  -0.74900 32.53600 21.60200
H  -2.00100 31.39700 21.95500
H  0.67200 31.98400 23.24500
H  -0.26700 30.43900 23.16700
H  -0.70600 31.47600 24.36400
H  -4.75400 29.64900 26.04100
H  -6.00200 30.84300 25.73300
H  -6.06600 30.06200 27.29800
H  -3.35400 31.34600 31.57200
H  -6.48100 32.23000 34.32200
H  -6.68900 33.71900 33.24600
H  -5.37100 33.65000 34.21900

