158

Mg 48.47700 15.77100 29.22700
C  46.32300 15.39200 32.14100
C  50.35700 17.89700 30.80300
C  49.93200 16.52600 26.20900
C  45.81400 14.05200 27.38600
N  48.22200 16.61900 31.19900
C  47.43000 16.29900 32.29900
C  48.00500 16.92100 33.57000
C  48.99300 17.98000 33.00200
C  49.19900 17.49800 31.55200
C  48.59300 19.50200 33.14300
C  48.62000 15.78500 34.57800
C  47.79900 15.52800 35.86200
H  47.72400 16.66800 36.83000
N  50.02800 16.90600 28.62800
C  50.74200 17.62100 29.52800
C  51.95900 18.14600 28.91100
C  51.87100 17.71800 27.57900
C  50.55300 17.01200 27.42500
C  53.06500 18.92700 29.70700
C  52.88900 17.95600 26.48200
O  52.72200 17.40600 25.41600
C  54.13200 18.70500 26.61300
N  47.94300 15.39800 27.09600
C  48.76600 15.75200 26.03800
C  48.21400 15.26300 24.70000
C  46.88300 14.50700 25.07800
C  46.92600 14.58300 26.62200
C  47.95400 16.42200 23.63100
C  46.76600 13.03900 24.54200
C  46.18800 12.97300 23.15900
N  46.56900 14.79200 29.67400
C  45.65600 14.11600 28.84800
C  44.55900 13.59000 29.61500
C  44.75000 14.15500 30.93300
C  45.99200 14.79800 30.90300
C  43.31600 12.84200 29.10000
C  44.22000 14.23800 32.24400
O  43.19200 13.76700 32.67400
C  45.17700 15.12700 33.08100
C  44.52300 16.36500 33.57600
O  43.85500 17.16600 32.92300
O  44.39400 16.34200 34.91600
C  43.34800 17.13000 35.52500
H  50.91700 18.63400 31.38300
H  50.49700 16.63800 25.28100
H  44.98300 13.60400 26.83700
H  47.21200 17.51600 34.02300
H  49.89200 17.81600 33.59500
H  47.77400 19.62200 33.85300
H  48.37900 19.91100 32.15500
H  49.51800 19.96300 33.48700
H  49.67200 15.98200 34.78400
H  48.67500 14.90200 33.94200
H  48.17400 14.66000 36.40400
H  46.76600 15.20900 35.72500
H  54.03300 18.63600 29.29900
H  52.99700 18.67400 30.76500
H  52.97300 20.00300 29.56100
H  54.44200 19.11600 25.65200
H  54.90800 17.99600 26.90200
H  54.00800 19.56500 27.27200
H  48.89900 14.53000 24.27600
H  46.03700 15.07700 24.69500
H  48.35800 16.10700 22.66900
H  48.27100 17.40900 23.96800
H  46.88700 16.58200 23.47400
H  46.05200 12.49000 25.15500
H  47.69500 12.48200 24.66000
H  46.99200 12.86000 22.43200
H  45.58100 13.85000 22.93400
H  45.61300 12.05900 23.01000
H  43.61600 12.62500 28.07500
H  42.41700 13.38600 29.39000
H  43.35000 11.93700 29.70800
H  45.52100 14.56100 33.94700
H  42.62100 17.58200 34.85100
H  43.69400 17.93300 36.17600
H  42.89100 16.39400 36.18700
Mg 26.40400 49.56500 25.61600
C  24.57400 50.94100 28.33100
C  28.65900 48.40300 28.02100
C  28.15600 48.31200 23.17800
C  24.03100 50.90300 23.42600
N  26.56600 49.76600 27.99500
C  25.67100 50.27300 28.83500
C  25.97500 49.93000 30.27400
C  27.40100 49.28900 30.15900
C  27.52400 49.06300 28.63000
C  28.67100 50.07300 30.65000
C  24.85100 49.09600 30.98900
C  25.33200 48.32600 32.29700
H  24.70400 48.52300 33.64000
N  28.25600 48.43400 25.59200
C  29.02000 48.09200 26.65700
C  30.24600 47.36200 26.09100
C  30.10000 47.34200 24.63400
C  28.81900 48.06800 24.41400
C  31.36000 46.88200 26.98100
C  31.11700 46.86700 23.53900
O  30.88100 47.13000 22.35000
C  32.44600 46.24100 23.85400
N  26.14500 49.65700 23.51600
C  26.97000 48.86700 22.78800
C  26.47000 48.89900 21.26900
C  25.07400 49.58900 21.42900
C  25.10000 50.17800 22.83300
C  27.41100 49.50200 20.18000
C  23.82500 48.73300 21.07500
C  23.60700 47.50000 21.96300
N  24.72300 50.79800 25.78200
C  23.85400 51.32600 24.80300
C  22.88000 52.13000 25.49100
C  23.09400 51.94100 26.86700
C  24.24800 51.17600 26.97300
C  21.74600 52.85500 24.82600
C  22.55600 52.24800 28.15500
O  21.51000 52.74700 28.51500
C  23.53500 51.57700 29.16800
C  24.04200 52.58400 30.10900
O  24.84600 53.41400 29.78900
O  23.51500 52.37600 31.35600
C  23.96500 53.33200 32.36400
H  29.38000 47.98800 28.72900
H  28.63100 47.76700 22.35900
H  23.28700 51.28700 22.72600
H  25.98600 50.88500 30.79800
H  27.48200 48.34200 30.69300
H  29.17700 50.38300 29.73600
H  29.21800 49.27000 31.14400
H  28.37700 50.90000 31.29600
H  24.33000 48.47300 30.26100
H  24.08900 49.81700 31.28500
H  26.35400 48.66300 32.46500
H  25.39100 47.26700 32.04500
H  32.33900 46.70900 26.53300
H  30.89800 46.09000 27.57100
H  31.48700 47.73100 27.65300
H  32.83200 45.71300 22.98200
H  32.15600 45.46500 24.56200
H  33.19700 46.89700 24.29300
H  26.21800 47.88500 20.95900
H  25.04000 50.44300 20.75300
H  26.98000 50.36200 19.66700
H  27.45000 48.77300 19.37000
H  28.38900 49.59500 20.65100
H  23.74800 48.45500 20.02400
H  22.93700 49.33600 21.26400
H  24.07800 47.73600 22.91700
H  24.21600 46.66000 21.62900
H  22.52900 47.36600 22.05100
H  22.12800 53.47700 24.01700
H  21.17000 53.42300 25.55700
H  21.08400 52.08600 24.42800
H  22.94300 50.82500 29.69000
H  23.60500 52.89300 33.29400
H  23.59900 54.35800 32.32900
H  25.04700 53.30500 32.49400

