158

Mg 1.82400 -1.84900 44.34400
C  5.08800 -1.10600 43.64200
C  0.83700 0.87900 42.25800
C  -1.30700 -3.05700 44.08900
C  2.82600 -4.98300 45.72700
N  2.86200 -0.34800 42.96600
C  4.22800 -0.18700 42.99800
C  4.62000 1.15000 42.25800
C  3.21800 1.87300 42.04500
C  2.25000 0.71400 42.39600
C  3.00600 3.15600 42.82000
C  5.22700 0.89200 40.83000
C  6.12700 2.05000 40.24800
H  5.70900 2.73800 38.97000
N  -0.07600 -1.01000 43.50100
C  -0.19600 0.03400 42.62900
C  -1.60900 0.19000 42.35400
C  -2.31000 -0.92000 42.93500
C  -1.22100 -1.80300 43.53900
C  -2.17300 1.28100 41.50900
C  -3.80000 -1.16200 42.87800
O  -4.49100 -0.31300 42.43800
C  -4.35800 -2.34800 43.49500
N  0.90600 -3.74600 44.83600
C  -0.40100 -3.95800 44.65700
C  -0.84000 -5.40700 45.03600
C  0.50700 -6.03000 45.52700
C  1.46300 -4.86900 45.39000
C  -2.03700 -5.55400 46.00200
C  0.94700 -7.25600 44.75900
C  1.12400 -8.54100 45.56400
N  3.56400 -2.78900 44.92300
C  3.84200 -3.95700 45.48900
C  5.24600 -4.04300 45.64300
C  5.81900 -2.92400 45.02800
C  4.77800 -2.25600 44.46100
C  5.89100 -5.17900 46.40900
C  7.06600 -2.24700 44.71700
O  8.22700 -2.43500 44.96200
C  6.64700 -0.99800 43.85800
C  7.12900 0.19800 44.45100
O  6.66200 0.59800 45.47900
O  8.09100 0.83600 43.58600
C  8.61900 2.07400 44.08900
H  0.52300 1.78200 41.73000
H  -2.21200 -3.66700 44.04700
H  3.20600 -5.94000 46.08900
H  5.37700 1.75000 42.76300
H  3.03800 2.21900 41.02700
H  1.95400 3.43200 42.75200
H  3.56400 3.89800 42.24800
H  3.38500 2.98500 43.82800
H  4.48300 0.69200 40.05900
H  5.90200 0.04300 40.93500
H  7.07200 1.51500 40.16100
H  6.29700 2.72300 41.08800
H  -2.31800 0.96900 40.47500
H  -1.44600 2.09200 41.47200
H  -3.11200 1.67800 41.89600
H  -5.37000 -2.15600 43.85100
H  -3.73800 -2.39700 44.39100
H  -4.17800 -3.21700 42.86300
H  -1.17300 -5.90200 44.12400
H  0.47500 -6.27800 46.58800
H  -1.81600 -6.22700 46.83000
H  -2.90800 -5.89300 45.44100
H  -2.30600 -4.59900 46.45400
H  1.96300 -7.09400 44.39800
H  0.32100 -7.51300 43.90500
H  0.58100 -9.41600 45.20600
H  1.01200 -8.41100 46.64000
H  2.18600 -8.77700 45.49800
H  6.96600 -5.01700 46.49200
H  5.60500 -6.13700 45.97400
H  5.37900 -5.12200 47.36900
H  7.16100 -1.16200 42.91100
H  9.40500 1.82500 44.80300
H  7.83800 2.69300 44.53200
H  9.01200 2.66000 43.25800
Mg 25.42000 1.54600 29.38800
C  27.23500 1.37700 32.46900
C  22.64900 1.46800 31.21200
C  23.84100 1.71900 26.50100
C  28.54900 0.92200 27.75100
N  24.97100 1.63200 31.58700
C  25.87500 1.56900 32.64700
C  25.09200 1.69100 34.00900
C  23.57900 1.62700 33.56100
C  23.70400 1.49600 32.04500
C  22.75700 0.51900 34.21400
C  25.43700 2.90000 34.85100
C  25.93300 2.63700 36.32800
H  25.56300 3.50000 37.50600
N  23.50400 1.48200 28.91300
C  22.48700 1.53300 29.75600
C  21.28300 1.73700 29.04300
C  21.58800 1.73400 27.66900
C  23.05700 1.72100 27.62700
C  19.91400 1.63700 29.76200
C  20.71400 1.93900 26.47600
O  21.10000 1.71600 25.33000
C  19.28700 2.47900 26.64500
N  26.09000 1.22900 27.35300
C  25.20400 1.50000 26.29700
C  25.93800 1.68100 24.97700
C  27.42500 1.38200 25.42100
C  27.39500 1.12900 26.92600
C  25.48700 0.66300 23.87000
C  28.37600 2.44000 24.97100
C  29.85300 2.03000 24.80400
N  27.43100 1.21600 29.95800
C  28.54100 0.87900 29.14800
C  29.79700 0.82900 29.96900
C  29.28000 0.96500 31.29000
C  27.87200 1.17400 31.26600
C  31.19000 0.60000 29.41100
C  29.67400 1.11400 32.65700
O  30.80400 1.03500 33.10200
C  28.34300 1.25800 33.50800
C  28.20900 0.06100 34.31700
O  28.07200 -1.07600 33.95100
O  28.21900 0.44600 35.61100
C  28.09300 -0.60600 36.61700
H  21.68300 1.43600 31.72000
H  23.43500 1.88900 25.50100
H  29.54100 0.82400 27.30500
H  25.30200 0.84200 34.66000
H  22.98200 2.52200 33.74000
H  21.90000 0.92500 34.75100
H  23.26700 0.00900 35.03100
H  22.36900 -0.25200 33.54900
H  24.51700 3.48300 34.82800
H  26.07200 3.63900 34.36200
H  27.02300 2.64000 36.29700
H  25.79200 1.62900 36.72000
H  19.67000 2.69800 29.79700
H  20.03300 1.12100 30.71500
H  19.25500 1.05400 29.11700
H  18.70000 1.68900 27.11400
H  18.74600 2.76300 25.74200
H  19.44600 3.42600 27.16200
H  25.86800 2.72900 24.68600
H  27.73600 0.40200 25.05800
H  24.99800 1.25200 23.09500
H  24.68400 0.00400 24.19800
H  26.37000 0.14400 23.49800
H  28.30600 3.21000 25.73900
H  27.99900 2.79600 24.01200
H  30.33000 2.63900 24.03600
H  30.04900 1.00900 24.47700
H  30.34000 2.22300 25.76000
H  31.24000 -0.46900 29.61800
H  31.96900 1.19900 29.88300
H  31.33600 0.89600 28.37200
H  28.44500 2.18500 34.07100
H  28.17200 -1.65500 36.33200
H  27.16000 -0.63800 37.18000
H  28.71700 -0.40100 37.48700

