158

Mg 35.66600 1.39600 29.78200
C  33.48600 2.48000 32.11900
C  38.24200 1.27400 32.23500
C  37.99700 0.41800 27.40700
C  33.18800 1.67300 27.30200
N  35.86800 1.95300 31.80300
C  34.77300 2.26300 32.61600
C  35.10400 2.35400 34.09200
C  36.70200 2.31700 34.03600
C  36.94200 1.78500 32.58700
C  37.49700 3.67100 34.22700
C  34.50600 1.24300 35.03600
C  34.22700 1.52100 36.44700
H  34.73900 2.87900 36.99900
N  37.72400 0.70500 29.85100
C  38.59500 0.70300 30.98400
C  39.92300 0.14400 30.62000
C  39.87100 0.06100 29.20500
C  38.48700 0.32700 28.80200
C  41.08200 -0.07600 31.61300
C  40.97800 -0.31600 28.28000
O  40.81500 -0.57200 27.07200
C  42.45500 -0.23500 28.73800
N  35.55400 1.05600 27.70200
C  36.69700 0.79500 26.95000
C  36.36200 0.63700 25.49200
C  34.77700 0.73600 25.49300
C  34.51700 1.25800 26.88200
C  37.15000 1.62700 24.56000
C  34.09500 -0.65100 25.20500
C  32.98800 -0.66700 24.06700
N  33.72000 2.07000 29.65800
C  32.83100 2.16400 28.61200
C  31.49900 2.59700 29.13900
C  31.72300 2.74100 30.55100
C  33.05700 2.33200 30.80900
C  30.27600 2.93900 28.31700
C  31.12500 3.15000 31.79600
O  29.97100 3.39200 32.19400
C  32.24400 2.98000 32.86100
C  32.46200 4.22400 33.67700
O  33.21500 5.09000 33.40800
O  31.63700 4.23800 34.80100
C  31.79000 5.41500 35.57700
H  38.98200 1.23200 33.03700
H  38.79400 0.45900 26.66100
H  32.38900 1.55600 26.56800
H  34.77600 3.33400 34.44000
H  37.14100 1.66700 34.79400
H  38.11500 3.58500 35.12200
H  36.79000 4.48500 34.38200
H  38.06300 3.91200 33.32700
H  35.18800 0.39700 34.95700
H  33.54300 0.89600 34.66200
H  34.71100 0.74400 37.03800
H  33.14600 1.48100 36.57800
H  40.43100 -0.26600 32.46600
H  41.74900 0.77200 31.77200
H  41.67500 -0.96400 31.39500
H  43.15900 -0.04700 27.92700
H  42.56100 -1.08100 29.41700
H  42.51500 0.64500 29.37800
H  36.79000 -0.34500 25.28900
H  34.33200 1.55000 24.92000
H  37.64000 2.37700 25.18100
H  36.56400 2.07600 23.75800
H  37.90700 1.00200 24.08600
H  33.54300 -0.85600 26.12200
H  34.94900 -1.30500 25.02900
H  33.17100 -1.42500 23.30600
H  32.90100 0.24200 23.47200
H  31.94900 -0.74400 24.38800
H  29.98500 3.97300 28.50100
H  29.46400 2.22800 28.47100
H  30.45700 2.76200 27.25700
H  31.90400 2.15500 33.48700
H  31.02700 6.14300 35.29800
H  32.78100 5.86800 35.54800
H  31.53800 5.12500 36.59700
Mg 47.22700 15.68600 28.06400
C  45.24300 15.44200 30.93000
C  49.24900 17.82200 29.78200
C  48.87200 16.14800 25.22400
C  44.74000 14.11200 26.25000
N  47.19200 16.57500 30.13700
C  46.35000 16.29100 31.11800
C  46.88100 16.93200 32.45300
C  47.98900 17.88600 32.01200
C  48.19200 17.46400 30.55400
C  47.76600 19.43900 32.07200
C  47.27200 15.82700 33.44900
C  47.99200 16.25200 34.71900
H  47.63900 17.76200 35.26900
N  48.91600 16.76000 27.60800
C  49.66300 17.51700 28.46600
C  50.92000 17.92300 27.72300
C  50.78700 17.53500 26.34900
C  49.49100 16.77600 26.31400
C  52.01200 18.69700 28.30100
C  51.77300 17.68400 25.17100
O  51.44900 17.33100 24.01600
C  53.07900 18.41300 25.31100
N  46.78300 15.31900 25.97200
C  47.70700 15.48500 25.00400
C  47.32400 14.88400 23.67500
C  46.02000 14.14100 24.03900
C  45.82000 14.49100 25.51100
C  47.03200 15.93800 22.58500
C  45.83900 12.69900 23.61500
C  46.29500 11.58700 24.52100
N  45.48700 14.83400 28.48500
C  44.52300 14.21800 27.65700
C  43.43600 13.81100 28.42100
C  43.72000 14.14900 29.70700
C  44.95300 14.83700 29.73700
C  42.07100 13.16200 27.83000
C  43.04500 14.20700 31.00400
O  41.96400 13.75800 31.34800
C  44.14600 15.00100 31.87300
C  43.44000 16.20000 32.54100
O  43.08100 17.21300 32.05000
O  43.27300 15.89700 33.87000
C  42.60500 16.89000 34.73900
H  49.93800 18.43400 30.36800
H  49.51100 16.10500 24.33900
H  44.01200 13.52800 25.68300
H  46.02900 17.46700 32.87200
H  48.88300 17.59500 32.56300
H  46.69100 19.60700 32.14000
H  48.04700 19.99500 31.17800
H  48.31300 19.77100 32.95500
H  47.92600 15.19000 32.85400
H  46.33200 15.35900 33.74100
H  49.07300 16.17600 34.59700
H  47.73500 15.47200 35.43600
H  52.96900 18.18500 28.19900
H  52.00400 18.78500 29.38800
H  52.10700 19.61200 27.71700
H  53.73300 18.02100 26.08900
H  52.81400 19.38700 25.72300
H  53.58400 18.53000 24.35200
H  48.06200 14.14200 23.36800
H  45.15800 14.53200 23.49700
H  47.57500 16.82400 22.91400
H  45.96900 16.16600 22.50700
H  47.37700 15.51200 21.64300
H  46.33600 12.59100 22.65100
H  44.79000 12.43400 23.48000
H  45.43600 11.11700 24.99700
H  46.92000 11.98200 25.32200
H  46.87900 10.85300 23.96500
H  41.24400 13.22300 28.53800
H  42.12500 12.12300 27.50400
H  41.79000 13.74200 26.95000
H  44.46800 14.47200 32.77100
H  43.10900 17.85600 34.69800
H  42.56100 16.40300 35.71300
H  41.57500 17.06800 34.42900

