158

Mg 35.03800 2.14100 29.56300
C  33.06300 3.27900 32.15900
C  37.67800 2.06100 31.75800
C  37.05600 1.32700 26.93100
C  32.38900 2.87100 27.38700
N  35.32000 2.56100 31.73300
C  34.38000 3.05600 32.58200
C  34.91000 3.23900 34.03600
C  36.46900 3.15200 33.83600
C  36.52700 2.57900 32.34700
C  37.06400 4.52700 33.87600
C  34.41200 2.16100 34.95900
C  34.33600 2.40200 36.49500
H  34.95200 3.60500 37.12300
N  37.07500 1.70500 29.35600
C  37.98700 1.73600 30.42700
C  39.24700 1.18500 29.95500
C  39.09900 0.97700 28.56000
C  37.71500 1.39400 28.20100
C  40.44900 0.94600 30.80900
C  40.16300 0.56500 27.56200
O  39.98200 0.56100 26.39900
C  41.52300 0.17600 28.06800
N  34.86600 2.38200 27.44900
C  35.80800 1.88500 26.54700
C  35.33500 2.10800 25.10800
C  33.85200 2.49800 25.31300
C  33.63200 2.59000 26.81500
C  36.27400 3.08200 24.30700
C  32.86900 1.66100 24.42700
C  32.49800 0.29300 25.04100
N  33.10900 2.83200 29.68200
C  32.15400 3.10800 28.73800
C  30.93900 3.65300 29.34400
C  31.24000 3.67200 30.76000
C  32.59700 3.26400 30.81300
C  29.64900 3.87200 28.55900
C  30.65000 3.87200 32.06900
O  29.49600 4.19600 32.41000
C  31.89000 3.81000 33.05500
C  32.06000 5.18400 33.47500
O  32.24200 6.11200 32.74900
O  31.99100 5.23000 34.84500
C  32.03200 6.55100 35.47300
H  38.47700 2.14100 32.49800
H  37.69800 0.94300 26.13500
H  31.56000 3.11800 26.72100
H  34.49300 4.15600 34.45200
H  36.98600 2.45100 34.49200
H  36.37700 5.15700 34.44000
H  37.21100 4.99200 32.90100
H  38.03000 4.48700 34.37900
H  34.93300 1.21400 34.81700
H  33.39400 1.91200 34.65900
H  34.81400 1.63800 37.10900
H  33.25800 2.35100 36.65200
H  40.33800 1.47400 31.75600
H  41.32600 1.43700 30.38700
H  40.53900 -0.12900 30.96600
H  42.06600 -0.26200 27.23100
H  41.39500 -0.68800 28.72000
H  42.07300 1.01500 28.49600
H  35.52600 1.17400 24.58000
H  33.71200 3.51700 24.95100
H  35.62000 3.90000 24.00500
H  36.75900 2.53200 23.50100
H  37.09400 3.50700 24.88700
H  33.42800 1.62400 23.49200
H  31.98600 2.29000 24.31200
H  32.66600 -0.41100 24.22700
H  31.44900 0.11300 25.27900
H  32.99100 -0.17500 25.89300
H  28.77200 3.97700 29.19800
H  29.52400 3.02800 27.88000
H  29.68000 4.73300 27.89100
H  31.58100 3.11400 33.83500
H  30.99700 6.89400 35.44500
H  32.66300 7.27900 34.96500
H  32.32800 6.52900 36.52200
Mg 36.14300 50.06500 24.48800
C  36.59100 48.26200 27.59500
C  34.98500 52.71400 26.36000
C  35.57100 51.54100 21.70000
C  37.39200 47.17700 22.86200
N  35.80600 50.40900 26.84800
C  36.07300 49.54700 27.84200
C  35.75300 50.24000 29.20000
C  35.03400 51.52500 28.75000
C  35.32200 51.60400 27.22100
C  33.55000 51.48600 28.98300
C  37.04900 50.42900 30.02400
C  36.98700 50.42300 31.58900
H  35.60700 50.52900 32.26400
N  35.48300 51.90400 24.09100
C  35.09200 52.87000 24.98600
C  34.66300 53.99300 24.23100
C  34.64600 53.66700 22.82000
C  35.18500 52.28700 22.80700
C  34.29300 55.29600 24.94700
C  34.11700 54.44200 21.63100
O  34.08100 53.96400 20.50700
C  33.54300 55.80200 21.86600
N  36.17800 49.32800 22.56400
C  36.05300 50.24200 21.59100
C  36.56400 49.68600 20.21800
C  37.07500 48.25600 20.61300
C  36.87200 48.19900 22.13700
C  35.43300 49.51700 19.17600
C  38.57300 47.95800 20.08200
C  39.72000 48.64500 20.69000
N  36.75900 48.14700 25.01900
C  37.29200 47.10200 24.27800
C  37.57500 46.00200 25.12700
C  37.37900 46.40300 26.41400
C  36.85900 47.74200 26.34100
C  38.16400 44.71800 24.67700
C  37.46300 45.90800 27.77800
O  37.75600 44.83600 28.27600
C  36.89600 47.08300 28.60200
C  35.70100 46.65200 29.25600
O  34.57900 46.60100 28.76900
O  36.04900 46.32300 30.50200
C  35.22300 45.38600 31.34300
H  34.58700 53.55000 26.93900
H  35.44100 52.00300 20.72000
H  37.92700 46.38100 22.33800
H  35.08200 49.60600 29.77800
H  35.52000 52.38300 29.21500
H  33.25200 52.32300 29.61400
H  33.27100 50.69600 29.68100
H  32.96000 51.33200 28.07900
H  37.50200 51.36100 29.68600
H  37.72400 49.60000 29.81300
H  37.66500 51.16500 32.01000
H  37.46800 49.54700 32.02400
H  34.71300 55.37800 25.95000
H  33.21200 55.42700 24.91600
H  34.65500 56.09600 24.30200
H  32.93400 56.27200 21.09400
H  34.33900 56.53700 21.97900
H  32.88200 55.79600 22.73300
H  37.42600 50.27900 19.91200
H  36.33200 47.54200 20.25700
H  34.43600 49.47400 19.61300
H  35.57100 48.65000 18.53100
H  35.57000 50.37100 18.51200
H  38.54900 48.33200 19.05900
H  38.73400 46.88000 20.11700
H  40.04600 49.53300 20.14800
H  40.58200 47.98900 20.57300
H  39.58000 48.99200 21.71400
H  37.42600 44.10800 24.15600
H  38.66600 44.21500 25.50300
H  38.98600 44.86000 23.97500
H  37.65900 47.42400 29.30100
H  34.42100 45.87600 31.89400
H  35.74700 44.95800 32.19800
H  34.76800 44.53600 30.83500

