158

Mg 25.80700 0.01300 29.15500
C  27.87400 -0.05300 32.09000
C  23.09200 0.92500 31.08400
C  23.94000 0.01600 26.48100
C  28.59300 -1.01900 27.35300
N  25.51800 0.33100 31.35200
C  26.53900 0.34400 32.35900
C  25.91600 0.79100 33.69400
C  24.31600 0.92600 33.31100
C  24.30200 0.83100 31.80800
C  23.42600 -0.22500 33.95600
C  26.53800 2.01800 34.39900
C  27.31600 1.83900 35.69700
H  27.10800 2.92300 36.80700
N  23.86100 0.36700 28.77000
C  22.87600 0.74100 29.67500
C  21.56900 0.80700 29.02500
C  21.79900 0.60200 27.65200
C  23.21700 0.30100 27.58100
C  20.18500 1.16000 29.69000
C  20.79900 0.69000 26.41600
O  21.20600 0.60800 25.27100
C  19.30700 0.85000 26.58200
N  26.19400 -0.58800 27.19600
C  25.27600 -0.36800 26.26700
C  25.84200 -0.69600 24.84600
C  27.38900 -0.87600 25.14200
C  27.37900 -0.80400 26.69500
C  25.19700 -1.77300 23.90800
C  28.39500 0.18900 24.53100
C  29.73700 -0.31600 24.02600
N  27.80400 -0.66100 29.57700
C  28.80800 -0.95100 28.79700
C  30.02500 -1.10600 29.54400
C  29.68500 -0.75000 30.83700
C  28.29300 -0.46100 30.83200
C  31.34600 -1.51700 28.83300
C  30.20500 -0.57600 32.13700
O  31.29300 -0.79000 32.59300
C  29.00700 -0.17600 33.02400
C  28.75700 -1.23300 34.02900
O  28.30200 -2.35100 33.83300
O  29.10700 -0.73300 35.29800
C  28.82200 -1.58600 36.45500
H  22.23100 1.29700 31.64400
H  23.35800 0.12600 25.56300
H  29.47400 -1.32600 26.78500
H  26.08800 -0.05300 34.36200
H  24.07900 1.94000 33.63100
H  23.99300 -1.09200 34.29600
H  22.65100 -0.54500 33.26000
H  22.98800 0.31300 34.79600
H  25.93300 2.92000 34.49800
H  27.18500 2.30800 33.57200
H  28.29600 1.97900 35.24100
H  27.31900 0.86500 36.18600
H  19.55100 0.27700 29.60300
H  19.65800 2.02200 29.28000
H  20.22300 1.44600 30.74200
H  18.91600 1.19000 25.62300
H  19.21000 1.74700 27.19500
H  19.10400 -0.14600 26.97600
H  25.65900 0.18900 24.23600
H  27.74900 -1.84700 24.80100
H  24.26400 -2.27000 24.17400
H  25.91300 -2.55500 23.66100
H  24.76700 -1.22400 23.07000
H  28.47100 0.98700 25.27000
H  27.88700 0.62400 23.67100
H  30.33800 -0.53400 24.90900
H  30.17300 0.52500 23.48500
H  29.68300 -1.15300 23.33000
H  32.11500 -1.21200 29.54300
H  31.55400 -0.80900 28.03000
H  31.40300 -2.59300 28.66700
H  29.31100 0.73700 33.53500
H  29.09800 -1.10700 37.39500
H  29.44800 -2.47700 36.40000
H  27.77000 -1.86800 36.50700
Mg -10.17700 18.42500 42.75500
C  -6.77000 17.47600 42.92900
C  -9.11200 21.60400 42.18000
C  -13.29200 19.31800 42.69700
C  -11.05000 14.93500 43.06700
N  -8.11500 19.35600 42.56500
C  -6.88700 18.83300 42.73600
C  -5.78700 19.86200 42.45900
C  -6.53400 21.23000 42.53400
C  -8.04500 20.70600 42.45600
C  -6.36800 22.09400 43.85200
C  -4.80000 19.56500 41.21300
C  -5.34600 18.62600 40.08900
H  -5.23800 19.10900 38.62000
N  -11.09100 20.26500 42.38500
C  -10.47600 21.44400 42.16100
C  -11.51400 22.48300 42.05700
C  -12.80400 21.77300 42.11400
C  -12.47400 20.42600 42.43600
C  -11.10700 23.99000 41.68300
C  -14.17800 22.40600 41.74700
O  -14.36400 23.61900 41.55400
C  -15.40300 21.58500 41.60700
N  -11.94500 17.22800 42.55400
C  -13.14700 17.91000 42.76500
C  -14.28700 16.87700 42.90100
C  -13.56500 15.53000 42.73100
C  -12.09100 15.81900 42.68800
C  -15.16700 17.06200 44.25900
C  -14.08000 14.75900 41.54100
C  -15.20900 13.78500 41.86700
N  -9.17600 16.53800 42.90500
C  -9.65600 15.20800 43.06300
C  -8.52800 14.30500 43.11200
C  -7.39100 15.13300 43.03900
C  -7.79300 16.45600 42.96900
C  -8.72200 12.76300 43.31200
C  -5.94600 15.20400 43.05800
O  -5.13400 14.28100 42.93500
C  -5.49800 16.68500 43.21200
C  -5.11300 16.80300 44.61100
O  -5.94000 16.83700 45.51600
O  -3.75900 16.66500 44.79200
C  -3.18200 16.38000 46.06900
H  -8.90300 22.66800 42.04700
H  -14.36000 19.48500 42.85500
H  -11.29600 13.88500 43.23500
H  -5.16100 19.84600 43.35200
H  -6.39700 21.87100 41.66300
H  -7.07900 21.70800 44.58200
H  -6.63300 23.11900 43.59200
H  -5.37000 22.01100 44.28200
H  -3.94100 19.06300 41.65800
H  -4.37300 20.50600 40.86500
H  -6.35300 18.27900 40.32400
H  -4.65100 17.78700 40.11300
H  -11.94000 24.68100 41.81000
H  -10.46900 24.09300 40.80500
H  -10.50300 24.32300 42.52700
H  -15.93400 21.59100 42.55900
H  -15.22000 20.53900 41.35900
H  -16.09700 21.98800 40.87000
H  -14.99500 17.07000 42.09600
H  -13.81400 14.88300 43.57200
H  -14.98900 18.02200 44.74400
H  -14.96400 16.34000 45.04900
H  -16.20700 17.15600 43.94500
H  -13.29900 14.16100 41.07200
H  -14.53500 15.29600 40.70900
H  -15.95100 13.97900 41.09300
H  -15.60600 13.82100 42.88200
H  -14.86700 12.77100 41.65900
H  -9.12000 12.54400 44.30200
H  -7.73100 12.31100 43.36600
H  -9.20200 12.38300 42.41000
H  -4.68500 16.95000 42.53600
H  -2.45900 15.57100 45.96100
H  -3.95200 16.12400 46.79700
H  -2.68300 17.24800 46.49900

