158

Mg 24.76300 -6.67400 45.86800
C  26.83600 -4.12500 44.32500
C  22.25800 -5.58300 43.82400
C  23.26200 -9.49100 46.41200
C  27.63000 -7.71600 47.59100
N  24.64200 -5.05900 44.22200
C  25.56700 -4.13300 43.75200
C  24.84400 -3.06200 42.86000
C  23.35100 -3.49800 42.90700
C  23.40700 -4.77900 43.72400
C  22.29900 -2.46700 43.50900
C  25.44500 -3.02500 41.47200
C  25.69800 -1.63800 40.76600
H  25.06700 -1.33000 39.38300
N  22.95800 -7.42700 45.35300
C  22.06500 -6.80900 44.50200
C  20.94700 -7.64100 44.27200
C  21.19200 -8.78100 45.05100
C  22.48600 -8.59300 45.64100
C  19.73500 -7.29200 43.51900
C  20.25800 -9.99300 45.13400
O  19.08200 -9.94300 44.70600
C  20.72700 -11.18300 45.74400
N  25.41700 -8.42900 46.75800
C  24.54500 -9.44500 46.97100
C  25.31100 -10.62500 47.66200
C  26.57800 -9.95700 48.22600
C  26.58800 -8.65200 47.47100
C  24.52000 -11.47800 48.68000
C  27.92000 -10.84500 48.09300
C  29.11800 -10.69900 49.10300
N  26.85100 -6.01200 46.09200
C  27.79200 -6.54800 46.78300
C  29.02400 -5.70600 46.61600
C  28.65000 -4.70800 45.64100
C  27.31500 -5.00100 45.31800
C  30.31700 -5.78100 47.38700
C  29.16300 -3.62600 44.87600
O  30.33000 -3.25200 44.72300
C  27.99300 -3.20300 43.92900
C  27.61600 -1.79000 44.25100
O  27.22400 -1.29500 45.34700
O  27.87300 -0.99300 43.14400
C  27.57600 0.47900 43.11100
H  21.42300 -5.18200 43.24600
H  22.87500 -10.47600 46.68400
H  28.49500 -8.10500 48.13200
H  24.96800 -2.05700 43.26400
H  22.96600 -3.74100 41.91700
H  22.66200 -1.46100 43.71500
H  21.84000 -2.73100 44.46200
H  21.50700 -2.47100 42.76000
H  24.82000 -3.48600 40.70800
H  26.33200 -3.65000 41.57600
H  26.76700 -1.62600 40.55400
H  25.39900 -0.77200 41.35700
H  19.01900 -8.09300 43.33600
H  20.03300 -6.79300 42.59700
H  19.14300 -6.56000 44.06900
H  19.90600 -11.88500 45.88800
H  21.05100 -10.82200 46.72000
H  21.53800 -11.63300 45.17100
H  25.54500 -11.23200 46.78700
H  26.46000 -9.76100 49.29100
H  23.46300 -11.21200 48.66600
H  24.85600 -11.19200 49.67700
H  24.57100 -12.55300 48.50800
H  28.36100 -10.64900 47.11600
H  27.57800 -11.88000 48.06400
H  29.46900 -11.60000 49.60600
H  28.93400 -9.98000 49.90200
H  29.98100 -10.26900 48.59500
H  30.90300 -4.92200 47.06000
H  30.81900 -6.70000 47.08300
H  30.11300 -5.73600 48.45600
H  28.17000 -3.39100 42.87000
H  26.96900 0.62900 42.21800
H  28.49200 1.03200 42.90600
H  27.03400 0.74400 44.02000
Mg 54.07000 24.68600 44.80800
C  51.02300 26.30700 44.02300
C  52.47300 21.66300 44.08000
C  57.03100 23.28600 44.86800
C  55.48400 27.66100 45.74800
N  52.05000 24.10400 43.88600
C  50.94700 24.89300 43.75800
C  49.74900 24.00600 43.33100
C  50.13100 22.61700 43.92700
C  51.68100 22.79800 43.97600
C  49.43200 22.38300 45.33700
C  49.46800 23.99800 41.75800
C  48.00300 23.75500 41.20100
H  47.87200 23.65500 39.69100
N  54.67200 22.79600 44.33300
C  53.92200 21.67700 44.06100
C  54.73600 20.55900 43.85700
C  56.03100 21.00300 44.04700
C  56.00300 22.40500 44.46000
C  54.34300 19.15100 43.40800
C  57.33700 20.14200 43.69300
O  57.31600 18.97400 43.34500
C  58.64200 20.73900 43.99900
N  56.01600 25.40800 45.06500
C  57.10300 24.65000 45.09300
C  58.47000 25.33200 45.47600
C  57.84200 26.73400 45.94800
C  56.34600 26.61200 45.58900
C  59.41900 24.59800 46.42600
C  58.43700 27.97600 45.14500
C  58.99100 29.21400 45.93300
N  53.42100 26.57900 44.90000
C  54.11200 27.70400 45.37500
C  53.18600 28.81600 45.45400
C  51.98800 28.34000 44.88300
C  52.18000 27.00300 44.49700
C  53.46400 30.22300 45.98600
C  50.60900 28.69900 44.52900
O  49.98600 29.72100 44.74300
C  49.98500 27.41600 43.84500
C  49.84200 27.69400 42.41100
O  50.72400 28.17400 41.69500
O  48.52900 27.48400 41.96000
C  48.17100 27.95400 40.67200
H  51.94200 20.73400 43.86000
H  58.08000 22.98200 44.83300
H  55.82100 28.66900 46.00200
H  48.82900 24.34700 43.80400
H  49.93600 21.82400 43.20400
H  50.19300 22.14200 46.07900
H  48.65500 21.62200 45.26400
H  49.11000 23.35300 45.71400
H  49.96600 23.12700 41.33300
H  49.81600 24.91100 41.27600
H  47.33500 24.55900 41.51100
H  47.67300 22.86000 41.72900
H  53.27100 18.98500 43.31100
H  54.66200 18.38000 44.11000
H  54.75000 18.97600 42.41200
H  58.57600 21.59400 43.32600
H  59.40300 20.08700 43.57100
H  58.91900 20.96400 45.02900
H  58.94700 25.51600 44.51300
H  57.95500 26.83900 47.02700
H  60.37900 24.33700 45.98000
H  58.98000 23.65700 46.75700
H  59.56900 25.16100 47.34800
H  57.71000 28.30500 44.40200
H  59.41900 27.76200 44.72500
H  59.14200 28.96200 46.98300
H  58.36400 30.09600 45.80200
H  59.99900 29.48400 45.61900
H  52.54000 30.77200 45.80100
H  54.39200 30.54200 45.51200
H  53.51000 30.13300 47.07200
H  49.03800 27.08000 44.26800
H  48.92800 28.16900 39.91700
H  47.71000 28.93100 40.81800
H  47.43200 27.23900 40.31100

