158

Mg 54.33000 23.29000 45.12400
C  51.97800 25.33400 43.72800
C  52.49200 20.54800 44.27100
C  57.21200 21.25300 45.18300
C  56.39000 26.07300 45.45700
N  52.41600 23.01900 44.11600
C  51.56300 23.96400 43.70200
C  50.28600 23.30900 43.10700
C  50.34300 21.90400 43.79800
C  51.83700 21.75800 44.02800
C  49.54100 21.87500 45.19600
C  50.28100 23.32500 41.54600
C  49.03100 23.76900 40.87900
H  48.82700 23.60600 39.41700
N  54.77400 21.13400 44.83900
C  53.82000 20.21300 44.48200
C  54.44900 18.92000 44.57400
C  55.82100 19.11300 44.78300
C  55.97900 20.54300 44.96000
C  53.64200 17.56300 44.39500
C  56.83200 17.93900 44.77400
O  56.39400 16.76700 44.56600
C  58.29400 18.10900 44.86800
N  56.41700 23.61300 45.29500
C  57.39400 22.65500 45.39300
C  58.77200 23.28100 45.83600
C  58.50500 24.79700 45.76500
C  57.00800 24.83000 45.52100
C  59.23200 22.66800 47.23900
C  59.26200 25.57400 44.66200
C  60.05500 26.83500 45.01800
N  54.07800 25.36000 45.01700
C  55.02800 26.31000 45.17600
C  54.42600 27.58900 45.02900
C  53.26100 27.32900 44.34700
C  53.15300 25.88100 44.33600
C  54.93800 28.81300 45.56900
C  52.08100 27.81200 43.69900
O  51.71200 29.00200 43.59100
C  51.16700 26.57000 43.23100
C  51.01800 26.68300 41.82600
O  51.84200 26.43500 40.97100
O  49.71900 27.12700 41.57700
C  49.42600 27.29000 40.13200
H  51.77800 19.72200 44.25500
H  58.10500 20.63500 45.29400
H  57.01200 26.96900 45.50000
H  49.48100 23.87700 43.57300
H  49.91800 21.18400 43.09900
H  50.05800 21.35100 46.00000
H  48.58600 21.37100 45.05200
H  49.29300 22.86800 45.57100
H  50.36900 22.28300 41.23700
H  51.14200 23.83200 41.11200
H  48.89300 24.81300 41.15800
H  48.18600 23.22500 41.30300
H  52.57700 17.77000 44.49100
H  53.87600 16.80600 45.14500
H  53.85300 17.13800 43.41400
H  58.63600 18.53800 45.81000
H  58.62000 18.65400 43.98300
H  58.80800 17.15300 44.76300
H  59.48400 23.00600 45.05800
H  58.77600 25.23400 46.72600
H  58.61700 21.80900 47.50700
H  59.21700 23.38600 48.05900
H  60.25500 22.30900 47.12500
H  58.57900 25.87000 43.86500
H  59.95000 24.86100 44.20700
H  61.12100 26.61300 44.98300
H  59.94400 27.21900 46.03200
H  59.73400 27.64700 44.36500
H  54.83100 28.80800 46.65400
H  54.36200 29.67800 45.24100
H  55.99000 28.95900 45.32500
H  50.24300 26.74200 43.78400
H  48.48000 27.82200 40.03100
H  49.45000 26.36800 39.55200
H  50.15400 27.91500 39.61600
Mg 6.85100 53.21300 42.02900
C  6.25200 49.66000 41.54500
C  10.06000 52.62000 40.71200
C  7.36100 56.48200 41.81500
C  3.47300 53.51800 42.48500
N  7.94700 51.28100 41.02400
C  7.56800 49.96000 41.17500
C  8.78200 49.11200 40.73200
C  9.92500 50.04800 40.62500
C  9.33600 51.42000 40.91000
C  11.13400 49.76500 41.56500
C  8.67900 48.09200 39.60100
C  8.67100 48.65300 38.21200
H  7.35100 48.49800 37.54100
N  8.54400 54.35000 41.47000
C  9.76600 53.96800 40.98000
C  10.65400 55.16000 40.88000
C  9.87500 56.23100 41.34600
C  8.49500 55.71900 41.49900
C  12.11700 55.02300 40.51100
C  10.40300 57.59500 41.60000
O  11.55500 57.83200 41.46100
C  9.62100 58.78100 42.08100
N  5.59000 54.74100 42.04300
C  6.09000 56.01000 42.12600
C  5.04000 56.94400 42.61600
C  3.75200 56.00600 42.63200
C  4.29000 54.65600 42.43000
C  5.21300 57.80300 43.94200
C  2.65400 56.41900 41.63100
C  2.47800 55.58700 40.34600
N  5.17000 51.90200 42.11100
C  3.89800 52.20300 42.39200
C  3.07300 51.08200 42.48600
C  3.99000 50.03800 42.25700
C  5.23000 50.61800 41.98100
C  1.57800 51.01000 42.80800
C  4.15300 48.61900 42.22200
O  3.29900 47.80200 42.60100
C  5.60500 48.22900 41.76100
C  5.23100 47.57500 40.43800
O  4.62200 48.07500 39.48000
O  5.66200 46.26700 40.37900
C  5.14900 45.24400 39.42100
H  11.08100 52.44700 40.36700
H  7.64600 57.51800 42.01100
H  2.45000 53.72100 42.80800
H  8.80800 48.59600 41.69200
H  10.37000 50.01100 39.63100
H  10.65200 49.28200 42.41500
H  11.49800 50.72100 41.94000
H  11.97100 49.29100 41.05300
H  7.76000 47.51100 39.68000
H  9.60100 47.55000 39.81200
H  9.26100 47.98500 37.58400
H  8.78800 49.73500 38.15000
H  12.65800 54.94300 41.45400
H  12.36000 55.94400 39.98200
H  12.42600 54.24700 39.81000
H  8.98000 59.12500 41.26900
H  10.32500 59.58500 42.29200
H  9.10600 58.49700 42.99900
H  5.02000 57.67600 41.80800
H  3.19000 56.17200 43.55100
H  6.23200 58.00700 44.27000
H  4.54300 57.39200 44.69600
H  4.88800 58.83900 43.84000
H  2.78200 57.45700 41.32600
H  1.78300 56.28700 42.27300
H  3.44500 55.17700 40.05700
H  2.12000 56.18300 39.50600
H  1.79200 54.75500 40.50500
H  1.17300 50.81300 41.81600
H  1.24500 51.97200 43.20000
H  1.29400 50.17300 43.44500
H  6.08700 47.45500 42.35800
H  4.95300 45.62500 38.41900
H  4.25500 44.82900 39.88600
H  5.89000 44.44600 39.37700

