158

Mg 44.81700 3.47000 48.15800
C  42.59500 6.20100 47.50100
C  42.02500 1.34600 47.66800
C  46.82500 1.02500 48.16800
C  47.46000 5.73700 47.82000
N  42.55200 3.80100 47.79600
C  41.90000 4.98700 47.55400
C  40.39900 4.82000 47.13100
C  40.23200 3.27100 47.48700
C  41.71900 2.72900 47.55800
C  39.43800 3.01500 48.78600
C  40.06800 5.08600 45.65100
C  38.78200 5.78900 45.36500
H  38.90400 6.96800 44.42300
N  44.43500 1.41000 48.07600
C  43.28400 0.72700 47.84900
C  43.53200 -0.69100 47.93100
C  44.98300 -0.79000 48.15100
C  45.53100 0.56700 48.11400
C  42.42800 -1.77500 47.67900
C  45.70300 -2.16200 48.38400
O  45.00400 -3.16700 48.33800
C  47.18800 -2.30300 48.66200
N  46.86000 3.41100 47.76600
C  47.45100 2.23500 48.07200
C  48.94300 2.45900 48.35100
C  49.17600 3.88700 47.83100
C  47.72300 4.38500 47.71100
C  49.35000 2.19100 49.86300
C  49.99000 4.03200 46.48800
C  51.50200 4.09900 46.75200
N  45.03300 5.52800 47.78800
C  46.16400 6.37200 47.74100
C  45.85600 7.72100 47.45900
C  44.42700 7.72000 47.42300
C  44.00700 6.37800 47.62800
C  46.70400 8.92900 47.27700
C  43.20800 8.59300 47.23300
O  43.16800 9.77700 47.07300
C  42.00300 7.59300 47.20400
C  40.99900 7.95600 48.29000
O  41.25700 7.77700 49.49300
O  39.81700 8.52100 47.79700
C  38.81000 8.95000 48.75200
H  41.15700 0.68400 47.67400
H  47.58700 0.26400 48.34700
H  48.39900 6.28000 47.95100
H  39.89200 5.49300 47.82300
H  39.57700 2.81200 46.74700
H  38.94800 2.05500 48.94900
H  38.71500 3.82400 48.89300
H  40.17500 3.05100 49.58800
H  40.00600 4.20900 45.00600
H  40.97400 5.61400 45.35500
H  38.19400 6.06100 46.24200
H  38.15500 4.99900 44.95200
H  42.38700 -2.21700 46.68400
H  41.45200 -1.30600 47.54800
H  42.23400 -2.46900 48.49600
H  47.78800 -1.95100 47.82200
H  47.38400 -3.35500 48.87000
H  47.39600 -1.64700 49.50700
H  49.43300 1.72900 47.70600
H  49.69500 4.48700 48.57800
H  48.76600 1.47400 50.44100
H  49.27000 3.16600 50.34400
H  50.41800 1.98300 49.80700
H  49.57400 4.92200 46.01500
H  49.83800 3.20400 45.79600
H  51.78400 4.22600 47.79700
H  51.89000 4.88100 46.09900
H  51.94300 3.14600 46.46000
H  47.22200 8.79000 46.32800
H  47.41400 8.99400 48.10100
H  46.13600 9.85500 47.18900
H  41.42900 7.76800 46.29400
H  38.17400 8.09400 48.97400
H  38.30100 9.79000 48.27800
H  39.25800 9.19500 49.71500
Mg 6.40600 53.82000 40.03100
C  5.50500 50.46900 40.02800
C  9.65200 52.86000 39.42500
C  7.11300 56.91800 39.18400
C  2.96900 54.57200 40.30400
N  7.43400 51.84500 39.54500
C  6.89900 50.64400 39.77400
C  7.99500 49.51000 39.65000
C  9.22600 50.39700 40.03800
C  8.77800 51.80200 39.50700
C  9.62300 50.33900 41.56600
C  8.10000 48.88300 38.23800
C  7.29100 49.44800 37.05300
H  8.11700 49.80400 35.75700
N  8.14800 54.76000 39.29800
C  9.39600 54.22400 39.21600
C  10.35900 55.20000 38.75900
C  9.64700 56.46100 38.71300
C  8.21500 56.10800 39.04000
C  11.78100 54.90300 38.41700
C  10.32700 57.81200 38.49900
O  11.47600 57.94600 38.22400
C  9.43200 59.04900 38.50700
N  5.19300 55.50800 39.84400
C  5.76800 56.62700 39.38400
C  4.73300 57.76300 39.50100
C  3.41000 57.02600 39.80500
C  3.83000 55.61200 39.99200
C  5.15500 58.96700 40.42100
C  2.22700 57.33300 38.77400
C  0.95000 57.81100 39.41200
N  4.57800 52.78100 40.18900
C  3.27800 53.23500 40.39500
C  2.35000 52.10700 40.72000
C  3.19200 51.00900 40.53100
C  4.49500 51.44100 40.23800
C  0.98900 52.17100 41.21300
C  3.17300 49.58500 40.61200
O  2.33300 48.76700 40.96300
C  4.73000 49.17400 40.24700
C  4.70700 48.33000 39.11100
O  4.13300 48.49800 38.00700
O  5.41100 47.18200 39.46800
C  5.57500 46.16400 38.39700
H  10.70600 52.57600 39.46300
H  7.16000 57.99500 39.00800
H  1.95600 54.90800 40.53400
H  7.92300 48.68300 40.35600
H  10.06600 49.94300 39.51200
H  10.71300 50.34600 41.53300
H  9.32500 49.50000 42.19500
H  9.21000 51.20600 42.08100
H  7.76200 47.86400 38.42800
H  9.15800 48.82600 37.98200
H  6.81600 50.38400 37.34800
H  6.59700 48.65000 36.78900
H  11.93100 55.06400 37.34900
H  12.06400 53.93300 38.82600
H  12.33100 55.65300 38.98500
H  10.07400 59.92000 38.64200
H  8.90700 59.09800 39.46000
H  8.78200 59.07200 37.63100
H  4.69900 58.09800 38.46400
H  3.22800 57.25500 40.85600
H  4.26700 59.37900 40.90200
H  5.59600 59.71600 39.76300
H  5.88900 58.66100 41.16600
H  1.98800 56.36100 38.34300
H  2.53400 58.09100 38.05200
H  0.12700 57.70800 38.70500
H  0.91700 58.82200 39.81800
H  0.76100 57.10600 40.22100
H  0.73500 53.20800 40.99700
H  0.97900 52.03200 42.29400
H  0.31200 51.52100 40.65800
H  5.28200 48.69000 41.05300
H  4.55600 45.81600 38.22500
H  6.25600 45.35600 38.66400
H  5.99100 46.69700 37.54300

