158

Mg 26.11500 0.02800 29.21100
C  27.90900 0.02100 32.09600
C  23.21200 -0.06900 31.23600
C  24.19300 -0.31600 26.47100
C  29.01700 -0.27000 27.30100
N  25.61300 -0.13700 31.47000
C  26.57600 0.08000 32.35000
C  25.92900 0.43900 33.72100
C  24.42000 0.24700 33.50500
C  24.35000 -0.06800 31.99200
C  23.90400 -0.82400 34.54500
C  26.24400 1.95200 34.39000
C  27.03800 1.87400 35.72500
H  26.40900 2.41900 37.02000
N  24.00300 -0.13500 28.88900
C  23.04200 -0.10600 29.83200
C  21.73500 -0.03800 29.21600
C  22.01700 -0.10000 27.80900
C  23.44600 -0.14700 27.66100
C  20.38000 0.06600 29.93900
C  20.97600 -0.13300 26.71200
O  21.32000 -0.15100 25.54000
C  19.51200 -0.16800 26.96100
N  26.55200 -0.37600 27.14000
C  25.57500 -0.49600 26.25300
C  26.19600 -0.66700 24.79700
C  27.70000 -0.25800 25.06500
C  27.78000 -0.24400 26.57000
C  25.85800 -2.06600 24.06700
C  28.04300 1.16900 24.45000
C  29.38600 1.22100 23.73500
N  28.10900 -0.04800 29.58400
C  29.18100 -0.17600 28.70100
C  30.41200 -0.19100 29.51100
C  29.94200 -0.18800 30.86100
C  28.53100 -0.06700 30.85000
C  31.80600 -0.55200 28.95100
C  30.41600 -0.17400 32.22100
O  31.54500 -0.26500 32.68800
C  29.15600 0.05200 33.09900
C  29.05900 -0.89800 34.25800
O  28.32300 -1.90100 34.25500
O  29.81300 -0.57500 35.30300
C  29.60900 -1.37300 36.55400
H  22.35600 0.35500 31.76500
H  23.67800 -0.31600 25.50800
H  29.86000 -0.39700 26.61900
H  26.32700 -0.22400 34.48900
H  23.79600 1.13200 33.62600
H  23.88700 -1.78100 34.02400
H  22.89500 -0.52300 34.82500
H  24.53200 -0.92300 35.43000
H  25.32200 2.51700 34.52400
H  26.76600 2.65600 33.74300
H  27.91800 2.48000 35.50800
H  27.37300 0.84600 35.86000
H  19.65800 0.77200 29.53000
H  20.51100 0.49500 30.93300
H  19.98000 -0.94600 30.01600
H  19.18000 -0.94800 27.64700
H  19.10200 -0.39500 25.97700
H  19.11700 0.80500 27.25100
H  25.65500 0.05200 24.18200
H  28.38100 -0.99000 24.63100
H  26.02200 -2.07300 22.98900
H  24.79600 -2.21700 24.26200
H  26.46800 -2.82400 24.55900
H  28.00800 1.95600 25.20400
H  27.24700 1.43700 23.75600
H  29.95000 0.32700 23.99800
H  29.95700 2.13100 23.91900
H  29.25000 1.04100 22.66800
H  31.91100 -0.34800 27.88600
H  32.01100 -1.58400 29.23400
H  32.55700 0.06900 29.43900
H  29.09800 1.03500 33.56700
H  30.51600 -1.19700 37.13300
H  29.34200 -2.42100 36.42100
H  28.74900 -0.90600 37.03400
Mg 47.06700 24.70100 28.71200
C  47.64000 27.01900 31.24500
C  45.99300 22.44700 31.15500
C  46.51400 22.44000 26.38500
C  48.69600 26.69600 26.37800
N  46.84100 24.75900 31.01200
C  47.06700 25.81400 31.80700
C  46.69100 25.49300 33.28500
C  46.32600 23.98300 33.24000
C  46.38500 23.67900 31.73000
C  47.17000 23.10100 34.17200
C  45.53800 26.43100 33.71400
C  45.92800 27.27000 34.94000
H  46.55000 26.54500 36.28000
N  46.25900 22.80800 28.77900
C  45.85100 22.05600 29.86000
C  45.24500 20.77300 29.38200
C  45.43200 20.74800 27.97600
C  46.00000 22.04400 27.60600
C  44.90400 19.64300 30.26500
C  45.18900 19.55000 26.98600
O  45.41600 19.58800 25.82100
C  44.80200 18.15700 27.44400
N  47.53100 24.60900 26.59700
C  47.24200 23.46000 25.93100
C  47.61400 23.64000 24.47900
C  48.35500 25.01300 24.51800
C  48.30400 25.43600 25.91900
C  48.33900 22.48000 23.71700
C  47.77900 26.13600 23.56700
C  46.35800 26.74300 23.88700
N  47.95800 26.47000 28.73200
C  48.57400 27.24800 27.70800
C  48.98200 28.53800 28.28700
C  48.72900 28.44000 29.64600
C  48.03400 27.19800 29.87700
C  49.66700 29.64000 27.50400
C  48.85700 29.15900 30.91100
O  49.36300 30.24200 31.22600
C  48.15000 28.27500 31.92900
C  49.22700 27.88900 32.96900
O  50.00600 26.90300 32.80600
O  49.16800 28.70200 34.08600
C  49.97300 28.18300 35.25400
H  45.67900 21.75800 31.94200
H  46.31400 21.73400 25.57700
H  49.27300 27.27200 25.65100
H  47.67200 25.66300 33.72800
H  45.31500 23.60200 33.38300
H  47.69700 22.22600 33.79100
H  46.46800 22.76200 34.93400
H  47.89500 23.75600 34.65400
H  44.50100 26.09600 33.71900
H  45.46800 27.16700 32.91300
H  44.95600 27.71800 35.14600
H  46.54500 28.12900 34.67800
H  45.62000 18.85000 30.05200
H  43.84500 19.40400 30.16200
H  45.12600 19.84300 31.31300
H  44.66200 17.43400 26.64000
H  43.85400 18.18900 27.98000
H  45.59200 17.77400 28.09000
H  46.69600 23.90100 23.95200
H  49.39400 24.91800 24.20100
H  49.14500 22.88600 23.10600
H  47.64900 22.01200 23.01600
H  48.77600 21.80800 24.45600
H  47.65700 25.63500 22.60700
H  48.58400 26.86700 23.48900
H  45.87900 26.51900 24.84000
H  45.73200 26.55300 23.01500
H  46.41800 27.82800 23.80900
H  50.70200 29.76300 27.82500
H  49.14500 30.55500 27.78300
H  49.59700 29.49800 26.42500
H  47.43900 28.88100 32.49000
H  49.58100 27.21600 35.56700
H  50.13200 28.95200 36.01000
H  50.95300 27.88900 34.87700

