158

Mg 24.11900 -6.27600 46.52500
C  26.54700 -3.74000 45.69200
C  21.73700 -4.47200 44.79400
C  22.04500 -8.82600 46.90700
C  26.81900 -8.17300 47.90100
N  24.20700 -4.38000 45.31800
C  25.22900 -3.45200 45.18400
C  24.79200 -2.24700 44.31700
C  23.19300 -2.49500 44.29100
C  23.03400 -3.87300 44.92400
C  22.42000 -1.36700 44.95200
C  25.46900 -2.33100 42.88800
C  26.29900 -1.08400 42.53200
H  26.45700 -0.75300 41.07600
N  22.14200 -6.71100 45.86400
C  21.33700 -5.81100 45.12500
C  20.05500 -6.37100 45.02800
C  20.08700 -7.62800 45.66400
C  21.44500 -7.79700 46.19200
C  18.98300 -5.51700 44.36600
C  18.80900 -8.59300 45.82300
O  17.76900 -8.27700 45.17100
C  18.76500 -9.92500 46.64400
N  24.33400 -8.11400 47.27000
C  23.33200 -9.06800 47.35300
C  23.83200 -10.41400 47.86400
C  25.31200 -10.13400 48.27500
C  25.51300 -8.67800 47.86300
C  22.96700 -11.22700 48.88600
C  26.34800 -11.28000 47.87000
C  27.40700 -11.56600 48.98700
N  26.27300 -6.09100 46.75200
C  27.20000 -6.86700 47.39300
C  28.46000 -6.18800 47.54000
C  28.20300 -4.93000 46.84900
C  26.87400 -4.95600 46.36400
C  29.56600 -6.50800 48.40800
C  28.77400 -3.55700 46.53900
O  29.92000 -3.15200 46.79400
C  27.73400 -2.78700 45.68600
C  27.50800 -1.46700 46.22000
O  26.79500 -1.21800 47.18200
O  28.08700 -0.41100 45.61100
C  27.41900 0.92400 45.77800
H  21.04900 -3.74200 44.36400
H  21.35600 -9.60900 47.23200
H  27.64100 -8.81100 48.23400
H  25.10000 -1.34400 44.84400
H  22.80900 -2.53300 43.27100
H  23.15000 -0.71800 45.43800
H  21.65800 -1.66800 45.67100
H  22.00700 -0.68900 44.20600
H  24.63000 -2.27400 42.19500
H  26.01100 -3.24400 42.64300
H  27.28800 -1.41200 42.85200
H  26.00900 -0.16100 43.03400
H  19.40900 -5.04100 43.48200
H  18.53400 -4.74500 44.99000
H  18.24200 -6.20500 43.95900
H  17.72200 -10.23600 46.58700
H  19.04400 -9.58500 47.64100
H  19.51600 -10.56600 46.18100
H  23.75900 -11.03600 46.97200
H  25.27000 -10.13600 49.36400
H  23.50500 -11.15400 49.83100
H  22.76000 -12.26000 48.60800
H  21.95600 -10.82400 48.95500
H  26.76100 -10.92100 46.92700
H  25.79500 -12.20300 47.69400
H  28.46000 -11.64300 48.71900
H  27.30100 -12.56400 49.41200
H  27.27500 -10.89500 49.83600
H  29.36500 -6.17900 49.42800
H  30.45700 -5.95900 48.10100
H  29.82600 -7.56600 48.43400
H  28.15300 -2.68600 44.68400
H  28.11100 1.60900 46.26800
H  26.43400 0.97800 46.24200
H  27.15400 1.30900 44.79400
Mg 46.92000 16.96600 28.24200
C  44.94900 16.28900 30.98900
C  48.73400 19.16200 30.13900
C  48.38700 17.94100 25.40100
C  44.48100 15.25500 26.20200
N  46.80800 17.72600 30.39100
C  46.04300 17.11000 31.35600
C  46.44000 17.51400 32.77700
C  47.70300 18.43100 32.49100
C  47.77000 18.47000 30.94900
C  47.59000 19.81900 33.04900
C  46.77200 16.19300 33.61900
C  47.31200 16.29200 35.10600
H  46.74700 17.47600 35.86600
N  48.48600 18.24900 27.82000
C  48.98600 19.19100 28.70900
C  50.04900 19.97300 27.99300
C  50.06600 19.49300 26.59900
C  48.93800 18.53400 26.52500
C  50.76700 21.06000 28.65600
C  51.01100 19.88700 25.45100
O  50.88100 19.43500 24.37800
C  52.24300 20.81400 25.79600
N  46.38400 16.84500 26.04500
C  47.28500 17.15600 25.12200
C  46.91900 16.65500 23.68400
C  45.76200 15.70200 24.01600
C  45.50100 15.92100 25.53100
C  46.40400 17.84900 22.69800
C  46.12900 14.21600 23.60600
C  45.23600 13.38800 22.64400
N  45.10000 15.98500 28.47300
C  44.18700 15.37300 27.58900
C  43.01200 14.83200 28.32300
C  43.28900 15.20900 29.68400
C  44.56600 15.90600 29.70400
C  41.87700 13.95100 27.64000
C  42.77900 15.03200 31.06000
O  41.77800 14.57300 31.51100
C  43.78000 15.77700 31.95400
C  42.99000 16.90300 32.58200
O  42.62900 17.86700 31.94300
O  42.82600 16.73100 33.94100
C  42.05200 17.80400 34.55700
H  49.46100 19.71500 30.73600
H  48.95300 18.16800 24.49500
H  43.82700 14.79800 25.45700
H  45.64600 18.16500 33.14200
H  48.60000 18.08400 33.00300
H  47.22000 20.42000 32.21800
H  48.59000 20.19800 33.26300
H  46.92400 20.06600 33.87600
H  47.50700 15.60100 33.07400
H  45.92000 15.52900 33.76400
H  48.37200 16.53000 35.01400
H  47.06100 15.34900 35.59200
H  50.53500 21.24300 29.70500
H  50.64200 21.99400 28.10700
H  51.80000 20.72100 28.72900
H  52.69400 20.58800 26.76300
H  51.97100 21.86900 25.78800
H  53.00400 20.70300 25.02400
H  47.68500 16.07400 23.17100
H  44.89300 16.05300 23.46000
H  45.34700 17.68000 22.49000
H  47.00100 17.70200 21.79800
H  46.54300 18.81800 23.17700
H  46.29000 13.67500 24.53800
H  47.05400 14.20700 23.02800
H  44.73100 12.58000 23.17300
H  45.64300 12.84800 21.78800
H  44.49000 14.06900 22.23600
H  41.07200 13.67400 28.32100
H  42.34800 12.97700 27.50200
H  41.52900 14.19800 26.63700
H  44.12600 15.09400 32.73000
H  42.40000 17.71600 35.58600
H  40.97400 17.74400 34.40500
H  42.36400 18.80600 34.26300

