158

Mg 40.98000 9.39800 29.83500
C  42.92600 10.31400 32.57000
C  38.57800 8.41400 32.00800
C  39.23200 8.23800 27.33100
C  43.71700 10.07300 27.72200
N  40.87500 9.10500 32.05200
C  41.69000 9.75600 32.92500
C  41.02900 9.86900 34.33800
C  39.76900 8.89600 34.13600
C  39.69400 8.69600 32.66300
C  39.87700 7.58200 34.95800
C  40.75600 11.35700 34.77200
C  40.16000 11.50800 36.19700
H  41.13600 12.03800 37.29300
N  39.18100 8.50400 29.69000
C  38.24800 8.37500 30.65500
C  37.00500 7.75700 30.16600
C  37.35000 7.39700 28.78700
C  38.65100 8.04300 28.54100
C  35.89700 7.45400 31.03600
C  36.60400 6.59500 27.79900
O  37.02700 6.31300 26.68600
C  35.19700 5.91900 28.21100
N  41.37900 9.31800 27.73500
C  40.49200 8.71600 26.91600
C  41.10000 8.75900 25.39300
C  42.52900 9.22500 25.61500
C  42.58000 9.55900 27.11900
C  41.04200 7.35200 24.65800
C  42.98300 10.31600 24.54900
C  42.69700 11.72800 24.98800
N  42.96300 10.08900 30.05200
C  43.95000 10.33500 29.11000
C  45.13300 10.85000 29.77700
C  44.78400 10.89300 31.14400
C  43.44300 10.38900 31.21900
C  46.33200 11.44600 29.17700
C  45.18800 11.33400 32.42700
O  46.19400 11.94900 32.72600
C  44.05500 10.98700 33.35600
C  44.66000 10.07500 34.31900
O  44.75100 8.86700 34.14100
O  45.06800 10.78400 35.38300
C  45.72100 9.90600 36.37800
H  37.73800 8.17500 32.66300
H  38.89000 7.71300 26.43600
H  44.56700 10.20900 27.05000
H  41.69600 9.39800 35.06000
H  38.90100 9.52200 34.34600
H  39.89500 6.84500 34.15400
H  38.97400 7.58400 35.56800
H  40.74500 7.55200 35.61700
H  40.07700 11.76800 34.02500
H  41.64400 11.95900 34.57700
H  39.88600 10.48500 36.45700
H  39.34900 12.22800 36.08600
H  35.79200 8.20800 31.81700
H  35.88600 6.47000 31.50500
H  35.01700 7.58500 30.40600
H  35.37800 5.30700 29.09400
H  34.85600 5.22400 27.44300
H  34.40500 6.66500 28.13800
H  40.45800 9.47500 24.88000
H  43.26200 8.42000 25.57100
H  40.62300 6.58400 25.31000
H  41.96200 7.01500 24.18100
H  40.36800 7.44600 23.80700
H  42.56500 10.02700 23.58500
H  44.05100 10.26500 24.33500
H  41.75300 11.72600 25.53200
H  42.63900 12.40600 24.13700
H  43.50900 12.10100 25.61300
H  45.99500 11.93300 28.26200
H  46.97400 10.58700 28.97900
H  46.75700 12.21900 29.81700
H  43.73700 11.89300 33.87200
H  46.64700 9.45700 36.02000
H  45.03800 9.14500 36.75700
H  46.01000 10.55300 37.20600
Mg 49.18200 46.96900 44.11400
C  46.15600 46.99500 42.28200
C  49.97600 44.10700 42.58300
C  52.34500 47.72500 44.99900
C  48.23000 50.28300 45.11400
N  48.06800 45.68700 42.79800
C  46.86600 45.83000 42.16600
C  46.40100 44.49200 41.44900
C  47.58200 43.55600 41.78700
C  48.59700 44.43400 42.51400
C  47.11100 42.34200 42.64300
C  46.31200 44.67700 39.91100
C  45.02300 44.12200 39.34800
H  45.27900 43.22500 38.09900
N  50.93000 45.99300 43.91700
C  51.05000 44.82100 43.17800
C  52.49600 44.50100 43.16000
C  53.18100 45.44200 43.91900
C  52.18700 46.42500 44.38900
C  53.09800 43.42300 42.18200
C  54.71800 45.33500 44.27800
O  55.46100 44.46400 43.81300
C  55.38800 46.34800 45.26700
N  50.12900 48.76800 44.97800
C  51.41200 48.72900 45.30900
C  51.68800 49.94100 46.15700
C  50.43900 50.88500 46.10500
C  49.50800 49.98300 45.37200
C  52.16000 49.59600 47.62300
C  50.71300 52.31600 45.39400
C  51.61500 53.28700 46.16800
N  47.55200 48.37200 43.86600
C  47.35700 49.57700 44.36000
C  46.06100 50.11300 43.91800
C  45.55600 49.14800 43.09300
C  46.48700 48.06900 43.10800
C  45.48900 51.43600 44.34900
C  44.41000 48.76600 42.24200
O  43.41100 49.43500 42.02800
C  44.72600 47.39100 41.63000
C  43.58900 46.42300 41.78800
O  43.39300 45.65000 42.71400
O  42.61400 46.51800 40.73700
C  41.53200 45.51100 40.87400
H  50.34600 43.21900 42.06600
H  53.41400 47.90500 45.13100
H  47.93400 51.27700 45.45400
H  45.43400 44.20000 41.85900
H  48.13400 43.13200 40.94900
H  47.54300 42.31000 43.64300
H  47.50800 41.47700 42.11200
H  46.04000 42.33000 42.84300
H  47.08700 44.09800 39.40900
H  46.48100 45.72100 39.65100
H  44.35600 44.91900 39.01800
H  44.47700 43.54100 40.09000
H  53.90900 42.85100 42.63100
H  53.55400 43.93600 41.33500
H  52.38100 42.62500 41.99100
H  55.56300 47.31700 44.79800
H  56.33900 45.95800 45.62900
H  54.71000 46.40200 46.11800
H  52.46100 50.52300 45.65600
H  50.08100 51.16300 47.09700
H  52.45600 48.62400 48.01600
H  51.26600 49.90500 48.16500
H  52.78300 50.43800 47.92600
H  49.77600 52.81600 45.15000
H  51.12600 52.06100 44.41800
H  51.11500 54.23900 46.34700
H  52.51000 53.61100 45.63700
H  51.83000 52.88700 47.15900
H  45.74700 51.76500 45.35500
H  44.40400 51.38400 44.26200
H  45.86200 52.25800 43.73800
H  44.91000 47.56300 40.57000
H  40.87200 45.78700 41.69600
H  41.90600 44.53300 41.17800
H  40.97800 45.32700 39.95300

