158

Mg 2.42000 -3.86600 44.16200
C  5.73000 -2.71800 43.93800
C  1.52500 -1.61000 41.77300
C  -0.65900 -5.35500 44.21400
C  3.69200 -6.38600 46.41300
N  3.47900 -2.33600 43.04400
C  4.83300 -2.06400 43.07200
C  5.18100 -0.93100 42.08700
C  3.79400 -0.41700 41.68000
C  2.88600 -1.56400 42.14600
C  3.30400 0.99100 42.15000
C  6.02000 -1.49700 40.90700
C  7.39600 -0.80700 40.46100
H  7.49000 -0.25700 39.00100
N  0.69800 -3.52900 43.07000
C  0.51100 -2.44600 42.28700
C  -0.83700 -2.45600 41.91900
C  -1.46800 -3.64600 42.40800
C  -0.52700 -4.18400 43.37500
C  -1.51100 -1.37100 41.10800
C  -2.86000 -4.16800 42.05900
O  -3.61800 -3.58000 41.33800
C  -3.43100 -5.49100 42.60900
N  1.60600 -5.70200 45.12300
C  0.33800 -6.03300 44.97900
C  0.07000 -7.36700 45.71300
C  1.41900 -7.68100 46.38700
C  2.37700 -6.56800 45.92100
C  -1.27800 -7.40800 46.59200
C  1.99700 -9.09100 46.10100
C  2.95100 -9.25300 44.85800
N  4.34300 -4.50200 45.06700
C  4.70100 -5.50200 45.98900
C  6.16500 -5.43200 46.42600
C  6.62000 -4.30000 45.55600
C  5.48000 -3.81500 44.83600
C  6.90100 -6.26600 47.34700
C  7.71700 -3.50300 45.12800
O  8.93200 -3.68300 45.38500
C  7.18200 -2.34400 44.09500
C  7.33600 -1.04600 44.62900
O  6.94700 -0.62400 45.69500
O  7.98600 -0.25700 43.72200
C  8.08600 1.13500 44.08200
H  1.09200 -0.92900 41.03800
H  -1.65000 -5.80300 44.30500
H  3.91200 -7.14200 47.16900
H  5.72900 -0.17600 42.65100
H  3.64300 -0.37600 40.60200
H  4.11400 1.48000 42.69000
H  2.44200 0.92200 42.81400
H  3.11100 1.73700 41.37900
H  5.44500 -1.41400 39.98500
H  6.25300 -2.54600 41.09200
H  8.30400 -1.36600 40.68800
H  7.59400 0.11100 41.01500
H  -1.56000 -1.38100 40.01900
H  -0.91100 -0.46800 41.21300
H  -2.49000 -1.08800 41.49300
H  -2.71800 -6.30900 42.71000
H  -4.27200 -5.73200 41.95900
H  -3.84900 -5.21500 43.57700
H  -0.08000 -7.94900 44.80300
H  1.33200 -7.43400 47.44500
H  -1.63500 -6.37900 46.55500
H  -1.00200 -7.82200 47.56200
H  -2.01100 -8.11500 46.20300
H  1.26600 -9.89800 46.05500
H  2.57500 -9.28200 47.00500
H  4.02600 -9.35200 45.01200
H  2.80600 -8.49500 44.08800
H  2.76100 -10.18500 44.32600
H  7.80500 -5.78300 47.71900
H  7.03700 -7.26700 46.93800
H  6.31200 -6.49400 48.23500
H  7.79100 -2.47900 43.20100
H  8.82200 1.37800 44.84900
H  7.08800 1.51800 44.29500
H  8.51900 1.65400 43.22700
Mg 16.88000 -2.29400 27.37000
C  15.64800 -0.13700 29.90300
C  19.08400 -3.49300 29.51300
C  18.13200 -4.11500 24.84200
C  14.71400 -0.59800 25.11700
N  17.31500 -1.86900 29.50600
C  16.67500 -0.97200 30.34800
C  17.23300 -1.20100 31.77700
C  18.53400 -2.05800 31.52300
C  18.33700 -2.46900 30.04000
C  19.88000 -1.43600 31.84600
C  16.17400 -1.93200 32.68700
C  16.17900 -1.71400 34.20000
H  17.37200 -0.88400 34.69700
N  18.35200 -3.61200 27.20900
C  19.15400 -4.03700 28.24600
C  20.11400 -5.02800 27.80300
C  19.75700 -5.28300 26.46500
C  18.67300 -4.34800 26.09900
C  21.20700 -5.69800 28.69000
C  20.35500 -6.31100 25.46600
O  20.02300 -6.53600 24.32100
C  21.54000 -7.12700 25.92200
N  16.47800 -2.28000 25.23000
C  17.12900 -3.14400 24.44000
C  16.53900 -3.05200 23.07000
C  15.25800 -2.12300 23.17400
C  15.43100 -1.68300 24.60000
C  17.59400 -2.50400 22.10200
C  13.91300 -2.79300 22.96400
C  13.51000 -2.81500 21.45500
N  15.39200 -0.70700 27.47800
C  14.67000 -0.09100 26.46200
C  13.84600 1.01200 27.03800
C  14.18600 0.94700 28.41300
C  15.13000 -0.08300 28.62500
C  12.77200 1.90200 26.39900
C  13.87400 1.50200 29.71700
O  13.09100 2.43100 29.95200
C  14.90100 0.93000 30.68500
C  15.71900 1.91800 31.45400
O  16.67300 2.56000 30.90500
O  15.32200 2.00700 32.76800
C  16.14100 2.97800 33.56300
H  19.85500 -3.89500 30.17400
H  18.28800 -4.77800 23.98900
H  14.02700 -0.11400 24.42000
H  17.50200 -0.20800 32.13900
H  18.43200 -2.91500 32.18800
H  20.34300 -2.12700 32.55000
H  19.83600 -0.41100 32.21500
H  20.55200 -1.52900 30.99300
H  16.12700 -2.98200 32.39600
H  15.18000 -1.58700 32.39900
H  16.35800 -2.68200 34.66800
H  15.28900 -1.26100 34.63600
H  22.14300 -5.94900 28.19100
H  20.78200 -6.64400 29.02600
H  21.40900 -4.94900 29.45600
H  22.38600 -6.47100 26.12700
H  21.85000 -7.80400 25.12600
H  21.30800 -7.82300 26.72900
H  16.18300 -3.99600 22.65600
H  15.30700 -1.25600 22.51600
H  18.55700 -2.21000 22.51900
H  17.32700 -1.59600 21.56200
H  17.84200 -3.29800 21.39700
H  13.06700 -2.31500 23.45700
H  14.04100 -3.82200 23.30100
H  14.16200 -2.18000 20.85400
H  12.50600 -2.40700 21.57100
H  13.41900 -3.84300 21.10400
H  12.09700 1.31700 25.77400
H  13.15900 2.63600 25.69200
H  12.26100 2.44900 27.19100
H  14.35900 0.51500 31.53400
H  15.92700 4.00200 33.25900
H  17.21400 2.80000 33.48800
H  15.87800 2.86200 34.61500

