158

Mg -12.35700 38.19200 43.64000
C  -10.34100 35.66200 42.05800
C  -10.33400 40.50400 42.18700
C  -14.58200 40.43100 44.54100
C  -14.70700 35.56900 44.28000
N  -10.56100 38.05200 42.24000
C  -9.82200 36.96700 41.74400
C  -8.57000 37.36400 41.09700
C  -8.52300 38.92100 41.31000
C  -9.85200 39.19300 41.98300
C  -7.27900 39.47500 42.03600
C  -8.41600 36.94000 39.58000
C  -6.89500 36.78000 39.13900
H  -6.38800 35.64400 38.22300
N  -12.48900 40.19600 43.36300
C  -11.55200 40.93700 42.80700
C  -11.88400 42.35500 42.91500
C  -13.06800 42.38800 43.65600
C  -13.43200 40.97400 43.90100
C  -11.05000 43.49100 42.34600
C  -13.85700 43.63800 43.98800
O  -13.36500 44.75900 43.80800
C  -15.28300 43.43400 44.32100
N  -14.34400 38.04100 44.36800
C  -15.05900 39.14000 44.69500
C  -16.31900 38.77000 45.53000
C  -16.48700 37.23900 45.20000
C  -15.10800 36.95500 44.59400
C  -16.16700 38.98000 47.10000
C  -17.55500 36.81300 44.21600
C  -18.94400 36.90300 44.75800
N  -12.51200 36.02300 43.37300
C  -13.49900 35.13600 43.67800
C  -13.12900 33.83800 43.36800
C  -11.85100 33.91600 42.68700
C  -11.56300 35.36500 42.72200
C  -13.81200 32.57900 43.69500
C  -10.84000 33.20200 42.03000
O  -10.57300 32.05000 41.92200
C  -9.79100 34.33600 41.60100
C  -8.47700 33.97800 42.34900
O  -8.32100 33.93400 43.55600
O  -7.58800 33.57700 41.41300
C  -6.35200 32.97500 41.94900
H  -9.60600 41.16500 41.71300
H  -15.25400 41.18600 44.95300
H  -15.45500 34.82600 44.56300
H  -7.76800 36.94200 41.70200
H  -8.63900 39.60200 40.46600
H  -7.52400 39.86300 43.02500
H  -6.86200 40.30300 41.46300
H  -6.59500 38.66400 42.28600
H  -8.86300 37.75300 39.00700
H  -8.87800 35.96700 39.41300
H  -6.20200 36.66000 39.97200
H  -6.62300 37.70200 38.62500
H  -10.91400 44.24700 43.11900
H  -11.59500 43.91800 41.50500
H  -10.06100 43.30000 41.92900
H  -15.83800 42.65300 43.80100
H  -15.72300 44.38000 44.00700
H  -15.42700 43.43300 45.40100
H  -17.21200 39.27400 45.16000
H  -16.51600 36.70100 46.14700
H  -17.06800 39.42200 47.52500
H  -15.45000 39.80100 47.11200
H  -15.69100 38.19400 47.68700
H  -17.41700 35.75600 43.99000
H  -17.50700 37.40700 43.30300
H  -19.42700 35.98200 45.08600
H  -19.50800 37.52700 44.06500
H  -19.00100 37.41200 45.72100
H  -14.01600 32.56000 44.76600
H  -13.08600 31.77300 43.59100
H  -14.76200 32.31600 43.23100
H  -9.51900 34.25600 40.54800
H  -6.43100 31.88900 41.99800
H  -6.02300 33.42400 42.88600
H  -5.64600 33.28000 41.17700
Mg -11.50700 15.86800 41.57100
C  -8.66200 14.02300 41.09900
C  -9.84200 18.71500 40.30200
C  -14.52200 17.52000 41.40800
C  -13.14500 12.86900 42.29200
N  -9.56000 16.27800 40.62400
C  -8.49600 15.37500 40.71100
C  -7.23300 16.03600 40.11200
C  -7.59500 17.55900 40.31500
C  -9.07000 17.53000 40.34700
C  -7.11100 18.17300 41.59700
C  -6.75600 15.67900 38.64500
C  -5.24900 15.61800 38.47400
H  -4.67700 16.16100 37.22200
N  -12.04200 17.83500 40.98500
C  -11.25200 18.87000 40.54600
C  -12.04500 20.09200 40.27000
C  -13.36200 19.77600 40.57900
C  -13.39200 18.28500 41.03100
C  -11.46100 21.29800 39.55800
C  -14.54100 20.67600 40.49400
O  -14.28100 21.81700 40.18700
C  -16.13600 20.32600 40.69400
N  -13.59700 15.32500 41.85300
C  -14.64600 16.14000 41.78200
C  -15.99200 15.41300 41.75200
C  -15.55700 13.97400 42.28900
C  -13.99900 14.04500 42.25100
C  -17.13200 16.04500 42.62600
C  -16.06700 12.84100 41.47700
C  -17.42100 12.92600 40.79800
N  -10.96900 13.82300 41.87600
C  -11.82000 12.75500 42.04700
C  -11.00100 11.56100 42.07400
C  -9.71800 12.04100 41.76800
C  -9.82900 13.39000 41.48100
C  -11.36800 10.19400 42.35900
C  -8.35800 11.65500 41.46200
O  -7.78700 10.59100 41.34800
C  -7.59700 12.94500 41.11700
C  -6.66800 13.29600 42.08700
O  -6.83900 13.54000 43.25600
O  -5.41700 13.08500 41.61300
C  -4.24200 13.23500 42.47000
H  -9.27800 19.64100 40.17600
H  -15.53500 17.87700 41.21500
H  -13.73900 11.96300 42.43000
H  -6.40900 15.89600 40.81100
H  -7.29700 18.17800 39.47000
H  -6.39900 17.51100 42.09000
H  -7.87900 18.34000 42.35200
H  -6.69500 19.14700 41.34100
H  -7.28000 16.30600 37.92400
H  -7.12500 14.65600 38.58000
H  -4.85700 14.61100 38.61100
H  -4.81400 16.28400 39.21900
H  -11.99900 21.50200 38.63200
H  -10.42700 21.24000 39.21600
H  -11.49400 22.19400 40.17700
H  -16.62200 21.30000 40.74500
H  -16.17400 19.74300 41.61400
H  -16.33900 19.75700 39.78700
H  -16.15500 15.37600 40.67500
H  -15.83400 13.79200 43.32700
H  -18.00800 16.14500 41.98500
H  -16.70500 16.98300 42.97900
H  -17.35800 15.40200 43.47600
H  -16.22100 12.05700 42.21800
H  -15.27400 12.60000 40.76900
H  -18.00800 13.71100 41.27500
H  -17.83900 11.94000 41.00200
H  -17.27600 13.16100 39.74400
H  -10.45700 9.65500 42.61900
H  -11.88900 9.71400 41.53000
H  -11.97200 10.20100 43.26700
H  -7.22700 12.84800 40.09600
H  -3.46400 12.66200 41.96700
H  -4.45700 12.86200 43.47100
H  -3.83800 14.24700 42.43200

