158

Mg 17.22000 -0.58600 27.72400
C  15.89800 1.39500 30.39900
C  19.31100 -2.10900 29.90500
C  18.64700 -1.94000 24.98100
C  15.17600 1.55600 25.51100
N  17.67300 -0.25600 29.80500
C  16.88300 0.44000 30.76500
C  17.33500 0.07500 32.15600
C  18.60700 -0.85400 32.04200
C  18.54800 -1.12500 30.48000
C  19.96900 -0.20400 32.37500
C  16.15200 -0.54900 33.04200
C  16.09200 -0.21200 34.58000
H  17.30200 0.58400 35.10200
N  18.74800 -1.76700 27.49600
C  19.43100 -2.38500 28.54400
C  20.33900 -3.31300 28.01900
C  20.21300 -3.28000 26.60700
C  19.15100 -2.26900 26.27200
C  21.22500 -4.07500 28.90000
C  20.96100 -4.04800 25.58000
O  20.80800 -3.93400 24.41900
C  21.91300 -5.07400 26.00300
N  16.91500 -0.19200 25.48300
C  17.62900 -1.02000 24.66800
C  17.11500 -0.75000 23.26800
C  15.95200 0.25200 23.41500
C  15.94600 0.50600 24.88000
C  18.29500 -0.27200 22.29400
C  14.56800 -0.22300 22.89100
C  14.58900 -0.41900 21.35800
N  15.86600 1.18800 27.84900
C  15.11000 1.87000 26.85700
C  14.12900 2.74900 27.54900
C  14.46700 2.62700 28.89500
C  15.54800 1.77300 29.00800
C  13.23100 3.81000 26.75700
C  14.14000 3.07800 30.24200
O  13.32200 3.94600 30.63800
C  15.01600 2.24200 31.25200
C  15.71400 3.22100 32.13000
O  16.82300 3.73900 31.89700
O  14.94500 3.46900 33.20500
C  15.50200 4.39200 34.19500
H  19.82700 -2.64100 30.70700
H  19.07100 -2.42400 24.09800
H  14.38000 1.97600 24.89300
H  17.65300 1.03300 32.56700
H  18.53300 -1.83200 32.51700
H  19.87700 0.81700 32.74700
H  20.62200 -0.18900 31.50200
H  20.37000 -0.78900 33.20300
H  16.21900 -1.63700 33.07700
H  15.20500 -0.36400 32.53600
H  16.10900 -1.16100 35.11600
H  15.21600 0.37400 34.85900
H  22.20800 -4.21700 28.45000
H  20.64500 -4.95700 29.16900
H  21.45000 -3.59300 29.85200
H  21.36100 -5.64300 26.75100
H  22.82100 -4.56700 26.33000
H  22.07400 -5.76800 25.17800
H  16.85700 -1.78500 23.04000
H  16.26600 1.09900 22.80400
H  19.20400 -0.02200 22.84100
H  17.90400 0.56300 21.71400
H  18.54200 -1.06100 21.58400
H  13.80200 0.45800 23.26500
H  14.24000 -1.11600 23.42300
H  13.98000 0.35700 20.89500
H  14.12600 -1.40200 21.27200
H  15.62300 -0.52200 21.02700
H  13.06600 3.52500 25.71800
H  13.57200 4.84300 26.82800
H  12.24200 3.83600 27.21400
H  14.28300 1.69000 31.84000
H  15.75300 5.39600 33.85500
H  16.35100 4.03000 34.77500
H  14.68900 4.59100 34.89300
Mg 47.76600 25.04300 28.44100
C  49.01300 27.21300 30.99200
C  46.96500 22.83500 30.81600
C  47.65400 22.86000 26.09500
C  49.04700 27.51900 26.12800
N  47.88200 25.16200 30.63100
C  48.21400 26.19000 31.47300
C  47.90000 25.88700 32.89800
C  47.44500 24.37700 32.79000
C  47.39400 24.06500 31.33300
C  48.21400 23.45300 33.73800
C  46.99800 27.02400 33.55000
C  46.09500 26.72100 34.74700
H  46.04500 27.74800 35.90900
N  47.32100 23.07800 28.44000
C  46.95900 22.31300 29.53600
C  46.54800 20.97600 29.19900
C  46.86200 20.93400 27.80000
C  47.28600 22.28600 27.37300
C  45.98000 19.87800 30.12200
C  46.77100 19.73000 26.81900
O  47.17100 19.87100 25.65300
C  46.20200 18.33300 27.35100
N  48.24700 25.13200 26.38900
C  48.08700 24.09300 25.62000
C  48.31900 24.47200 24.13500
C  48.49800 25.98500 24.15300
C  48.55500 26.26900 25.63000
C  49.66500 23.78400 23.57500
C  47.33900 26.76600 23.30700
C  47.74200 27.35100 22.00200
N  48.81500 26.98300 28.49000
C  49.19700 27.85800 27.50600
C  49.96300 28.96700 28.05200
C  49.86600 28.85900 29.41700
C  49.23600 27.54300 29.61700
C  50.43400 30.12100 27.22600
C  50.07100 29.47700 30.77400
O  50.68500 30.47800 31.14300
C  49.47400 28.42700 31.78900
C  50.54400 28.17100 32.75100
O  51.42600 27.38500 32.48000
O  50.30600 28.72700 34.00400
C  51.27700 28.33000 35.05400
H  46.63800 22.12500 31.57900
H  47.56500 22.17500 25.24900
H  49.33800 28.30200 25.42600
H  48.86100 26.05700 33.38300
H  46.39300 24.42500 33.07000
H  48.93500 23.98700 34.35600
H  48.76700 22.69200 33.18700
H  47.47600 22.94100 34.35600
H  46.27200 27.16200 32.74800
H  47.66500 27.84900 33.80100
H  46.43500 25.73600 35.06900
H  45.08100 26.50200 34.41000
H  44.98400 19.67800 29.72700
H  45.83200 20.34200 31.09700
H  46.58600 18.97500 30.19300
H  45.26500 18.42700 27.89900
H  46.97600 18.03700 28.05900
H  46.13300 17.62100 26.52900
H  47.52100 24.04700 23.52600
H  49.48100 26.25400 23.76500
H  50.53200 24.44200 23.63200
H  49.64400 23.46500 22.53300
H  49.85900 22.91800 24.20700
H  47.11900 27.62600 23.93900
H  46.44800 26.13900 23.31900
H  47.13100 26.95600 21.19100
H  48.75200 27.05700 21.71600
H  47.69400 28.43900 21.97100
H  50.83600 29.77000 26.27500
H  51.09500 30.77400 27.79500
H  49.62900 30.83300 27.04600
H  48.65000 28.95300 32.27100
H  52.26100 28.79800 35.07100
H  51.37400 27.24900 34.95800
H  50.88700 28.73400 35.98900

