158

Mg 3.21600 0.07900 44.43700
C  6.09100 1.85200 44.00600
C  1.44100 2.84900 43.22000
C  0.43000 -1.89600 44.11400
C  5.10100 -2.70900 45.29800
N  3.79500 2.10700 43.56400
C  4.99500 2.61200 43.52900
C  5.06400 3.98900 42.84400
C  3.54600 4.40700 42.99700
C  2.85100 3.04000 43.27600
C  3.27900 5.44000 44.00600
C  5.64500 4.00800 41.42400
C  5.51700 2.80000 40.44800
H  5.93700 3.14400 38.94500
N  1.16500 0.39600 43.77900
C  0.64100 1.69600 43.49700
C  -0.80600 1.56900 43.35800
C  -1.10300 0.25900 43.61900
C  0.18500 -0.50600 43.90300
C  -1.70900 2.76900 42.92100
C  -2.56700 -0.39200 43.77600
O  -3.50000 0.35600 43.64800
C  -2.85400 -1.86500 44.09900
N  2.89400 -1.99800 44.40600
C  1.64700 -2.59200 44.30200
C  1.71600 -4.13500 44.69600
C  3.24800 -4.38400 45.00100
C  3.75800 -2.94100 44.98500
C  0.70500 -4.60900 45.69500
C  3.91400 -5.36900 43.98900
C  4.87300 -6.21400 44.76600
N  5.16700 -0.32900 44.87500
C  5.76300 -1.48300 45.34400
C  7.18000 -1.23100 45.52400
C  7.33200 0.12500 45.10000
C  6.08900 0.57100 44.60900
C  8.20700 -2.22100 45.96900
C  8.26300 1.20000 44.87300
O  9.47100 1.17600 45.10700
C  7.50400 2.36000 44.13800
C  7.70800 3.64300 44.87000
O  8.68600 4.36300 44.84100
O  6.60700 3.91400 45.60600
C  6.79100 5.14000 46.45700
H  0.95000 3.76100 42.87600
H  -0.38100 -2.59400 43.89600
H  5.70700 -3.56600 45.59900
H  5.76900 4.67700 43.31000
H  3.15500 4.69700 42.02100
H  4.06600 5.77300 44.68300
H  2.42900 5.15800 44.62700
H  3.02400 6.32200 43.41900
H  6.68200 4.33100 41.51600
H  5.21000 4.89200 40.95700
H  4.49600 2.42300 40.38700
H  6.08300 1.93000 40.78100
H  -2.61200 2.38100 42.45000
H  -1.38400 3.35700 42.06300
H  -2.01000 3.36500 43.78200
H  -3.91100 -2.11200 44.00100
H  -2.69800 -2.15300 45.13800
H  -2.31100 -2.58300 43.48500
H  1.41700 -4.56300 43.73900
H  3.41900 -4.73000 46.02000
H  -0.01000 -5.28600 45.22600
H  0.17100 -3.76000 46.12200
H  1.21800 -5.15600 46.48500
H  4.49100 -4.87500 43.20700
H  3.19100 -6.04700 43.53600
H  4.96000 -6.04300 45.83900
H  5.85400 -5.99400 44.34600
H  4.58600 -7.23500 44.51400
H  9.20300 -1.81200 45.79900
H  8.08500 -3.16900 45.44400
H  7.93800 -2.42500 47.00600
H  7.99900 2.40900 43.16800
H  6.07800 5.21800 47.27800
H  6.84700 6.06800 45.88700
H  7.73100 4.97700 46.98300
Mg -0.28200 43.66400 24.38500
C  1.46200 43.21500 27.36000
C  -3.21600 43.00400 26.03300
C  -1.87300 43.35000 21.30900
C  2.77600 43.88200 22.61600
N  -0.81500 43.31400 26.50300
C  0.10400 43.14000 27.51900
C  -0.60400 42.78800 28.75100
C  -2.13500 42.63800 28.29700
C  -2.07600 42.95500 26.85000
C  -2.67600 41.23200 28.61400
C  -0.42600 43.80200 29.97600
C  -0.39700 43.22100 31.44100
H  -0.71800 41.76600 31.75500
N  -2.28000 43.37400 23.82500
C  -3.35500 43.19000 24.63000
C  -4.55100 43.26200 23.91500
C  -4.17300 43.22300 22.53600
C  -2.71700 43.32200 22.48500
C  -5.94700 43.20100 24.54900
C  -5.09300 43.12800 21.34500
O  -4.68800 43.27000 20.22400
C  -6.56600 42.64600 21.52600
N  0.31100 43.59400 22.35800
C  -0.47200 43.44000 21.25900
C  0.25000 43.40500 19.91400
C  1.63500 43.71700 20.33300
C  1.55200 43.68500 21.88700
C  0.05000 42.11800 19.02900
C  2.26600 45.01100 19.76000
C  1.50500 46.37100 19.86200
N  1.79500 43.52000 24.82800
C  2.89100 43.69800 23.99400
C  4.10200 43.63400 24.87100
C  3.58500 43.45600 26.16900
C  2.16700 43.38800 26.11600
C  5.62200 43.64400 24.43900
C  3.93000 43.28400 27.54500
O  4.98300 43.18500 28.10500
C  2.58900 43.06800 28.35000
C  2.71700 41.87800 29.16800
O  2.65300 40.75100 28.70800
O  3.00900 42.23200 30.44800
C  3.39700 41.19200 31.34400
H  -4.13400 42.89600 26.61400
H  -2.38200 43.15200 20.36400
H  3.64100 43.92300 21.95100
H  -0.22600 41.86100 29.18300
H  -2.85600 43.33300 28.72900
H  -1.94100 40.42900 28.65800
H  -3.40200 40.92700 27.86000
H  -3.06900 41.27200 29.63000
H  -1.29700 44.45600 29.94800
H  0.38200 44.49500 29.74000
H  -1.05600 43.86100 32.02700
H  0.64500 43.34800 31.73400
H  -6.43300 42.24500 24.35500
H  -6.54400 43.98000 24.07500
H  -6.07800 43.46500 25.59900
H  -7.22000 43.47800 21.78700
H  -6.63800 41.76000 22.15700
H  -6.82500 42.11200 20.61200
H  -0.15500 44.20300 19.29200
H  2.35200 42.95400 20.03100
H  0.72800 41.39700 19.48500
H  0.21800 42.34800 17.97700
H  -0.96000 41.73100 19.16900
H  2.42600 44.93800 18.68400
H  3.23400 45.19900 20.22500
H  0.93200 46.83000 19.05600
H  2.15500 47.22700 20.04700
H  0.83300 46.44200 20.71800
H  6.05300 44.54600 24.87300
H  5.72100 43.62800 23.35400
H  6.13800 42.73900 24.75900
H  2.46800 43.91400 29.02600
H  4.16500 40.60000 30.84700
H  2.54700 40.53200 31.51500
H  3.76900 41.63900 32.26600

