158

Mg 35.01900 3.44100 29.28700
C  33.05700 4.11200 31.99500
C  37.82700 3.48600 31.48200
C  36.94500 2.71200 26.74000
C  32.21900 3.75100 27.10000
N  35.38900 3.68700 31.43200
C  34.40500 3.94900 32.36500
C  34.91400 3.85800 33.78800
C  36.48300 3.90500 33.54400
C  36.62700 3.73000 32.11600
C  37.22700 5.26600 34.03000
C  34.50900 2.55500 34.52000
C  34.35600 2.71100 36.06600
H  35.06200 3.83100 36.85700
N  37.01100 3.03800 29.15400
C  37.97900 3.03500 30.16000
C  39.26300 2.51200 29.65000
C  38.99600 2.27300 28.28000
C  37.59500 2.67900 27.96200
C  40.40900 2.29500 30.57000
C  39.90600 1.61800 27.23600
O  39.64900 1.47100 26.04400
C  41.21600 1.12800 27.68800
N  34.63500 3.15700 27.20800
C  35.66800 2.98100 26.34900
C  35.11900 2.76000 24.89600
C  33.59400 2.99000 25.13200
C  33.42900 3.34700 26.56200
C  35.84000 3.53000 23.72800
C  32.57300 1.87400 24.62000
C  32.56300 0.57600 25.42900
N  32.98500 3.80100 29.44100
C  32.03100 3.98000 28.47400
C  30.76800 4.23000 29.16100
C  31.17600 4.34100 30.58200
C  32.49900 4.03100 30.69200
C  29.40100 4.34100 28.53500
C  30.61400 4.58400 31.89500
O  29.48800 4.89800 32.23300
C  31.86600 4.36200 32.93700
C  31.92300 5.52900 33.78600
O  32.32000 6.60200 33.46700
O  31.35500 5.22600 35.02000
C  31.09900 6.32400 36.00400
H  38.69600 3.42400 32.14000
H  37.65800 2.53800 25.93000
H  31.28900 3.86400 26.53900
H  34.57700 4.77300 34.27600
H  36.97600 3.13700 34.14100
H  37.88000 5.10200 34.88800
H  36.54100 6.08500 34.24600
H  37.66500 5.72600 33.14400
H  35.26000 1.78200 34.35200
H  33.56800 2.13600 34.16400
H  34.58500 1.76800 36.56200
H  33.33100 2.83500 36.41300
H  40.06900 1.60400 31.34100
H  40.57400 3.27800 31.01300
H  41.37500 2.03100 30.13900
H  42.05800 1.81600 27.76800
H  41.57200 0.34100 27.02400
H  41.08100 0.60700 28.63600
H  35.29800 1.71100 24.66000
H  33.28200 3.87900 24.58600
H  35.92000 2.78100 22.94000
H  36.77900 3.91600 24.12400
H  35.15000 4.34300 23.50100
H  32.90400 1.72800 23.59200
H  31.62700 2.40700 24.52800
H  32.66800 -0.11900 24.59500
H  31.57000 0.37800 25.83200
H  33.28500 0.43200 26.23300
H  29.32700 3.75600 27.61900
H  28.96200 5.31500 28.32100
H  28.69500 3.98500 29.28600
H  31.58100 3.47200 33.50000
H  30.70500 5.86200 36.90900
H  30.42300 7.08500 35.61400
H  31.93400 6.91800 36.37700
Mg 7.15700 53.00800 41.40000
C  6.62600 49.67100 40.53500
C  10.32900 52.66200 40.24700
C  7.33300 56.30800 41.57300
C  3.92300 53.18100 42.75100
N  8.23700 51.40800 40.43300
C  7.89100 50.10500 40.20100
C  9.02900 49.24100 39.52400
C  10.27500 50.12200 39.92700
C  9.58200 51.52400 40.31900
C  11.05700 49.48300 41.11100
C  8.90400 49.01000 37.97600
C  8.63700 50.24200 37.09500
H  7.26300 50.17600 36.31100
N  8.56300 54.37300 40.86200
C  9.83700 54.01400 40.36700
C  10.59500 55.24400 40.24300
C  9.78900 56.27400 40.59100
C  8.52300 55.71200 41.06800
C  11.95800 55.28700 39.63400
C  10.22000 57.73300 40.70900
O  11.35600 58.02100 40.31700
C  9.31300 58.88900 41.26700
N  5.77900 54.51700 42.04700
C  6.17300 55.82200 42.02100
C  5.03300 56.77200 42.48100
C  4.12100 55.67500 43.16000
C  4.63300 54.36900 42.66300
C  5.38700 57.93600 43.46000
C  2.60900 55.95200 43.05000
C  1.85800 55.85100 41.75200
N  5.60500 51.69100 41.74400
C  4.34800 51.86900 42.33700
C  3.66600 50.61500 42.41600
C  4.53400 49.74000 41.67400
C  5.67400 50.41400 41.29400
C  2.32900 50.31100 42.96100
C  4.59500 48.37400 41.10600
O  3.73900 47.50800 41.17100
C  5.96900 48.28900 40.39300
C  5.75300 47.78700 39.00900
O  5.04600 48.34900 38.15800
O  6.43000 46.52900 38.89100
C  5.76300 45.78200 37.85800
H  11.38700 52.52500 40.01600
H  7.41500 57.39300 41.66800
H  2.98900 53.20700 43.31600
H  8.91600 48.26800 40.00300
H  10.81400 50.36300 39.01100
H  10.60800 48.54300 41.43200
H  11.03300 50.21500 41.91900
H  12.13700 49.36500 41.01200
H  8.08100 48.30000 37.89300
H  9.86900 48.66700 37.60400
H  9.42700 50.31000 36.34600
H  8.53500 51.17700 37.64600
H  12.09100 56.10200 38.92200
H  12.20600 54.48300 38.94100
H  12.75800 55.27200 40.37400
H  8.95100 58.63500 42.26300
H  8.51100 58.98100 40.53500
H  9.95200 59.77200 41.25700
H  4.48600 57.16600 41.62500
H  4.43400 55.56600 44.19900
H  6.45300 57.91300 43.68400
H  4.85300 57.89200 44.40900
H  5.04700 58.82000 42.92100
H  2.38200 56.90600 43.52500
H  2.15600 55.20300 43.69900
H  2.50000 55.68000 40.88800
H  1.41300 56.79100 41.42500
H  1.15000 55.03800 41.91100
H  1.94600 51.17000 43.51100
H  2.22900 49.46600 43.64300
H  1.81400 50.10500 42.02200
H  6.66400 47.60900 40.88600
H  6.22400 44.79600 37.91000
H  6.10800 46.24100 36.93100
H  4.69500 45.58500 37.94700

