158

Mg 36.10200 48.73200 24.72800
C  36.48800 46.87000 27.54500
C  34.57200 51.19400 26.51300
C  35.39400 50.30500 21.84300
C  37.32700 45.84400 22.76500
N  35.59500 48.95700 26.77800
C  36.00500 48.14800 27.84000
C  35.71500 48.77900 29.20700
C  34.89400 50.08300 28.81600
C  35.02000 50.08200 27.29300
C  33.39300 50.08200 29.25300
C  37.03500 49.14400 29.97700
C  36.88600 49.90200 31.31400
H  35.49000 49.85100 32.11800
N  35.18400 50.53500 24.24900
C  34.61100 51.42800 25.09100
C  34.21300 52.63000 24.36300
C  34.31800 52.30600 22.97900
C  34.94800 50.97600 22.97200
C  33.67600 53.79100 25.16400
C  33.94600 53.18200 21.83100
O  34.13800 52.87400 20.66900
C  33.28300 54.47500 22.11400
N  36.46700 48.18500 22.59400
C  36.10800 49.04400 21.63700
C  36.27500 48.41700 20.23700
C  36.86200 46.97300 20.58200
C  36.88200 46.95500 22.07200
C  35.04100 48.42100 19.28500
C  38.15700 46.74400 19.80200
C  39.39100 47.41100 20.42200
N  36.88200 46.88300 25.02600
C  37.27900 45.81300 24.20500
C  37.69500 44.65000 25.00400
C  37.38400 45.06400 26.32400
C  36.90200 46.39700 26.29100
C  38.13100 43.25300 24.54000
C  37.44200 44.62300 27.67500
O  37.81100 43.57200 28.17800
C  36.90400 45.83700 28.57300
C  35.62700 45.48200 29.34700
O  34.47000 45.45200 28.88300
O  35.91700 45.19500 30.68200
C  34.77400 44.58300 31.38300
H  34.18300 51.95500 27.19200
H  35.03300 50.67600 20.88100
H  37.82800 45.07600 22.17200
H  35.11100 48.04200 29.73700
H  35.40400 50.95300 29.23000
H  33.11300 49.32800 29.98900
H  32.63000 50.03300 28.47600
H  33.25700 51.02300 29.78700
H  37.64700 49.71000 29.27400
H  37.56100 48.23400 30.26500
H  37.05000 50.94400 31.04100
H  37.73800 49.70100 31.96400
H  33.59200 54.71300 24.59000
H  34.41200 54.08400 25.91300
H  32.74100 53.70600 25.71900
H  33.03300 55.00000 21.19200
H  34.09300 54.98500 22.63700
H  32.39500 54.39800 22.74100
H  37.14100 48.94100 19.83300
H  36.11000 46.29200 20.18200
H  34.22900 48.11400 19.94500
H  35.12200 47.72500 18.45100
H  34.91300 49.45100 18.95100
H  38.00000 47.18200 18.81600
H  38.35100 45.70600 19.53400
H  39.39200 47.40600 21.51200
H  39.53000 48.42100 20.03700
H  40.27900 46.81100 20.22300
H  39.13600 42.92800 24.80900
H  38.16700 43.39100 23.45900
H  37.39800 42.54700 24.92900
H  37.65200 46.25100 29.24900
H  34.14700 45.36200 31.81700
H  35.28000 43.97000 32.12900
H  34.09500 43.92400 30.84100
Mg 9.88000 47.68800 25.51700
C  7.84700 47.93000 28.49700
C  12.44300 48.77300 27.23600
C  11.63400 47.35900 22.71100
C  6.83400 47.28300 23.73800
N  9.99600 48.31500 27.60200
C  9.22200 48.27000 28.68600
C  9.83500 48.69100 30.05400
C  11.20800 49.21000 29.49900
C  11.23500 48.72600 28.02400
C  11.57900 50.70200 29.67600
C  9.96900 47.49200 31.08600
C  9.53300 47.81100 32.46900
H  9.62600 46.60500 33.45600
N  11.85800 47.98300 25.02600
C  12.77500 48.35900 25.95000
C  14.07600 48.20500 25.34700
C  13.88000 47.87800 23.95100
C  12.39700 47.74800 23.81800
C  15.32600 48.51500 26.07300
C  14.89500 47.59600 22.83600
O  14.59000 47.34600 21.69500
C  16.37000 47.52600 23.10900
N  9.28300 47.42900 23.56200
C  10.24000 47.18000 22.54100
C  9.64000 46.49500 21.24700
C  8.15500 46.51600 21.73500
C  8.09800 47.15700 23.11600
C  9.82700 47.37900 19.90100
C  7.41600 45.11100 21.67300
C  7.79200 44.20500 22.80400
N  7.74400 47.41400 26.03000
C  6.64400 47.37400 25.16400
C  5.40400 47.35600 25.94800
C  5.86200 47.52000 27.32400
C  7.26800 47.62600 27.26600
C  4.07500 47.18300 25.30000
C  5.45500 47.59500 28.74100
O  4.33800 47.40700 29.22400
C  6.73600 47.85300 29.49800
C  6.77200 46.62700 30.24900
O  7.29700 45.55900 29.95400
O  6.25100 46.90500 31.49200
C  6.18700 45.85600 32.54600
H  13.18800 49.17000 27.92900
H  12.22100 47.23700 21.79800
H  5.96100 47.13200 23.09900
H  9.16100 49.49100 30.35800
H  12.03600 48.62200 29.89500
H  12.40800 50.74700 30.38300
H  10.75600 51.33600 30.00500
H  12.02400 50.99600 28.72600
H  11.03500 47.27100 31.13800
H  9.45100 46.62300 30.68200
H  8.45100 47.94500 32.49700
H  10.04200 48.71700 32.79800
H  15.20400 48.35400 27.14400
H  15.68200 49.53600 25.93600
H  16.12000 47.84600 25.74100
H  16.46100 46.70900 23.82400
H  16.66400 48.50200 23.49500
H  16.86000 47.28800 22.16500
H  10.11700 45.53600 21.04400
H  7.53200 47.15800 21.11200
H  8.93000 47.84300 19.49000
H  10.29300 46.89600 19.04200
H  10.42600 48.25400 20.14800
H  7.84500 44.57000 20.83000
H  6.36200 45.20400 21.41400
H  8.50100 44.59700 23.53400
H  8.32800 43.35000 22.39200
H  6.89800 43.87400 23.33200
H  3.91000 46.32900 24.64300
H  3.82100 48.08200 24.73800
H  3.30900 46.97100 26.04600
H  6.62900 48.82300 29.98300
H  5.48700 45.12400 32.14200
H  5.69400 46.31900 33.40100
H  7.14300 45.41400 32.82700

