158

Mg 48.24600 34.65600 27.14100
C  46.16200 33.70100 29.63100
C  49.26100 37.41300 28.88200
C  49.80100 35.67500 24.36500
C  47.10500 31.73200 25.21600
N  47.84200 35.39600 29.03200
C  46.99900 34.75700 29.92800
C  47.14700 35.28900 31.32100
C  47.70100 36.77500 31.04100
C  48.34600 36.56800 29.58800
C  46.57200 37.88400 31.01400
C  48.11200 34.37700 32.09600
C  48.49000 34.94700 33.43100
H  47.49900 35.85200 34.20300
N  49.38100 36.37000 26.70600
C  49.71400 37.36800 27.53800
C  50.51300 38.36900 26.80900
C  50.77200 37.84400 25.48900
C  49.98400 36.59100 25.43800
C  50.99700 39.60900 27.43000
C  51.60300 38.49800 24.34100
O  51.67300 38.03200 23.20500
C  52.42900 39.72500 24.62300
N  48.37900 33.82200 25.08000
C  49.14900 34.48500 24.17600
C  49.03700 33.74000 22.75000
C  48.46400 32.32200 23.14700
C  47.95700 32.58100 24.60000
C  48.25400 34.52000 21.70000
C  49.63400 31.18200 23.08100
C  49.26800 29.89400 22.34000
N  46.92100 33.02400 27.30500
C  46.56200 31.94300 26.50800
C  45.51800 31.12100 27.18700
C  45.27300 31.86400 28.33200
C  46.20700 32.91900 28.39900
C  44.82500 29.85300 26.63700
C  44.41700 31.96400 29.48300
O  43.42700 31.33200 29.82600
C  44.98300 33.05700 30.37100
C  45.49200 32.38500 31.61400
O  46.37100 31.52100 31.57200
O  44.67500 32.82300 32.61700
C  45.00800 32.14100 33.83800
H  49.63900 38.15100 29.59300
H  50.40900 35.85100 23.47500
H  46.74300 30.86200 24.66400
H  46.17900 35.36900 31.81600
H  48.58000 37.06500 31.61700
H  45.68900 37.28500 31.23900
H  46.54300 38.41600 30.06300
H  46.86400 38.63200 31.75000
H  48.99500 34.49100 31.46700
H  47.86100 33.31700 32.11500
H  49.37700 35.56700 33.29900
H  48.82400 34.13700 34.08000
H  52.08000 39.60000 27.55200
H  50.69500 39.74300 28.46900
H  50.60600 40.40400 26.79600
H  53.18900 39.46400 25.36000
H  51.92500 40.61700 24.99500
H  53.00700 39.87600 23.71100
H  50.06600 33.66600 22.39900
H  47.64700 32.04000 22.48400
H  47.86100 35.34600 22.29300
H  47.50000 33.92300 21.18700
H  48.99400 34.87600 20.98400
H  49.83100 30.90000 24.11500
H  50.61900 31.47800 22.72000
H  48.30000 29.95800 21.84200
H  49.32000 29.00000 22.96100
H  49.88400 29.67100 21.46900
H  45.51400 29.02500 26.46800
H  44.51900 30.30300 25.69300
H  43.89200 29.54300 27.11000
H  44.29600 33.83000 30.71500
H  45.16600 32.86500 34.63800
H  45.93200 31.56300 33.80700
H  44.18500 31.50800 34.17000
Mg 17.22700 52.67400 25.26400
C  18.99300 51.53000 28.17100
C  14.60600 53.21600 27.37600
C  15.47200 53.37600 22.55800
C  19.92600 51.52800 23.30800
N  16.88900 52.50600 27.58900
C  17.74900 52.00500 28.51000
C  17.26300 52.34100 29.90700
C  15.72800 52.62300 29.66400
C  15.69800 52.76300 28.14100
C  14.73700 51.54500 30.10300
C  18.03800 53.51100 30.51900
C  17.95900 53.84000 31.96400
H  17.00900 53.01100 32.84500
N  15.46600 53.39900 25.00600
C  14.46400 53.55300 25.97800
C  13.23200 53.98800 25.38500
C  13.47200 54.10900 23.99600
C  14.85800 53.63600 23.80100
C  12.02300 54.45700 26.14700
C  12.49100 54.65700 22.90800
O  12.90300 54.81900 21.78400
C  11.05500 55.07900 23.21300
N  17.72400 52.57400 23.17200
C  16.81300 52.96100 22.25200
C  17.38100 52.93600 20.82000
C  18.89400 52.42900 21.09800
C  18.83400 52.00600 22.60100
C  16.58300 51.93200 19.98100
C  19.96400 53.51200 20.89400
C  21.33700 52.91900 20.43200
N  18.92100 51.51100 25.60500
C  19.91600 51.17500 24.68800
C  21.02000 50.54700 25.43800
C  20.67600 50.74000 26.78300
C  19.41600 51.29700 26.82700
C  22.26500 49.97500 24.86100
C  21.19400 50.47800 28.15000
O  22.30500 50.08600 28.54300
C  20.09200 51.01300 29.09400
C  19.62200 49.84800 29.99000
O  18.94200 48.90400 29.65000
O  20.08600 50.01400 31.32600
C  19.38500 49.28100 32.35500
H  13.76600 53.39200 28.05200
H  14.77300 53.60200 21.75000
H  20.82500 51.21200 22.77500
H  17.40800 51.40500 30.44700
H  15.41800 53.57300 30.10100
H  14.08100 51.17400 29.31600
H  14.13100 51.94100 30.91800
H  15.22200 50.70200 30.59500
H  17.70100 54.45900 30.10000
H  19.08800 53.45500 30.23300
H  17.79600 54.91000 32.09300
H  18.96700 53.73200 32.36400
H  12.04300 55.54100 26.03200
H  12.03200 54.14200 27.19000
H  11.13200 54.06600 25.65400
H  10.47900 54.20500 23.51600
H  10.66300 55.41900 22.25500
H  11.11300 55.88600 23.94400
H  17.26900 53.94400 20.42200
H  19.19600 51.53900 20.54700
H  15.54500 52.02100 20.30200
H  16.87800 50.89100 20.11400
H  16.72100 52.08400 18.91100
H  19.98500 54.11700 21.80000
H  19.54400 54.10900 20.08400
H  22.09000 53.05200 21.20900
H  21.66400 53.34000 19.48100
H  21.22200 51.87400 20.14400
H  22.76100 50.74600 24.27200
H  22.10000 49.04200 24.32300
H  22.98800 49.74100 25.64200
H  20.53300 51.79400 29.71300
H  19.31900 48.19500 32.28700
H  18.32900 49.54500 32.30800
H  19.87200 49.63000 33.26500

