158

Mg 48.89900 44.65700 43.08700
C  45.43600 45.06900 42.31800
C  48.59400 41.45200 42.25400
C  52.17700 44.64400 43.15700
C  48.98200 48.18200 43.84000
N  47.12100 43.38200 42.23000
C  45.80100 43.73300 42.06200
C  45.03700 42.53600 41.62800
C  46.03300 41.33300 41.95600
C  47.33700 42.06700 42.09300
C  45.65100 40.65800 43.27200
C  44.41700 42.47300 40.21300
C  45.05100 43.24100 39.03500
H  45.02900 42.55300 37.65800
N  50.26500 43.26600 42.58100
C  49.95900 41.94900 42.36200
C  51.25500 41.24600 42.21900
C  52.28500 42.09700 42.53600
C  51.56100 43.38500 42.75800
C  51.36100 39.75100 41.78400
C  53.72700 41.73000 42.63200
O  54.08800 40.56200 42.39600
C  54.71300 42.68500 43.19000
N  50.35600 46.22600 43.46600
C  51.65200 45.87300 43.53900
C  52.60100 47.10800 43.78400
C  51.54300 48.24100 44.13700
C  50.18100 47.52300 43.89800
C  53.74400 46.91900 44.76500
C  51.73700 49.65000 43.49300
C  51.91100 50.71000 44.58000
N  47.50100 46.31000 43.18000
C  47.67600 47.62000 43.47600
C  46.44800 48.33700 43.17900
C  45.55100 47.37900 42.73000
C  46.21800 46.16400 42.73900
C  46.24200 49.81700 43.24000
C  44.23600 47.24400 42.11800
O  43.33300 48.05400 41.83800
C  44.08600 45.66200 41.85800
C  42.77500 45.21900 42.55900
O  41.85800 44.65800 41.94700
O  42.89200 45.47900 43.93500
C  41.68600 45.09200 44.63200
H  48.54300 40.37200 42.09600
H  53.26700 44.59800 43.19200
H  48.99200 49.24700 44.08400
H  44.14200 42.56400 42.25000
H  46.08400 40.51100 41.24200
H  45.63400 39.56800 43.28700
H  44.70700 41.05700 43.64200
H  46.37500 41.01400 44.00500
H  43.42400 42.89200 40.37900
H  44.46900 41.41000 39.98200
H  46.09100 43.47400 39.26200
H  44.50400 44.16600 38.85300
H  50.36700 39.51100 41.40800
H  51.55700 39.20200 42.70500
H  52.12500 39.59400 41.02200
H  55.05000 43.50200 42.55100
H  55.51800 42.05500 43.57000
H  54.27400 43.26000 44.00500
H  52.92100 47.31400 42.76300
H  51.68600 48.37300 45.21000
H  53.59400 46.04300 45.39700
H  53.79100 47.84500 45.33800
H  54.70000 46.73800 44.27500
H  50.95800 49.86300 42.76100
H  52.70200 49.65900 42.98700
H  52.80200 51.31500 44.41200
H  51.91500 50.38200 45.62000
H  51.01800 51.33400 44.57700
H  47.17600 50.18700 42.81700
H  46.00600 50.23400 44.21900
H  45.40200 49.99700 42.56900
H  43.91900 45.48200 40.79600
H  41.91700 45.20400 45.69200
H  41.47600 44.06600 44.32900
H  40.83100 45.71500 44.37100
Mg 17.20500 50.74800 26.34400
C  19.13800 49.65300 28.98600
C  14.71600 51.50700 28.65400
C  15.46000 51.86200 23.80000
C  19.82300 49.71500 24.12500
N  17.06100 50.65400 28.60000
C  17.93700 50.16000 29.47200
C  17.45300 50.33300 30.95600
C  15.89100 50.38000 30.64200
C  15.83800 50.90600 29.23300
C  15.12700 49.06400 30.89500
C  18.03800 51.55300 31.62200
C  18.46600 51.25600 33.02600
H  17.47000 51.83500 34.13200
N  15.43600 51.72100 26.24300
C  14.58200 52.02000 27.30100
C  13.47300 52.87800 26.69400
C  13.65500 52.95300 25.28600
C  14.86800 52.14200 25.07700
C  12.43000 53.53400 27.64600
C  12.91400 53.76600 24.24900
O  13.20700 53.79200 23.08100
C  11.81300 54.56900 24.74200
N  17.58400 50.60500 24.20300
C  16.65100 51.25600 23.38400
C  17.08500 51.15200 21.86800
C  18.53200 50.67500 22.03600
C  18.70500 50.28400 23.49800
C  16.08900 50.21600 21.06800
C  19.71700 51.59800 21.54500
C  20.30600 51.52600 20.12000
N  19.05100 49.69500 26.46800
C  20.02100 49.40700 25.54300
C  21.25700 48.89000 26.23200
C  20.92100 49.04400 27.51500
C  19.61100 49.55800 27.67800
C  22.57500 48.38400 25.60900
C  21.47500 48.84900 28.79200
O  22.62100 48.42900 29.07700
C  20.32800 49.15300 29.83400
C  20.05400 47.97100 30.61200
O  19.33700 47.00900 30.37800
O  20.72700 48.06400 31.75600
C  20.34600 47.10700 32.82900
H  13.80900 51.71300 29.22600
H  14.92800 52.22700 22.91900
H  20.67400 49.41000 23.51300
H  17.64800 49.44700 31.56000
H  15.44100 51.05200 31.37200
H  14.28400 49.13700 31.58100
H  15.83300 48.42100 31.42000
H  14.67500 48.64900 29.99400
H  17.33400 52.37300 31.48300
H  18.92800 51.81600 31.05000
H  19.39400 51.82700 33.05900
H  18.70800 50.20200 33.16100
H  11.45500 53.10300 27.41600
H  12.26200 54.58000 27.38700
H  12.62700 53.51600 28.71800
H  11.30300 55.02300 23.89300
H  12.15700 55.37500 25.39000
H  11.09300 53.88400 25.19000
H  16.98200 52.12900 21.39600
H  18.70400 49.75400 21.47800
H  16.52700 49.24700 20.82700
H  15.86300 50.75200 20.14600
H  15.22300 50.23000 21.73000
H  20.54000 51.30900 22.19800
H  19.45100 52.64100 21.71700
H  19.63600 50.91000 19.52000
H  21.33400 51.17400 20.03100
H  20.42500 52.58100 19.87300
H  22.29400 47.98100 24.63600
H  23.09300 47.61400 26.18100
H  23.20800 49.22900 25.33700
H  20.63200 49.92000 30.54600
H  19.36600 47.23300 33.29100
H  21.07700 47.16000 33.63500
H  20.46200 46.07200 32.50700

