158

Mg 53.82000 25.19800 43.85700
C  51.17800 27.37500 43.50800
C  51.59700 22.56000 43.21700
C  56.51200 23.08700 43.35300
C  56.04700 27.84300 43.87400
N  51.65000 25.00500 43.58000
C  50.79700 26.05400 43.36600
C  49.40800 25.53400 42.87600
C  49.47500 24.02900 43.41800
C  51.00000 23.80500 43.43300
C  48.81300 23.84300 44.82100
C  49.31400 25.60000 41.35700
C  47.94300 25.45600 40.79600
H  47.79500 25.48000 39.24300
N  54.00800 23.04500 43.43800
C  52.95600 22.19400 43.21700
C  53.56200 20.95200 42.96400
C  54.97600 21.07100 43.04300
C  55.22700 22.42100 43.28200
C  52.75500 19.70500 42.72100
C  55.90800 19.91900 42.80800
O  55.41100 18.74600 42.62800
C  57.43500 19.89600 42.89200
N  55.97400 25.45300 43.49000
C  56.82800 24.38700 43.43300
C  58.32500 24.98500 43.51300
C  58.09900 26.52100 43.43000
C  56.60200 26.60300 43.67700
C  59.21600 24.53200 44.69400
C  58.42800 27.22500 42.03300
C  59.42300 28.41100 42.04100
N  53.73800 27.26900 43.92800
C  54.67100 28.19900 44.06400
C  53.98900 29.44500 44.27400
C  52.60300 29.23600 44.01800
C  52.53200 27.85400 43.74900
C  54.59700 30.71100 44.70100
C  51.27900 29.82700 43.81500
O  50.94800 30.99200 43.97500
C  50.34500 28.67100 43.32500
C  50.10000 28.96800 41.92400
O  51.02200 29.19100 41.13000
O  48.74900 29.09100 41.76400
C  48.30400 29.84600 40.59000
H  50.89300 21.74700 43.02600
H  57.46300 22.55200 43.30100
H  56.70600 28.71100 43.94100
H  48.60400 26.07900 43.37100
H  49.01300 23.26900 42.78800
H  48.53100 24.85000 45.12800
H  49.55200 23.46800 45.52800
H  47.99100 23.13200 44.91100
H  49.94300 24.85300 40.87300
H  49.74600 26.53700 41.00800
H  47.32900 26.19000 41.31800
H  47.59700 24.46900 41.10100
H  52.70100 19.42600 41.66800
H  51.74500 19.89700 43.08200
H  53.01200 18.85600 43.35500
H  57.93500 20.59700 42.22300
H  57.81300 18.91200 42.61600
H  57.72300 20.06300 43.93000
H  58.88000 24.66900 42.63000
H  58.60200 27.07900 44.22000
H  59.24700 25.43000 45.31000
H  60.24700 24.22800 44.51100
H  58.68500 23.78800 45.28900
H  57.49200 27.57100 41.59500
H  58.79500 26.51500 41.29100
H  60.20400 28.23400 41.30100
H  59.89100 28.64000 42.99800
H  58.79900 29.27000 41.79500
H  54.31500 31.49200 43.99400
H  55.67000 30.57700 44.56200
H  54.50900 30.99600 45.74900
H  49.43700 28.69900 43.92600
H  47.40600 29.36800 40.19700
H  49.01700 30.14900 39.82300
H  47.86800 30.79200 40.90900
Mg 30.99300 57.31300 40.01000
C  28.51500 55.32200 38.90800
C  33.35700 54.94100 39.12000
C  33.61100 59.56800 40.43400
C  28.78100 59.95800 40.39200
N  30.87900 55.47000 38.95600
C  29.78500 54.76500 38.74200
C  30.11200 53.37300 38.24300
C  31.63600 53.18400 38.58900
C  32.00700 54.61800 38.97900
C  31.92300 52.05400 39.65300
C  29.76800 53.07500 36.74700
C  29.99400 54.11600 35.64000
H  29.06900 54.25600 34.38400
N  33.21400 57.20100 39.90700
C  33.95000 56.19100 39.41400
C  35.35900 56.60000 39.40000
C  35.44600 57.85400 39.98200
C  34.05100 58.27700 40.18700
C  36.43500 55.67800 38.92400
C  36.71500 58.59000 40.30100
O  37.81100 58.13900 39.89100
C  36.78300 59.78000 41.15300
N  31.13900 59.58700 40.08400
C  32.31600 60.15000 40.49600
C  32.20200 61.63000 40.93400
C  30.58400 61.72300 40.97700
C  30.08000 60.36500 40.41200
C  33.05900 62.12500 42.15000
C  29.90900 62.93400 40.23500
C  28.81400 63.81400 40.90700
N  28.98900 57.62600 39.87100
C  28.17800 58.74900 40.02800
C  26.83600 58.32100 39.77900
C  26.92300 56.95800 39.29800
C  28.25200 56.56000 39.40900
C  25.63500 59.14700 39.85900
C  26.11000 55.88500 38.83500
O  24.91500 55.78500 38.68100
C  27.17200 54.74500 38.50100
C  26.79600 53.50800 39.21100
O  26.83200 53.22500 40.40000
O  26.07100 52.78300 38.29200
C  25.17100 51.67500 38.76100
H  33.98800 54.10800 38.80300
H  34.31700 60.39600 40.51600
H  28.07300 60.72300 40.71900
H  29.46700 52.76600 38.87900
H  32.11200 52.92300 37.64300
H  32.42600 51.26900 39.08900
H  31.03800 51.76100 40.21700
H  32.66200 52.39000 40.38100
H  28.72800 52.75200 36.77900
H  30.38100 52.25500 36.37400
H  30.99900 53.89700 35.27800
H  30.02000 55.12000 36.06300
H  36.83400 56.08600 37.99500
H  36.12700 54.65200 38.72100
H  37.20500 55.51200 39.67700
H  37.50600 59.57700 41.94300
H  35.88400 59.78500 41.77000
H  36.87300 60.69500 40.56700
H  32.54300 62.16900 40.04900
H  30.28800 61.66900 42.02500
H  33.77000 62.92000 41.92400
H  33.57900 61.37500 42.74500
H  32.30100 62.53500 42.81700
H  29.41500 62.64000 39.30900
H  30.77500 63.55700 40.01300
H  29.20700 64.81300 40.71700
H  28.69400 63.60100 41.96900
H  27.86000 63.46400 40.51200
H  24.86800 58.50300 40.29000
H  25.25600 59.37700 38.86300
H  25.88100 60.08200 40.36200
H  27.09800 54.66000 37.41600
H  25.45200 51.32400 39.75500
H  25.31200 50.90700 38.00000
H  24.14000 52.01800 38.67600

