158

Mg 35.38300 2.67800 29.99000
C  33.07800 3.76400 32.32200
C  37.82200 2.75700 32.69400
C  37.78600 1.64400 27.98300
C  32.96400 2.77200 27.52400
N  35.47800 3.21700 32.26000
C  34.32600 3.61700 32.93200
C  34.61300 3.72200 34.47100
C  36.20600 3.91800 34.51900
C  36.60200 3.30900 33.08200
C  36.95300 5.24000 34.86300
C  33.96300 2.48400 35.27100
C  33.32700 2.91900 36.63400
H  34.09200 4.03700 37.36200
N  37.49100 2.26200 30.25400
C  38.23900 2.28600 31.45300
C  39.50200 1.68900 31.19100
C  39.58700 1.41600 29.73200
C  38.24100 1.79300 29.23800
C  40.56100 1.50900 32.27600
C  40.76700 0.94300 28.84400
O  40.71000 0.73300 27.62900
C  42.03400 0.60500 29.50600
N  35.36400 2.32100 28.05200
C  36.52000 1.83500 27.48800
C  36.24200 1.56000 25.94600
C  34.65100 1.82300 25.82100
C  34.27800 2.37000 27.19800
C  37.09500 2.46100 24.96700
C  33.77500 0.64500 25.38400
C  33.24500 0.65500 23.90400
N  33.49900 3.24400 29.86400
C  32.56300 3.14700 28.85800
C  31.23500 3.54100 29.33800
C  31.37100 3.79800 30.65600
C  32.77900 3.59400 30.97700
C  30.09700 3.69400 28.43200
C  30.70000 4.18000 31.85700
O  29.54000 4.47700 32.10900
C  31.74000 4.08400 33.02500
C  31.80300 5.39800 33.68100
O  32.25200 6.39300 33.14400
O  31.34300 5.29800 34.96300
C  31.10600 6.59400 35.54200
H  38.58200 2.86700 33.47100
H  38.36500 1.07700 27.25100
H  32.13600 2.64400 26.82400
H  34.11200 4.63700 34.78800
H  36.54400 3.21700 35.28200
H  37.96300 5.31000 34.45900
H  36.96900 5.35100 35.94700
H  36.40500 6.04800 34.37700
H  34.70400 1.69400 35.39600
H  33.19600 2.10200 34.59700
H  33.21000 2.04200 37.27000
H  32.34000 3.25800 36.32100
H  40.12500 1.55100 33.27400
H  41.35200 2.25500 32.20900
H  41.06700 0.54800 32.18800
H  41.89400 -0.25900 30.15700
H  42.18500 1.59500 29.93600
H  42.73900 0.31100 28.72800
H  36.44400 0.51300 25.71800
H  34.56600 2.58600 25.04700
H  37.40800 3.44100 25.32800
H  36.44600 2.63900 24.11000
H  37.98200 1.92100 24.63400
H  32.90900 0.51700 26.03400
H  34.37900 -0.23800 25.59400
H  33.08600 -0.36300 23.54700
H  34.01100 1.07300 23.25100
H  32.42900 1.37600 23.85600
H  29.24300 3.98400 29.04400
H  29.95300 2.67300 28.08100
H  30.26400 4.36200 27.58700
H  31.39300 3.29000 33.68600
H  30.57100 7.16700 34.78500
H  32.08700 7.01900 35.75400
H  30.54800 6.50300 36.47400
Mg 47.18300 25.46200 27.40700
C  47.97700 27.51400 30.15700
C  46.31400 23.03000 29.39700
C  46.90800 23.57600 24.61900
C  48.92800 27.92500 25.33500
N  47.23900 25.31000 29.56600
C  47.53100 26.27500 30.46600
C  47.34300 25.76800 31.92000
C  46.78700 24.28900 31.68000
C  46.86300 24.14400 30.13000
C  47.53600 23.11100 32.36700
C  46.35400 26.65300 32.69700
C  46.92900 27.26200 34.00400
H  45.95400 27.55800 35.09100
N  46.45100 23.59000 27.04200
C  46.08900 22.75200 28.00800
C  45.71100 21.47700 27.40600
C  45.93200 21.57200 26.00300
C  46.43800 22.97600 25.82200
C  45.22900 20.22300 28.22800
C  45.84600 20.45200 24.93500
O  46.34400 20.61300 23.85500
C  45.17000 19.07300 25.24400
N  47.92000 25.67100 25.27500
C  47.46300 24.79400 24.32100
C  47.76100 25.20000 22.92000
C  48.20600 26.64500 23.14800
C  48.38900 26.80600 24.70000
C  48.91600 24.35200 22.23100
C  47.11100 27.71700 22.77600
C  47.53600 29.05800 22.17300
N  48.24300 27.30000 27.66900
C  48.90900 28.13100 26.74800
C  49.26700 29.43900 27.38900
C  49.00900 29.18400 28.81300
C  48.32400 27.90100 28.84100
C  50.06900 30.63000 26.72100
C  49.15100 29.68400 30.14500
O  49.52200 30.79800 30.55400
C  48.60000 28.52800 31.04100
C  49.68100 27.99200 31.81900
O  50.34800 26.97500 31.51000
O  49.90100 28.65200 32.93300
C  51.09200 28.30600 33.76500
H  46.17800 22.22500 30.12300
H  46.84900 22.89200 23.76900
H  49.23200 28.66500 24.59100
H  48.28800 25.81200 32.46000
H  45.75700 24.09800 31.98100
H  46.77800 22.43000 32.75600
H  48.19200 23.50600 33.14200
H  48.09300 22.62300 31.56700
H  45.52000 25.99400 32.93700
H  46.01900 27.46600 32.05200
H  47.26500 28.27700 33.79400
H  47.81700 26.78400 34.41800
H  45.82800 19.36800 27.91400
H  44.23700 19.94500 27.87100
H  45.34800 20.47000 29.28300
H  45.86000 18.50800 25.87100
H  45.03300 18.57100 24.28700
H  44.16300 19.18500 25.64600
H  46.82900 25.12800 22.36000
H  49.15200 26.94200 22.69400
H  48.48900 23.92100 21.32600
H  49.21300 23.49200 22.83100
H  49.83400 24.84800 21.91300
H  46.51200 27.90900 23.66600
H  46.41500 27.27100 22.06500
H  48.56000 29.02900 21.80200
H  47.40000 29.81900 22.94100
H  47.00600 29.27600 21.24600
H  49.98900 30.65500 25.63500
H  51.12600 30.51900 26.96300
H  49.64400 31.57100 27.07000
H  47.90800 28.97900 31.75200
H  51.97700 28.07200 33.17300
H  50.80700 27.41300 34.32200
H  51.37000 29.20100 34.32100

