158

Mg 47.69300 24.93800 28.90300
C  48.37200 27.38800 31.25600
C  46.51000 22.93200 31.42800
C  47.36600 22.66500 26.58300
C  48.96400 27.19000 26.38600
N  47.34200 25.22500 31.05500
C  47.74100 26.28200 31.84200
C  47.29600 26.12300 33.31600
C  46.72800 24.72200 33.33300
C  46.82800 24.24500 31.85600
C  47.50200 23.70300 34.21200
C  46.55900 27.34700 33.92500
C  45.51100 26.95400 35.00700
H  45.23800 27.94600 36.12500
N  46.95200 23.05400 29.03100
C  46.53100 22.39400 30.11800
C  46.05100 21.03000 29.76300
C  46.31700 20.90600 28.30000
C  46.93800 22.22900 27.88200
C  45.51600 19.98800 30.63200
C  46.02700 19.83500 27.28600
O  46.58000 19.76000 26.21100
C  45.15600 18.73700 27.66900
N  48.11800 24.96000 26.76400
C  47.92800 23.82200 26.05900
C  48.21300 24.00800 24.56300
C  48.34200 25.56700 24.55500
C  48.57000 25.93900 25.98700
C  49.43500 23.23600 24.06400
C  47.06700 26.30300 23.97000
C  47.33300 27.16600 22.70100
N  48.54400 26.84100 28.77200
C  49.02000 27.57600 27.75500
C  49.53600 28.84500 28.25700
C  49.42000 28.76800 29.65900
C  48.70000 27.61700 29.89100
C  50.03500 30.06400 27.47800
C  49.70800 29.44900 30.91100
O  50.31900 30.55000 31.03300
C  49.03100 28.53700 32.04100
C  49.96100 28.07700 33.06500
O  50.59900 27.06500 32.89600
O  50.22500 29.04000 34.07700
C  51.38200 28.79400 34.93800
H  46.16100 22.36100 32.29200
H  47.27300 22.05100 25.68500
H  49.29200 27.89900 25.62300
H  48.22700 26.03000 33.87500
H  45.68500 24.68100 33.64800
H  48.15100 23.12700 33.55400
H  46.80700 22.98500 34.64800
H  48.19900 24.18600 34.89800
H  45.99400 27.91800 33.18900
H  47.28100 27.98600 34.43200
H  45.79000 25.93900 35.28800
H  44.54600 26.83400 34.51400
H  44.48800 19.84800 30.30000
H  45.54200 20.16100 31.70800
H  46.12000 19.09300 30.48100
H  45.75100 18.18900 28.39900
H  44.89400 18.24500 26.73200
H  44.30100 19.15400 28.20200
H  47.28800 23.70400 24.07400
H  49.23300 25.82000 23.98000
H  50.25300 23.94300 23.93100
H  49.30900 22.68200 23.13400
H  49.72700 22.61400 24.91100
H  46.61600 26.94500 24.72600
H  46.28900 25.58600 23.70600
H  46.55100 27.92300 22.74600
H  47.22400 26.53100 21.82200
H  48.24300 27.75400 22.82100
H  50.03200 29.79400 26.42200
H  51.01700 30.44000 27.76600
H  49.25500 30.80600 27.65100
H  48.32400 29.09300 32.65600
H  51.19700 27.84700 35.44500
H  51.48100 29.55900 35.70900
H  52.32600 28.78100 34.39200
Mg 17.02200 51.32000 26.20400
C  19.12200 49.96300 28.82100
C  14.86100 52.23800 28.64500
C  15.03100 52.59200 23.77400
C  19.16800 50.21300 23.84300
N  17.14200 51.17600 28.57200
C  17.96600 50.56300 29.40900
C  17.66600 50.81800 30.84500
C  16.12000 51.13100 30.66500
C  15.99400 51.53800 29.23100
C  15.24600 49.92000 30.92100
C  18.45200 51.94600 31.57900
C  18.59700 51.71300 33.11200
H  17.70500 50.72800 33.87800
N  15.20400 52.25400 26.19700
C  14.49400 52.60700 27.30600
C  13.34300 53.36700 26.86200
C  13.29500 53.27500 25.44600
C  14.55600 52.73200 25.09900
C  12.44800 54.09800 27.86000
C  12.17900 53.63000 24.48400
O  12.23100 53.40600 23.31700
C  10.89400 54.32900 25.14100
N  17.10400 51.34800 24.07500
C  16.24000 52.01300 23.34800
C  16.64600 52.13900 21.81700
C  18.00400 51.28800 21.83800
C  18.12900 50.96400 23.28800
C  15.66300 51.62500 20.79200
C  19.17000 52.19900 21.29300
C  20.34300 51.57500 20.55100
N  18.72100 50.25600 26.28700
C  19.50400 49.82100 25.22700
C  20.70800 49.12800 25.69600
C  20.55000 49.11500 27.09600
C  19.34200 49.84500 27.40500
C  21.84100 48.64900 24.86900
C  21.14000 48.68300 28.41000
O  22.16400 48.06700 28.62000
C  20.26500 49.22700 29.52100
C  19.70700 48.07800 30.25800
O  19.37000 46.96800 29.81700
O  19.69400 48.44500 31.60000
C  19.69900 47.36100 32.57700
H  14.18800 52.53300 29.45300
H  14.51500 53.10900 22.96300
H  19.91000 49.86200 23.12200
H  17.71200 49.87100 31.38300
H  15.83900 51.94400 31.33400
H  15.86900 49.15300 31.38100
H  14.72300 49.58300 30.02700
H  14.55600 50.10100 31.74500
H  17.95700 52.87800 31.30900
H  19.45400 51.89800 31.15400
H  18.47400 52.68100 33.59800
H  19.58900 51.35100 33.38100
H  11.46200 53.63400 27.84600
H  12.27000 55.11900 27.52300
H  12.84200 54.05900 28.87600
H  11.01700 55.29300 25.63400
H  10.44500 53.61500 25.83100
H  10.20500 54.52800 24.32000
H  16.75300 53.22300 21.79500
H  18.05300 50.35500 21.27700
H  15.20800 52.52700 20.38300
H  14.95300 50.89600 21.18200
H  16.15800 51.15400 19.94200
H  19.62500 52.71600 22.13800
H  18.73700 53.02000 20.72100
H  20.39000 51.83100 19.49300
H  20.30700 50.48600 20.53900
H  21.30100 51.84300 20.99700
H  22.13500 49.46300 24.20600
H  21.63800 47.75100 24.28500
H  22.72900 48.39800 25.44900
H  20.89500 49.81300 30.19100
H  20.24200 46.50600 32.17400
H  18.73200 47.00700 32.93400
H  20.30400 47.66300 33.43100

