158

Mg 40.36700 8.89900 29.86800
C  42.12500 10.26600 32.70900
C  38.00100 7.75700 32.05500
C  38.94900 7.40600 27.31000
C  43.12900 9.92200 27.83500
N  40.11400 8.98300 32.05100
C  40.87600 9.68400 33.00300
C  40.32800 9.45800 34.37200
C  39.00700 8.64200 34.21300
C  39.05000 8.44100 32.68700
C  38.87200 7.30400 34.99700
C  40.14400 10.76500 35.24000
C  39.43600 10.52200 36.64100
H  40.34200 10.42200 37.95000
N  38.59500 7.84500 29.69200
C  37.75900 7.51900 30.68200
C  36.69200 6.80600 30.13600
C  36.92400 6.64000 28.73500
C  38.18100 7.27300 28.50400
C  35.48500 6.35000 30.96200
C  36.16700 5.87100 27.71700
O  36.64000 5.60500 26.62900
C  34.74000 5.48200 28.02500
N  41.10000 8.57900 27.92900
C  40.25700 8.00800 27.01900
C  40.90400 7.98700 25.59500
C  42.20400 8.80300 25.79100
C  42.14200 9.16700 27.28400
C  41.16500 6.46800 25.07800
C  42.20700 10.01300 24.76700
C  41.21800 11.14800 24.95500
N  42.23300 9.93900 30.16100
C  43.21300 10.29200 29.22700
C  44.21800 11.08100 29.99600
C  43.86100 11.05400 31.33200
C  42.64200 10.36200 31.42800
C  45.36600 11.73600 29.29700
C  44.30000 11.41000 32.67100
O  45.25900 12.07500 32.95800
C  43.19200 10.93500 33.69700
C  43.71400 9.95000 34.64300
O  43.90700 8.76500 34.40700
O  43.88400 10.56300 35.88100
C  44.46700 9.65700 36.92900
H  37.19600 7.46500 32.73400
H  38.52200 7.07600 26.36100
H  43.97800 10.26300 27.23900
H  41.02900 8.75400 34.82300
H  38.20500 9.36900 34.34400
H  39.67900 7.28000 35.73000
H  39.21300 6.45100 34.41200
H  37.88400 7.15300 35.43100
H  39.57200 11.55200 34.74900
H  41.12500 11.16800 35.49300
H  38.85400 9.60400 36.54800
H  38.75200 11.37100 36.66400
H  34.67000 6.77700 30.37900
H  35.39000 6.73000 31.97900
H  35.43000 5.26100 30.94700
H  34.63000 4.98700 28.99000
H  34.49100 4.70400 27.30400
H  34.11700 6.34400 27.78600
H  40.40200 8.55300 24.81100
H  43.09200 8.17800 25.70500
H  42.16700 6.24500 24.71200
H  40.48600 6.22100 24.26200
H  41.01700 5.70200 25.83800
H  42.07200 9.61100 23.76300
H  43.18900 10.48500 24.72900
H  40.37400 10.91100 25.60300
H  40.88700 11.58800 24.01500
H  41.72000 12.00100 25.41200
H  45.85400 12.50900 29.89100
H  45.07400 12.18400 28.34800
H  46.08000 10.97700 28.97600
H  42.85500 11.89900 34.07900
H  45.41000 10.07800 37.27700
H  44.76800 8.68300 36.54200
H  43.76100 9.47400 37.74000
Mg 35.65800 48.74300 24.53400
C  35.80200 46.92100 27.60000
C  34.68000 51.54400 26.16700
C  35.01300 50.01100 21.61700
C  36.82000 45.74900 23.07900
N  35.24000 49.18500 26.66400
C  35.41100 48.32200 27.71200
C  35.08200 49.03700 29.03000
C  34.53800 50.45800 28.51000
C  34.84600 50.45800 27.03100
C  33.06000 50.71400 28.85500
C  36.40000 49.05900 29.90900
C  36.27000 48.81300 31.39000
H  34.86200 48.83100 32.03000
N  35.03400 50.53800 23.92800
C  34.66800 51.60900 24.74800
C  34.49400 52.80800 23.84800
C  34.39300 52.33500 22.51600
C  34.84900 50.93800 22.64300
C  34.28200 54.13300 24.42100
C  33.95700 53.02600 21.29100
O  33.99900 52.47100 20.21600
C  33.55900 54.50000 21.29900
N  35.83700 47.98300 22.64800
C  35.58200 48.75100 21.58000
C  35.65400 47.94100 20.30200
C  36.60900 46.78600 20.75700
C  36.36400 46.75600 22.32300
C  34.40000 47.36400 19.64300
C  38.00200 47.04600 20.27500
C  38.80600 45.81800 19.74300
N  36.06600 46.62500 25.11900
C  36.70400 45.61100 24.48900
C  36.89900 44.45000 25.28800
C  36.47500 44.89300 26.54700
C  36.09000 46.27000 26.41000
C  37.46100 43.10900 25.00700
C  36.48200 44.57400 28.00200
O  36.82900 43.55000 28.60200
C  35.99600 45.84400 28.66500
C  34.72400 45.53400 29.37600
O  33.56100 45.36200 28.87800
O  35.09500 45.42800 30.71400
C  33.98800 44.98900 31.51100
H  34.40200 52.43100 26.74000
H  34.87100 50.35200 20.59000
H  37.35300 44.92400 22.60100
H  34.24000 48.54600 29.52000
H  35.11500 51.28600 28.92300
H  32.64300 49.95800 29.52000
H  32.44200 50.79700 27.96100
H  32.84900 51.68600 29.30200
H  36.79300 50.07600 29.88100
H  37.08400 48.28700 29.55800
H  36.82900 49.55600 31.96000
H  36.69300 47.83300 31.61000
H  33.23700 54.39600 24.58700
H  34.70000 54.95000 23.83200
H  34.69200 54.13100 25.43100
H  34.46500 55.00500 21.63600
H  32.72000 54.55200 21.99300
H  33.23100 54.76300 20.29400
H  36.07600 48.58200 19.52800
H  36.18600 45.84700 20.40000
H  34.57400 46.35500 19.27000
H  34.29100 48.03000 18.78700
H  33.46800 47.39700 20.20700
H  38.59000 47.41900 21.11400
H  37.92600 47.73600 19.43400
H  39.04800 45.84700 18.68000
H  38.31900 44.86800 19.96200
H  39.68500 45.83400 20.38800
H  36.76900 42.55200 24.37500
H  37.53000 42.54600 25.93800
H  38.43100 43.13400 24.51000
H  36.88500 46.05300 29.25900
H  33.70700 44.01300 31.11500
H  33.22700 45.73500 31.28100
H  34.20200 45.05700 32.57800

