158

Mg 8.42200 3.63500 26.77200
C  9.86000 2.08900 29.70600
C  6.29800 5.30800 28.85500
C  7.16400 5.01600 24.16900
C  10.31800 1.32500 24.80800
N  8.08900 3.61700 29.03600
C  8.90400 3.04300 29.97000
C  8.54500 3.68100 31.35800
C  7.48900 4.72800 31.02200
C  7.28300 4.54200 29.54000
C  6.18100 4.72600 31.90400
C  9.78900 4.32800 32.12200
C  9.56300 4.76100 33.62900
H  10.53700 4.19400 34.74900
N  6.87100 4.86400 26.50300
C  6.14000 5.46500 27.47000
C  5.20400 6.41300 26.87000
C  5.47200 6.38700 25.47900
C  6.49600 5.40400 25.30500
C  4.17400 7.21900 27.68100
C  4.80500 7.16600 24.30600
O  5.18300 7.19300 23.13800
C  3.59100 8.11700 24.58500
N  8.62900 3.14500 24.74300
C  8.10800 4.04300 23.84400
C  8.77000 3.89100 22.49500
C  9.78300 2.68700 22.73800
C  9.60100 2.34700 24.21500
C  7.81900 3.57300 21.33400
C  11.21300 2.96400 22.28400
C  12.15100 3.74800 23.24100
N  9.66400 1.85700 27.09900
C  10.32000 1.01300 26.24200
C  11.20100 0.12900 26.94400
C  11.02200 0.49900 28.32700
C  10.12300 1.61800 28.39300
C  12.13000 -0.81300 26.34300
C  11.54400 0.32700 29.67200
O  12.39500 -0.41600 30.16100
C  10.82000 1.35400 30.61000
C  10.15900 0.56500 31.72900
O  9.21200 -0.18100 31.61300
O  10.90600 0.77000 32.85200
C  10.44000 0.38400 34.21600
H  5.77900 5.93900 29.57800
H  6.85100 5.57200 23.28300
H  11.00500 0.88300 24.08300
H  8.05600 2.92600 31.97300
H  7.92700 5.72100 31.12400
H  6.08500 5.71800 32.34400
H  6.28700 3.92400 32.63500
H  5.26300 4.60500 31.32800
H  9.95900 5.21700 31.51300
H  10.68300 3.70500 32.10200
H  8.51000 4.53400 33.79600
H  9.63800 5.84400 33.72400
H  4.54100 8.23600 27.81400
H  4.10500 6.82900 28.69700
H  3.20400 7.19400 27.18400
H  2.65300 7.60600 24.80500
H  3.46100 8.76600 23.71900
H  3.85200 8.72400 25.45200
H  9.21200 4.86000 22.26000
H  9.38900 1.80700 22.23100
H  6.78600 3.41900 21.64700
H  8.09400 2.66300 20.80200
H  7.83700 4.35500 20.57500
H  11.12800 3.56900 21.38100
H  11.72500 2.04600 21.99500
H  12.41100 4.66900 22.71900
H  13.05100 3.14200 23.35200
H  11.66600 4.03100 24.17500
H  12.88100 -1.09500 27.08100
H  12.50600 -0.31900 25.44700
H  11.53900 -1.67800 26.04200
H  11.58500 1.97600 31.07500
H  10.26600 1.21900 34.89600
H  11.27100 -0.24900 34.52600
H  9.51400 -0.19100 34.20000
Mg 25.55000 1.99900 29.18800
C  27.43500 1.55700 32.17400
C  22.82400 2.57600 31.08500
C  23.87200 2.24300 26.32200
C  28.41900 0.86000 27.39000
N  25.19900 2.00600 31.39500
C  26.10700 2.01500 32.35900
C  25.46800 2.32000 33.75500
C  23.96900 2.46200 33.40700
C  23.98100 2.34000 31.87400
C  23.10800 1.41200 34.15900
C  26.23300 3.51000 34.44100
C  26.48600 3.14500 35.92900
H  26.28700 4.13500 37.05600
N  23.64100 2.28000 28.74900
C  22.60000 2.51900 29.67200
C  21.33100 2.59400 29.05500
C  21.61500 2.40600 27.65500
C  23.08300 2.28300 27.53700
C  20.07400 2.52200 29.88900
C  20.62400 2.39100 26.48600
O  20.93300 2.31300 25.31500
C  19.21000 2.37900 26.81400
N  26.05600 1.73400 27.14500
C  25.21300 2.00300 26.15300
C  25.96900 2.28200 24.78400
C  27.34900 1.72100 25.20100
C  27.32600 1.42100 26.67000
C  25.37800 1.60800 23.54500
C  28.64600 2.57700 24.83200
C  28.75700 4.05100 25.40300
N  27.47700 1.16400 29.63400
C  28.50700 0.79100 28.80700
C  29.69200 0.63700 29.53400
C  29.29700 0.87800 30.86900
C  27.98300 1.23200 30.90400
C  31.07400 0.21000 28.97800
C  29.73800 0.90900 32.32200
O  30.82600 0.64300 32.78800
C  28.53900 1.30100 33.16800
C  28.25100 0.22300 34.14800
O  27.76300 -0.80700 33.78100
O  28.55100 0.45700 35.48600
C  28.28200 -0.64600 36.39800
H  21.95900 2.94400 31.64100
H  23.27100 2.22200 25.41000
H  29.30000 0.50500 26.85100
H  25.68600 1.39100 34.28100
H  23.64800 3.44100 33.76200
H  22.74500 0.66400 33.45400
H  22.23700 1.76300 34.71200
H  23.71300 0.93800 34.93300
H  25.49000 4.30600 34.40800
H  27.20300 3.84000 34.07000
H  27.50900 2.77300 35.88700
H  26.05300 2.17800 36.18700
H  20.02900 1.53400 30.34600
H  19.12800 2.69400 29.37600
H  20.09800 3.26200 30.69000
H  19.02600 3.38200 27.19700
H  18.94100 1.58200 27.50700
H  18.65000 2.26000 25.88600
H  25.91200 3.36500 24.67800
H  27.38400 0.69000 24.85000
H  24.83600 0.69000 23.76900
H  26.17400 1.43300 22.82100
H  24.63200 2.25900 23.08900
H  28.62500 2.66200 23.74600
H  29.56100 2.03400 25.06900
H  27.91600 4.28400 26.05500
H  28.89700 4.81000 24.63300
H  29.65500 4.03900 26.02100
H  31.81400 0.22900 29.77800
H  31.45400 0.83900 28.17200
H  30.99000 -0.80100 28.57900
H  28.96800 2.20700 33.59600
H  29.02500 -1.38200 36.09200
H  27.25200 -1.00200 36.37300
H  28.59600 -0.42700 37.41900

