158

Mg -0.14500 7.90000 26.58600
C  0.62300 9.81900 29.30500
C  -0.60200 5.23500 28.71000
C  -0.84800 6.07800 23.80900
C  0.48200 10.72900 24.56200
N  -0.19900 7.66100 28.82400
C  0.18200 8.57500 29.79800
C  -0.05400 8.05500 31.19800
C  -0.35100 6.50300 31.02200
C  -0.37500 6.41200 29.43000
C  0.62500 5.48000 31.59800
C  -1.19900 8.78900 31.99500
C  -0.86400 8.93200 33.40100
H  -1.00100 7.67500 34.24200
N  -0.62200 5.90400 26.32300
C  -0.80100 4.99000 27.27900
C  -1.15400 3.76700 26.67400
C  -1.14000 3.87300 25.25400
C  -0.92300 5.35600 25.06800
C  -1.58300 2.47300 27.45600
C  -1.20500 2.88100 24.12400
O  -1.10300 3.20800 22.96300
C  -1.26800 1.37300 24.38100
N  -0.40300 8.39800 24.52700
C  -0.41000 7.41400 23.58200
C  -0.04500 7.95300 22.18900
C  -0.07700 9.46700 22.43800
C  0.01100 9.56700 23.98200
C  1.26800 7.41700 21.65500
C  -1.37300 10.14800 21.92000
C  -1.31600 11.64300 21.44900
N  0.44900 9.89000 26.82000
C  0.70600 10.90500 25.89900
C  1.20000 12.09200 26.55000
C  1.26000 11.68700 27.95100
C  0.70800 10.35100 28.04100
C  1.56100 13.39300 25.95900
C  1.60900 12.16100 29.24300
O  2.04100 13.22300 29.67900
C  1.08100 11.03300 30.18400
C  2.18800 10.72700 31.12500
O  3.05300 9.93200 30.95400
O  1.98200 11.49900 32.28500
C  2.97700 11.45200 33.31800
H  -0.78800 4.42300 29.41600
H  -0.76700 5.39900 22.95800
H  0.81500 11.46800 23.83000
H  0.91300 8.14800 31.69400
H  -1.38300 6.31400 31.32000
H  1.51400 5.89400 32.07300
H  0.95500 4.82200 30.79500
H  0.12800 4.90900 32.38300
H  -2.09800 8.21200 31.77700
H  -1.39500 9.71800 31.46100
H  -1.47600 9.70900 33.85800
H  0.15800 9.30900 33.36200
H  -2.58600 2.13300 27.19700
H  -1.63500 2.69200 28.52200
H  -0.78100 1.73700 27.39600
H  -0.55400 1.09500 25.15600
H  -1.05300 0.94200 23.40400
H  -2.29900 1.18800 24.68300
H  -0.80600 7.58200 21.50300
H  0.73800 10.06900 22.03600
H  1.77000 8.24900 21.16100
H  1.24200 6.55200 20.99200
H  1.86200 7.09000 22.50800
H  -2.09800 10.16500 22.73400
H  -1.77400 9.51800 21.12600
H  -1.55500 11.78500 20.39500
H  -0.34300 12.09400 21.64300
H  -2.04700 12.27500 21.95200
H  2.34300 13.93500 26.49200
H  0.65900 13.99300 26.08200
H  1.85700 13.25300 24.92000
H  0.20900 11.40100 30.72500
H  3.46200 12.42800 33.35300
H  3.70600 10.66700 33.11800
H  2.54500 11.18800 34.28300
Mg -11.40500 38.79200 41.19200
C  -9.23600 36.20000 40.37100
C  -9.51200 41.00500 39.44100
C  -13.81600 41.15800 41.67500
C  -13.65500 36.25600 42.53100
N  -9.58400 38.61800 40.03700
C  -8.91700 37.43500 39.74800
C  -7.62700 37.67700 38.82200
C  -7.81500 39.23700 38.51400
C  -8.95300 39.68000 39.38900
C  -6.58100 40.01600 38.79700
C  -7.66500 36.69600 37.67100
C  -6.39600 35.80500 37.64000
H  -5.29500 36.21000 36.62500
N  -11.56500 40.79800 40.72300
C  -10.57900 41.57400 40.12000
C  -11.01300 42.97300 40.07800
C  -12.35000 42.96100 40.52900
C  -12.60500 41.60000 41.07300
C  -10.14000 44.07300 39.42900
C  -13.19300 44.22400 40.55100
O  -12.74700 45.29800 40.17000
C  -14.53400 44.23900 41.19500
N  -13.57700 38.64200 41.72700
C  -14.26600 39.77800 41.94500
C  -15.70400 39.47600 42.61400
C  -15.62900 37.97300 42.89300
C  -14.15500 37.55700 42.38000
C  -15.92100 40.33700 43.87000
C  -16.72900 37.07600 42.22900
C  -16.66800 36.96900 40.73600
N  -11.44700 36.69400 41.52600
C  -12.36000 35.86500 42.11200
C  -11.78500 34.57300 42.28100
C  -10.60800 34.57200 41.50700
C  -10.44400 35.96800 41.10000
C  -12.37500 33.34100 43.02000
C  -9.50600 33.81700 41.05100
O  -9.26900 32.59200 41.26500
C  -8.50000 34.85800 40.29900
C  -7.29800 34.73800 41.09700
O  -6.63000 33.66800 41.25700
O  -7.00500 35.96600 41.64200
C  -5.83400 35.97000 42.53600
H  -8.98300 41.68400 38.76900
H  -14.62500 41.85500 41.90200
H  -14.33100 35.63600 43.12500
H  -6.72900 37.49900 39.41300
H  -8.19500 39.50500 37.52800
H  -5.95600 39.92700 37.90800
H  -5.99700 39.68900 39.65800
H  -6.81100 41.06400 38.99400
H  -7.62500 37.32600 36.78200
H  -8.58800 36.11900 37.62000
H  -6.66800 34.79200 37.34200
H  -5.87800 35.78600 38.59900
H  -10.51400 44.32500 38.43700
H  -9.08800 43.80100 39.52000
H  -10.44500 44.89500 40.07700
H  -15.17300 43.43500 40.82900
H  -15.05500 45.16500 40.95000
H  -14.40400 44.27800 42.27600
H  -16.59700 39.73300 42.04300
H  -15.71300 37.89500 43.97700
H  -15.01000 40.36700 44.46700
H  -16.78500 39.92700 44.39300
H  -16.25500 41.32300 43.54700
H  -17.70200 37.52100 42.43500
H  -16.62100 36.08700 42.67500
H  -17.40300 37.54100 40.17100
H  -16.59200 35.92600 40.42900
H  -15.75600 37.45300 40.38800
H  -13.36700 33.16400 42.60400
H  -12.34900 33.46800 44.10200
H  -11.84000 32.44700 42.69900
H  -8.24500 34.56800 39.27900
H  -4.96400 35.52200 42.05800
H  -6.07400 35.47100 43.47600
H  -5.47300 36.94100 42.87600

