158

Mg 16.75300 -1.87600 27.54300
C  15.87300 0.53400 30.21000
C  18.42300 -3.63700 29.92300
C  18.10300 -3.57600 25.09900
C  15.69300 0.59700 25.26100
N  17.24100 -1.49100 29.87500
C  16.72800 -0.51200 30.69200
C  17.13400 -0.81200 32.13100
C  18.13900 -1.98300 31.94800
C  17.88300 -2.44800 30.51100
C  19.61300 -1.73400 32.13000
C  15.92700 -1.14700 33.06700
C  16.01700 -0.47500 34.43400
H  17.27500 -0.03800 35.08200
N  18.00400 -3.53000 27.49800
C  18.55300 -4.16700 28.60800
C  19.26200 -5.32500 28.10200
C  19.04200 -5.42800 26.68700
C  18.30300 -4.18400 26.33300
C  19.94600 -6.27100 29.08800
C  19.50400 -6.56000 25.64800
O  19.34800 -6.55100 24.44700
C  20.16000 -7.81200 26.16700
N  16.86700 -1.54500 25.46000
C  17.60000 -2.37200 24.70700
C  17.51600 -1.92200 23.24100
C  16.79000 -0.52400 23.29700
C  16.41500 -0.44700 24.76400
C  18.85400 -1.92500 22.54300
C  15.55900 -0.47700 22.34900
C  15.51700 0.59000 21.28300
N  15.78400 -0.00700 27.65700
C  15.35300 0.86400 26.63900
C  14.85400 2.16600 27.08000
C  15.00000 2.00000 28.47300
C  15.58800 0.71900 28.77500
C  14.26100 3.33100 26.25500
C  14.74300 2.69100 29.75000
O  14.28100 3.80800 29.96700
C  15.23700 1.71500 30.85400
C  16.19700 2.50600 31.69200
O  17.37000 2.61600 31.44700
O  15.55300 2.88100 32.86200
C  16.35600 3.54000 33.82700
H  18.99000 -4.26400 30.61400
H  18.46700 -4.20600 24.28500
H  15.51600 1.32700 24.46800
H  17.76400 -0.02600 32.54900
H  17.73800 -2.79500 32.55400
H  19.85200 -2.48500 32.88200
H  19.79100 -0.70800 32.45300
H  20.27500 -1.96900 31.29700
H  15.88900 -2.20300 33.33400
H  15.06000 -0.96900 32.43100
H  15.54800 -1.12300 35.17500
H  15.39800 0.42000 34.37000
H  19.43500 -6.06500 30.02800
H  21.01900 -6.09200 29.16200
H  19.60200 -7.30100 28.99200
H  21.16300 -7.65200 26.56200
H  20.28500 -8.58100 25.40500
H  19.50900 -8.13100 26.98100
H  16.84600 -2.62600 22.74800
H  17.63200 0.14700 23.12500
H  18.98400 -0.95400 22.06500
H  18.99800 -2.79600 21.90400
H  19.61800 -1.94200 23.32000
H  14.72800 -0.28400 23.02700
H  15.34400 -1.40900 21.82600
H  14.76100 1.29900 21.62300
H  15.06600 0.19500 20.37300
H  16.38400 1.20100 21.03400
H  13.17900 3.25100 26.35700
H  14.51200 3.13600 25.21200
H  14.51600 4.33500 26.59400
H  14.44400 1.48700 31.56700
H  15.98400 3.15900 34.77800
H  16.23500 4.62000 33.74800
H  17.41600 3.28900 33.78300
Mg 40.71800 7.36100 29.80600
C  42.66600 8.81900 32.70000
C  38.50600 6.38200 32.11400
C  39.37600 5.70100 27.33900
C  43.42800 8.12900 27.76900
N  40.69700 7.55200 32.22900
C  41.41000 8.29300 33.10500
C  40.80900 8.33600 34.42500
C  39.52100 7.46400 34.21000
C  39.57800 7.05800 32.75100
C  39.29800 6.25700 35.09400
C  40.54300 9.85000 34.75400
C  39.66300 10.14700 36.05300
H  40.17900 11.12500 37.06900
N  39.11400 6.21400 29.75500
C  38.29800 5.93300 30.82000
C  37.09600 5.25000 30.20000
C  37.22300 5.33800 28.77700
C  38.62500 5.78100 28.56300
C  35.90100 4.85700 31.01100
C  36.34000 5.01700 27.71700
O  36.56400 5.12100 26.52900
C  34.92600 4.48300 28.08200
N  41.47100 6.82100 27.84700
C  40.63000 6.20700 26.96400
C  41.07400 6.29300 25.53000
C  42.21700 7.39700 25.69000
C  42.44400 7.36800 27.17100
C  41.46900 4.89200 25.06900
C  41.86300 8.80100 25.02600
C  42.88500 9.31500 24.09400
N  42.66700 8.24800 30.15000
C  43.55500 8.55500 29.18900
C  44.59100 9.27300 29.67600
C  44.35500 9.32800 31.09500
C  43.13800 8.72300 31.29800
C  45.68900 9.92300 28.83600
C  44.89600 9.89000 32.34500
O  45.94800 10.51700 32.48900
C  43.84800 9.56500 33.44800
C  44.31800 8.73100 34.53300
O  45.03100 7.78400 34.47100
O  43.88200 9.27500 35.71200
C  44.03600 8.49000 36.97300
H  37.61000 6.33700 32.73700
H  38.91200 5.19200 26.49100
H  44.18900 8.61200 27.15300
H  41.57600 7.98100 35.11400
H  38.70100 8.14300 34.44100
H  39.17200 5.26900 34.65100
H  38.35800 6.46900 35.60300
H  39.98900 6.20200 35.93600
H  40.11500 10.40100 33.91700
H  41.46800 10.42400 34.80100
H  39.32100 9.20700 36.48600
H  38.83800 10.73700 35.65300
H  35.63900 3.80900 30.86700
H  34.99900 5.39200 30.71500
H  36.04100 5.24600 32.02000
H  34.99000 3.58700 28.69900
H  34.36800 4.20500 27.18800
H  34.47800 5.36000 28.55100
H  40.28500 6.69400 24.89300
H  43.12300 7.00600 25.22900
H  40.82600 4.21300 25.62900
H  42.49800 4.70500 25.37500
H  41.25300 4.72200 24.01400
H  41.79400 9.55600 25.81000
H  40.93800 8.75900 24.45100
H  43.62700 8.52700 23.96600
H  43.34100 10.19200 24.55400
H  42.65700 9.52200 23.04900
H  45.31000 10.35900 27.91100
H  46.37000 9.08600 28.68500
H  46.07800 10.77900 29.38800
H  43.50000 10.51100 33.86200
H  43.66400 9.09800 37.79700
H  45.11900 8.38300 37.04100
H  43.57500 7.50200 36.96300

