158

Mg 34.92300 3.32600 29.89800
C  32.76600 4.34500 32.45200
C  37.66700 3.51800 32.36100
C  37.24800 2.64400 27.53000
C  32.55400 3.72500 27.57600
N  35.20300 3.82700 32.18200
C  34.08800 4.06700 32.99900
C  34.51800 3.99600 34.44700
C  36.10700 4.08600 34.42400
C  36.43200 3.81800 32.89700
C  36.63000 5.50500 34.83800
C  34.01500 2.72600 35.21500
C  33.87900 2.87800 36.71100
H  34.76900 3.98300 37.55000
N  37.09900 2.90900 29.99300
C  38.00100 2.99200 31.06300
C  39.29100 2.56900 30.61700
C  39.23200 2.22400 29.25900
C  37.83400 2.53500 28.86000
C  40.49900 2.47400 31.60600
C  40.29300 1.56100 28.36000
O  40.03600 1.24400 27.24200
C  41.70700 1.46900 28.81700
N  35.01300 3.39700 27.87500
C  36.03600 3.05900 27.06500
C  35.60200 2.98900 25.57100
C  34.05600 3.07800 25.60600
C  33.87100 3.39700 27.14100
C  36.33300 4.08300 24.69200
C  33.33800 1.74000 25.30000
C  32.21700 1.68500 24.33700
N  33.05500 3.91900 29.92200
C  32.19600 4.05500 28.89100
C  30.91700 4.42100 29.35300
C  31.06800 4.55100 30.76000
C  32.44000 4.21800 31.06500
C  29.71000 4.68200 28.48900
C  30.42500 4.91900 31.99700
O  29.25900 5.42800 32.09400
C  31.46600 4.66100 33.19300
C  31.56200 5.81500 34.11700
O  32.39400 6.68900 33.96300
O  30.70800 5.61800 35.20600
C  30.71900 6.71400 36.24000
H  38.51600 3.60100 33.04200
H  37.86000 2.45400 26.64600
H  31.83600 3.85200 26.76300
H  34.15600 4.80200 35.08400
H  36.55400 3.42400 35.16600
H  36.06800 6.10900 35.55000
H  36.84200 6.04900 33.91800
H  37.59600 5.39900 35.33100
H  34.68000 1.90100 34.96200
H  32.97000 2.54800 34.96200
H  34.03400 1.92000 37.20800
H  32.86200 3.16400 36.97900
H  41.31800 3.05400 31.17900
H  40.70600 1.40400 31.64800
H  40.25000 2.73800 32.63300
H  41.74700 0.75200 29.63700
H  41.96900 2.43200 29.25500
H  42.44600 1.30700 28.03200
H  35.91600 2.00300 25.22800
H  33.62300 3.85700 24.97900
H  36.97300 4.75500 25.26400
H  35.70800 4.73900 24.08700
H  36.92300 3.49600 23.98900
H  32.84700 1.33600 26.18500
H  34.04400 0.92600 25.13200
H  32.08000 2.65600 23.86000
H  31.29000 1.44700 24.85800
H  32.50300 0.84900 23.69900
H  29.41600 3.78800 27.94000
H  29.89600 5.45400 27.74100
H  28.88100 5.05300 29.09200
H  31.10300 3.77300 33.71100
H  31.63500 6.79200 36.82600
H  29.83400 6.65400 36.87400
H  30.50700 7.59300 35.63100
Mg 10.06900 47.55000 26.59300
C  8.29700 47.68100 29.50800
C  12.75600 49.05600 28.14900
C  11.65200 47.39700 23.72900
C  7.01300 46.56200 24.84500
N  10.40200 48.37100 28.56500
C  9.59000 48.08400 29.67600
C  10.28800 48.47600 30.98200
C  11.63000 49.19000 30.47500
C  11.65100 48.73600 29.00400
C  11.49300 50.79200 30.58200
C  10.60500 47.22800 31.82100
C  10.81400 47.42600 33.33800
H  10.35800 46.30000 34.23100
N  12.02000 48.06800 26.04300
C  12.93400 48.72700 26.78300
C  14.15300 48.84100 26.04300
C  13.84000 48.32100 24.67300
C  12.43800 47.94300 24.75800
C  15.54200 49.25700 26.70000
C  14.81900 48.20900 23.42700
O  14.38800 47.95200 22.31300
C  16.33100 48.58200 23.57000
N  9.31900 47.25400 24.50600
C  10.31900 47.05400 23.56600
C  9.73000 46.46600 22.23200
C  8.30200 46.16600 22.67000
C  8.20500 46.63600 24.12100
C  9.84900 47.43800 21.00700
C  7.93700 44.72400 22.47500
C  8.82500 43.72700 23.20900
N  7.99800 47.20900 27.07600
C  6.90600 46.83600 26.25300
C  5.72800 46.87300 27.12000
C  6.23900 47.10200 28.44200
C  7.60200 47.40000 28.30800
C  4.38400 46.57200 26.71400
C  5.89100 47.15800 29.83200
O  4.84900 46.94800 30.39900
C  7.17500 47.43400 30.56800
C  7.33700 46.16900 31.30500
O  7.83700 45.13000 30.82900
O  6.90400 46.37000 32.62200
C  6.81000 45.13600 33.46400
H  13.66900 49.47000 28.58300
H  12.28300 47.39700 22.83800
H  6.09800 46.14800 24.41800
H  9.65900 49.16900 31.54200
H  12.51300 48.92800 31.05800
H  10.62200 51.05300 31.18300
H  11.42700 51.20600 29.57500
H  12.34000 51.12000 31.18500
H  11.53100 46.85700 31.38200
H  9.84900 46.45400 31.68500
H  10.31400 48.35600 33.60800
H  11.89400 47.47400 33.47500
H  15.81000 50.28100 26.44100
H  16.39100 48.61500 26.46500
H  15.55300 49.16000 27.78500
H  16.93400 48.44200 22.67300
H  16.73800 47.91200 24.32800
H  16.39800 49.58400 23.99400
H  10.32500 45.55600 22.30100
H  7.60800 46.81600 22.13600
H  9.69700 48.35900 21.57100
H  9.07900 47.14700 20.29300
H  10.73000 47.58400 20.38200
H  7.94900 44.51300 21.40500
H  6.89100 44.67300 22.77800
H  9.48300 44.23600 23.91300
H  9.42400 43.13700 22.51600
H  8.20800 43.05600 23.80700
H  4.27000 45.66600 26.11800
H  4.17500 47.44600 26.09800
H  3.60300 46.61200 27.47200
H  7.23000 48.37700 31.11200
H  7.75400 44.60200 33.35400
H  6.09000 44.37000 33.17600
H  6.80600 45.40800 34.52000

