158

Mg 30.04900 59.09500 39.99700
C  27.00900 57.58600 38.76300
C  31.62700 56.30200 39.14900
C  32.87500 60.94600 40.12600
C  28.12100 62.08600 40.15800
N  29.36100 57.18200 39.13000
C  28.12700 56.75300 38.62200
C  28.23600 55.29000 38.10500
C  29.58600 54.82400 38.74800
C  30.22600 56.19800 39.04900
C  29.32400 53.97600 39.98500
C  28.30400 55.11400 36.51800
C  27.15700 54.33300 35.82400
H  26.08400 55.15900 35.17800
N  31.99700 58.63000 39.81500
C  32.45800 57.48600 39.35800
C  33.86200 57.50900 39.33500
C  34.29900 58.81100 39.69100
C  33.04100 59.53000 39.91600
C  34.66700 56.30100 38.90600
C  35.73900 59.24800 39.84200
O  36.61400 58.45900 39.57700
C  36.15700 60.53100 40.35700
N  30.42500 61.29600 39.98500
C  31.68300 61.72700 40.13500
C  31.65900 63.21900 40.37300
C  30.19700 63.68700 40.27800
C  29.52200 62.31000 40.19200
C  32.45500 63.54600 41.68500
C  29.86600 64.56800 39.03700
C  30.30600 66.07000 39.16400
N  27.95600 59.65500 39.83500
C  27.42100 60.87900 39.93100
C  26.00600 60.83800 39.55800
C  25.75700 59.46800 39.32000
C  26.97100 58.81800 39.35600
C  25.04600 61.94000 39.34500
C  24.75200 58.50300 38.91100
O  23.55600 58.66600 38.80200
C  25.58600 57.19700 38.52600
C  25.12500 56.10000 39.44100
O  25.21800 56.13600 40.66600
O  24.65500 55.03000 38.71700
C  24.40500 53.79300 39.55700
H  32.19900 55.40800 38.89100
H  33.76400 61.57500 40.20600
H  27.43200 62.92700 40.06100
H  27.35800 54.72500 38.41900
H  30.26200 54.33800 38.04400
H  29.77700 54.59000 40.76400
H  29.93300 53.07500 40.05500
H  28.28600 53.69100 40.15600
H  29.27100 54.67800 36.26800
H  28.27600 56.09200 36.03900
H  26.82900 53.60300 36.56400
H  27.61800 53.73300 35.03900
H  35.10100 55.83500 39.79000
H  35.48400 56.61500 38.25600
H  34.14300 55.53700 38.33100
H  37.24300 60.47700 40.44000
H  35.74300 60.53200 41.36500
H  35.76000 61.34600 39.75100
H  32.18600 63.55500 39.48000
H  29.89700 64.19100 41.19600
H  31.72900 63.85400 42.43800
H  33.14400 64.37400 41.51700
H  32.99400 62.70000 42.11100
H  28.78700 64.57700 38.88200
H  30.17300 64.06400 38.12000
H  29.45600 66.75200 39.18900
H  30.75200 66.32400 38.20300
H  30.96000 66.22200 40.02300
H  24.06500 61.64400 38.97500
H  25.58400 62.58900 38.65400
H  25.03700 62.50400 40.27800
H  25.43600 56.97700 37.46900
H  23.96000 53.05100 38.89400
H  23.66700 53.98000 40.33800
H  25.26100 53.33600 40.05400
Mg 9.29600 47.86600 27.42300
C  7.52000 47.44700 30.35100
C  12.10900 48.49700 29.28800
C  10.88200 48.53600 24.55400
C  6.18300 47.92600 25.58500
N  9.69300 48.13600 29.57700
C  8.87900 47.66100 30.58500
C  9.55900 47.98700 31.93400
C  11.07600 48.09000 31.57400
C  10.94500 48.20700 30.07100
C  11.68000 49.31700 32.26300
C  9.26800 46.92400 32.99600
C  10.33000 46.49300 34.06700
H  9.83800 45.80200 35.35300
N  11.24900 48.54300 26.96600
C  12.27000 48.68800 27.88100
C  13.46500 48.97500 27.20100
C  13.22200 48.90200 25.80400
C  11.75900 48.69500 25.73800
C  14.87500 49.08600 27.85800
C  14.16200 49.01600 24.60600
O  13.80300 48.95700 23.44800
C  15.60700 49.06500 24.89000
N  8.57400 48.14600 25.33000
C  9.52300 48.38700 24.35900
C  8.79000 48.59800 22.98100
C  7.29100 48.33800 23.29600
C  7.33800 48.06800 24.80000
C  9.14700 50.11400 22.49800
C  6.72400 47.18200 22.45600
C  6.66600 47.52600 20.95600
N  7.27400 47.51200 27.83200
C  6.18300 47.62500 26.99700
C  4.97300 47.37900 27.84000
C  5.48200 47.28700 29.13100
C  6.85300 47.38500 29.06800
C  3.51700 47.46400 27.47600
C  5.10500 47.09300 30.48200
O  3.95000 46.89700 30.90700
C  6.42100 47.19800 31.37700
C  6.48700 45.87200 32.11100
O  7.02500 44.86800 31.70300
O  5.66400 46.00500 33.24400
C  5.66500 44.85900 34.19800
H  13.10100 48.54900 29.74000
H  11.48200 48.60900 23.64400
H  5.19200 48.02800 25.13600
H  9.03000 48.90600 32.18500
H  11.56900 47.13000 31.73100
H  12.75200 49.32300 32.46300
H  11.09700 49.43100 33.17700
H  11.53500 50.14100 31.56500
H  9.03700 46.04200 32.39700
H  8.33900 47.23300 33.47500
H  10.70200 47.45900 34.40900
H  11.14100 45.96300 33.56800
H  15.45900 48.24200 27.49300
H  14.93300 49.04600 28.94500
H  15.22400 50.10400 27.68200
H  15.83500 49.88400 25.57200
H  16.09000 49.19900 23.92200
H  15.86300 48.05900 25.22100
H  9.31900 47.94600 22.28600
H  6.82500 49.31500 23.16900
H  9.88800 50.13700 21.69900
H  9.50800 50.70600 23.33900
H  8.23600 50.57800 22.12000
H  5.67500 47.04300 22.71800
H  7.12100 46.21900 22.77900
H  6.84400 46.64300 20.34200
H  7.35500 48.34500 20.74800
H  5.68200 47.81700 20.58700
H  3.11400 48.46100 27.65200
H  2.93400 46.76900 28.08100
H  3.40700 47.27900 26.40800
H  6.36700 48.02500 32.08500
H  5.62300 45.14400 35.24900
H  6.44800 44.10100 34.15800
H  4.64200 44.51100 34.05100

