158

Mg 35.76300 3.01300 30.76200
C  33.41400 4.30800 33.03000
C  38.11400 2.94000 33.31400
C  38.03800 2.20200 28.45300
C  33.43300 3.60300 28.21800
N  35.82600 3.76600 32.91000
C  34.65500 3.97700 33.64000
C  34.92600 3.88500 35.19800
C  36.48900 3.61400 35.22400
C  36.87500 3.46300 33.72400
C  37.23600 4.79600 35.85500
C  34.08800 2.69000 35.73000
C  33.35300 3.01200 37.10200
H  33.99200 4.14800 37.93900
N  37.70300 2.45200 30.89000
C  38.50300 2.51200 32.02400
C  39.80900 1.99600 31.73300
C  39.78700 1.65200 30.30300
C  38.48300 2.14800 29.80800
C  40.88300 1.67800 32.82400
C  40.79200 0.96400 29.43600
O  40.53500 0.67900 28.24500
C  42.16500 0.55200 30.05100
N  35.69500 2.82800 28.59700
C  36.73700 2.41500 27.88400
C  36.41900 2.45200 26.45900
C  34.85200 2.40400 26.34500
C  34.65200 3.05000 27.78600
C  37.04300 3.71100 25.83800
C  34.21500 0.98000 26.16100
C  33.47300 0.80700 24.87800
N  33.86500 3.91900 30.62200
C  33.04100 3.99200 29.51100
C  31.78500 4.56700 29.86500
C  31.82900 4.70400 31.26300
C  33.13500 4.30900 31.67800
C  30.63300 4.83000 28.85400
C  31.14900 5.13000 32.44400
O  30.06600 5.61900 32.42400
C  32.13400 4.81600 33.65900
C  32.23700 6.02200 34.55300
O  33.04500 6.97400 34.39400
O  31.36800 5.88900 35.54800
C  31.38300 6.80300 36.66800
H  38.70100 2.88400 34.23300
H  38.75600 1.99900 27.65500
H  32.63700 3.56700 27.47100
H  34.58400 4.80900 35.66700
H  36.77900 2.71400 35.76400
H  38.01500 5.10900 35.16000
H  37.84500 4.48100 36.70200
H  36.69200 5.69800 36.13300
H  34.75800 1.83300 35.80300
H  33.30900 2.32000 35.06200
H  33.49300 2.07000 37.63100
H  32.28000 3.12100 36.94500
H  41.90700 2.02800 32.69800
H  40.99400 0.60100 32.95200
H  40.59300 2.14100 33.76700
H  42.50800 -0.21800 29.35900
H  41.87600 0.11800 31.00800
H  42.90700 1.34100 30.17400
H  36.81600 1.48500 26.15000
H  34.55800 3.08800 25.54900
H  37.38600 4.44500 26.56700
H  36.38700 4.28000 25.17900
H  37.92800 3.35600 25.31000
H  33.72700 0.75600 27.11000
H  35.01700 0.24400 26.10900
H  33.61900 1.62400 24.17100
H  32.39900 0.73000 25.04600
H  33.85300 -0.12600 24.46300
H  30.01500 5.66300 29.18900
H  30.03300 3.94300 29.05800
H  30.83300 4.95700 27.79000
H  31.69300 4.02000 34.26000
H  30.75000 7.67900 36.52300
H  32.37000 7.12800 36.99700
H  31.01700 6.10200 37.41900
Mg -0.30000 44.18500 26.31800
C  1.47900 43.88200 29.38800
C  -3.17500 43.61000 28.00800
C  -1.68000 43.77100 23.32600
C  2.93100 44.57900 24.77700
N  -0.78600 43.75700 28.39600
C  0.10500 43.71900 29.45800
C  -0.71500 43.44700 30.74800
C  -2.19900 43.37000 30.32900
C  -2.03000 43.54000 28.83800
C  -2.94000 42.01100 30.72400
C  -0.50700 44.47800 31.98100
C  -0.01900 44.01800 33.39900
H  -0.57400 42.68100 33.95500
N  -2.20000 43.83100 25.70700
C  -3.30900 43.65400 26.58600
C  -4.46600 43.53100 25.73400
C  -4.04800 43.47100 24.32400
C  -2.62900 43.71000 24.39000
C  -5.83600 43.31700 26.37200
C  -4.92600 43.17400 23.08700
O  -4.37200 43.04900 22.00400
C  -6.36300 42.81600 23.19300
N  0.49900 44.18000 24.39100
C  -0.28500 44.07200 23.30300
C  0.56400 43.96800 22.05600
C  1.93900 44.56700 22.45400
C  1.82600 44.43000 23.96500
C  0.75600 42.48400 21.62700
C  2.28200 45.99500 21.94500
C  1.14100 47.01600 21.89400
N  1.78800 44.27000 26.90700
C  2.94900 44.54400 26.22500
C  4.02200 44.51900 27.08300
C  3.51800 44.23200 28.34600
C  2.16900 44.13900 28.19600
C  5.55700 44.54000 26.77300
C  3.79400 43.98400 29.74100
O  4.87800 43.92800 30.28200
C  2.51200 43.74600 30.45500
C  2.53200 42.48500 31.21400
O  2.04400 41.42300 30.84400
O  3.05400 42.67000 32.46600
C  3.03900 41.45300 33.33300
H  -4.06900 43.80400 28.60400
H  -2.04600 43.51700 22.32900
H  3.87600 44.62500 24.23200
H  -0.38300 42.43000 30.95700
H  -2.80500 44.23800 30.58700
H  -3.88600 42.23100 31.21900
H  -2.33000 41.36200 31.35200
H  -3.21800 41.46400 29.82300
H  -1.46500 44.97800 32.12000
H  0.04800 45.37600 31.71100
H  -0.33600 44.72600 34.16400
H  1.06600 44.12100 33.41700
H  -6.19400 42.29000 26.29400
H  -6.61700 43.95400 25.95600
H  -5.84300 43.66000 27.40600
H  -6.39700 41.84900 23.69500
H  -6.84500 42.63300 22.23300
H  -6.95200 43.52300 23.77700
H  0.11500 44.52200 21.23200
H  2.80700 43.97400 22.16400
H  1.79200 42.15900 21.71800
H  0.34600 42.40700 20.62000
H  0.10100 41.89000 22.26500
H  2.79700 45.91300 20.98800
H  2.99100 46.33800 22.69800
H  0.25200 46.53800 22.30700
H  0.95800 47.51400 20.94200
H  1.31700 47.76600 22.66500
H  6.15900 44.55800 27.68200
H  5.69100 45.50800 26.29000
H  5.77600 43.70100 26.11400
H  2.42200 44.61400 31.10800
H  2.28600 41.40900 34.11900
H  3.99600 41.34100 33.84500
H  2.88800 40.49000 32.84500

