158

Mg 2.15200 -1.21700 43.54000
C  5.62200 -0.49600 43.19500
C  1.41900 1.37700 41.46800
C  -0.91900 -2.59900 43.26200
C  3.27600 -4.13500 45.31000
N  3.46900 0.23900 42.50600
C  4.80300 0.35600 42.41800
C  5.31000 1.57600 41.50700
C  3.93500 2.14500 41.13000
C  2.83900 1.25000 41.76200
C  3.65500 3.57600 41.54400
C  6.15300 1.04600 40.35100
C  7.06200 2.08500 39.67700
H  6.62900 2.53700 38.31400
N  0.48000 -0.67200 42.51300
C  0.34000 0.41100 41.73000
C  -0.98600 0.57600 41.31200
C  -1.67300 -0.58700 41.75600
C  -0.70000 -1.41100 42.53800
C  -1.34900 1.78700 40.39700
C  -3.10400 -1.03300 41.28200
O  -3.91200 -0.19800 40.77100
C  -3.53100 -2.39600 41.38700
N  1.33100 -3.06200 44.04300
C  -0.00100 -3.33600 44.02400
C  -0.44900 -4.51100 44.90600
C  0.93900 -5.21000 45.11600
C  1.98000 -4.09800 44.83300
C  -1.25600 -3.96400 46.11400
C  1.20500 -6.53400 44.28400
C  1.20700 -7.84400 45.08100
N  4.06200 -2.10800 44.33000
C  4.29400 -3.31600 45.01100
C  5.73400 -3.46600 45.16900
C  6.25900 -2.33700 44.54600
C  5.21700 -1.53800 44.01100
C  6.54800 -4.64600 45.74700
C  7.53300 -1.71800 44.21800
O  8.67900 -1.92200 44.49500
C  7.16200 -0.51300 43.27600
C  7.76100 0.77400 43.73300
O  8.36900 1.45100 42.91500
O  7.48900 1.22700 45.00700
C  8.04800 2.55200 45.40000
H  1.09100 2.21300 40.84800
H  -1.89300 -3.08900 43.31600
H  3.49000 -5.07700 45.81900
H  5.94600 2.21600 42.11800
H  3.83900 2.20700 40.04600
H  3.37100 4.17200 40.67700
H  4.55400 4.00800 41.98300
H  2.88600 3.47200 42.31000
H  5.59300 0.60800 39.52500
H  6.87200 0.28900 40.66600
H  8.09900 1.75400 39.71500
H  7.16500 3.01400 40.23900
H  -0.72300 1.83600 39.50600
H  -1.25000 2.63600 41.07300
H  -2.40500 1.72500 40.13500
H  -4.33900 -2.51200 40.66500
H  -3.83700 -2.60000 42.41300
H  -2.65500 -2.93600 41.02800
H  -1.01500 -5.27700 44.37700
H  1.10700 -5.45800 46.16400
H  -2.27700 -4.31600 46.26600
H  -1.26600 -2.87500 46.14100
H  -0.75600 -4.19200 47.05600
H  2.19100 -6.47100 43.82500
H  0.46000 -6.69200 43.50500
H  0.45100 -8.55600 44.74800
H  0.81000 -7.81600 46.09500
H  2.14400 -8.40000 45.11000
H  5.94300 -4.95800 46.59700
H  7.46000 -4.18300 46.12500
H  6.76400 -5.36000 44.95300
H  7.61800 -0.84300 42.34200
H  7.42000 3.11600 46.09000
H  8.39800 3.21100 44.60500
H  8.92700 2.28900 45.98800
Mg 30.01100 57.57900 40.98000
C  27.29300 55.70900 39.78400
C  32.11500 55.44500 39.51100
C  32.40900 59.76000 41.67900
C  27.64200 59.97000 42.21200
N  29.73500 55.91700 39.67000
C  28.52400 55.18100 39.43100
C  28.87000 54.04200 38.54100
C  30.32200 53.72000 39.03100
C  30.74100 55.10600 39.45500
C  30.53100 52.65300 40.14700
C  28.62500 54.11200 36.96000
C  27.24900 53.59100 36.48000
H  26.31600 54.63100 35.80500
N  32.01300 57.62500 40.60500
C  32.69900 56.63600 39.93700
C  34.10100 56.92500 39.99600
C  34.26000 58.17900 40.67200
C  32.85800 58.54500 41.03400
C  35.14300 55.99500 39.28800
C  35.52400 58.89400 40.90700
O  36.52900 58.31900 40.54200
C  35.65600 60.07900 41.64100
N  29.97100 59.70800 41.67200
C  31.19700 60.29400 41.88800
C  30.96400 61.76000 42.43200
C  29.45900 61.72600 42.74200
C  28.96100 60.46500 42.18800
C  31.91400 62.03800 43.58300
C  28.67900 63.10100 42.40800
C  27.75600 63.64200 43.42800
N  27.90800 57.91600 41.02800
C  27.09900 58.88000 41.60400
C  25.72400 58.49800 41.32800
C  25.76700 57.25800 40.65700
C  27.12200 56.97300 40.44200
C  24.54800 59.24800 41.90800
C  24.93200 56.19500 40.06400
O  23.72000 56.11500 40.02500
C  25.92300 55.16000 39.44000
C  25.64600 53.88000 40.18900
O  26.19900 53.53000 41.21800
O  24.73800 53.13900 39.41500
C  24.24600 51.98300 40.07300
H  32.76800 54.57200 39.45200
H  33.17900 60.44500 42.04000
H  26.98900 60.70400 42.68900
H  28.18300 53.24200 38.81800
H  30.88100 53.48600 38.12500
H  29.62000 52.06700 40.26800
H  30.70500 53.29400 41.01100
H  31.40200 52.08400 39.82200
H  29.36500 53.55400 36.38800
H  28.76700 55.15200 36.66600
H  26.65300 53.33600 37.35600
H  27.39500 52.69100 35.88200
H  34.77700 55.04700 38.89300
H  36.01300 55.77900 39.90700
H  35.43200 56.50600 38.37000
H  35.06200 60.77700 41.05000
H  36.72300 60.29900 41.61800
H  35.27900 59.96800 42.65800
H  31.20100 62.41300 41.59200
H  29.40200 61.58700 43.82200
H  32.66100 62.72700 43.18700
H  32.48000 61.18400 43.95400
H  31.42800 62.53700 44.42100
H  28.04400 62.87700 41.55100
H  29.39400 63.84100 42.04900
H  28.27200 64.45100 43.94600
H  27.58400 62.95000 44.25200
H  26.85600 63.88500 42.86300
H  24.89900 60.02300 42.58800
H  23.79000 58.54600 42.25700
H  24.06400 59.69600 41.04000
H  25.68300 54.99700 38.39000
H  23.95700 52.26000 41.08600
H  25.01900 51.22300 40.18500
H  23.33700 51.70000 39.54300

