158

Mg 25.17000 1.11900 29.97400
C  27.23900 0.86800 32.86100
C  22.38100 1.14200 31.99900
C  23.31400 0.91500 27.18800
C  28.04900 0.61100 27.99400
N  24.88700 1.07700 32.21700
C  25.84700 1.11300 33.20900
C  25.20000 1.22500 34.62100
C  23.70400 1.14900 34.21800
C  23.63600 1.13200 32.68300
C  22.79000 0.05700 34.92100
C  25.70400 2.50100 35.42700
C  26.37700 2.19900 36.80900
H  26.16700 3.14200 37.97300
N  23.13500 1.03200 29.58900
C  22.12100 1.01200 30.56200
C  20.86100 0.70300 29.95300
C  21.12500 0.66500 28.55300
C  22.60000 0.92300 28.39000
C  19.58100 0.61100 30.65900
C  20.21500 0.30000 27.33900
O  20.56500 0.43500 26.18900
C  18.86400 -0.26200 27.62600
N  25.66400 0.91200 27.81600
C  24.72300 0.93000 26.85300
C  25.32600 0.99300 25.47900
C  26.79800 1.11600 25.81300
C  26.90200 0.91500 27.25200
C  24.97800 -0.19100 24.65200
C  27.56100 2.48100 25.38900
C  26.91000 3.80200 25.75700
N  27.16300 0.74400 30.30000
C  28.18600 0.49400 29.39400
C  29.38300 0.05600 30.12500
C  29.06700 0.29300 31.47600
C  27.72700 0.70500 31.56400
C  30.60500 -0.47000 29.53400
C  29.66300 0.21000 32.84700
O  30.81600 -0.11400 33.25600
C  28.47000 0.60900 33.81000
C  28.26700 -0.47600 34.73900
O  27.65100 -1.51300 34.47800
O  29.03200 -0.25000 35.84500
C  28.95900 -1.21400 36.82700
H  21.50000 1.00500 32.63000
H  22.71700 0.98000 26.27600
H  28.90900 0.44900 27.34100
H  25.57000 0.29800 35.06100
H  23.25700 2.09500 34.52500
H  21.90200 0.46700 35.40200
H  23.35300 -0.15800 35.83000
H  22.61000 -0.66200 34.12200
H  24.78200 3.07200 35.53100
H  26.22600 3.23900 34.81800
H  27.43300 2.16200 36.54300
H  26.07600 1.22000 37.18200
H  19.54100 0.90200 31.70900
H  19.28800 -0.43900 30.66500
H  18.90000 1.25100 30.09800
H  18.60100 -0.69800 26.66200
H  18.17200 0.56000 27.80800
H  18.99400 -0.97200 28.44300
H  24.99600 1.91600 25.00100
H  27.46300 0.33500 25.44500
H  25.79800 -0.88200 24.45900
H  24.65900 0.30800 23.73700
H  24.17300 -0.75900 25.11900
H  27.58200 2.59100 24.30400
H  28.60700 2.38800 25.68200
H  26.10700 3.63600 26.47500
H  26.51600 4.31500 24.88000
H  27.61700 4.51200 26.18600
H  31.26400 0.39300 29.43900
H  30.45500 -1.09700 28.65500
H  31.05700 -1.00400 30.37000
H  28.76500 1.51400 34.34000
H  27.95400 -1.17400 37.24800
H  29.64800 -0.86300 37.59500
H  29.17500 -2.23900 36.52400
Mg 17.11900 51.51900 25.72200
C  19.11500 50.24100 28.39100
C  14.72700 52.34100 28.09000
C  15.06400 52.05100 23.20800
C  19.67800 50.28000 23.55400
N  17.02700 51.33600 28.03000
C  17.99500 50.87100 28.98000
C  17.53500 51.04600 30.40200
C  16.02000 51.52300 30.15400
C  15.95000 51.83700 28.64700
C  14.89100 50.44100 30.56600
C  18.44800 51.85700 31.35600
C  18.41500 51.48500 32.84700
H  17.59600 52.36700 33.89000
N  15.14000 52.08600 25.66300
C  14.33800 52.45800 26.74200
C  13.07200 52.97500 26.24700
C  13.16600 52.84000 24.83600
C  14.50900 52.36100 24.48700
C  11.95500 53.56500 27.11400
C  12.13100 53.23900 23.78000
O  12.21200 52.98700 22.59600
C  10.83700 53.94400 24.23400
N  17.33100 51.10700 23.67800
C  16.34800 51.59200 22.83100
C  16.92900 51.64000 21.41000
C  18.40600 51.17200 21.54000
C  18.49900 50.79500 23.00500
C  16.01800 50.70300 20.46600
C  19.45100 52.31600 21.25000
C  20.72800 51.94400 20.46400
N  19.02600 50.50200 25.86400
C  19.91500 50.06800 24.92700
C  21.01700 49.34200 25.56000
C  20.80900 49.45400 26.92000
C  19.56600 50.12200 27.04200
C  22.20900 48.63600 24.89300
C  21.30100 48.96900 28.15300
O  22.27300 48.25100 28.36300
C  20.37500 49.62600 29.23900
C  19.88800 48.69700 30.31100
O  19.06500 47.82000 30.11700
O  20.38400 49.02300 31.53300
C  19.96700 48.18300 32.67600
H  13.91100 52.50200 28.79700
H  14.50200 52.34000 22.31800
H  20.51400 49.97300 22.92200
H  17.50300 50.02400 30.77900
H  15.75800 52.43500 30.69000
H  13.95700 50.97200 30.75100
H  15.15800 50.04700 31.54600
H  14.72400 49.76200 29.73000
H  17.89900 52.79200 31.23800
H  19.46500 51.92100 30.96900
H  19.47600 51.47900 33.09800
H  18.12000 50.44300 32.97200
H  11.64000 54.52300 26.69900
H  12.26000 53.77000 28.14100
H  11.22300 52.76100 27.18300
H  10.17000 54.16600 23.40100
H  11.15200 54.92200 24.59700
H  10.28600 53.29300 24.91200
H  16.87700 52.67800 21.08300
H  18.66600 50.33000 20.90000
H  15.05200 50.62500 20.96500
H  16.43400 49.70500 20.33200
H  15.77400 51.18200 19.51800
H  19.77900 52.63100 22.24000
H  18.89800 53.14900 20.81700
H  20.89600 52.63000 19.63400
H  20.73300 50.98200 19.95000
H  21.55800 51.97600 21.16900
H  23.07400 48.39700 25.51100
H  22.50700 49.29000 24.07300
H  21.69700 47.75900 24.49700
H  20.97200 50.43700 29.65700
H  19.92600 48.81600 33.56200
H  20.72200 47.42900 32.89600
H  18.98500 47.72200 32.57300

