158

Mg -2.79100 17.75300 26.86900
C  -3.35700 15.47500 29.49100
C  -3.18800 20.27800 29.14300
C  -2.36000 19.78900 24.37600
C  -2.82000 14.91400 24.68100
N  -3.11600 17.80600 29.00200
C  -3.20500 16.81500 29.89100
C  -3.22700 17.27700 31.36600
C  -3.44300 18.77000 31.18800
C  -3.22200 18.97400 29.65800
C  -4.83400 19.24800 31.72400
C  -1.92100 16.90900 32.04100
C  -1.50300 17.77600 33.31200
H  -1.08700 16.98400 34.63500
N  -2.76500 19.79700 26.80100
C  -2.85800 20.64400 27.80700
C  -2.81000 21.99000 27.29200
C  -2.38500 21.85000 25.93000
C  -2.48500 20.45900 25.66100
C  -3.09500 23.23200 28.16000
C  -1.86000 22.89700 24.99700
O  -1.54100 22.68100 23.80400
C  -1.62500 24.30300 25.44700
N  -2.78400 17.43300 24.76100
C  -2.41100 18.42500 23.98400
C  -2.32000 17.94200 22.50300
C  -2.24400 16.36300 22.59700
C  -2.64100 16.18000 24.06400
C  -3.42000 18.46100 21.62000
C  -0.77000 15.88100 22.32500
C  0.17100 15.80700 23.55700
N  -3.14700 15.62300 26.95500
C  -3.15200 14.64100 26.03800
C  -3.44200 13.33800 26.65300
C  -3.47100 13.58500 27.99400
C  -3.25800 14.94600 28.15500
C  -3.59600 11.98500 26.04400
C  -3.58100 12.99500 29.24000
O  -3.76800 11.87300 29.59300
C  -3.56900 14.18400 30.28600
C  -2.47700 13.84400 31.20600
O  -1.27500 13.79100 30.98000
O  -3.08700 13.40000 32.41900
C  -2.13600 12.90500 33.42200
H  -3.14500 21.13900 29.81300
H  -2.19400 20.38400 23.47600
H  -2.74200 14.07500 23.98700
H  -4.04900 16.77600 31.87800
H  -2.78400 19.44400 31.73600
H  -5.17100 18.67700 32.58900
H  -5.60800 19.14900 30.96300
H  -4.70600 20.31800 31.88900
H  -1.08100 16.95100 31.34700
H  -1.87000 15.89800 32.44500
H  -2.37500 18.40600 33.48900
H  -0.76300 18.53100 33.04700
H  -3.98000 23.02000 28.76000
H  -3.37000 24.11100 27.57800
H  -2.27900 23.48100 28.83700
H  -2.49200 24.95100 25.57100
H  -0.94200 24.75600 24.72900
H  -1.07100 24.16200 26.37500
H  -1.42700 18.46500 22.16000
H  -2.87500 15.80400 21.90600
H  -4.42800 18.13900 21.88200
H  -3.42500 17.97700 20.64300
H  -3.30900 19.54600 21.60600
H  -0.30900 16.48600 21.54500
H  -1.01700 14.88700 21.95200
H  -0.32000 15.97500 24.51600
H  1.00400 16.49300 23.40400
H  0.64600 14.83100 23.64800
H  -2.74400 11.40300 26.39500
H  -3.61700 11.99000 24.95500
H  -4.53800 11.61300 26.44700
H  -4.48900 14.31500 30.85600
H  -1.31300 12.38300 32.93200
H  -2.63900 12.23100 34.11500
H  -1.85400 13.80000 33.97500
Mg 24.97700 1.52100 29.54400
C  27.12000 1.24700 32.45800
C  22.31700 1.97100 31.74900
C  22.93600 1.30400 27.03100
C  27.60800 0.57400 27.63800
N  24.80700 1.70000 31.81200
C  25.81300 1.59400 32.77200
C  25.26800 1.97200 34.19700
C  23.75700 2.10800 33.89300
C  23.55000 1.98000 32.35500
C  22.88100 1.13700 34.66200
C  25.96100 3.21900 34.84600
C  26.43200 3.06000 36.28100
H  25.97000 4.05500 37.44900
N  22.89000 1.63700 29.35700
C  21.98600 1.87500 30.39100
C  20.64500 2.04000 29.82700
C  20.83200 1.91700 28.39100
C  22.24700 1.59300 28.20300
C  19.40700 2.28400 30.65400
C  19.82500 2.07800 27.21400
O  20.10900 1.95000 26.02900
C  18.43600 2.50700 27.49500
N  25.24100 0.93400 27.65800
C  24.27200 1.02700 26.78300
C  24.79000 0.81700 25.29900
C  26.30900 0.80900 25.43200
C  26.38100 0.76200 27.00100
C  24.20400 -0.53500 24.81300
C  26.95200 2.03400 24.72200
C  26.68000 3.35900 25.42900
N  26.94300 0.98800 29.94400
C  27.92900 0.69800 29.00500
C  29.24300 0.49500 29.69000
C  28.97800 0.67800 31.08600
C  27.56100 0.98400 31.13500
C  30.53200 0.12700 28.98400
C  29.54900 0.75100 32.43200
O  30.67500 0.52800 32.82900
C  28.36300 1.14300 33.37800
C  28.25600 0.05900 34.38100
O  27.64100 -0.99300 34.13400
O  28.93800 0.31800 35.54100
C  29.44400 -0.75900 36.47200
H  21.44000 2.14300 32.37700
H  22.49000 1.33800 26.03500
H  28.41200 0.20200 27.00000
H  25.39100 1.11500 34.86000
H  23.30600 3.05800 34.18200
H  22.20600 1.69200 35.31400
H  23.41900 0.48900 35.35300
H  22.30500 0.45300 34.03900
H  25.38800 4.14600 34.87400
H  26.82700 3.49700 34.24400
H  27.51400 3.13400 36.16700
H  26.15700 2.07300 36.65300
H  18.69500 1.56000 30.25700
H  18.99100 3.27000 30.44700
H  19.49200 2.18000 31.73600
H  18.46100 3.59100 27.60800
H  17.94300 2.02700 28.34000
H  17.91400 2.13200 26.61400
H  24.44200 1.60500 24.63100
H  26.73000 -0.16000 25.16500
H  23.49000 -0.98500 25.50200
H  24.99100 -1.22500 24.50800
H  23.59800 -0.24500 23.95500
H  26.50300 2.00800 23.72900
H  28.01700 1.86300 24.56500
H  25.80300 3.24100 26.06500
H  26.51100 4.08900 24.63800
H  27.49500 3.68200 26.07700
H  30.37900 -0.02800 27.91600
H  30.85700 -0.81800 29.41900
H  31.31500 0.85800 29.18500
H  28.49200 1.98700 34.05600
H  29.31200 -1.70900 35.95500
H  28.93300 -0.65900 37.43000
H  30.50800 -0.52500 36.49900

