158

Mg 23.58400 -5.67400 46.02700
C  25.69900 -3.04500 44.85400
C  21.39600 -4.65500 43.70000
C  22.08000 -8.52000 46.56400
C  26.50500 -6.85800 47.79000
N  23.65000 -4.08600 44.35100
C  24.52100 -3.01200 44.20600
C  24.07900 -2.11900 43.14000
C  22.49400 -2.46700 43.00000
C  22.42700 -3.80800 43.75000
C  21.54500 -1.39700 43.31600
C  24.82100 -2.30300 41.80700
C  25.39000 -1.03900 41.06600
H  24.99900 -0.91300 39.52700
N  21.88600 -6.40800 45.35500
C  21.16400 -5.88800 44.38100
C  20.03300 -6.71800 44.19600
C  20.19100 -7.84300 44.96900
C  21.47600 -7.66800 45.64600
C  18.83000 -6.34900 43.24100
C  19.17100 -8.90200 45.25400
O  18.05100 -8.82900 44.81700
C  19.34700 -10.15400 46.13400
N  24.27700 -7.52600 46.85700
C  23.35500 -8.44000 47.16700
C  23.90600 -9.59400 48.02900
C  25.33600 -9.03500 48.40200
C  25.40800 -7.70400 47.57900
C  23.08300 -10.08400 49.27400
C  26.48800 -10.13300 48.23000
C  27.21100 -10.22400 46.81600
N  25.67500 -4.94800 46.50100
C  26.77600 -5.60500 47.11000
C  27.91000 -4.79300 46.94200
C  27.54400 -3.74600 46.10100
C  26.18100 -3.92400 45.80500
C  29.26000 -5.15500 47.46300
C  27.96700 -2.60300 45.32300
O  29.13400 -2.15300 45.19000
C  26.76300 -1.97300 44.55700
C  26.31000 -0.72800 45.18200
O  25.25300 -0.59800 45.82200
O  27.20300 0.29000 44.86900
C  26.97100 1.56000 45.55100
H  20.74400 -4.45700 42.84600
H  21.55700 -9.44000 46.83800
H  27.31800 -7.27300 48.39000
H  24.13500 -1.05100 43.35200
H  22.24800 -2.69500 41.96300
H  21.27200 -1.56300 44.35800
H  20.71200 -1.57400 42.63600
H  21.92300 -0.37500 43.31800
H  24.19000 -2.82500 41.08800
H  25.66900 -2.98700 41.81800
H  26.48000 -1.04300 41.05900
H  25.12700 -0.14900 41.63600
H  19.03300 -6.34700 42.17000
H  18.45200 -5.38100 43.56800
H  17.97200 -7.02000 43.26800
H  18.56400 -10.91300 46.11600
H  19.54700 -9.92400 47.18000
H  20.23800 -10.58600 45.68000
H  23.96500 -10.48500 47.40400
H  25.28500 -8.62600 49.41100
H  23.73200 -10.66100 49.93300
H  22.31300 -10.79100 48.96500
H  22.58600 -9.28000 49.81800
H  25.94700 -11.06600 48.39200
H  27.24900 -10.00500 48.99900
H  27.01300 -9.28400 46.30200
H  26.76400 -11.05500 46.27100
H  28.29600 -10.32600 46.79300
H  29.70600 -5.75800 46.67200
H  29.11700 -5.74900 48.36500
H  29.83900 -4.25500 47.67200
H  27.01900 -1.75800 43.51900
H  26.14800 1.58200 46.26500
H  26.82600 2.38500 44.85300
H  27.80500 1.89500 46.16800
Mg 47.54700 34.83400 27.92100
C  45.47300 33.51300 30.40600
C  48.34300 37.41900 30.08500
C  49.21400 36.27600 25.46800
C  46.50100 32.24700 25.86900
N  47.00000 35.34000 30.00600
C  46.24200 34.66800 30.85400
C  46.57100 35.04400 32.26300
C  47.00700 36.59700 32.04700
C  47.48500 36.43000 30.62500
C  45.84800 37.71900 32.04900
C  47.76900 34.19400 32.84900
C  47.97000 34.33200 34.34100
H  47.13400 35.35700 35.11000
N  48.62100 36.60900 27.78200
C  48.86100 37.53900 28.75700
C  49.71500 38.57300 28.31400
C  50.05800 38.22200 26.92100
C  49.34200 36.98400 26.68100
C  50.12300 39.75800 29.10800
C  50.91100 38.97100 25.93500
O  51.05000 38.55300 24.76300
C  51.62300 40.28800 26.29500
N  47.75700 34.39800 25.89900
C  48.53500 35.11000 25.07600
C  48.48100 34.52000 23.63400
C  47.82300 33.13900 23.84600
C  47.37400 33.21700 25.30400
C  47.77900 35.42200 22.57300
C  48.58400 31.82000 23.52500
C  50.11400 31.80600 23.63500
N  46.24900 33.26000 28.04700
C  45.93600 32.25200 27.09800
C  44.97300 31.28100 27.69300
C  44.73000 31.73700 28.96800
C  45.48500 32.96100 29.08400
C  44.37600 30.00200 26.98000
C  43.97600 31.56400 30.18600
O  43.17300 30.73000 30.54700
C  44.38000 32.70100 31.08100
C  44.71400 32.21500 32.40600
O  45.65800 31.41700 32.59700
O  43.84300 32.73700 33.31500
C  44.03600 32.32100 34.75000
H  48.57600 38.15800 30.85400
H  49.76300 36.64700 24.60100
H  46.20600 31.42500 25.21300
H  45.74000 34.88100 32.95000
H  47.76800 36.94800 32.74400
H  44.92700 37.20700 32.32900
H  45.63800 38.25400 31.12300
H  46.06100 38.43700 32.84000
H  48.68000 34.53800 32.35900
H  47.67300 33.14200 32.57800
H  49.00700 34.56100 34.58700
H  47.71500 33.35800 34.75700
H  50.70100 39.34600 29.93500
H  49.29700 40.25600 29.61400
H  50.79000 40.43900 28.58000
H  52.35300 39.99500 27.04900
H  50.96200 41.09700 26.60500
H  52.13100 40.56700 25.37200
H  49.46400 34.30200 23.21700
H  46.88500 33.02800 23.30300
H  47.65200 36.41600 23.00300
H  46.76500 35.08900 22.35300
H  48.39300 35.63100 21.69700
H  48.55600 31.75300 22.43700
H  48.15000 30.91900 23.95900
H  50.49000 31.86900 22.61400
H  50.43100 30.82400 23.98700
H  50.47800 32.49000 24.40100
H  44.83400 30.05800 25.99200
H  43.29100 29.97900 27.07400
H  44.76900 29.14100 27.52100
H  43.41800 33.21000 31.02400
H  43.16900 31.82800 35.18800
H  44.24800 33.22500 35.32100
H  44.87400 31.62500 34.76800

