158

Mg 24.08400 -4.73500 45.98800
C  26.22500 -2.34300 44.56600
C  21.55400 -3.63900 43.95100
C  22.41900 -7.51300 46.77400
C  27.02200 -6.19700 47.51400
N  23.90500 -3.22200 44.41500
C  24.92400 -2.31200 44.06600
C  24.48000 -1.33700 42.92400
C  22.88800 -1.52200 43.09700
C  22.72600 -2.86000 43.85600
C  22.09300 -0.31800 43.62200
C  25.15400 -1.70500 41.60400
C  25.38300 -0.48000 40.78900
H  25.63200 -0.61100 39.25500
N  22.24000 -5.43100 45.48000
C  21.31700 -4.80500 44.64700
C  20.09500 -5.62600 44.51800
C  20.36400 -6.74600 45.37400
C  21.68300 -6.61000 45.96800
C  18.96400 -5.26700 43.83100
C  19.33100 -7.88800 45.52500
O  18.28700 -7.89700 44.86700
C  19.51300 -8.95700 46.63300
N  24.67100 -6.61800 46.94000
C  23.71400 -7.48100 47.17400
C  24.32800 -8.66400 47.86100
C  25.84700 -8.38200 48.07800
C  25.87000 -6.96000 47.58000
C  23.51700 -9.04300 49.15300
C  26.75700 -9.41100 47.42100
C  27.77400 -10.02900 48.34200
N  26.12700 -4.29800 46.15700
C  27.19300 -4.97000 46.80700
C  28.40900 -4.31000 46.64500
C  28.17300 -3.23400 45.71900
C  26.75600 -3.36400 45.40700
C  29.78100 -4.64200 47.24600
C  28.72400 -2.09700 45.00200
O  29.91600 -1.72500 44.98100
C  27.50200 -1.50800 44.18800
C  27.41700 -0.07500 44.57000
O  26.43200 0.39800 45.10500
O  28.53500 0.64200 44.16300
C  28.49600 2.07600 44.58700
H  20.72800 -3.24900 43.35300
H  21.92000 -8.44700 47.04000
H  27.81800 -6.66500 48.09600
H  24.65700 -0.28800 43.16000
H  22.68800 -1.74500 42.04900
H  21.60600 -0.56500 44.56500
H  21.32600 -0.11600 42.87500
H  22.65200 0.61800 43.60800
H  24.53900 -2.34800 40.97400
H  26.13800 -2.16000 41.72200
H  26.24400 0.06500 41.17500
H  24.48000 0.11900 40.90800
H  19.04900 -5.85500 42.91700
H  18.94500 -4.22700 43.50400
H  17.99200 -5.39800 44.30400
H  20.23000 -9.74500 46.40000
H  18.53700 -9.41800 46.78400
H  19.71500 -8.58900 47.63900
H  24.14400 -9.46400 47.14500
H  26.13500 -8.28800 49.12500
H  22.56300 -8.51600 49.17200
H  24.08200 -8.73200 50.03100
H  23.39000 -10.12000 49.26300
H  27.31600 -9.06800 46.55100
H  26.08200 -10.21700 47.13300
H  28.17200 -9.30300 49.05100
H  28.65100 -10.30800 47.75700
H  27.34000 -10.91900 48.79800
H  30.06200 -5.56800 46.74400
H  29.73500 -4.72100 48.33300
H  30.46000 -3.81600 47.03800
H  27.79400 -1.63700 43.14500
H  27.51000 2.54000 44.53900
H  29.00900 2.72700 43.87900
H  28.82100 2.25400 45.61200
Mg 26.61300 50.45200 25.99600
C  24.83300 51.40300 28.85300
C  29.39700 49.53800 28.14900
C  28.57400 49.74900 23.34900
C  24.27300 51.76800 24.04900
N  27.02400 50.51800 28.22300
C  26.08700 50.82200 29.20300
C  26.55500 50.47400 30.57100
C  28.03600 49.96000 30.36500
C  28.21200 50.10400 28.83000
C  29.08800 50.79400 31.12200
C  25.71300 49.33400 31.37000
C  25.02900 49.86000 32.70100
H  25.92700 50.34300 33.91300
N  28.61700 49.73700 25.83700
C  29.57400 49.48800 26.76200
C  30.86700 49.35800 26.08900
C  30.73700 49.30300 24.70600
C  29.24000 49.55200 24.55100
C  32.16100 49.28300 26.80200
C  31.68100 49.02600 23.60700
O  31.45400 48.99800 22.40700
C  33.12600 48.92400 24.03300
N  26.58200 50.85400 23.92400
C  27.31400 50.29500 23.02500
C  26.70300 50.32300 21.60500
C  25.22800 50.85300 21.89900
C  25.38000 51.21600 23.38600
C  27.58300 51.11500 20.57100
C  24.02400 49.92900 21.55100
C  22.69000 50.51000 21.17300
N  24.90400 51.44200 26.27900
C  24.01500 51.89200 25.41000
C  22.88500 52.44100 26.15800
C  23.26900 52.42400 27.49400
C  24.45400 51.68500 27.53500
C  21.63900 52.99100 25.56100
C  22.77500 52.69700 28.80300
O  21.79600 53.15900 29.23200
C  23.84900 52.10200 29.73800
C  24.37400 53.25300 30.63900
O  25.36900 53.90800 30.41200
O  23.50200 53.40000 31.69000
C  23.86900 54.33400 32.81400
H  30.21100 49.24100 28.81400
H  29.11400 49.41500 22.46000
H  23.36300 51.99000 23.48600
H  26.50000 51.44600 31.06100
H  28.15500 48.92200 30.67600
H  29.49500 50.20500 31.94400
H  28.53900 51.64700 31.52100
H  29.85000 51.25500 30.49300
H  26.30300 48.44000 31.57200
H  24.93300 49.09400 30.64700
H  24.27000 49.14300 33.01400
H  24.51600 50.76400 32.37300
H  31.97800 49.63000 27.81900
H  32.85900 50.07600 26.53600
H  32.74200 48.36000 26.78800
H  33.29100 48.06500 24.68400
H  33.40500 49.93100 24.34300
H  33.62300 48.59200 23.12100
H  26.68400 49.32100 21.17700
H  25.27300 51.70300 21.21800
H  28.31900 51.59700 21.21500
H  27.05000 52.02700 20.30400
H  28.07200 50.62300 19.73000
H  23.98200 49.35000 22.47400
H  24.16800 49.38400 20.61800
H  22.62800 51.59000 21.31100
H  21.99400 49.81800 21.64800
H  22.51400 50.38300 20.10400
H  21.12500 52.33700 24.85700
H  22.02100 53.83100 24.98100
H  20.87600 53.31800 26.26700
H  23.56800 51.31200 30.43500
H  24.80400 54.13700 33.33800
H  23.03500 54.45700 33.50500
H  23.98000 55.31400 32.34900

