158

Mg 48.33700 35.36700 28.27900
C  46.79200 33.51600 30.79700
C  48.58300 38.00900 30.50200
C  49.95400 37.18200 25.79500
C  47.73300 32.80400 26.12900
N  47.93000 35.63700 30.50000
C  47.33300 34.73000 31.29100
C  47.52100 35.15400 32.70600
C  47.51800 36.70900 32.50000
C  47.99000 36.82200 31.04700
C  46.13000 37.33900 32.65200
C  48.80400 34.67900 33.34700
C  48.76000 34.59800 34.81100
H  47.70300 35.47100 35.57500
N  49.07700 37.32600 28.14200
C  49.09900 38.22400 29.18800
C  49.72900 39.46700 28.73600
C  50.18300 39.28700 27.35300
C  49.79800 37.82700 27.04400
C  49.65100 40.64500 29.68000
C  50.91400 40.25900 26.40100
O  51.30800 39.93100 25.26500
C  51.38200 41.60000 26.90700
N  48.71500 35.05200 26.28000
C  49.37600 35.90700 25.47100
C  49.49200 35.39500 24.02200
C  48.98300 33.91700 24.26100
C  48.52100 33.85200 25.68400
C  48.64000 36.15200 22.94800
C  50.00400 32.85500 23.99200
C  49.87500 32.19100 22.55800
N  47.36300 33.52600 28.37900
C  47.14500 32.63100 27.39000
C  46.41700 31.46600 27.86100
C  46.25400 31.79500 29.25100
C  46.78000 33.02100 29.47900
C  46.02000 30.29500 27.09800
C  45.68800 31.33700 30.56800
O  45.15000 30.23800 30.89500
C  45.87800 32.51700 31.57700
C  46.43700 31.94000 32.77200
O  47.54500 31.45600 32.85900
O  45.51900 32.11900 33.76500
C  45.95800 31.83700 35.17800
H  48.60500 38.80300 31.25100
H  50.41700 37.63800 24.91700
H  47.57400 31.97700 25.43300
H  46.60400 34.79000 33.16800
H  48.21000 37.15400 33.21600
H  45.47000 36.82600 33.35100
H  45.71400 37.47800 31.65400
H  46.24200 38.35100 33.04100
H  49.58200 35.39300 33.07600
H  49.16200 33.79900 32.81100
H  49.80500 34.72200 35.09600
H  48.57500 33.53500 34.96600
H  50.59400 40.68500 30.22500
H  48.75200 40.75700 30.28700
H  49.67700 41.52700 29.04000
H  52.27300 41.89000 26.35100
H  51.64200 41.65000 27.96400
H  50.56800 42.30500 26.74000
H  50.54700 35.40700 23.74800
H  48.09200 33.85600 23.63500
H  48.72000 37.23300 23.05400
H  47.60200 35.83200 23.04200
H  49.04600 35.83000 21.98900
H  50.03000 32.09800 24.77700
H  50.96900 33.35500 23.91400
H  49.36400 32.92200 21.93200
H  49.24700 31.30400 22.64000
H  50.85100 31.96000 22.13100
H  45.44700 29.61500 27.72700
H  46.93700 29.83800 26.72600
H  45.42000 30.70400 26.28500
H  44.87300 32.92300 31.69500
H  46.43800 32.75800 35.51000
H  46.60500 30.96800 35.29900
H  45.08700 31.68800 35.81500
Mg -11.68400 39.29400 41.82300
C  -10.38300 36.09500 40.89700
C  -9.09300 40.77200 40.19200
C  -13.36100 42.14400 42.13600
C  -14.61600 37.57100 42.94700
N  -9.95100 38.44000 40.65500
C  -9.61400 37.10600 40.36500
C  -8.33700 37.04500 39.52000
C  -7.89000 38.53400 39.55300
C  -9.02200 39.29700 40.17900
C  -6.65100 38.65500 40.51100
C  -8.63800 36.47800 38.13600
C  -7.66900 35.45100 37.47600
H  -6.94200 35.88100 36.16100
N  -11.30000 41.26900 41.34600
C  -10.18800 41.68100 40.58800
C  -10.27400 43.12100 40.39500
C  -11.46600 43.55900 41.02100
C  -12.13100 42.31600 41.55500
C  -9.20800 44.00700 39.76600
C  -11.88300 44.99900 41.19600
O  -11.14600 45.93000 40.91100
C  -13.27100 45.31800 41.77100
N  -13.87100 39.72700 42.18900
C  -14.11900 41.01600 42.52800
C  -15.62500 41.12100 42.95400
C  -16.08700 39.69700 43.13000
C  -14.83600 38.91400 42.72400
C  -15.77400 42.01400 44.23500
C  -17.27600 39.29900 42.19100
C  -18.49500 40.17300 42.33400
N  -12.39300 37.26700 41.90000
C  -13.53000 36.71500 42.50100
C  -13.39300 35.32300 42.73500
C  -12.20400 35.01800 42.12100
C  -11.62500 36.20200 41.58900
C  -14.36800 34.40900 43.56300
C  -11.30900 33.93800 41.70400
O  -11.34800 32.75200 41.85800
C  -10.21900 34.58200 40.81600
C  -8.91600 34.14600 41.34400
O  -8.44100 33.08400 40.92600
O  -8.27100 35.00300 42.19200
C  -7.05800 34.40100 42.71600
H  -8.30500 41.31500 39.66600
H  -13.97600 43.03900 42.25400
H  -15.45900 37.08700 43.44400
H  -7.72300 36.37600 40.12200
H  -7.61900 38.87400 38.55400
H  -6.08500 37.75500 40.75100
H  -6.88400 39.17500 41.44000
H  -5.91900 39.22000 39.93400
H  -8.64400 37.33000 37.45700
H  -9.63400 36.04400 38.05100
H  -8.08300 34.49300 37.16000
H  -6.87800 35.12400 38.15200
H  -9.72400 44.76100 39.17200
H  -8.53800 43.35700 39.20200
H  -8.59700 44.60600 40.44200
H  -14.06200 44.80200 41.22700
H  -13.35300 46.40300 41.83300
H  -13.23400 45.02600 42.82000
H  -16.28500 41.59500 42.22800
H  -16.43200 39.53600 44.15200
H  -15.58600 43.04200 43.92700
H  -14.96700 41.85200 44.94900
H  -16.74300 42.08500 44.72900
H  -17.51400 38.25700 42.40500
H  -16.96700 39.29600 41.14600
H  -18.32700 40.97100 43.05800
H  -19.31900 39.58900 42.74400
H  -18.87500 40.64400 41.42600
H  -15.36000 34.63900 43.17400
H  -14.31800 34.57500 44.63900
H  -14.30800 33.36500 43.25600
H  -10.33000 34.39400 39.74800
H  -6.89300 35.04300 43.58100
H  -6.23000 34.37800 42.00700
H  -7.19500 33.37600 43.06300

