158

Mg 49.41100 34.89300 26.62400
C  47.32300 33.53800 29.30500
C  50.09700 37.59400 28.66600
C  50.90900 36.26700 24.07000
C  48.76500 31.92600 24.95100
N  48.77900 35.44800 28.73700
C  48.00800 34.71200 29.65700
C  47.99300 35.46100 30.98600
C  48.47100 36.87600 30.58100
C  49.14300 36.64900 29.21000
C  47.37300 38.01600 30.76400
C  48.99700 34.84700 32.00100
C  48.65900 34.99900 33.51200
H  47.43500 35.90000 33.82200
N  50.38500 36.66600 26.32800
C  50.60100 37.65700 27.33800
C  51.34300 38.75000 26.79400
C  51.62500 38.36000 25.45000
C  50.99400 37.01700 25.26800
C  51.72600 40.02000 27.56500
C  52.56100 39.06100 24.34700
O  52.75900 38.57200 23.22200
C  53.32900 40.31400 24.70900
N  49.82400 34.21700 24.79600
C  50.43800 34.98800 23.86900
C  50.63000 34.26200 22.53100
C  50.02800 32.82900 22.77400
C  49.50700 33.01000 24.31100
C  49.95600 35.03500 21.37200
C  50.92200 31.60800 22.75300
C  50.64200 30.75900 21.54300
N  48.31000 33.06900 26.94800
C  48.17000 31.96300 26.20800
C  47.20500 31.03500 26.78500
C  46.85100 31.67600 27.95400
C  47.59000 32.90700 28.08300
C  46.57300 29.74500 26.17700
C  45.93000 31.53900 29.04600
O  45.06500 30.68200 29.18200
C  46.19800 32.80300 29.98000
C  46.41300 32.24000 31.39600
O  47.36800 31.67800 31.77400
O  45.28100 32.43100 32.13200
C  45.03200 31.75600 33.41300
H  50.26700 38.45800 29.31200
H  51.36500 36.62300 23.14400
H  48.65800 31.06600 24.28600
H  46.95400 35.50100 31.31100
H  49.30800 37.14300 31.22700
H  47.59000 38.72700 31.56100
H  46.39200 37.56800 30.92200
H  47.18800 38.68300 29.92200
H  49.96000 35.34900 31.91600
H  49.16300 33.77000 31.98900
H  49.50400 35.38800 34.07900
H  48.27200 34.02000 33.79600
H  50.99600 40.19800 28.35500
H  51.49500 40.83300 26.87700
H  52.79100 40.04400 27.79500
H  52.79200 41.21000 24.39800
H  54.33100 40.21900 24.28900
H  53.44900 40.16000 25.78100
H  51.68200 34.13000 22.27700
H  49.19100 32.74700 22.08100
H  50.09800 34.52100 20.42100
H  50.33900 36.05500 21.35600
H  48.87200 35.04100 21.48100
H  50.87400 31.07300 23.70200
H  51.95900 31.93500 22.68200
H  51.41800 30.94500 20.80000
H  49.62000 30.88900 21.18800
H  50.90700 29.75200 21.86300
H  47.03000 28.94500 26.76000
H  46.85500 29.73700 25.12400
H  45.50000 29.61000 26.31300
H  45.38300 33.51200 30.12900
H  45.02900 32.52500 34.18600
H  45.80300 31.02400 33.65300
H  44.11200 31.17100 33.44100
Mg 9.65300 48.47200 25.53700
C  7.61200 48.79200 28.40800
C  12.32500 49.57700 27.47300
C  11.56700 48.32800 22.84100
C  6.81400 47.76200 23.63700
N  9.90100 49.27100 27.63400
C  8.99700 49.14900 28.62200
C  9.56600 49.45800 30.04100
C  11.03500 49.94900 29.65100
C  11.10800 49.54600 28.16200
C  11.25500 51.51100 29.79800
C  9.60600 48.23000 30.96300
C  9.42200 48.55900 32.46100
H  8.94000 47.37600 33.27200
N  11.64200 49.05300 25.15300
C  12.59200 49.30100 26.10500
C  13.89600 49.29500 25.48400
C  13.71200 48.90000 24.11600
C  12.28500 48.80400 23.95600
C  15.24700 49.64400 26.16700
C  14.76500 48.84400 22.99800
O  14.49000 48.69400 21.82300
C  16.24400 48.83100 23.28800
N  9.22000 48.30200 23.56600
C  10.23800 48.08100 22.69800
C  9.78300 47.59400 21.29400
C  8.33900 47.14600 21.64400
C  8.04700 47.76100 23.01500
C  9.86100 48.63400 20.14400
C  8.03000 45.62500 21.61700
C  7.89600 44.77900 22.88500
N  7.59300 48.29500 25.89600
C  6.52900 48.08300 24.98600
C  5.29700 48.13300 25.76500
C  5.66000 48.41400 27.08600
C  7.03100 48.52300 27.13400
C  3.86700 47.85200 25.22900
C  5.12300 48.51300 28.41800
O  3.95900 48.34400 28.82900
C  6.39800 48.60200 29.31000
C  6.29900 47.29600 30.05300
O  6.49500 46.16200 29.56700
O  5.68700 47.52900 31.28700
C  5.30500 46.33900 32.08900
H  13.18200 49.87900 28.07800
H  12.14500 48.16500 21.92900
H  5.95600 47.58800 22.98300
H  9.02800 50.22500 30.59800
H  11.86300 49.53200 30.22400
H  12.15900 51.73100 30.36600
H  10.42800 52.04600 30.26400
H  11.37000 51.93200 28.79900
H  10.61200 47.81400 30.91900
H  8.95400 47.46000 30.55100
H  8.61000 49.28000 32.55700
H  10.33200 48.96700 32.89900
H  15.01300 49.83600 27.21400
H  15.71900 50.52900 25.74000
H  15.88900 48.76400 26.19600
H  16.52400 49.78100 23.74500
H  16.75500 48.56900 22.36200
H  16.29800 48.05100 24.04700
H  10.34600 46.73400 20.93200
H  7.64000 47.65500 20.98000
H  10.69100 49.32800 20.27000
H  8.87300 49.07800 20.01800
H  10.17500 48.08800 19.25400
H  8.78500 45.13100 21.00500
H  7.09700 45.59700 21.05500
H  8.58800 45.13700 23.64700
H  8.12600 43.73100 22.69300
H  6.90300 44.79200 23.33300
H  3.44900 47.54100 26.18600
H  3.78400 46.97100 24.59200
H  3.23400 48.66600 24.87300
H  6.25400 49.37900 30.06100
H  5.97000 45.50700 31.85500
H  4.23800 46.15500 31.96300
H  5.43100 46.37300 33.17100

