158

Mg 25.06400 -8.05600 47.35300
C  27.43000 -5.80600 46.06100
C  22.90600 -7.11200 44.90000
C  23.36900 -10.83600 48.01100
C  27.92400 -9.56700 49.18500
N  25.29700 -6.80300 45.34200
C  26.23600 -5.75900 45.26100
C  25.84200 -4.75400 44.16200
C  24.34300 -5.13600 43.97600
C  24.15900 -6.43700 44.75900
C  23.32400 -4.01100 44.36300
C  26.63900 -4.87900 42.82700
C  27.73200 -3.78300 42.64900
H  27.83400 -3.21200 41.23400
N  23.25100 -8.77200 46.79600
C  22.52100 -8.19500 45.79400
C  21.27900 -8.85500 45.77600
C  21.37000 -9.90700 46.76000
C  22.73600 -9.86700 47.27200
C  20.09500 -8.37400 44.88400
C  20.37400 -10.89100 47.16300
O  19.33100 -10.93300 46.53300
C  20.37500 -11.75200 48.46300
N  25.59000 -9.93000 48.47500
C  24.64200 -10.88500 48.58400
C  25.20500 -12.22000 49.24500
C  26.48900 -11.63700 49.86400
C  26.69000 -10.26100 49.19000
C  24.30600 -12.92900 50.25600
C  27.70100 -12.54900 49.82600
C  28.53900 -12.68700 51.19000
N  27.16600 -7.80600 47.69600
C  28.18100 -8.37400 48.50600
C  29.44300 -7.58900 48.38500
C  29.12400 -6.61100 47.44800
C  27.77700 -6.77000 47.07500
C  30.71400 -7.80600 49.29100
C  29.77600 -5.48000 46.85400
O  30.85600 -4.99400 47.10300
C  28.65000 -4.81000 46.02200
C  28.30800 -3.43200 46.61800
O  27.54300 -3.27900 47.58500
O  28.95800 -2.43000 45.90800
C  28.44700 -1.04100 46.04700
H  22.25800 -6.71900 44.11300
H  22.80400 -11.75400 48.18400
H  28.78000 -10.02700 49.68300
H  25.98900 -3.77800 44.62500
H  24.19200 -5.36900 42.92200
H  22.41600 -4.03200 43.76000
H  23.93200 -3.10800 44.29500
H  23.01900 -4.10000 45.40500
H  25.99100 -4.92600 41.95200
H  27.07200 -5.87100 42.95100
H  28.69600 -4.23600 42.87900
H  27.58800 -2.91900 43.29800
H  20.13200 -7.30400 44.67800
H  19.17100 -8.57800 45.42500
H  20.04200 -8.96600 43.97100
H  20.88900 -12.68800 48.24400
H  19.32200 -11.81400 48.74000
H  20.99100 -11.20600 49.17800
H  25.52100 -12.86600 48.42600
H  26.20500 -11.37600 50.88400
H  24.46800 -12.58500 51.27800
H  24.33700 -14.01700 50.18800
H  23.27100 -12.66600 50.03700
H  28.35300 -12.31100 48.98500
H  27.32900 -13.54200 49.57300
H  29.46600 -12.12000 51.10000
H  28.70300 -13.74600 51.39000
H  27.90000 -12.27000 51.96800
H  30.48400 -8.34600 50.20900
H  31.13500 -6.84800 49.59500
H  31.49700 -8.26700 48.68800
H  28.91500 -4.50000 45.01100
H  28.79200 -0.50900 46.93300
H  27.35800 -1.01900 46.09300
H  28.79500 -0.52100 45.15400
Mg 16.56500 -2.59300 27.81000
C  15.49100 -0.35500 30.44500
C  18.65500 -4.03800 30.00500
C  18.25900 -3.94900 25.06200
C  14.62400 -0.69700 25.65400
N  16.99300 -2.19300 29.95800
C  16.41500 -1.35600 30.83700
C  16.98700 -1.51200 32.23800
C  18.18800 -2.55100 31.98000
C  17.91800 -2.97700 30.55700
C  19.63000 -2.11800 32.32400
C  15.93100 -1.98800 33.25100
C  16.17900 -1.70300 34.73100
H  17.51500 -1.20500 35.26200
N  18.17200 -3.93600 27.55400
C  18.84500 -4.45600 28.65200
C  19.66600 -5.58200 28.20200
C  19.59300 -5.49500 26.78800
C  18.59900 -4.47100 26.39500
C  20.33500 -6.57900 29.15800
C  20.45100 -6.24700 25.76600
O  20.42300 -6.04600 24.51400
C  21.29000 -7.52500 26.30500
N  16.47500 -2.34800 25.75900
C  17.27600 -2.98200 24.77100
C  16.92600 -2.56200 23.31800
C  15.66000 -1.58700 23.54000
C  15.56000 -1.54900 25.08700
C  18.04500 -1.89100 22.53700
C  14.31800 -2.01200 22.81000
C  13.68000 -0.96500 21.82700
N  15.30500 -0.90700 27.95700
C  14.56800 -0.27100 26.95800
C  13.77000 0.89200 27.56200
C  14.02700 0.82000 28.88400
C  14.98700 -0.21600 29.08300
C  13.01500 1.88100 26.85500
C  13.75200 1.47900 30.14300
O  13.00400 2.41900 30.45800
C  14.67500 0.73900 31.22100
C  15.67100 1.68900 31.81600
O  16.18100 2.62600 31.23100
O  15.90400 1.41000 33.18500
C  16.72600 2.48200 33.81000
H  19.12900 -4.61900 30.79900
H  18.62900 -4.31000 24.10000
H  13.89100 -0.16000 25.04800
H  17.42800 -0.55100 32.50200
H  18.01000 -3.46600 32.54500
H  19.73300 -1.03400 32.27200
H  20.33800 -2.67200 31.70800
H  19.96500 -2.40500 33.32100
H  15.89800 -3.07100 33.12900
H  14.96400 -1.56500 32.97900
H  15.97100 -2.68800 35.15000
H  15.28900 -1.19700 35.10700
H  21.40200 -6.36000 29.12000
H  20.27900 -7.60100 28.78300
H  20.02900 -6.53700 30.20300
H  20.54600 -8.19100 26.74300
H  22.12000 -7.20400 26.93300
H  21.71400 -8.15600 25.52400
H  16.58700 -3.48100 22.84200
H  15.96800 -0.54600 23.44300
H  18.27300 -2.54600 21.69600
H  18.92000 -1.76900 23.17600
H  17.80700 -0.87000 22.23800
H  13.58700 -2.15600 23.60600
H  14.39300 -3.02100 22.40300
H  13.64400 -1.48900 20.87200
H  14.42700 -0.19300 21.63900
H  12.71100 -0.54200 22.09100
H  13.41900 2.11200 25.86900
H  12.92200 2.80000 27.43500
H  12.03200 1.41200 26.81200
H  14.11100 0.29100 32.03900
H  16.59600 3.47600 33.38200
H  17.81200 2.39900 33.77500
H  16.47100 2.69200 34.84800

