158

Mg -1.23200 17.26600 26.73000
C  -1.64400 15.09100 29.38600
C  -1.73800 19.93100 28.93600
C  -1.17100 19.36400 24.15700
C  -1.43000 14.65400 24.53900
N  -1.65700 17.44000 28.89300
C  -1.75500 16.41500 29.83200
C  -1.90200 16.96300 31.29400
C  -2.18900 18.48200 31.01900
C  -1.88000 18.67900 29.53100
C  -3.60200 19.02000 31.46500
C  -0.70900 16.68700 32.28600
C  -0.68300 17.60000 33.54900
H  -0.58400 16.95200 34.94000
N  -1.29500 19.31300 26.58400
C  -1.37300 20.25800 27.62400
C  -1.23100 21.52700 27.07600
C  -1.07100 21.43000 25.65100
C  -1.08000 19.97600 25.41600
C  -1.36200 22.80200 27.94200
C  -1.01000 22.58500 24.66800
O  -0.97500 22.41700 23.46700
C  -0.78200 24.02200 25.07600
N  -1.25700 17.11300 24.67700
C  -1.30500 18.10900 23.79700
C  -1.52500 17.64100 22.35500
C  -1.24100 16.07100 22.48300
C  -1.29100 15.91700 24.00300
C  -2.87500 17.96700 21.83600
C  0.15600 15.61900 22.01400
C  0.41900 15.81300 20.52300
N  -1.34100 15.28700 26.81900
C  -1.38100 14.36500 25.94400
C  -1.36700 13.04100 26.51800
C  -1.47200 13.24900 27.84800
C  -1.55000 14.67900 28.01500
C  -1.35900 11.84000 25.65400
C  -1.63600 12.61000 29.12200
O  -1.74800 11.40600 29.37800
C  -1.82500 13.79900 30.17100
C  -0.93200 13.43300 31.24500
O  0.25700 13.64500 31.34100
O  -1.69700 12.85300 32.28900
C  -0.80600 12.41500 33.43200
H  -1.98900 20.77700 29.58000
H  -1.13700 20.08500 23.33700
H  -1.41600 13.78400 23.87900
H  -2.83800 16.70600 31.79000
H  -1.55600 19.19800 31.54500
H  -3.94600 19.67900 30.66800
H  -3.43800 19.59800 32.37400
H  -4.38500 18.33100 31.78000
H  0.18300 16.85500 31.68200
H  -0.73100 15.68700 32.71700
H  -1.58200 18.20500 33.66600
H  0.18400 18.25800 33.48900
H  -2.28100 23.28400 27.60700
H  -0.47300 23.41000 27.77600
H  -1.35600 22.62900 29.01900
H  0.03500 24.15100 25.78500
H  -1.74700 24.33600 25.47300
H  -0.40300 24.47500 24.16000
H  -0.69700 18.11700 21.83100
H  -1.92100 15.37000 21.99900
H  -3.10200 18.95600 22.23400
H  -3.56500 17.14700 22.03600
H  -2.81200 18.11200 20.75700
H  0.31700 14.57200 22.27300
H  0.80100 16.31100 22.55500
H  0.62500 14.87900 19.99900
H  1.28000 16.44900 20.31800
H  -0.41900 16.26900 19.99500
H  -2.30900 11.78600 25.12100
H  -1.28900 11.03800 26.38800
H  -0.58800 11.65200 24.90600
H  -2.86100 13.60500 30.45000
H  -0.42700 13.21700 34.06600
H  0.04300 11.77300 33.20000
H  -1.47600 11.94700 34.15200
Mg 40.11600 41.25300 27.49200
C  39.23200 43.65800 29.90800
C  41.12500 39.18000 30.10900
C  41.10200 39.22000 25.18500
C  39.34200 43.74600 25.08400
N  40.12100 41.38000 29.74100
C  39.63800 42.43300 30.47800
C  39.72300 42.13000 32.01600
C  40.37500 40.70100 32.06100
C  40.50000 40.35200 30.56800
C  41.65600 40.75000 32.92200
C  38.36300 42.14900 32.79900
C  38.21700 41.27200 34.02700
H  37.32800 41.86800 35.15100
N  41.00500 39.38600 27.65000
C  41.31300 38.73300 28.77300
C  42.00900 37.46800 28.38700
C  42.00800 37.41800 26.92100
C  41.35100 38.69400 26.50900
C  42.34200 36.42200 29.44700
C  42.63000 36.39200 25.97900
O  42.56500 36.53000 24.73800
C  43.35800 35.22800 26.59400
N  40.16600 41.44100 25.40400
C  40.65600 40.44100 24.66000
C  40.54400 40.76400 23.21300
C  39.62100 42.04000 23.21800
C  39.62200 42.43400 24.67600
C  41.90100 40.93400 22.39200
C  38.20700 41.82400 22.70900
C  37.16500 40.87200 23.49500
N  39.56600 43.27900 27.49000
C  39.43200 44.24900 26.42700
C  39.21300 45.54100 26.95700
C  39.06100 45.28600 28.29300
C  39.26500 43.96900 28.56600
C  38.97300 46.84000 26.20900
C  38.67000 46.06100 29.55000
O  38.35300 47.21700 29.75400
C  38.76600 44.94400 30.67400
C  39.74000 45.38500 31.61700
O  40.95400 45.54500 31.33600
O  39.14400 45.84600 32.78700
C  40.00400 46.69900 33.67800
H  41.36400 38.46400 30.89800
H  41.43400 38.50200 24.43300
H  38.98100 44.32300 24.23000
H  40.37900 42.87300 32.47000
H  39.68500 39.96300 32.47100
H  41.48100 40.20000 33.84700
H  42.00500 41.73400 33.23500
H  42.46200 40.24400 32.39100
H  37.67100 41.89200 31.99800
H  38.10700 43.15300 33.13700
H  39.23700 41.13300 34.38500
H  37.85300 40.30900 33.66700
H  43.41200 36.23600 29.54700
H  41.82400 35.52200 29.11700
H  42.07700 36.59500 30.49000
H  44.26300 35.48200 27.14600
H  43.59000 34.63000 25.71300
H  42.64500 34.62300 27.15500
H  39.94200 39.98000 22.75500
H  40.20100 42.83800 22.75600
H  41.95000 40.17800 21.60900
H  42.66600 40.78900 23.15600
H  42.02600 41.95300 22.02500
H  38.30400 41.44700 21.69100
H  37.72600 42.80200 22.68300
H  36.93100 39.99100 22.89700
H  36.22000 41.40100 23.61700
H  37.69400 40.63000 24.41700
H  39.03500 46.82300 25.12100
H  39.67500 47.59900 26.55500
H  37.96900 47.17000 26.47500
H  37.83100 44.74900 31.20000
H  40.74800 47.32000 33.17800
H  40.57800 46.04500 34.33400
H  39.33700 47.25400 34.33800

