158

Mg 0.87800 8.30800 27.22400
C  1.72500 10.17700 30.06400
C  0.82600 5.49000 29.31400
C  0.69300 6.47700 24.54700
C  1.59100 11.14100 25.31600
N  1.31400 7.94300 29.49000
C  1.33400 8.91900 30.45200
C  1.05500 8.29900 31.86100
C  1.13700 6.75000 31.54700
C  1.13900 6.67100 29.99300
C  2.27500 5.99200 32.23700
C  -0.32000 8.81300 32.48600
C  -0.68000 8.41600 33.91800
H  0.40600 8.17600 35.03200
N  0.72900 6.38000 27.00500
C  0.63000 5.38300 27.98200
C  0.30800 4.06400 27.29600
C  0.39500 4.33700 25.89200
C  0.54300 5.78600 25.74800
C  0.07300 2.66200 27.92300
C  0.37300 3.26600 24.73800
O  0.33600 3.66100 23.58700
C  0.34400 1.87000 25.00200
N  1.20900 8.74400 25.22900
C  0.91100 7.84100 24.26500
C  1.16200 8.35800 22.86000
C  1.15500 9.90000 23.14800
C  1.26000 9.94700 24.66400
C  2.54300 7.98000 22.21400
C  -0.07400 10.76700 22.73200
C  -1.43300 10.10000 22.67200
N  1.44600 10.27000 27.57700
C  1.78600 11.30000 26.68200
C  2.03200 12.52600 27.35200
C  2.14200 12.07700 28.68800
C  1.79900 10.69700 28.77100
C  2.22100 13.87600 26.83400
C  2.45800 12.53900 30.03400
O  2.87800 13.58500 30.46700
C  2.18700 11.32600 30.95500
C  3.34900 11.01400 31.88800
O  4.37300 10.36700 31.62700
O  3.14000 11.68400 33.07200
C  4.08100 11.46400 34.11500
H  0.62800 4.63800 29.96800
H  0.48400 5.86900 23.66400
H  1.70400 12.06300 24.74100
H  1.93000 8.48900 32.48300
H  0.27800 6.27300 32.01800
H  2.71400 6.63600 32.99900
H  2.96400 5.49400 31.55600
H  1.72600 5.18400 32.72000
H  -1.13400 8.57200 31.80200
H  -0.17300 9.89000 32.40400
H  -1.23900 7.48100 33.87400
H  -1.39100 9.12400 34.34200
H  0.82100 1.90100 27.70100
H  -0.80400 2.15900 27.51400
H  -0.08200 2.70300 29.00100
H  1.21700 1.45500 25.50500
H  0.43200 1.44700 24.00100
H  -0.58600 1.40200 25.32400
H  0.36800 8.07000 22.17000
H  2.00300 10.46800 22.76600
H  3.11700 8.80900 21.80000
H  2.28300 7.35300 21.36100
H  3.11500 7.37600 22.91800
H  0.13800 11.12200 21.72400
H  -0.29200 11.56700 23.43900
H  -1.84700 9.85000 21.69500
H  -2.20200 10.71200 23.14400
H  -1.33800 9.19100 23.26700
H  1.27400 14.41600 26.84400
H  2.68600 13.77100 25.85300
H  2.96400 14.39400 27.44000
H  1.32500 11.62000 31.55400
H  4.57100 12.42800 34.25100
H  4.78400 10.63200 34.14100
H  3.59500 11.31200 35.07800
Mg -5.06400 25.46400 25.66500
C  -3.88300 27.03900 28.68400
C  -6.56800 23.10400 27.69400
C  -5.71700 23.86000 22.90300
C  -3.00600 27.84400 23.93000
N  -5.18900 25.16200 27.93600
C  -4.87100 26.00500 28.91700
C  -5.49600 25.68300 30.26200
C  -6.24600 24.35000 29.92200
C  -5.96300 24.14100 28.38800
C  -5.87600 23.17700 30.84000
C  -6.37300 26.86300 30.82300
C  -6.32900 26.99900 32.39700
H  -5.72000 25.86200 33.30400
N  -6.01100 23.68000 25.33700
C  -6.61700 22.89100 26.23800
C  -7.48200 21.93900 25.51600
C  -7.35600 22.28400 24.09200
C  -6.30400 23.25300 24.04500
C  -8.48600 21.06500 26.27000
C  -8.12100 21.65500 22.95200
O  -7.99900 22.03400 21.79600
C  -9.21500 20.75400 23.32200
N  -4.59200 25.93100 23.76900
C  -4.88900 25.01800 22.73000
C  -4.39700 25.51000 21.36300
C  -3.64600 26.79000 21.68900
C  -3.82900 26.90900 23.22400
C  -3.53100 24.44300 20.67700
C  -4.02800 28.06800 20.88800
C  -5.15400 29.03700 21.50800
N  -3.79200 27.26100 26.13400
C  -3.01100 28.01100 25.36200
C  -2.27600 28.95600 26.21700
C  -2.61000 28.63800 27.54500
C  -3.60900 27.58900 27.42800
C  -1.33900 30.03800 25.73800
C  -2.31200 28.93500 28.93400
O  -1.58400 29.76000 29.48000
C  -3.07800 27.85900 29.71500
C  -2.34300 27.01100 30.60300
O  -2.07200 25.82200 30.37100
O  -2.05600 27.69200 31.72100
C  -1.27400 27.01700 32.79000
H  -7.28200 22.57600 28.32900
H  -5.90700 23.35600 21.95300
H  -2.45100 28.43400 23.19700
H  -4.61000 25.52100 30.87600
H  -7.31500 24.51600 30.05300
H  -6.75600 23.03500 31.46800
H  -4.96000 23.35900 31.40200
H  -5.70500 22.29500 30.22300
H  -7.41000 26.70600 30.52600
H  -6.13300 27.81700 30.35400
H  -7.34700 27.08200 32.77600
H  -5.82800 27.94400 32.60800
H  -8.27200 20.04300 25.95800
H  -9.55600 21.27200 26.26900
H  -8.20000 21.04000 27.32100
H  -9.93700 20.58500 22.52400
H  -9.83200 21.27100 24.05800
H  -8.80200 19.84500 23.75800
H  -5.27000 25.72800 20.74800
H  -2.60500 26.54300 21.48100
H  -2.46400 24.65900 20.74100
H  -3.85000 24.31600 19.64300
H  -3.67200 23.52400 21.24600
H  -4.37200 27.78100 19.89500
H  -3.06000 28.57000 20.91800
H  -5.97600 29.08300 20.79400
H  -4.71000 29.98200 21.82200
H  -5.65100 28.71800 22.42500
H  -1.28100 30.14000 24.65400
H  -0.36300 29.75600 26.13400
H  -1.61100 30.96100 26.25000
H  -3.76900 28.50200 30.26100
H  -1.87400 26.22900 33.24600
H  -1.07300 27.78100 33.54100
H  -0.42300 26.46100 32.39800

