158

Mg 49.89100 44.61400 41.46600
C  46.66700 45.09500 40.17200
C  49.92700 41.48200 40.01400
C  53.26000 44.40800 41.82100
C  50.06900 48.05500 42.14300
N  48.44800 43.42800 40.31600
C  47.20000 43.78900 39.96500
C  46.50000 42.72500 39.07000
C  47.49500 41.44200 39.35500
C  48.68600 42.13600 39.88700
C  46.91600 40.39000 40.32900
C  46.47200 43.14900 37.57000
C  45.16200 43.15500 36.69900
H  45.34000 42.55500 35.34600
N  51.38400 43.04500 41.17700
C  51.20000 41.87100 40.54000
C  52.42500 41.09800 40.66500
C  53.44400 42.00000 41.09100
C  52.67600 43.22600 41.39600
C  52.40600 39.66100 40.15700
C  54.87800 41.64100 41.28300
O  55.22400 40.49100 41.03400
C  55.93000 42.56400 41.77800
N  51.38000 46.08000 41.94900
C  52.65200 45.66100 42.08000
C  53.54400 46.83300 42.55000
C  52.60700 48.08500 42.40000
C  51.27800 47.38100 42.21700
C  54.30000 46.62400 43.87600
C  52.95400 49.05700 41.17400
C  53.17800 50.53600 41.53600
N  48.56900 46.20500 41.42800
C  48.77200 47.57000 41.74400
C  47.57300 48.35400 41.41100
C  46.77100 47.37100 40.73900
C  47.38200 46.16500 40.80600
C  47.39600 49.86200 41.50800
C  45.54800 47.24400 39.94700
O  44.79600 48.11100 39.51200
C  45.39300 45.75500 39.52700
C  44.19600 45.23700 40.08600
O  44.10500 44.59500 41.13200
O  43.18600 45.51800 39.19600
C  41.90800 45.00900 39.51300
H  49.93600 40.44000 39.69000
H  54.33800 44.48900 41.97900
H  50.15000 49.12800 42.32800
H  45.50200 42.61100 39.49500
H  47.68600 40.88300 38.43900
H  47.31300 39.40500 40.08100
H  45.84200 40.56800 40.28400
H  47.21400 40.54400 41.36600
H  47.29000 42.60700 37.09500
H  46.93700 44.13300 37.51800
H  44.84500 44.17400 36.47900
H  44.33500 42.67500 37.22300
H  53.30500 39.12800 40.46800
H  52.61000 39.63600 39.08600
H  51.45700 39.17000 40.37200
H  55.62700 43.13300 42.65700
H  56.00800 43.21600 40.90900
H  56.89400 42.08100 41.93900
H  54.36200 46.73800 41.83600
H  52.51800 48.61800 43.34600
H  55.34800 46.78400 43.62200
H  54.00300 45.65800 44.28300
H  53.86500 47.32800 44.58500
H  52.12100 48.93900 40.48000
H  53.86300 48.62400 40.75500
H  54.11200 50.93700 41.14100
H  53.12900 50.69500 42.61300
H  52.33100 51.11700 41.17000
H  47.03300 49.99800 42.52600
H  46.76900 50.32000 40.74200
H  48.35400 50.37300 41.40600
H  45.42400 45.65000 38.44300
H  41.83700 44.77600 40.57600
H  41.59600 44.04400 39.11600
H  41.22100 45.80500 39.22800
Mg -3.40400 35.22200 26.67700
C  -4.95300 33.90800 29.39400
C  -2.69100 38.07300 28.71300
C  -1.49500 36.47900 24.22100
C  -4.71800 32.87400 24.62000
N  -3.62100 35.76000 28.85200
C  -4.30300 35.05800 29.76900
C  -4.28700 35.69200 31.12900
C  -3.88800 37.13900 30.85600
C  -3.34200 37.01100 29.37400
C  -5.09700 38.13200 30.93400
C  -3.37600 34.90000 32.07600
C  -3.41800 35.29600 33.55800
H  -3.43400 34.11400 34.53100
N  -2.28000 37.04600 26.47600
C  -2.10200 38.09900 27.37500
C  -1.27400 39.15600 26.83100
C  -0.86400 38.66100 25.53500
C  -1.58900 37.35300 25.37000
C  -0.94500 40.31600 27.62700
C  0.06200 39.35500 24.52800
O  0.34000 38.90700 23.42800
C  0.77900 40.65900 24.96400
N  -3.24100 34.83400 24.60400
C  -2.24100 35.36500 23.86400
C  -2.09300 34.76400 22.53800
C  -3.11000 33.56700 22.65200
C  -3.72500 33.69700 24.04100
C  -2.36000 35.65500 21.24700
C  -2.43200 32.21300 22.37000
C  -3.33400 31.05900 21.91600
N  -4.62600 33.70700 26.86500
C  -5.18200 32.86400 25.95300
C  -6.14200 31.99400 26.57500
C  -6.07300 32.32600 27.92600
C  -5.10000 33.36200 28.05000
C  -7.01800 30.93300 25.98900
C  -6.48000 31.96000 29.29400
O  -7.18300 31.12100 29.78600
C  -5.81600 33.02100 30.25100
C  -6.93900 33.59000 31.03000
O  -7.75600 34.42300 30.57400
O  -6.96900 33.11500 32.28500
C  -7.99100 33.66700 33.19500
H  -2.71600 38.94300 29.37100
H  -0.71700 36.88300 23.57000
H  -5.18600 32.11900 23.98400
H  -5.28800 35.62100 31.55600
H  -3.10300 37.29800 31.59500
H  -5.19400 38.64800 31.88900
H  -6.01200 37.55200 30.81400
H  -4.98300 38.80000 30.08100
H  -2.34100 35.15800 31.85200
H  -3.34500 33.81900 31.94300
H  -4.34600 35.80700 33.81600
H  -2.68300 36.07800 33.74900
H  -1.48600 41.14600 27.17300
H  0.10300 40.61700 27.63500
H  -1.17800 40.21000 28.68600
H  0.11300 41.42500 25.36200
H  1.31900 41.04700 24.10000
H  1.54700 40.25600 25.62500
H  -1.05300 34.43900 22.49900
H  -4.00900 33.73600 22.06000
H  -3.01400 35.15400 20.53400
H  -1.46000 36.10900 20.83300
H  -3.02600 36.45500 21.57000
H  -2.00400 31.75900 23.26400
H  -1.66100 32.39000 21.62000
H  -3.30500 30.26500 22.66100
H  -3.00700 30.71900 20.93300
H  -4.39300 31.30800 21.84100
H  -7.81200 30.73900 26.71000
H  -6.40100 30.04300 25.86600
H  -7.47400 31.29000 25.06600
H  -5.25000 32.33700 30.88300
H  -8.95700 33.73500 32.69500
H  -7.66400 34.59900 33.65800
H  -8.16300 32.96200 34.00800

