158

Mg 17.34100 52.57500 26.83300
C  19.63700 51.04600 28.94700
C  15.45200 53.30900 29.67500
C  15.07100 53.87700 24.88500
C  19.11500 51.46200 24.04800
N  17.53100 52.09700 29.05600
C  18.53100 51.50900 29.69300
C  18.33500 51.58100 31.23400
C  16.84400 51.97300 31.35200
C  16.60500 52.54500 29.97100
C  15.79500 50.87100 31.78700
C  19.29900 52.62200 31.85100
C  19.31300 52.69000 33.46400
H  18.24200 51.96900 34.27400
N  15.56200 53.57400 27.26300
C  14.95400 53.81300 28.48200
C  13.76600 54.62200 28.28100
C  13.67700 54.75500 26.81500
C  14.83000 54.02700 26.24300
C  12.77500 55.12800 29.34800
C  12.70100 55.51400 25.96300
O  12.66100 55.57100 24.73700
C  11.70200 56.31100 26.64900
N  17.05600 52.42300 24.79900
C  16.08100 53.18000 24.22500
C  16.16200 53.10100 22.64400
C  17.55800 52.39700 22.41500
C  17.92000 52.08700 23.81200
C  14.98600 52.32600 22.02200
C  18.64900 53.33400 21.88200
C  19.75400 52.80100 21.02400
N  19.00600 51.44500 26.50800
C  19.64100 51.09700 25.32500
C  20.79900 50.29600 25.72900
C  20.82600 50.22800 27.13200
C  19.73900 51.08000 27.52900
C  21.78800 49.64400 24.84100
C  21.58200 49.73700 28.30100
O  22.57900 48.95600 28.43200
C  20.71000 50.12900 29.42800
C  20.26100 48.96100 30.22200
O  19.75800 47.96000 29.73100
O  20.44500 49.25700 31.54300
C  20.19700 48.13500 32.36700
H  14.88700 53.50600 30.58800
H  14.61700 54.51800 24.12700
H  19.79300 51.14000 23.25400
H  18.52500 50.60600 31.68300
H  16.70800 52.84800 31.98700
H  14.97800 51.32200 32.34900
H  16.35000 50.14200 32.37800
H  15.44400 50.41100 30.86300
H  19.04200 53.56000 31.35800
H  20.26800 52.25700 31.51300
H  19.22100 53.76700 33.60700
H  20.33000 52.47100 33.78900
H  12.50900 56.18400 29.30200
H  13.27100 54.95500 30.30400
H  11.87600 54.52200 29.23800
H  10.97600 55.75200 27.23900
H  11.15200 56.97100 25.97600
H  12.26300 57.01200 27.26700
H  16.27400 54.04600 22.11200
H  17.40700 51.50200 21.81200
H  14.75500 51.45200 22.63100
H  15.42600 52.03800 21.06700
H  14.06700 52.89900 21.90000
H  19.17500 53.88500 22.66100
H  18.25000 54.11100 21.22900
H  19.80000 53.38400 20.10500
H  19.58200 51.76600 20.72900
H  20.72000 52.82000 21.52800
H  22.54400 49.12100 25.42600
H  22.24800 50.47400 24.30400
H  21.39700 48.85900 24.19400
H  21.41200 50.69700 30.03800
H  19.19700 48.20100 32.79400
H  20.85100 48.17400 33.23900
H  20.39400 47.14200 31.96300
Mg -10.60500 38.74000 42.16000
C  -8.66700 36.00500 41.34700
C  -8.28800 40.83600 40.42800
C  -12.84600 41.31000 42.33900
C  -13.15400 36.55000 43.21500
N  -8.72200 38.44600 40.99800
C  -8.14200 37.22600 40.81100
C  -6.81500 37.31500 40.03600
C  -6.54200 38.88800 40.09600
C  -7.96100 39.46200 40.54300
C  -5.44500 39.26800 41.18200
C  -6.93500 36.70900 38.55800
C  -5.86800 35.70900 38.15900
H  -4.85800 36.14700 37.07400
N  -10.47300 40.87200 41.56600
C  -9.41700 41.51800 40.96100
C  -9.74300 42.94100 40.99500
C  -11.11100 43.11400 41.46500
C  -11.52400 41.71400 41.83200
C  -8.77900 43.98500 40.58300
C  -11.88900 44.43200 41.58200
O  -11.20100 45.43400 41.42800
C  -13.32900 44.45500 41.93800
N  -12.75200 38.88700 42.45100
C  -13.36200 40.06400 42.61700
C  -14.75700 39.94500 43.23200
C  -14.91600 38.38500 43.23400
C  -13.49400 37.88900 42.99500
C  -14.84500 40.70200 44.56300
C  -15.83400 37.65000 42.15000
C  -17.14000 36.87300 42.65600
N  -10.88300 36.69500 42.28500
C  -11.93100 35.89100 42.80100
C  -11.56000 34.51100 42.94200
C  -10.21600 34.49100 42.41600
C  -9.88500 35.85200 42.05100
C  -12.31900 33.46600 43.64900
C  -9.08300 33.69900 42.15500
O  -8.85200 32.48600 42.30200
C  -7.99100 34.68400 41.42800
C  -6.74700 34.64600 42.21500
O  -6.03100 33.67100 42.18200
O  -6.39700 35.79100 42.91800
C  -5.20300 35.70500 43.82700
H  -7.46900 41.44400 40.03800
H  -13.67000 42.00100 42.53200
H  -13.91500 35.93500 43.70000
H  -6.02400 36.72600 40.50000
H  -6.38500 39.33500 39.11500
H  -5.86600 39.51400 42.15700
H  -4.88000 40.11200 40.78600
H  -4.82500 38.39100 41.36900
H  -6.89600 37.58100 37.90600
H  -7.90100 36.24900 38.35200
H  -6.41600 34.83700 37.80200
H  -5.30400 35.52500 39.07300
H  -9.06100 44.46500 39.64500
H  -7.76800 43.59000 40.48400
H  -8.66900 44.80300 41.29400
H  -13.48800 44.18000 42.98100
H  -13.72600 43.62000 41.36100
H  -13.89200 45.33700 41.63400
H  -15.46500 40.35100 42.51000
H  -15.27700 37.98400 44.18100
H  -15.10600 41.73600 44.33800
H  -13.89300 40.56800 45.07800
H  -15.67700 40.33900 45.16500
H  -15.24100 37.00400 41.50300
H  -16.15700 38.42900 41.46000
H  -17.04600 36.87300 43.74200
H  -17.23400 35.86000 42.26500
H  -18.00100 37.47300 42.36000
H  -11.65600 32.82900 44.23500
H  -12.78000 32.90000 42.83900
H  -13.15900 33.70600 44.30100
H  -7.87900 34.37800 40.38700
H  -4.29400 35.98000 43.29300
H  -5.05300 34.83900 44.47200
H  -5.55900 36.40800 44.57900

