158

Mg 40.81700 9.90700 30.07500
C  42.38300 10.95200 32.94500
C  38.04600 8.90300 31.87900
C  39.52000 8.66700 27.15800
C  43.49900 11.23900 28.21200
N  40.35900 9.71800 32.21000
C  41.09300 10.34200 33.14600
C  40.31800 10.51200 34.45000
C  39.09900 9.63700 34.19400
C  39.09000 9.45500 32.63000
C  38.90700 8.28300 34.98300
C  40.05600 11.99900 34.76200
C  39.56300 12.20500 36.15500
H  40.44600 13.02100 37.09700
N  39.02700 8.94900 29.59300
C  38.00200 8.56800 30.45900
C  37.04700 7.69300 29.67500
C  37.46000 7.66700 28.33500
C  38.69400 8.48700 28.28400
C  35.86300 7.06900 30.28700
C  36.82200 6.96900 27.15500
O  37.24100 7.15600 26.06600
C  35.61200 6.26300 27.30400
N  41.47300 9.89200 27.95100
C  40.67000 9.37600 26.98900
C  41.27100 9.69200 25.64400
C  42.40600 10.77900 25.99200
C  42.48000 10.69400 27.45200
C  41.73000 8.47900 24.72800
C  42.13000 12.21400 25.43600
C  41.01600 12.97500 26.14100
N  42.68500 10.69900 30.44900
C  43.63500 11.20400 29.59500
C  44.74400 11.67700 30.40300
C  44.30100 11.64400 31.71200
C  43.02800 11.09600 31.71600
C  45.98500 12.26600 29.85300
C  44.57600 12.03200 33.05200
O  45.58400 12.57600 33.56000
C  43.33500 11.60000 33.91600
C  43.80400 10.66300 34.94300
O  44.49600 9.64800 34.65500
O  43.40800 11.13800 36.21800
C  43.66700 10.21100 37.31900
H  37.10100 8.63200 32.35400
H  39.29200 8.16400 26.21500
H  44.27600 11.63700 27.55700
H  40.80100 10.02200 35.29500
H  38.22800 10.17500 34.56900
H  39.84600 8.16000 35.52200
H  38.76500 7.42300 34.32800
H  38.09100 8.44500 35.68800
H  39.31200 12.40800 34.07800
H  40.96800 12.58000 34.62800
H  39.44800 11.31900 36.78000
H  38.59800 12.70600 36.07400
H  35.09700 7.83500 30.17600
H  35.99300 6.88900 31.35500
H  35.66700 6.06600 29.90600
H  35.42100 5.98400 26.26700
H  34.85400 7.02200 27.49400
H  35.62300 5.34100 27.88400
H  40.56300 10.30300 25.08400
H  43.38500 10.42800 25.66500
H  41.30700 7.54400 25.09600
H  42.80600 8.31600 24.66000
H  41.31700 8.73100 23.75100
H  41.92500 12.01500 24.38400
H  43.03400 12.81300 25.54100
H  41.31900 13.99300 26.38800
H  40.55200 12.48100 26.99500
H  40.23600 13.07100 25.38700
H  46.66400 12.44500 30.68700
H  45.64800 13.05400 29.18000
H  46.51600 11.54800 29.22900
H  43.03100 12.53300 34.39100
H  44.46600 9.49200 37.13900
H  42.74000 9.74900 37.65800
H  43.99600 10.86100 38.13000
Mg 43.19800 41.44500 26.41400
C  42.29100 43.77600 28.85400
C  44.37200 39.43900 28.84800
C  44.07800 39.28200 23.98800
C  42.43900 43.82900 23.96600
N  43.39900 41.63900 28.66000
C  42.74100 42.56300 29.41400
C  42.82100 42.15600 30.91800
C  43.58500 40.82400 30.78500
C  43.87500 40.67000 29.34300
C  44.90300 40.59100 31.65100
C  41.40000 42.08800 31.57300
C  41.25100 42.89900 32.84900
H  40.71300 42.12100 34.10500
N  44.19500 39.62400 26.42700
C  44.58700 38.92900 27.55300
C  45.27400 37.67000 27.07500
C  45.12500 37.63400 25.65600
C  44.47300 38.86000 25.25200
C  45.76700 36.60500 28.02200
C  45.59900 36.52700 24.60900
O  45.68500 36.72100 23.38700
C  45.98100 35.20600 25.27300
N  43.42800 41.58800 24.26300
C  43.67700 40.50600 23.48500
C  43.42000 40.84600 21.98700
C  42.91100 42.33000 22.01300
C  42.87500 42.59700 23.54000
C  44.65900 40.67200 21.11100
C  41.56000 42.57500 21.37700
C  41.37500 43.97200 20.71700
N  42.37500 43.32400 26.39400
C  42.20300 44.17100 25.29700
C  41.57200 45.42100 25.74400
C  41.58400 45.34200 27.19500
C  42.17200 44.05200 27.51500
C  41.22800 46.52600 24.92600
C  41.45200 46.06600 28.45700
O  41.18000 47.24400 28.62700
C  41.77800 45.03200 29.60300
C  42.89500 45.59300 30.40000
O  44.09900 45.49100 30.15700
O  42.40800 46.06300 31.61000
C  43.42400 46.13600 32.71400
H  44.79000 38.76900 29.60300
H  44.05800 38.54700 23.18100
H  42.27000 44.52900 23.14500
H  43.50500 42.88600 31.35100
H  42.91400 39.98200 30.95100
H  44.80900 39.60800 32.11400
H  44.83600 41.22500 32.53500
H  45.80900 40.66000 31.04800
H  41.21700 41.03800 31.80300
H  40.78900 42.33200 30.70400
H  40.53200 43.64300 32.50700
H  42.19700 43.40800 33.03600
H  45.33200 35.60800 28.08100
H  45.87100 37.03000 29.02100
H  46.76800 36.34800 27.67500
H  45.23700 34.94100 26.02300
H  46.97200 35.38700 25.68800
H  46.01000 34.47900 24.46100
H  42.59800 40.25000 21.59000
H  43.61300 43.08200 21.65200
H  44.65400 41.54900 20.46500
H  44.50500 39.71600 20.60900
H  45.55200 40.67600 21.73600
H  40.77500 42.54300 22.13200
H  41.41900 41.79300 20.63100
H  40.64400 44.45300 21.36800
H  40.92500 43.79400 19.74100
H  42.33300 44.49100 20.69000
H  40.31500 46.94900 25.34300
H  40.94100 46.13900 23.94800
H  42.02700 47.25200 24.77200
H  40.84200 44.75800 30.09100
H  44.12200 45.30100 32.66300
H  43.02000 46.04000 33.72200
H  43.91500 47.10400 32.82200

