158

Mg 6.31500 54.15500 41.17800
C  5.42200 50.65900 40.58800
C  9.39600 53.53500 40.08500
C  6.76500 57.41800 41.39400
C  2.80400 54.60500 41.72100
N  7.20500 52.21300 40.32400
C  6.74400 50.88900 40.28100
C  7.88000 49.95300 40.00800
C  9.18400 50.92600 39.90300
C  8.61400 52.31100 40.10500
C  10.29300 50.60200 40.87300
C  7.67500 49.13300 38.67300
C  7.09200 49.87500 37.49100
H  6.25400 49.11100 36.40300
N  7.94300 55.39500 40.88200
C  9.15600 54.90600 40.38200
C  10.02300 56.05000 40.29500
C  9.30500 57.19700 40.78000
C  7.94500 56.73400 41.03100
C  11.43000 56.02000 39.78700
C  9.81600 58.59700 40.92700
O  11.02400 58.85400 40.77800
C  9.00400 59.74800 41.28000
N  4.97000 55.72700 41.52700
C  5.42400 57.02200 41.58400
C  4.32700 57.97700 42.01300
C  3.05300 57.05800 42.05500
C  3.59600 55.68300 41.78400
C  4.59400 58.64200 43.35100
C  1.82700 57.44500 41.25300
C  1.89000 57.33700 39.75000
N  4.50600 52.95200 41.23800
C  3.17100 53.25400 41.52700
C  2.37300 52.13700 41.62500
C  3.20700 51.03600 41.41300
C  4.49900 51.57800 41.07000
C  0.85000 52.10400 41.82000
C  3.29700 49.58400 41.29900
O  2.49300 48.72400 41.56000
C  4.83200 49.30000 40.87200
C  4.66500 48.38600 39.74100
O  4.12400 48.68400 38.68600
O  5.08400 47.06000 40.03300
C  4.68400 46.09500 39.05200
H  10.42800 53.34100 39.78300
H  6.85200 58.49600 41.54700
H  1.71800 54.69800 41.78200
H  7.99900 49.21400 40.80000
H  9.77100 50.88900 38.98600
H  10.15400 49.63600 41.35600
H  10.07800 51.31200 41.67200
H  11.30300 50.83600 40.53400
H  7.16200 48.18200 38.81300
H  8.64700 48.89900 38.23900
H  7.90500 50.36200 36.95200
H  6.47900 50.67500 37.90600
H  11.37900 56.22000 38.71700
H  11.89000 55.04000 39.91000
H  12.03200 56.77600 40.29200
H  9.64500 60.59500 41.52400
H  8.48800 59.45900 42.19500
H  8.34500 60.02500 40.45600
H  4.27300 58.69500 41.19500
H  2.73700 56.93400 43.09100
H  3.99800 58.47200 44.24800
H  4.31100 59.64100 43.01900
H  5.67100 58.59900 43.51500
H  1.68900 58.50200 41.48300
H  0.96300 56.98100 41.72800
H  1.62700 58.28000 39.27000
H  1.23500 56.54300 39.39200
H  2.91900 57.18900 39.42200
H  0.67800 51.94200 42.88500
H  0.49400 51.20900 41.31000
H  0.30400 52.94800 41.40000
H  5.30000 48.76900 41.70000
H  5.11200 45.12300 39.29900
H  5.08800 46.30000 38.06000
H  3.59400 46.09000 39.07700
Mg 0.23300 42.83900 25.86300
C  1.40400 42.74900 29.15200
C  -2.82700 41.79400 27.20400
C  -0.87300 42.58400 22.77400
C  3.38900 43.71100 24.81600
N  -0.60200 42.37300 28.01900
C  0.06100 42.51400 29.15000
C  -0.85300 42.42000 30.45700
C  -2.24100 41.98500 29.79100
C  -1.92100 42.02400 28.27400
C  -2.71800 40.53000 30.17600
C  -0.93100 43.82100 31.16100
C  -0.92900 43.80300 32.71800
H  -1.60700 42.62900 33.51000
N  -1.55300 42.21700 25.06300
C  -2.71000 41.94000 25.79200
C  -3.76800 41.62200 24.83100
C  -3.27600 41.77800 23.49600
C  -1.86600 42.21300 23.77100
C  -5.15500 41.05700 25.21800
C  -4.00800 41.55700 22.12400
O  -3.42200 41.57500 20.97600
C  -5.49000 41.25700 22.05600
N  1.13200 43.08600 24.07000
C  0.46400 42.85300 22.91700
C  1.43400 43.02400 21.73800
C  2.62300 43.80900 22.34000
C  2.40200 43.55000 23.87200
C  1.79400 41.74200 20.96100
C  2.66200 45.36700 22.02500
C  3.60200 45.83900 20.87700
N  2.09900 43.00400 26.71100
C  3.27300 43.34800 26.13200
C  4.34400 43.44600 27.19000
C  3.63000 43.17800 28.39600
C  2.29600 42.93400 28.04200
C  5.83600 43.65800 27.09700
C  3.78100 43.01500 29.78200
O  4.77300 43.10600 30.51400
C  2.33400 42.88800 30.34200
C  2.29600 41.69900 31.27300
O  2.43000 40.54100 30.90700
O  2.25300 42.17100 32.54900
C  2.55200 41.17200 33.59000
H  -3.79900 41.52200 27.62000
H  -1.21600 42.47700 21.74300
H  4.30200 44.14900 24.40700
H  -0.49200 41.57800 31.04800
H  -3.03200 42.72200 29.93500
H  -2.82100 39.75800 29.41400
H  -3.65300 40.62700 30.72900
H  -2.10000 39.98100 30.88600
H  -1.79900 44.36700 30.79000
H  0.00500 44.36100 31.01900
H  -1.32100 44.69500 33.20700
H  0.09000 43.87100 33.09900
H  -5.90200 41.53800 24.58700
H  -5.37200 41.19200 26.27800
H  -5.16800 40.00100 24.94900
H  -5.75000 40.39800 22.67400
H  -5.72800 41.04500 21.01300
H  -6.16100 42.09100 22.26200
H  1.03900 43.69400 20.97500
H  3.58600 43.40400 22.02800
H  1.02800 40.99500 21.17200
H  2.77000 41.28900 21.13400
H  1.72100 41.90500 19.88500
H  3.01200 45.88400 22.91900
H  1.60700 45.54100 21.81300
H  3.04800 46.44400 20.15900
H  3.93100 44.96300 20.31800
H  4.37300 46.54000 21.19800
H  6.17400 43.40000 26.09300
H  6.30300 43.18100 27.95900
H  6.00600 44.72100 27.26500
H  2.12100 43.81200 30.88100
H  3.33700 41.54300 34.24900
H  2.89900 40.21200 33.20800
H  1.62600 41.11300 34.16200

