158

Mg 8.59300 3.81300 27.64000
C  10.07300 2.52300 30.47900
C  6.66000 5.89100 29.49900
C  7.29600 5.03700 24.65600
C  10.29300 1.32200 25.81200
N  8.36600 4.12600 29.74400
C  9.20200 3.54300 30.77300
C  8.62900 3.95700 32.14000
C  7.35900 4.77100 31.79100
C  7.40700 4.98100 30.24600
C  5.98600 4.13600 32.22400
C  9.69000 4.69100 33.02400
C  9.31700 5.23100 34.41000
H  9.84300 4.56300 35.69400
N  7.19100 5.28400 27.14500
C  6.52900 6.03300 28.09200
C  5.62500 6.91400 27.41200
C  5.83100 6.74700 25.98400
C  6.84400 5.71100 25.80100
C  4.67100 7.77500 28.15900
C  5.07600 7.48900 24.86700
O  5.28500 7.16800 23.73200
C  4.14300 8.55400 25.21700
N  8.80100 3.31700 25.49500
C  8.19200 3.97900 24.50100
C  8.65700 3.41200 23.11900
C  9.42000 2.13600 23.50400
C  9.54100 2.24400 25.01900
C  7.48700 3.32500 22.06100
C  10.72100 1.86100 22.73100
C  10.66500 0.42600 22.06900
N  9.88900 2.25100 28.01100
C  10.51200 1.33400 27.19300
C  11.43300 0.50200 27.88800
C  11.33600 0.93200 29.18800
C  10.33700 1.95500 29.24800
C  12.31500 -0.68800 27.36300
C  11.80200 0.77300 30.62800
O  12.66200 0.02300 31.06700
C  10.95100 1.76400 31.49200
C  10.08900 1.02300 32.59200
O  9.00000 0.62700 32.44500
O  10.79600 1.06100 33.81800
C  10.16900 0.23400 34.91800
H  6.16500 6.46300 30.28600
H  6.93000 5.37400 23.68400
H  10.96100 0.64700 25.27200
H  8.31800 3.06500 32.68400
H  7.48800 5.73400 32.28400
H  6.09100 3.10800 32.57300
H  5.34600 4.07000 31.34400
H  5.51800 4.77300 32.97500
H  10.01800 5.61900 32.55600
H  10.48100 3.95700 33.18500
H  8.22900 5.28600 34.42900
H  9.69200 6.25400 34.43300
H  3.71000 7.35800 27.85800
H  4.75100 8.83600 27.92300
H  4.57200 7.75700 29.24500
H  3.84100 9.07100 24.30600
H  4.53900 9.27400 25.93200
H  3.28600 8.11700 25.73100
H  9.36500 4.16100 22.76500
H  8.69700 1.34200 23.31600
H  6.54500 3.58400 22.54600
H  7.60200 2.26900 21.81600
H  7.49400 3.88900 21.12800
H  11.50000 1.98400 23.48400
H  10.75800 2.66500 21.99500
H  11.29400 0.43100 21.17900
H  9.70000 0.09500 21.68500
H  11.00800 -0.31600 22.79000
H  12.32400 -0.84500 26.28500
H  11.74000 -1.56400 27.66500
H  13.30500 -0.57800 27.80500
H  11.62200 2.45800 31.99900
H  9.93500 -0.72900 34.46400
H  9.30400 0.73600 35.35200
H  10.96000 -0.04600 35.61400
Mg 17.02200 51.32000 26.20400
C  19.12200 49.96300 28.82100
C  14.86100 52.23800 28.64500
C  15.03100 52.59200 23.77400
C  19.16800 50.21300 23.84300
N  17.14200 51.17600 28.57200
C  17.96600 50.56300 29.40900
C  17.66600 50.81800 30.84500
C  16.12000 51.13100 30.66500
C  15.99400 51.53800 29.23100
C  15.24600 49.92000 30.92100
C  18.45200 51.94600 31.57900
C  18.59700 51.71300 33.11200
H  17.70500 50.72800 33.87800
N  15.20400 52.25400 26.19700
C  14.49400 52.60700 27.30600
C  13.34300 53.36700 26.86200
C  13.29500 53.27500 25.44600
C  14.55600 52.73200 25.09900
C  12.44800 54.09800 27.86000
C  12.17900 53.63000 24.48400
O  12.23100 53.40600 23.31700
C  10.89400 54.32900 25.14100
N  17.10400 51.34800 24.07500
C  16.24000 52.01300 23.34800
C  16.64600 52.13900 21.81700
C  18.00400 51.28800 21.83800
C  18.12900 50.96400 23.28800
C  15.66300 51.62500 20.79200
C  19.17000 52.19900 21.29300
C  20.34300 51.57500 20.55100
N  18.72100 50.25600 26.28700
C  19.50400 49.82100 25.22700
C  20.70800 49.12800 25.69600
C  20.55000 49.11500 27.09600
C  19.34200 49.84500 27.40500
C  21.84100 48.64900 24.86900
C  21.14000 48.68300 28.41000
O  22.16400 48.06700 28.62000
C  20.26500 49.22700 29.52100
C  19.70700 48.07800 30.25800
O  19.37000 46.96800 29.81700
O  19.69400 48.44500 31.60000
C  19.69900 47.36100 32.57700
H  14.18800 52.53300 29.45300
H  14.51500 53.10900 22.96300
H  19.91000 49.86200 23.12200
H  17.71200 49.87100 31.38300
H  15.83900 51.94400 31.33400
H  15.86900 49.15300 31.38100
H  14.72300 49.58300 30.02700
H  14.55600 50.10100 31.74500
H  17.95700 52.87800 31.30900
H  19.45400 51.89800 31.15400
H  18.47400 52.68100 33.59800
H  19.58900 51.35100 33.38100
H  11.46200 53.63400 27.84600
H  12.27000 55.11900 27.52300
H  12.84200 54.05900 28.87600
H  11.01700 55.29300 25.63400
H  10.44500 53.61500 25.83100
H  10.20500 54.52800 24.32000
H  16.75300 53.22300 21.79500
H  18.05300 50.35500 21.27700
H  15.20800 52.52700 20.38300
H  14.95300 50.89600 21.18200
H  16.15800 51.15400 19.94200
H  19.62500 52.71600 22.13800
H  18.73700 53.02000 20.72100
H  20.39000 51.83100 19.49300
H  20.30700 50.48600 20.53900
H  21.30100 51.84300 20.99700
H  22.13500 49.46300 24.20600
H  21.63800 47.75100 24.28500
H  22.72900 48.39800 25.44900
H  20.89500 49.81300 30.19100
H  20.24200 46.50600 32.17400
H  18.73200 47.00700 32.93400
H  20.30400 47.66300 33.43100

