158

Mg 23.90200 -4.86200 45.74700
C  25.86900 -2.66700 43.76200
C  21.15900 -3.92700 44.00600
C  22.43400 -7.64300 46.72800
C  26.93800 -5.88400 47.33000
N  23.51300 -3.56600 43.89800
C  24.45800 -2.71000 43.40500
C  23.83300 -1.76400 42.37700
C  22.29800 -2.05400 42.59900
C  22.29800 -3.22800 43.55100
C  21.41600 -0.87100 43.10100
C  24.44000 -2.05700 40.96300
C  24.82300 -0.85300 40.11000
H  24.60800 -1.06900 38.62800
N  22.04200 -5.66100 45.54900
C  21.03100 -5.09500 44.87400
C  19.81200 -5.79200 45.02700
C  20.10700 -6.86700 45.93000
C  21.58100 -6.79800 46.04900
C  18.43900 -5.42700 44.48600
C  19.20700 -7.82800 46.52600
O  17.97800 -7.99100 46.31000
C  19.78700 -8.85500 47.41100
N  24.53900 -6.44900 47.00400
C  23.72100 -7.48900 47.22800
C  24.52300 -8.58900 48.00100
C  25.85400 -7.87900 48.49700
C  25.78000 -6.61800 47.63300
C  23.81300 -9.31800 49.17900
C  27.20100 -8.74500 48.31900
C  28.11400 -8.62200 49.58300
N  25.99500 -4.47500 45.61700
C  27.07300 -4.86200 46.40000
C  28.19100 -4.02100 46.16700
C  27.75100 -3.15500 45.13200
C  26.43000 -3.49700 44.78600
C  29.44100 -4.08200 46.91900
C  28.17900 -2.08700 44.35100
O  29.24800 -1.54300 44.31400
C  26.99600 -1.71600 43.36100
C  26.74900 -0.26200 43.63500
O  26.13300 0.07900 44.62700
O  27.55400 0.48300 42.77500
C  27.56200 1.89900 43.23200
H  20.21400 -3.54600 43.61400
H  22.15900 -8.69700 46.79400
H  27.81900 -6.23500 47.87100
H  24.08300 -0.74400 42.66800
H  21.80800 -2.43100 41.70200
H  21.31700 -0.75100 44.17900
H  20.44700 -0.92800 42.60500
H  21.87200 0.00600 42.64200
H  23.71300 -2.58700 40.34700
H  25.32300 -2.66600 41.15400
H  25.84400 -0.68400 40.45100
H  24.12400 -0.07400 40.41300
H  18.34500 -5.72400 43.44100
H  18.40200 -4.33800 44.49700
H  17.60800 -5.83700 45.06100
H  19.01600 -9.31700 48.02700
H  20.49400 -8.41400 48.11400
H  20.19700 -9.63500 46.77000
H  24.77000 -9.39000 47.30400
H  25.81000 -7.41300 49.48200
H  24.20300 -10.33100 49.28100
H  22.73700 -9.14300 49.21300
H  24.18800 -8.86000 50.09400
H  27.75700 -8.40900 47.44400
H  26.82900 -9.75400 48.14400
H  28.16700 -9.54800 50.15600
H  27.82400 -7.70200 50.09100
H  29.12600 -8.49100 49.20000
H  30.16400 -3.56400 46.29000
H  29.83800 -5.07600 47.12800
H  29.37500 -3.49000 47.83200
H  27.40500 -1.76900 42.35200
H  27.75500 1.90500 44.30400
H  26.63700 2.45300 43.06900
H  28.44700 2.42300 42.87200
Mg 47.92400 25.70800 28.58800
C  48.86800 27.80600 31.13500
C  46.65300 23.55900 31.02400
C  47.41900 23.46400 26.23000
C  49.58300 27.84300 26.33600
N  47.74300 25.71000 30.76500
C  48.11600 26.77600 31.57200
C  47.85300 26.46700 33.02700
C  47.22600 25.00800 32.92100
C  47.25900 24.69300 31.49100
C  47.81100 23.86600 33.81200
C  46.81100 27.47600 33.66700
C  47.16600 27.92100 35.02100
H  46.06700 27.77600 36.11300
N  47.01000 23.82000 28.61700
C  46.58700 23.13100 29.69800
C  45.86200 21.96400 29.21500
C  45.94000 22.01400 27.80100
C  46.83900 23.13900 27.49200
C  45.21500 21.00700 30.06700
C  45.32300 21.11300 26.62900
O  45.36100 21.41700 25.40800
C  44.53200 19.95400 27.09000
N  48.76500 25.55100 26.64900
C  48.23000 24.52600 25.86300
C  48.50000 24.75900 24.32200
C  49.05500 26.17700 24.34700
C  49.11000 26.63000 25.86600
C  49.38100 23.57200 23.83100
C  48.26600 27.08100 23.37700
C  48.75200 27.20500 21.94900
N  49.08200 27.48300 28.63500
C  49.61600 28.28100 27.67000
C  50.09700 29.47000 28.26200
C  49.94800 29.30400 29.66400
C  49.26400 28.09300 29.78700
C  50.62300 30.66700 27.52600
C  50.16000 29.90500 30.95300
O  50.75900 30.93300 31.15000
C  49.43400 28.97500 32.00600
C  50.36900 28.54000 32.96500
O  51.25000 27.74200 32.76900
O  50.33300 29.30500 34.13400
C  51.35100 29.31500 35.15900
H  46.28800 22.90400 31.81800
H  47.19600 22.84000 25.36200
H  49.89300 28.53200 25.54700
H  48.78500 26.56000 33.58500
H  46.19500 25.02500 33.27700
H  48.47700 24.31500 34.54900
H  48.28200 23.05400 33.25700
H  46.96100 23.35900 34.27000
H  45.79000 27.11100 33.78200
H  46.72500 28.39800 33.09300
H  47.32300 29.00000 34.99700
H  48.02400 27.41000 35.45900
H  45.72300 20.04600 29.99000
H  44.19600 20.94200 29.68600
H  45.17200 21.28100 31.12100
H  44.16300 19.33000 26.27700
H  43.79200 20.51700 27.65900
H  45.12800 19.30800 27.73500
H  47.49500 24.74700 23.90100
H  50.04700 26.21000 23.89500
H  49.61800 22.94100 24.68800
H  50.31000 23.80000 23.30700
H  48.83400 22.87000 23.20200
H  48.19000 28.06700 23.83500
H  47.21600 26.79000 23.40100
H  49.43800 26.39400 21.70400
H  49.22000 28.16700 21.74100
H  47.88800 27.08000 21.29700
H  51.68900 30.69700 27.75300
H  50.19200 31.51400 28.06000
H  50.46100 30.62300 26.44900
H  48.71600 29.56900 32.57100
H  51.89200 30.21300 34.86000
H  51.98200 28.43000 35.24500
H  50.88700 29.58600 36.10700

