158

Mg 1.63000 -2.92200 44.84100
C  4.87000 -1.70900 44.14000
C  0.29800 -0.43100 42.74600
C  -1.37900 -4.61400 44.47900
C  3.05100 -5.79400 46.30700
N  2.48000 -1.17900 43.58900
C  3.87500 -0.97100 43.43300
C  4.02100 0.11500 42.33400
C  2.62500 0.84500 42.50300
C  1.69100 -0.25400 42.99900
C  2.61800 2.04600 43.53400
C  4.37900 -0.50200 40.92500
C  5.73800 -0.03000 40.28900
H  5.59300 0.59900 38.96200
N  -0.39200 -2.51000 43.88400
C  -0.68200 -1.43200 43.10900
C  -2.05300 -1.40300 42.68800
C  -2.61300 -2.68400 43.15800
C  -1.43700 -3.36300 43.80600
C  -2.78000 -0.32900 41.94600
C  -3.97400 -3.24800 43.07900
O  -4.84400 -2.55500 42.56400
C  -4.33300 -4.63900 43.51700
N  1.00000 -5.06300 45.10200
C  -0.30800 -5.34400 45.13500
C  -0.58900 -6.63000 46.03900
C  0.90600 -7.05600 46.48100
C  1.70000 -5.93800 45.92100
C  -1.56200 -6.40800 47.24900
C  1.22500 -8.49200 45.92300
C  1.39200 -9.65500 46.97100
N  3.57100 -3.59400 45.29700
C  3.98000 -4.72700 45.93400
C  5.43000 -4.62400 46.24700
C  5.81500 -3.47900 45.56300
C  4.63700 -2.86200 44.92700
C  6.27700 -5.58800 47.03900
C  6.93200 -2.68000 45.15400
O  8.18800 -2.78700 45.45100
C  6.39900 -1.60000 44.07400
C  6.96000 -0.27900 44.62100
O  8.00900 0.20000 44.15600
O  6.27100 0.15200 45.81400
C  6.43800 1.58800 46.03100
H  -0.05900 0.43400 42.18200
H  -2.17000 -5.36100 44.57200
H  3.40400 -6.66700 46.86000
H  4.84200 0.70600 42.74000
H  2.30900 1.19300 41.51900
H  3.64100 2.35200 43.75200
H  2.17100 1.79600 44.49600
H  2.09800 2.95800 43.24200
H  3.53200 -0.18000 40.31900
H  4.28800 -1.58400 41.01900
H  6.37600 -0.91400 40.30800
H  6.29100 0.72700 40.84500
H  -2.18600 0.58200 41.87400
H  -3.75600 -0.07100 42.35800
H  -2.90900 -0.57900 40.89300
H  -4.09700 -4.72700 44.57800
H  -3.74900 -5.36800 42.95600
H  -5.36700 -4.87600 43.26500
H  -1.13400 -7.38200 45.46700
H  1.07800 -6.96700 47.55400
H  -1.14900 -6.64000 48.23100
H  -2.50600 -6.94000 47.13200
H  -1.95700 -5.39300 47.21600
H  2.16800 -8.40900 45.38300
H  0.44500 -8.89200 45.27500
H  1.12500 -9.20900 47.93000
H  2.44500 -9.87700 47.14600
H  0.85700 -10.55300 46.66400
H  6.83900 -6.31000 46.44600
H  5.66500 -6.19100 47.70900
H  6.96800 -5.09700 47.72500
H  6.84500 -1.74400 43.09000
H  7.10000 2.10600 45.33800
H  6.73300 1.69000 47.07600
H  5.46400 2.07200 46.11100
Mg -1.24000 34.28000 26.40400
C  -2.86600 32.54600 28.96800
C  0.35800 36.16200 28.77400
C  -0.08400 35.98900 23.88700
C  -3.17300 32.40000 24.16600
N  -1.41400 34.39400 28.70500
C  -2.06000 33.55400 29.57700
C  -1.77700 33.90000 31.03900
C  -0.92700 35.19200 30.90800
C  -0.62500 35.27900 29.33000
C  -1.58800 36.46100 31.51500
C  -0.97400 32.80100 31.82400
C  -1.47700 32.69900 33.33100
H  -0.40700 32.68200 34.43900
N  0.03400 35.74000 26.35500
C  0.62000 36.41100 27.39400
C  1.66100 37.27000 26.82400
C  1.61800 37.15200 25.40200
C  0.45400 36.27600 25.16500
C  2.53100 38.13100 27.71500
C  2.50800 37.73200 24.24400
O  2.37200 37.52500 23.08600
C  3.67200 38.53100 24.64300
N  -1.71700 34.26000 24.33700
C  -1.04200 35.05600 23.51000
C  -1.55000 34.90700 22.12900
C  -2.10100 33.42500 22.15900
C  -2.35100 33.36600 23.60000
C  -2.65300 36.01600 21.65700
C  -1.02000 32.33000 21.77700
C  -0.81600 32.22600 20.19300
N  -2.73000 32.82600 26.51700
C  -3.39200 32.12400 25.50600
C  -4.32800 31.22700 26.09600
C  -4.09500 31.21700 27.47000
C  -3.15600 32.34600 27.65300
C  -5.34200 30.37000 25.47600
C  -4.45800 30.73200 28.76500
O  -5.11100 29.78800 29.19100
C  -3.73200 31.62400 29.82500
C  -4.67800 32.27200 30.72500
O  -5.47000 33.18500 30.45100
O  -4.50400 31.71200 31.97000
C  -5.11700 32.50600 32.97500
H  0.91800 36.70900 29.53500
H  0.27400 36.52000 23.00200
H  -3.70200 31.81600 23.41000
H  -2.75400 34.04700 31.50100
H  0.09600 35.16100 31.28300
H  -2.55000 36.07700 31.85400
H  -1.85000 37.26500 30.82700
H  -1.01400 36.88500 32.33900
H  0.07100 33.08700 31.70600
H  -1.11200 31.79900 31.41700
H  -2.02900 31.78100 33.53100
H  -2.09800 33.57700 33.50800
H  2.38400 37.92500 28.77500
H  2.24800 39.16000 27.49600
H  3.54800 37.87800 27.41400
H  4.48900 37.87500 24.94400
H  3.43000 39.35800 25.31100
H  3.83300 39.02800 23.68600
H  -0.79200 34.80600 21.35200
H  -3.05600 33.55500 21.65100
H  -3.04100 36.44200 22.58200
H  -3.46100 35.54900 21.09400
H  -2.08900 36.76300 21.09800
H  -1.43000 31.36800 22.08400
H  -0.13800 32.67400 22.31600
H  -0.83100 31.22200 19.77000
H  0.11300 32.69800 19.87200
H  -1.55600 32.85600 19.69900
H  -5.21700 29.29000 25.55800
H  -5.55800 30.69300 24.45700
H  -6.31600 30.64000 25.88500
H  -3.14400 30.96400 30.46300
H  -4.75400 33.53400 32.97500
H  -5.07800 32.04100 33.96000
H  -6.19900 32.39200 32.90000

