158

Mg 30.69800 59.41800 39.11500
C  27.75100 57.78300 37.63400
C  32.45500 56.70500 37.85900
C  33.49400 61.29600 39.34400
C  28.71500 62.38300 39.25500
N  30.16900 57.51000 37.74800
C  28.89300 57.02600 37.43400
C  28.97400 55.61300 36.81700
C  30.46200 55.21900 37.10000
C  31.09600 56.56700 37.53500
C  30.67500 54.00100 38.09900
C  28.65500 55.61400 35.29500
C  27.66200 54.67300 34.75300
H  26.72200 55.26900 33.68100
N  32.74400 58.98400 38.80100
C  33.25600 57.76900 38.39600
C  34.71000 57.84800 38.53000
C  35.02500 59.16900 38.95300
C  33.72800 59.89600 39.08600
C  35.62500 56.72500 38.18000
C  36.44800 59.64500 39.15000
O  37.39800 58.92900 38.95300
C  36.71200 61.00500 39.69700
N  31.03500 61.52600 39.36000
C  32.33400 62.07000 39.53100
C  32.22900 63.61700 39.57200
C  30.66500 63.91700 39.65900
C  30.06600 62.54100 39.36600
C  33.07700 64.21600 40.73100
C  30.04200 65.01900 38.69300
C  29.12700 65.98200 39.38700
N  28.64100 59.99000 38.79500
C  28.00100 61.21100 38.97200
C  26.59400 61.05600 38.65800
C  26.48400 59.73400 38.13900
C  27.71700 59.09400 38.22600
C  25.53600 62.17800 38.61700
C  25.55900 58.80300 37.54700
O  24.34000 58.93200 37.28600
C  26.30200 57.51100 37.25600
C  25.71600 56.43900 38.12300
O  25.73200 56.33900 39.36600
O  25.16100 55.54100 37.29200
C  24.57500 54.41600 37.99700
H  32.91900 55.72200 37.75800
H  34.32100 62.00500 39.41100
H  28.17900 63.32700 39.37400
H  28.28100 55.00500 37.39800
H  31.01000 54.96300 36.19300
H  31.08200 54.32900 39.05500
H  31.35700 53.31800 37.59300
H  29.74900 53.44100 38.22800
H  29.58700 55.43100 34.76000
H  28.37200 56.63800 35.05500
H  27.03700 54.27900 35.55400
H  28.23200 53.86900 34.28800
H  36.40700 56.57000 38.92300
H  36.09600 57.10100 37.27200
H  35.11700 55.76600 38.08800
H  37.77000 61.12600 39.92600
H  36.07000 61.19700 40.55600
H  36.53100 61.75800 38.93000
H  32.64100 63.87000 38.59500
H  30.33300 64.04300 40.68900
H  32.65300 64.91200 41.45500
H  33.84000 64.81600 40.23700
H  33.58600 63.47200 41.34400
H  29.44500 64.45400 37.97700
H  30.80200 65.55300 38.12300
H  29.53200 66.99400 39.36800
H  28.96100 65.72600 40.43400
H  28.10600 65.95200 39.00900
H  24.95700 62.18600 37.69400
H  25.91600 63.16700 38.87300
H  24.87000 62.03600 39.46800
H  26.22400 57.31200 36.18800
H  25.26700 53.57400 38.01300
H  23.63600 54.21500 37.48100
H  24.35000 54.53200 39.05700
Mg -9.52500 40.32300 42.42100
C  -8.24400 37.25900 41.41200
C  -6.67300 41.74900 41.02400
C  -10.80700 43.30900 43.14800
C  -12.55000 38.75900 43.26400
N  -7.87800 39.64000 41.01100
C  -7.49600 38.30100 40.87600
C  -6.18800 38.06300 40.11500
C  -5.53500 39.48200 40.35200
C  -6.75200 40.35900 40.85800
C  -4.42000 39.62400 41.41700
C  -6.38000 37.78400 38.64400
C  -5.69800 36.42900 38.16800
H  -4.68800 36.34300 37.03800
N  -8.80100 42.30500 42.14200
C  -7.58300 42.70300 41.57600
C  -7.59200 44.15200 41.62500
C  -8.71300 44.61700 42.35400
C  -9.53000 43.42300 42.51500
C  -6.60900 44.94900 40.79900
C  -8.91800 46.05500 42.81400
O  -8.27100 47.02900 42.40800
C  -9.93800 46.39000 43.85900
N  -11.34000 40.91000 43.28100
C  -11.71400 42.23600 43.39900
C  -13.17200 42.43300 43.92300
C  -13.66700 40.94700 43.90500
C  -12.46400 40.11500 43.49500
C  -13.33900 43.26200 45.21400
C  -14.99600 40.74600 43.05200
C  -16.23000 39.86700 43.56400
N  -10.24300 38.46000 42.51000
C  -11.45900 37.97900 42.90900
C  -11.41500 36.51700 42.80700
C  -10.14400 36.23300 42.29700
C  -9.49100 37.44000 42.04600
C  -12.42700 35.61800 43.25800
C  -9.26300 35.11400 41.86500
O  -9.39800 33.90100 41.80600
C  -7.90200 35.81400 41.37800
C  -6.85300 35.40800 42.38300
O  -6.52700 36.02600 43.42300
O  -6.22600 34.21900 41.99800
C  -5.45100 33.62900 43.03800
H  -5.73400 42.19100 40.68300
H  -11.21000 44.23200 43.56800
H  -13.44200 38.21000 43.57200
H  -5.55700 37.32600 40.61000
H  -5.18000 39.91400 39.41600
H  -3.53800 40.04900 40.93900
H  -4.19400 38.65000 41.85100
H  -4.69200 40.29000 42.23600
H  -6.15100 38.60200 37.96100
H  -7.44600 37.58700 38.52700
H  -6.51900 35.73300 37.99200
H  -5.32800 35.90900 39.05100
H  -5.75200 44.45100 40.34500
H  -6.21700 45.79100 41.37100
H  -7.19500 45.45200 40.03000
H  -10.89900 46.36900 43.34600
H  -9.88700 47.39800 44.27200
H  -9.85100 45.70200 44.70100
H  -13.60800 42.96700 43.07900
H  -13.84500 40.68500 44.94800
H  -14.32200 43.18800 45.67800
H  -13.06700 44.29100 44.97900
H  -12.62000 42.93500 45.96500
H  -14.66400 40.31000 42.11000
H  -15.42700 41.73700 42.91100
H  -17.10100 40.52000 43.62600
H  -16.03200 39.48500 44.56500
H  -16.33800 38.94800 42.98800
H  -13.20700 35.58100 42.49800
H  -12.85800 36.11600 44.12700
H  -12.06600 34.59800 43.39100
H  -7.54000 35.54000 40.38700
H  -6.18500 33.24800 43.74700
H  -4.70900 34.22900 43.56600
H  -4.80000 32.91200 42.53800

