158

Mg 29.64400 58.73100 40.03400
C  26.85600 56.83500 38.80300
C  31.70100 56.13900 38.98700
C  32.29600 60.75700 40.12600
C  27.49100 61.46400 40.54000
N  29.30900 56.84000 38.65400
C  28.06100 56.18100 38.54300
C  28.25500 54.62800 38.27200
C  29.77500 54.44600 38.67100
C  30.29800 55.86700 38.85800
C  29.94500 53.39900 39.86800
C  27.81200 54.18000 36.88000
C  28.50000 54.91200 35.74500
H  27.56700 55.75900 34.76800
N  31.76600 58.46100 39.71100
C  32.38800 57.33000 39.27400
C  33.84300 57.54800 39.22400
C  34.02700 58.92800 39.56400
C  32.64200 59.46700 39.79700
C  34.76300 56.36500 38.87800
C  35.41300 59.57000 39.77500
O  36.40300 58.89000 39.62800
C  35.66600 61.04600 40.14400
N  29.83500 60.75200 40.40700
C  31.09400 61.38300 40.43300
C  30.95000 62.85600 40.88100
C  29.40000 63.11600 40.98300
C  28.87700 61.70200 40.61900
C  31.73400 63.37400 42.12000
C  28.74100 64.18100 40.05200
C  27.53500 64.97400 40.69100
N  27.48200 59.06500 39.98800
C  26.82500 60.19400 40.18500
C  25.40100 59.92100 40.03400
C  25.37500 58.63700 39.42400
C  26.64600 58.13300 39.39700
C  24.26400 60.84200 40.41500
C  24.46500 57.59500 38.87800
O  23.26500 57.68100 38.61200
C  25.42200 56.36400 38.52100
C  24.92300 55.16000 39.31600
O  25.51800 54.65500 40.25900
O  23.72700 54.73300 38.81400
C  23.04800 53.59200 39.48400
H  32.37700 55.30800 38.77500
H  33.13500 61.45500 40.17300
H  26.76200 62.20700 40.86900
H  27.62900 54.10000 38.99100
H  30.27400 54.11700 37.76000
H  30.56700 52.54900 39.58500
H  28.97400 52.94200 40.05800
H  30.36700 53.79900 40.78900
H  26.74100 54.32600 36.74300
H  27.97300 53.11900 36.68800
H  29.05400 54.19200 35.14300
H  29.26500 55.54300 36.19700
H  34.67600 55.97400 37.86500
H  34.64600 55.53700 39.57700
H  35.83200 56.58100 38.86700
H  35.46600 61.57000 39.20900
H  36.71600 61.11800 40.42500
H  35.10900 61.39400 41.01400
H  31.14300 63.43600 39.97900
H  29.08500 63.27100 42.01500
H  32.44700 62.59700 42.39600
H  31.03200 63.56800 42.93100
H  32.23000 64.31700 41.89000
H  28.32100 63.59500 39.23400
H  29.60100 64.81300 39.83400
H  26.56600 64.79600 40.22200
H  27.86000 66.01400 40.66900
H  27.23900 64.66700 41.69400
H  24.51300 61.46500 41.27400
H  23.48600 60.09500 40.56700
H  24.03900 61.54400 39.61200
H  25.13900 56.11200 37.49900
H  22.98100 53.75100 40.56000
H  23.40900 52.62100 39.14600
H  22.07700 53.56500 38.98900
Mg 5.72700 53.88500 40.08100
C  5.21500 50.43600 40.17500
C  9.01100 53.17700 39.29000
C  6.10900 57.11000 39.11100
C  2.18200 54.26400 39.98500
N  7.03800 52.01000 39.86700
C  6.57200 50.74100 39.97600
C  7.71200 49.76300 39.75600
C  8.96300 50.74600 39.77900
C  8.29600 52.04500 39.61400
C  9.97700 50.73900 40.97500
C  7.63700 48.98500 38.46700
C  6.98400 49.72600 37.25200
H  7.87900 50.41000 36.28600
N  7.36100 55.01300 39.48100
C  8.62500 54.57600 39.27200
C  9.54300 55.69500 38.90300
C  8.71500 56.86600 38.91000
C  7.34700 56.33800 39.13300
C  11.06100 55.51000 38.63700
C  9.15300 58.35600 38.75300
O  10.35400 58.64300 38.58400
C  8.16600 59.51100 38.80900
N  4.34000 55.44900 39.49000
C  4.75500 56.74000 39.26900
C  3.55000 57.70600 39.33000
C  2.30100 56.75700 39.46300
C  2.95300 55.36400 39.60800
C  3.73200 58.82200 40.43700
C  1.43000 56.79500 38.20300
C  0.79000 58.10700 37.83300
N  4.00800 52.66600 40.31600
C  2.63100 52.96200 40.24200
C  1.91100 51.81500 40.64500
C  2.88900 50.80600 40.65000
C  4.12400 51.35700 40.31800
C  0.39900 51.65100 41.03100
C  3.02800 49.45000 40.83900
O  2.22800 48.57700 41.22200
C  4.50600 49.10500 40.50300
C  4.48400 48.19300 39.38100
O  3.89500 48.43300 38.35400
O  5.18200 47.05800 39.66800
C  5.25700 46.08500 38.63700
H  10.05500 52.90200 39.12700
H  6.19000 58.18000 38.90500
H  1.09000 54.26700 39.97600
H  7.67400 49.02400 40.55600
H  9.62900 50.56300 38.93500
H  9.71800 51.52100 41.68900
H  11.01600 50.85100 40.66500
H  9.85800 49.77200 41.46600
H  7.27500 47.95700 38.48000
H  8.68400 48.82400 38.21100
H  6.37800 50.53100 37.66800
H  6.23100 49.09000 36.78500
H  11.61300 55.34200 39.56100
H  11.56200 56.27000 38.03600
H  11.22000 54.57200 38.10600
H  7.57600 59.44700 37.89400
H  8.61500 60.49200 38.65100
H  7.78500 59.48600 39.83000
H  3.56500 58.16700 38.34300
H  1.77400 56.99800 40.38600
H  4.67400 58.56100 40.91800
H  2.90500 58.73800 41.14300
H  3.81600 59.84000 40.05700
H  0.69900 55.99700 38.33500
H  2.02000 56.48600 37.33900
H  -0.06300 57.77800 37.23900
H  1.31400 58.66500 37.05700
H  0.60800 58.74600 38.69700
H  0.14100 50.67900 41.45100
H  -0.09600 51.71300 40.06200
H  0.00600 52.48800 41.61000
H  4.99300 48.56000 41.31100
H  5.51900 45.18200 39.18800
H  6.00200 46.34800 37.88600
H  4.25300 46.00100 38.21900

