158

Mg 24.42900 1.33800 29.19100
C  26.47900 0.88200 32.11700
C  21.86700 1.63600 31.33300
C  22.53100 1.35500 26.44900
C  27.25300 0.76400 27.21400
N  24.23800 1.22600 31.50000
C  25.17700 1.18500 32.47300
C  24.63200 1.55000 33.89300
C  23.10900 1.51600 33.62500
C  23.03900 1.43700 32.06900
C  22.22200 0.46900 34.16900
C  25.20300 2.81200 34.45800
C  26.13100 2.69100 35.61900
H  25.78500 3.54000 36.85200
N  22.49800 1.38600 28.89900
C  21.56900 1.59100 29.95900
C  20.27200 1.44300 29.30400
C  20.45100 1.26400 27.90600
C  21.83700 1.36100 27.67100
C  19.04100 1.37900 30.18300
C  19.34900 0.89300 26.88900
O  19.57700 0.69500 25.68800
C  17.93800 0.77700 27.30800
N  24.83600 0.98800 27.07600
C  23.87100 1.26100 26.14800
C  24.52800 1.30700 24.76500
C  26.05300 1.45400 25.07800
C  26.04900 1.06200 26.54500
C  24.15800 0.08600 23.86900
C  26.80800 2.72100 24.69800
C  26.91500 3.84200 25.73900
N  26.40100 0.71700 29.51200
C  27.40100 0.51000 28.57500
C  28.66100 0.28700 29.29800
C  28.30800 0.43500 30.66500
C  26.92700 0.69700 30.82100
C  29.94800 0.09500 28.73100
C  28.85400 0.56400 31.98000
O  30.01000 0.45800 32.34500
C  27.69800 0.93100 33.00100
C  27.68400 0.05000 34.19200
O  27.03300 -1.01200 34.21700
O  28.42300 0.47200 35.26700
C  28.13600 -0.40600 36.48100
H  21.08000 1.90400 32.04100
H  21.97200 1.39000 25.51200
H  28.14000 0.70000 26.58000
H  24.87200 0.72300 34.56100
H  22.78300 2.52300 33.88400
H  21.64200 0.09200 33.32700
H  21.43900 0.87300 34.81100
H  22.67300 -0.37600 34.69000
H  24.38200 3.46400 34.75400
H  25.72700 3.38200 33.69100
H  27.12500 3.04900 35.35000
H  26.17100 1.65200 35.94500
H  19.20500 1.29500 31.25700
H  18.34200 0.57000 29.97000
H  18.54900 2.30300 29.88200
H  17.98200 -0.16600 27.85400
H  17.17200 0.67300 26.53900
H  17.71700 1.57500 28.01600
H  24.17500 2.16700 24.19600
H  26.56800 0.64600 24.55700
H  23.25700 -0.34800 24.30300
H  24.99600 -0.61000 23.87800
H  24.07200 0.37100 22.82000
H  26.29500 3.15200 23.83800
H  27.81300 2.46200 24.36700
H  26.41500 3.45500 26.62700
H  26.36300 4.71600 25.39500
H  27.94700 4.07200 26.00600
H  30.46700 -0.68000 29.29700
H  30.52500 1.01900 28.69700
H  29.77500 -0.23800 27.70800
H  27.95900 1.97000 33.19800
H  27.17100 -0.17100 36.93100
H  28.84000 -0.19400 37.28600
H  28.21000 -1.46700 36.24000
Mg 35.80300 50.04800 25.14600
C  36.12100 47.98000 27.96400
C  34.19800 52.47800 27.07900
C  35.30200 51.81700 22.34300
C  37.08200 47.41500 23.14400
N  35.27900 50.22700 27.32200
C  35.59200 49.24100 28.25300
C  35.21500 49.83800 29.59000
C  34.35800 51.20800 29.31100
C  34.53200 51.29600 27.78100
C  32.92600 51.15000 29.87600
C  36.64400 50.22500 30.23200
C  36.76200 50.25300 31.83900
H  35.41900 50.13400 32.69000
N  34.85300 51.89700 24.77200
C  34.44000 52.82000 25.69700
C  34.11700 54.03100 25.00100
C  34.49700 53.91200 23.69500
C  34.87500 52.45200 23.54500
C  33.41300 55.17000 25.70800
C  34.50400 54.93000 22.59900
O  34.70100 54.65200 21.39800
C  34.07800 56.34800 22.78300
N  35.91100 49.61000 22.93300
C  35.85400 50.56900 22.07300
C  36.05600 50.11200 20.64300
C  36.78400 48.74400 20.88900
C  36.58700 48.54900 22.40700
C  34.74900 49.97600 19.75300
C  38.34700 48.74900 20.40600
C  39.44900 49.12100 21.49300
N  36.49900 48.08700 25.40700
C  37.04300 47.15200 24.55000
C  37.64100 46.06600 25.34100
C  37.21400 46.31900 26.68200
C  36.51100 47.53600 26.65000
C  38.44300 44.93800 24.78900
C  37.23700 45.77400 28.02900
O  37.61500 44.67700 28.35600
C  36.49800 46.88900 28.95700
C  35.32900 46.41000 29.76100
O  34.15200 46.64300 29.45000
O  35.75300 45.74800 30.85200
C  34.95400 45.76300 32.11900
H  33.69400 53.19500 27.73000
H  35.29500 52.45400 21.45600
H  37.58400 46.65900 22.53600
H  34.65000 49.11000 30.17300
H  34.75000 52.05900 29.86700
H  32.78200 50.13900 30.25700
H  32.27800 51.28000 29.01000
H  32.68700 51.85900 30.66900
H  36.89500 51.17400 29.75800
H  37.45200 49.58000 29.88800
H  37.18200 51.23600 32.05200
H  37.42800 49.49600 32.25300
H  32.41900 55.36700 25.30600
H  33.97100 56.05200 25.39300
H  33.42600 55.08300 26.79400
H  34.12300 56.93500 21.86600
H  34.88100 56.75300 23.39900
H  33.08200 56.45100 23.21200
H  36.73100 50.77600 20.10200
H  36.12700 48.04900 20.36700
H  34.81500 49.29300 18.90600
H  34.55500 50.99200 19.41100
H  33.88700 49.83800 20.40600
H  38.41500 49.59000 19.71600
H  38.46100 47.75800 19.96600
H  40.01100 48.19400 21.60200
H  39.00400 49.53500 22.39800
H  40.02300 49.91100 21.00800
H  37.78700 44.07400 24.68100
H  39.29600 44.73000 25.43500
H  38.83000 45.28700 23.83100
H  37.35800 47.14300 29.57800
H  33.92700 46.11800 32.03800
H  35.48700 46.40200 32.82300
H  35.07900 44.80100 32.61600

