158

Mg 35.51500 1.12300 29.59900
C  33.49500 2.60200 32.03500
C  38.07300 1.09900 31.95000
C  37.59800 0.52700 27.16200
C  32.93500 1.64200 27.42600
N  35.75200 1.77400 31.76800
C  34.75800 2.28200 32.52400
C  35.21100 2.39400 33.97300
C  36.74400 2.15100 33.84500
C  36.88000 1.62200 32.45800
C  37.62600 3.44600 33.98700
C  34.52500 1.35600 34.97700
C  33.82600 1.92800 36.25200
H  34.64900 2.80200 37.10600
N  37.62500 0.65900 29.53500
C  38.45900 0.72300 30.58500
C  39.80200 0.36800 30.17900
C  39.76000 0.28100 28.70600
C  38.25300 0.46000 28.41600
C  41.00500 0.30800 31.22700
C  40.79900 -0.10800 27.68300
O  40.66000 -0.11900 26.48800
C  42.22000 -0.43400 28.13300
N  35.27300 1.00400 27.68300
C  36.32500 0.71900 26.84200
C  35.81000 0.54900 25.37300
C  34.28700 0.75000 25.51400
C  34.11600 1.09600 27.01800
C  36.57700 1.45300 24.32400
C  33.40100 -0.53700 25.13200
C  31.95400 -0.15300 24.74200
N  33.42400 1.79800 29.68400
C  32.55000 1.99700 28.70900
C  31.34700 2.65900 29.23100
C  31.69600 2.92600 30.52900
C  32.94500 2.41200 30.75200
C  30.09300 2.89400 28.46500
C  31.21700 3.55400 31.67400
O  30.24700 4.22100 31.94200
C  32.30100 3.31400 32.73400
C  32.76500 4.52200 33.39300
O  33.66000 5.26400 32.93700
O  31.98500 4.76600 34.52100
C  32.43400 5.94800 35.32600
H  38.85400 1.00600 32.70700
H  38.24400 0.44000 26.28500
H  32.25300 1.84500 26.59700
H  34.94100 3.42100 34.22000
H  37.02500 1.43500 34.61700
H  36.90700 4.16600 34.37900
H  38.21100 3.62900 33.08600
H  38.31100 3.22900 34.80600
H  35.15700 0.56400 35.37700
H  33.68600 0.92200 34.43300
H  33.39000 1.09700 36.80700
H  32.92400 2.48000 35.98700
H  41.83900 -0.23100 30.77600
H  40.89200 -0.24100 32.16200
H  41.32500 1.30000 31.54500
H  42.78500 -0.15900 27.24200
H  42.34400 -1.46300 28.47000
H  42.47200 0.26600 28.92900
H  36.07100 -0.47800 25.11400
H  33.94700 1.60100 24.92300
H  37.29900 0.95900 23.67300
H  37.13100 2.24300 24.83100
H  36.00500 1.83600 23.47800
H  33.46400 -1.22900 25.97100
H  33.90300 -1.03300 24.30100
H  31.81100 -0.59000 23.75400
H  31.76600 0.92000 24.68700
H  31.19500 -0.52700 25.42900
H  30.31300 3.27900 27.46900
H  29.64800 3.74600 28.97900
H  29.43600 2.02900 28.55400
H  31.90400 2.67300 33.52100
H  31.74800 6.77200 35.12900
H  33.44000 6.35200 35.20500
H  32.44000 5.79400 36.40500
Mg -11.46800 15.65000 41.15000
C  -7.88600 15.13000 40.90200
C  -10.91600 18.86400 40.15500
C  -14.70100 15.83000 40.72800
C  -11.68700 12.15500 41.66500
N  -9.57700 16.79700 40.51900
C  -8.24500 16.43600 40.56900
C  -7.32900 17.50900 39.98500
C  -8.35600 18.72100 39.91900
C  -9.73300 18.08500 40.18200
C  -8.12800 19.79400 41.00600
C  -6.67200 17.10400 38.67800
C  -5.23800 17.36500 38.52500
H  -4.62600 17.52200 37.15800
N  -12.63200 17.16200 40.61300
C  -12.25400 18.46200 40.31200
C  -13.33900 19.29800 40.31200
C  -14.50600 18.51500 40.39600
C  -14.01400 17.07000 40.57800
C  -13.18800 20.74000 40.01800
C  -15.96500 18.99800 40.26500
O  -16.15300 20.21000 40.16700
C  -17.18400 18.08300 40.40200
N  -12.92700 14.11400 41.09900
C  -14.27800 14.47900 40.95600
C  -15.12100 13.38400 41.38800
C  -14.17600 12.15500 41.19400
C  -12.84700 12.86800 41.35800
C  -15.80000 13.62600 42.76800
C  -14.49100 11.28900 39.95300
C  -15.13900 9.92400 40.29900
N  -10.12900 13.94800 41.29300
C  -10.39600 12.62700 41.58300
C  -9.14900 11.85300 41.74000
C  -8.12700 12.85400 41.49100
C  -8.81700 14.10000 41.22600
C  -9.00500 10.36600 42.18200
C  -6.69700 13.06800 41.45200
O  -5.73800 12.40000 41.80600
C  -6.54700 14.53700 41.03300
C  -5.76700 15.16900 42.14900
O  -6.19600 15.36900 43.27000
O  -4.39900 15.27800 41.87200
C  -3.39200 15.47500 42.94100
H  -10.74500 19.87600 39.78200
H  -15.78300 15.93400 40.82500
H  -11.93300 11.10800 41.85200
H  -6.56200 17.70500 40.73400
H  -8.36600 19.18300 38.93200
H  -7.05900 20.00600 40.98100
H  -8.43500 19.41300 41.98000
H  -8.69200 20.70700 40.81500
H  -7.22900 17.68900 37.94700
H  -6.82400 16.03700 38.51500
H  -4.66200 16.69500 39.16200
H  -5.11900 18.29500 39.08100
H  -14.07400 21.35000 39.84400
H  -12.50300 20.91100 39.18800
H  -12.76800 21.25800 40.88000
H  -18.07000 18.68700 40.20700
H  -17.21200 17.69100 41.41900
H  -17.01900 17.20700 39.77400
H  -16.01600 13.31600 40.77000
H  -14.24300 11.65300 42.15900
H  -15.24500 13.29500 43.64600
H  -16.86400 13.39200 42.79500
H  -15.63600 14.69600 42.89400
H  -13.57900 11.07500 39.39500
H  -15.15600 11.96500 39.41500
H  -14.38400 9.14200 40.37800
H  -15.92000 9.72500 39.56500
H  -15.62200 9.97400 41.27500
H  -9.63000 9.86000 41.44700
H  -9.55700 10.31600 43.12000
H  -7.94400 10.12200 42.11600
H  -6.00200 14.48800 40.09000
H  -2.85100 16.39800 42.73200
H  -2.83200 14.55800 43.12700
H  -3.90200 15.68600 43.88100

