158

Mg 53.51400 23.76700 43.51500
C  51.02500 26.12900 42.83300
C  51.65200 21.32300 41.79500
C  56.22600 21.69400 43.60000
C  55.42300 26.34600 44.81300
N  51.63500 23.76800 42.40000
C  50.74000 24.82400 42.25400
C  49.52500 24.33000 41.43700
C  49.58600 22.75900 41.56200
C  51.10100 22.56800 41.90100
C  48.59100 22.24600 42.61100
C  49.49400 25.05700 40.08500
C  49.83800 24.25600 38.89900
H  50.03500 24.95700 37.49400
N  53.90800 21.78800 42.79600
C  52.97100 20.95700 42.21000
C  53.52800 19.68900 42.12700
C  54.87300 19.65000 42.64700
C  55.11800 21.13000 43.04500
C  52.76400 18.46700 41.54800
C  55.83300 18.47900 42.74400
O  55.56000 17.34400 42.32800
C  57.24700 18.57500 43.29200
N  55.56200 24.02000 43.93800
C  56.46400 23.01000 43.97900
C  57.90200 23.49900 44.42900
C  57.69300 25.08100 44.49400
C  56.14500 25.16500 44.44400
C  58.37000 22.94100 45.77300
C  58.34400 25.78200 43.26100
C  57.89800 27.19500 42.95400
N  53.26700 25.86000 43.82700
C  54.07500 26.72600 44.46800
C  53.35200 27.98900 44.72100
C  52.12600 27.80700 44.11200
C  52.14800 26.47100 43.60400
C  53.71000 29.14000 45.54900
C  50.84100 28.36900 43.80300
O  50.30700 29.40600 44.16900
C  50.01800 27.28300 42.99600
C  49.62100 27.87700 41.66400
O  50.40400 28.31300 40.85700
O  48.23200 27.91700 41.55300
C  47.73600 28.54400 40.35600
H  51.05900 20.51600 41.36000
H  57.07200 21.00600 43.65100
H  55.97100 27.21600 45.18100
H  48.66400 24.75000 41.95600
H  49.35700 22.25900 40.62100
H  48.14500 23.05500 43.19000
H  48.96100 21.47800 43.29000
H  47.79900 21.78700 42.02000
H  50.15300 25.92400 40.03600
H  48.49600 25.49500 40.07800
H  49.09000 23.49000 38.69300
H  50.72900 23.65100 39.06800
H  53.37600 17.72000 41.04100
H  52.07700 18.76900 40.75800
H  52.12400 18.01400 42.30500
H  57.25700 18.92400 44.32500
H  57.74900 19.22300 42.57300
H  57.81700 17.66600 43.09800
H  58.66000 23.24900 43.68700
H  58.06600 25.52800 45.41600
H  59.39900 22.70500 45.50000
H  57.86300 22.10100 46.24900
H  58.37500 23.74200 46.51200
H  57.94800 25.24800 42.39700
H  59.42800 25.85600 43.34200
H  57.01600 27.18900 42.31400
H  58.65400 27.77000 42.41900
H  57.65400 27.76900 43.84800
H  52.81000 29.38500 46.11300
H  53.91100 30.03800 44.96500
H  54.52200 28.90500 46.23700
H  49.09600 26.90100 43.43400
H  48.33100 28.43300 39.44900
H  47.51200 29.60100 40.49800
H  46.77400 28.09600 40.10900
Mg -9.99100 39.80400 41.43100
C  -8.81300 36.46700 40.74000
C  -7.03700 40.91800 40.17100
C  -11.27100 42.77100 41.71800
C  -13.19000 38.26800 41.96700
N  -8.20800 38.72500 40.36900
C  -7.92800 37.42600 40.28600
C  -6.53600 37.25500 39.60200
C  -5.91900 38.71000 39.40800
C  -7.08400 39.51100 40.14900
C  -4.53300 38.90700 40.12500
C  -6.74200 36.60800 38.18400
C  -5.99300 35.26100 37.89900
H  -5.18500 35.25800 36.59400
N  -9.30700 41.67300 41.04400
C  -8.02900 41.92600 40.54900
C  -7.80900 43.35700 40.42400
C  -8.97600 44.00600 40.91000
C  -9.95700 42.80400 41.27700
C  -6.50500 44.02200 39.86100
C  -9.27000 45.48300 41.11100
O  -8.48000 46.32000 40.75400
C  -10.50500 45.95700 41.69000
N  -11.94400 40.42500 41.65200
C  -12.19000 41.76000 41.88600
C  -13.65000 42.00700 42.24300
C  -14.35900 40.59900 42.26400
C  -13.10200 39.68800 41.90800
C  -13.91500 42.69800 43.55700
C  -15.58800 40.40000 41.38500
C  -16.79300 39.51300 41.89200
N  -10.80000 37.69700 41.62900
C  -12.10900 37.29300 41.85800
C  -12.20200 35.81500 41.88300
C  -10.85200 35.44800 41.49600
C  -10.12100 36.65700 41.27300
C  -13.42700 35.07500 42.24800
C  -9.91900 34.36700 41.24900
O  -10.02800 33.16500 41.52100
C  -8.64600 34.98000 40.65300
C  -7.43700 34.47600 41.42100
O  -7.09100 34.88400 42.55000
O  -6.79200 33.47200 40.71300
C  -5.58400 32.87500 41.41800
H  -6.07000 41.31600 39.85600
H  -11.76600 43.72900 41.89100
H  -14.16500 37.90000 42.29300
H  -5.99700 36.65500 40.33500
H  -5.93800 39.02300 38.36400
H  -4.16000 37.94700 40.48100
H  -4.68400 39.52300 41.01100
H  -3.72700 39.32900 39.52500
H  -6.58300 37.36300 37.41400
H  -7.78300 36.28800 38.14400
H  -6.74200 34.47500 37.79600
H  -5.35900 34.95200 38.72900
H  -6.58400 44.18600 38.78600
H  -5.64000 43.36100 39.90600
H  -6.32700 45.04800 40.18300
H  -11.24200 45.72500 40.92100
H  -10.55700 47.03500 41.84000
H  -10.66800 45.45000 42.64100
H  -14.17700 42.55400 41.46100
H  -14.74800 40.22400 43.21000
H  -13.88700 43.78400 43.46400
H  -13.27900 42.27500 44.33400
H  -14.91900 42.48300 43.92400
H  -15.30000 39.78800 40.53000
H  -16.02400 41.36500 41.12800
H  -17.76900 39.97400 41.73800
H  -16.63700 39.06800 42.87500
H  -16.79300 38.65600 41.21900
H  -14.13700 35.74700 42.73000
H  -13.00200 34.37500 42.96700
H  -13.84100 34.65600 41.33100
H  -8.54200 34.73500 39.59600
H  -4.87500 33.46700 41.99700
H  -4.96700 32.34600 40.69100
H  -6.07100 32.24600 42.16400

