158

Mg -2.55600 17.74100 26.73600
C  -3.02100 15.71400 29.66200
C  -3.23900 20.46200 28.62400
C  -2.46200 19.51600 23.90300
C  -2.57900 14.78100 24.83400
N  -3.10900 18.04100 28.92200
C  -3.12200 17.09400 29.91100
C  -3.23800 17.90100 31.21300
C  -3.73900 19.32000 30.84100
C  -3.39700 19.28200 29.36000
C  -5.24400 19.66500 30.95100
C  -1.92700 18.02800 32.06200
C  -2.26200 18.46400 33.56200
H  -1.64600 17.59000 34.69700
N  -2.69400 19.76600 26.27500
C  -2.91000 20.71400 27.19500
C  -2.89600 22.01800 26.50600
C  -2.60500 21.74400 25.16700
C  -2.58800 20.30700 25.06100
C  -3.08900 23.33700 27.12500
C  -2.28000 22.66000 24.01800
O  -2.09100 22.27900 22.89200
C  -2.22800 24.09900 24.16300
N  -2.21000 17.25600 24.74300
C  -2.38500 18.12800 23.76600
C  -2.34300 17.48100 22.36500
C  -2.03800 16.01700 22.70700
C  -2.31700 15.98600 24.23700
C  -3.65000 17.77400 21.53400
C  -0.54200 15.58600 22.40200
C  0.60900 16.46500 22.98300
N  -2.77900 15.63800 27.11500
C  -2.70500 14.56000 26.23600
C  -2.80600 13.35900 26.93400
C  -2.90200 13.75600 28.29700
C  -2.90500 15.14400 28.37400
C  -2.80600 11.95500 26.35500
C  -3.10500 13.25700 29.65500
O  -3.22700 12.11900 30.07900
C  -3.19100 14.54600 30.58200
C  -2.20100 14.27500 31.63700
O  -1.01600 14.52700 31.56300
O  -2.73600 13.47200 32.64400
C  -1.78000 12.92100 33.61700
H  -3.38000 21.37900 29.19900
H  -2.43600 20.05100 22.95100
H  -2.43700 13.92000 24.17800
H  -3.97900 17.34300 31.78500
H  -3.11500 20.04300 31.36600
H  -5.76500 18.75100 31.23400
H  -5.66600 19.79800 29.95500
H  -5.53200 20.53600 31.54200
H  -1.32900 18.86500 31.70000
H  -1.43200 17.06400 31.94700
H  -3.34100 18.49100 33.71500
H  -1.91600 19.47100 33.79500
H  -3.31500 23.21100 28.18400
H  -3.93800 23.85800 26.68300
H  -2.19600 23.93400 26.94000
H  -1.37100 24.17500 24.83200
H  -3.18700 24.48800 24.50400
H  -1.91200 24.57300 23.23400
H  -1.50700 17.98600 21.88000
H  -2.75600 15.40400 22.16000
H  -4.24500 16.86500 21.62000
H  -3.42600 17.93700 20.48000
H  -4.24500 18.55200 22.01200
H  -0.27300 15.54200 21.34700
H  -0.42900 14.56500 22.76600
H  1.33500 16.79400 22.23900
H  1.00600 15.80600 23.75500
H  0.21600 17.30700 23.55300
H  -2.37000 11.97600 25.35600
H  -3.87300 11.75800 26.24200
H  -2.25300 11.29600 27.02400
H  -4.13900 14.66800 31.10600
H  -0.82700 12.66600 33.15300
H  -2.25800 12.07400 34.10800
H  -1.54000 13.63300 34.40700
Mg 41.23400 9.36800 29.82200
C  43.04600 10.55400 32.48700
C  38.93500 7.95600 31.94900
C  39.86400 7.83400 27.10700
C  43.85500 10.35800 27.71100
N  40.97300 9.30400 32.02900
C  41.90800 9.76000 32.90300
C  41.39700 9.60700 34.32300
C  40.07300 8.75100 34.13300
C  39.96500 8.61900 32.60200
C  39.97600 7.34200 34.82800
C  41.32800 10.86900 35.23800
C  40.50600 10.89400 36.53000
H  41.34300 11.14800 37.87400
N  39.56400 8.18800 29.57800
C  38.74000 7.67100 30.59300
C  37.61500 6.99700 29.97500
C  37.86400 7.05300 28.52000
C  39.16100 7.68800 28.36100
C  36.52900 6.20500 30.74900
C  37.05800 6.49000 27.41700
O  37.34300 6.61000 26.21500
C  35.74300 5.98400 27.72000
N  41.80100 9.15100 27.65300
C  40.98400 8.57400 26.76300
C  41.61800 8.61900 25.32400
C  42.72400 9.61300 25.47200
C  42.83600 9.71500 27.02700
C  41.98900 7.19100 24.82100
C  42.51400 10.99800 24.73500
C  41.93200 12.16000 25.55600
N  43.12000 10.22300 29.98000
C  44.02800 10.58500 29.09800
C  45.13300 11.24100 29.73400
C  44.83300 11.25600 31.11200
C  43.54400 10.67600 31.19000
C  46.49800 11.46600 29.08300
C  45.33700 11.53400 32.43600
O  46.44300 11.95700 32.81600
C  44.14000 11.09700 33.38300
C  44.66600 10.21300 34.38500
O  44.55900 8.99000 34.38100
O  45.19300 10.96800 35.38800
C  45.51200 10.17600 36.59200
H  38.10100 7.55800 32.53000
H  39.38400 7.43600 26.21100
H  44.70800 10.71500 27.13000
H  42.07800 8.92400 34.83300
H  39.20100 9.23300 34.57400
H  38.90800 7.17100 34.96200
H  40.56500 7.29800 35.74500
H  40.36000 6.57400 34.15800
H  41.17000 11.72900 34.58700
H  42.29900 11.13900 35.65200
H  39.99700 9.93100 36.55700
H  39.59600 11.48600 36.44000
H  36.64600 5.16300 30.44900
H  35.53000 6.64000 30.73100
H  36.60600 6.25500 31.83500
H  35.09600 5.84700 26.85400
H  35.28300 6.66700 28.43400
H  35.97000 4.98400 28.09000
H  40.79200 9.09000 24.79100
H  43.61000 9.09400 25.10600
H  41.83100 6.51300 25.65900
H  43.02700 7.06700 24.51100
H  41.27700 6.87100 24.06000
H  41.93300 10.88300 23.82000
H  43.48400 11.39400 24.43600
H  41.44400 11.86100 26.48300
H  41.23100 12.72500 24.94200
H  42.72600 12.87100 25.78400
H  46.70000 10.82300 28.22600
H  47.26800 11.36100 29.84800
H  46.49300 12.51500 28.78700
H  43.86500 12.06100 33.81100
H  45.70300 10.88900 37.39400
H  46.46900 9.70400 36.37200
H  44.77100 9.44900 36.92300

