158

Mg 25.61700 0.79300 29.60200
C  27.64200 0.71500 32.49800
C  22.98100 1.44900 31.75900
C  23.72500 1.10800 26.92600
C  28.32500 -0.13500 27.75800
N  25.37500 0.91300 31.96500
C  26.34500 0.98900 32.92400
C  25.75700 1.43100 34.30600
C  24.19600 1.24000 34.07200
C  24.18900 1.25800 32.47300
C  23.60500 -0.02900 34.52800
C  26.23600 2.76800 34.80400
C  26.96300 2.82400 36.15400
H  26.50700 3.79400 37.15100
N  23.59300 1.20700 29.36500
C  22.69400 1.44500 30.33200
C  21.42500 1.67100 29.73000
C  21.54400 1.42500 28.37000
C  22.97500 1.28000 28.13800
C  20.17300 1.87100 30.62600
C  20.47500 1.36800 27.18400
O  20.86500 1.46400 26.02800
C  18.99400 1.21200 27.49800
N  25.89600 0.32500 27.64800
C  25.00200 0.74800 26.67100
C  25.65000 0.71500 25.28300
C  27.16100 0.24300 25.55100
C  27.16200 0.23000 27.08200
C  24.89800 -0.08900 24.13000
C  28.18600 1.27800 25.03800
C  28.30100 1.51300 23.56600
N  27.56600 0.22200 29.95100
C  28.54300 -0.18400 29.13200
C  29.76300 -0.47700 29.87700
C  29.50700 -0.01100 31.12800
C  28.11000 0.32400 31.16800
C  31.06500 -0.84100 29.26400
C  30.08600 0.32200 32.44000
O  31.21800 0.09500 32.85900
C  28.93700 0.80000 33.31900
C  28.80000 -0.05900 34.45500
O  28.41900 -1.19200 34.37800
O  29.37400 0.43900 35.53600
C  29.56000 -0.38700 36.74400
H  22.07200 1.67500 32.32000
H  23.19900 1.18400 25.97300
H  29.11600 -0.49700 27.09800
H  26.08300 0.63600 34.97800
H  23.54900 2.07900 34.32700
H  23.18800 0.22200 35.50300
H  24.40000 -0.77400 34.48900
H  22.89600 -0.55500 33.88800
H  25.45200 3.52500 34.80000
H  26.96700 3.05800 34.04800
H  28.03200 2.91000 35.96100
H  26.72400 1.83000 36.53400
H  19.91900 0.93600 31.12600
H  19.37300 2.13000 29.93200
H  20.39400 2.66700 31.33800
H  18.66300 0.75500 26.56500
H  18.48400 2.16200 27.66100
H  18.90600 0.50300 28.32100
H  25.73400 1.77400 25.03800
H  27.47500 -0.78000 25.34600
H  24.44700 0.59800 23.41400
H  24.04400 -0.59300 24.58400
H  25.44100 -0.87600 23.60700
H  29.20500 1.03500 25.34200
H  27.88500 2.21500 25.50600
H  27.61500 0.86900 23.01600
H  29.27600 1.26900 23.14500
H  28.17800 2.56800 23.32500
H  31.56900 0.10200 29.05400
H  30.85100 -1.34800 28.32300
H  31.64700 -1.58200 29.81200
H  29.21500 1.79200 33.67600
H  29.81800 -1.44000 36.62900
H  28.73400 -0.30300 37.45000
H  30.43700 0.03400 37.23700
Mg 47.32400 15.87000 28.06200
C  45.27900 15.26400 30.95100
C  49.34500 17.66600 29.95100
C  48.92300 16.92200 25.26600
C  44.72900 14.62100 26.09900
N  47.27100 16.46600 30.18800
C  46.46600 16.06000 31.15400
C  46.81900 16.65900 32.51400
C  48.13100 17.42400 32.27000
C  48.21400 17.25000 30.68200
C  48.27700 18.84400 32.77000
C  47.09600 15.49100 33.58700
C  47.68100 15.99900 34.91400
H  47.08400 17.34000 35.49600
N  49.07700 16.86600 27.69200
C  49.73300 17.54200 28.62900
C  50.96100 17.99300 28.10700
C  50.96400 17.66800 26.74300
C  49.60300 17.11900 26.47200
C  52.02000 18.55400 29.00800
C  52.09600 17.77300 25.76400
O  51.86400 17.81100 24.54400
C  53.49800 18.00000 26.35100
N  47.07800 15.54200 25.87900
C  47.74600 16.22800 24.96200
C  46.97300 16.32200 23.59200
C  45.72500 15.43000 23.95600
C  45.82500 15.18600 25.43800
C  46.51600 17.83000 23.22400
C  45.60900 14.12600 23.02200
C  44.51500 14.05600 21.93600
N  45.42400 14.97500 28.41500
C  44.48300 14.57300 27.49000
C  43.32600 14.06600 28.12200
C  43.55500 14.25000 29.49100
C  44.83600 14.85600 29.63800
C  42.03600 13.57700 27.47400
C  43.03600 14.09200 30.79800
O  41.91300 13.72200 31.18200
C  44.14200 14.72100 31.83900
C  43.41500 15.73100 32.58600
O  42.94300 16.81100 32.08800
O  43.24800 15.28100 33.84500
C  42.21300 15.95700 34.64800
H  50.01500 18.27500 30.56100
H  49.40300 17.29400 24.35800
H  43.79000 14.55000 25.54700
H  46.03200 17.34200 32.83300
H  48.95700 16.82000 32.64500
H  48.04100 19.54400 31.96900
H  49.31200 18.93300 33.10100
H  47.63200 19.12800 33.60200
H  47.89000 14.87300 33.16700
H  46.14900 14.95300 33.60400
H  48.76000 16.14900 34.88000
H  47.43400 15.25600 35.67200
H  52.36100 19.43800 28.46900
H  52.78300 17.79400 29.17900
H  51.70100 19.00800 29.94600
H  54.15900 18.07600 25.48700
H  53.81800 17.20400 27.02400
H  53.42900 18.92600 26.92200
H  47.57500 15.95000 22.76300
H  44.76300 15.89700 23.74100
H  45.44300 17.96600 23.35600
H  46.73000 18.04100 22.17600
H  47.00900 18.52600 23.90300
H  45.58600 13.24300 23.66100
H  46.55300 14.18600 22.47900
H  43.72500 14.80600 21.95900
H  43.85100 13.20700 22.09700
H  45.05700 13.89800 21.00300
H  41.96800 12.53000 27.17900
H  41.95200 14.27600 26.64100
H  41.14300 13.71400 28.08400
H  44.41400 13.94400 32.55300
H  42.85100 16.67600 35.16200
H  41.96600 15.05400 35.20700
H  41.39500 16.31100 34.02100

