158

Mg 54.39400 24.80000 44.25100
C  51.61500 26.92600 43.47900
C  52.46800 22.10500 42.95800
C  57.03400 23.03500 44.15100
C  56.30300 27.69000 45.00800
N  52.24200 24.50600 43.27200
C  51.41200 25.58300 43.06800
C  50.16000 24.99200 42.33100
C  50.27700 23.43900 42.49100
C  51.75400 23.33200 42.95800
C  49.18000 22.77700 43.46700
C  49.91300 25.50400 40.81900
C  48.40800 25.48500 40.42900
H  48.03900 25.15600 38.96000
N  54.70200 22.82300 43.70100
C  53.79700 21.88000 43.27200
C  54.49800 20.58500 43.19200
C  55.89800 20.76500 43.57300
C  55.89500 22.22900 43.81500
C  53.71900 19.31500 42.71400
C  57.05100 19.77700 43.66400
O  56.84000 18.58300 43.39600
C  58.46800 20.14200 43.99100
N  56.43700 25.37500 44.36700
C  57.32000 24.33800 44.46100
C  58.74300 24.91100 44.59100
C  58.54200 26.43600 44.95400
C  57.04400 26.57600 44.79600
C  59.58100 24.12700 45.66300
C  59.31100 27.44800 44.09600
C  60.18400 28.51400 44.89000
N  54.06900 26.83400 44.42200
C  54.91700 27.84800 44.79900
C  54.05800 29.02200 45.08600
C  52.75400 28.69400 44.56900
C  52.86400 27.39100 44.13700
C  54.43100 30.29100 45.84200
C  51.38500 29.17600 44.31800
O  50.92700 30.20700 44.61400
C  50.62000 28.09500 43.45400
C  50.39500 28.73800 42.11100
O  51.12600 29.04000 41.20100
O  49.07400 28.75900 41.96200
C  48.57900 29.31400 40.66900
H  51.83200 21.32400 42.53700
H  58.00900 22.54400 44.15400
H  56.76100 28.47500 45.61400
H  49.34500 25.38200 42.94000
H  50.09500 22.94900 41.53500
H  49.64400 22.46700 44.40300
H  48.80400 21.87400 42.98700
H  48.39000 23.50100 43.67000
H  50.57300 24.92300 40.17400
H  50.29300 26.50800 40.63100
H  48.04100 26.51100 40.47400
H  47.89900 24.71100 41.00400
H  54.32200 18.86200 41.92700
H  52.65100 19.48200 42.58000
H  53.62800 18.54300 43.47800
H  58.78300 20.89000 43.26300
H  59.16300 19.30800 43.90100
H  58.62600 20.55300 44.98800
H  59.30000 24.83700 43.65700
H  58.90900 26.61300 45.96500
H  58.89300 23.48900 46.21800
H  60.08300 24.72300 46.42500
H  60.29100 23.44100 45.20100
H  58.58100 28.09900 43.61600
H  59.94600 26.91200 43.39100
H  59.81800 29.47900 44.53800
H  61.23100 28.37600 44.62000
H  59.95200 28.34100 45.94000
H  53.74800 31.12300 45.67300
H  55.45300 30.55900 45.57500
H  54.33700 29.98500 46.88400
H  49.69900 27.67800 43.86200
H  48.89200 28.72200 39.81000
H  48.72600 30.39300 40.63200
H  47.50000 29.25100 40.81100
Mg 27.13600 50.28300 25.95200
C  25.20900 51.33300 28.84400
C  29.58600 49.23900 28.19700
C  29.16400 49.90100 23.36200
C  24.75200 51.95200 24.00100
N  27.30100 50.26400 28.29800
C  26.38900 50.71200 29.25200
C  26.88000 50.41300 30.68400
C  28.26500 49.79500 30.45200
C  28.41500 49.66700 28.91000
C  29.43500 50.61100 31.05900
C  25.92900 49.56200 31.50600
C  25.61500 50.11100 32.89100
H  26.66600 49.93400 33.98100
N  28.97300 49.48200 25.77600
C  29.82400 49.16600 26.84400
C  31.08100 48.74700 26.24900
C  30.99700 48.91200 24.81100
C  29.69200 49.43700 24.57900
C  32.20700 48.25700 27.11800
C  32.02700 48.57600 23.80000
O  31.74400 48.64800 22.56800
C  33.47100 48.12900 24.14700
N  27.02000 50.95400 24.03400
C  27.90600 50.46800 23.11500
C  27.38600 50.58700 21.69600
C  25.87800 51.03100 21.92000
C  25.85200 51.35000 23.40200
C  28.17100 51.58000 20.77900
C  24.74100 50.07900 21.46700
C  23.60000 50.76400 20.66400
N  25.28200 51.37000 26.30300
C  24.46000 52.04100 25.43000
C  23.30100 52.57800 26.09600
C  23.58400 52.29000 27.42300
C  24.78500 51.60300 27.49300
C  22.17900 53.20000 25.54200
C  23.02500 52.37700 28.82200
O  21.94600 52.83700 29.14600
C  24.08400 51.79500 29.85200
C  24.51900 52.82800 30.88200
O  25.44800 53.57600 30.81000
O  23.56100 52.84400 31.85900
C  23.76200 53.71200 33.07900
H  30.24300 48.77700 28.93700
H  29.80900 49.77000 22.49100
H  23.99300 52.37800 23.34200
H  27.04400 51.31200 31.27800
H  28.39400 48.82200 30.92700
H  29.14000 51.60300 31.40100
H  30.15600 50.69400 30.24500
H  29.88900 50.03600 31.86700
H  26.38100 48.57700 31.62600
H  24.96600 49.42300 31.01500
H  24.67900 49.63000 33.17600
H  25.25200 51.13600 32.82800
H  32.94700 49.04100 27.28100
H  32.64700 47.41000 26.59000
H  31.89400 48.01200 28.13300
H  33.91300 47.72800 23.23500
H  33.43100 47.17600 24.67400
H  33.92100 48.96600 24.68100
H  27.53700 49.69000 21.09600
H  25.83300 51.93500 21.31300
H  28.78800 52.22900 21.40100
H  27.60500 52.26600 20.15000
H  28.81700 50.95200 20.16600
H  24.33300 49.59100 22.35200
H  25.23300 49.30600 20.87600
H  22.64500 50.48300 21.10900
H  23.67200 50.35200 19.65700
H  23.72000 51.84700 20.67500
H  22.47800 54.06400 24.94900
H  21.44200 53.54300 26.26800
H  21.62400 52.50800 24.90800
H  23.66900 50.97100 30.43300
H  24.23200 54.62200 32.70500
H  24.55000 53.23500 33.66200
H  22.85300 53.83400 33.66800

