158

Mg -1.39800 17.26600 26.21900
C  -1.94300 15.11200 28.91800
C  -1.86000 20.01800 28.20600
C  -1.61600 19.20100 23.52700
C  -1.79200 14.33600 24.08100
N  -1.80800 17.47700 28.28300
C  -1.90700 16.46800 29.30400
C  -2.03900 17.10200 30.66300
C  -2.00700 18.58900 30.35500
C  -1.89600 18.74900 28.87200
C  -3.18300 19.33400 31.06100
C  -0.98600 16.53700 31.74100
C  -0.63500 17.43900 32.89100
H  -0.32100 16.77800 34.23900
N  -1.56600 19.31300 25.94200
C  -1.76700 20.27000 26.88100
C  -1.80400 21.54100 26.25600
C  -1.67700 21.36900 24.83300
C  -1.61600 19.89600 24.70000
C  -1.92600 22.85200 27.03200
C  -1.76700 22.41500 23.71300
O  -1.72600 22.11100 22.53300
C  -1.92900 23.90600 24.03300
N  -1.47400 16.80100 24.11500
C  -1.55600 17.84300 23.24600
C  -1.79200 17.27300 21.80400
C  -1.60200 15.73000 21.89400
C  -1.57100 15.58600 23.44300
C  -3.12200 17.78600 21.13900
C  -0.35000 15.15800 21.29500
C  1.07400 15.90300 21.62000
N  -1.76300 15.16200 26.36600
C  -1.82000 14.10800 25.47800
C  -1.87600 12.87300 26.16000
C  -1.97300 13.22700 27.49800
C  -1.90400 14.59800 27.59300
C  -1.92200 11.52200 25.47300
C  -2.08100 12.73000 28.83900
O  -2.17000 11.51600 29.16400
C  -2.16400 13.92100 29.81100
C  -1.08300 13.65900 30.82700
O  0.05800 14.01700 30.68800
O  -1.62700 12.91900 31.87700
C  -0.72200 12.50400 32.94700
H  -1.85700 20.86700 28.89400
H  -1.49900 19.67600 22.55100
H  -1.96800 13.48000 23.42700
H  -2.96100 16.69900 31.08200
H  -1.02500 18.92700 30.68600
H  -3.37500 18.80600 31.99500
H  -4.10200 19.44200 30.48400
H  -2.88400 20.31200 31.43700
H  -0.09200 16.10400 31.29200
H  -1.45900 15.72800 32.29900
H  -1.39900 18.20000 33.05100
H  0.24700 17.98100 32.54900
H  -0.92500 23.25700 27.18400
H  -2.35700 22.75300 28.02800
H  -2.51100 23.60100 26.49900
H  -2.97300 24.10700 24.27200
H  -1.94100 24.40900 23.06600
H  -1.26800 24.27800 24.81600
H  -0.97600 17.71300 21.23100
H  -2.42500 15.11700 21.52600
H  -3.65800 18.47500 21.79100
H  -3.90400 17.02900 21.08100
H  -2.95400 18.15900 20.12900
H  -0.50900 15.13400 20.21700
H  -0.32700 14.10000 21.55500
H  1.28200 16.54000 20.76000
H  1.81900 15.11100 21.69900
H  1.07700 16.54600 22.50000
H  -1.35100 10.85800 26.12200
H  -1.58900 11.43900 24.43900
H  -2.95700 11.18000 25.50600
H  -3.19100 13.88800 30.17300
H  -1.30800 12.48700 33.86600
H  0.15600 13.14600 33.02800
H  -0.43200 11.46900 32.76900
Mg 42.36900 41.34200 26.34300
C  41.70200 43.65600 28.68900
C  43.69900 39.23700 28.59500
C  43.69000 39.38700 23.76100
C  41.63900 43.86200 23.85400
N  42.72200 41.46700 28.43200
C  42.17800 42.40400 29.23000
C  42.40000 42.06200 30.68400
C  43.19400 40.68100 30.64500
C  43.13500 40.44100 29.13300
C  44.71400 40.72200 31.23900
C  41.05800 41.92800 31.46900
C  41.16800 41.47200 32.94100
H  40.48900 42.36300 33.99400
N  43.41100 39.38800 26.20100
C  43.85500 38.74800 27.27700
C  44.43500 37.48100 26.79300
C  44.31600 37.49000 25.32100
C  43.75200 38.78300 24.97100
C  45.06100 36.46700 27.78300
C  44.64900 36.34000 24.40400
O  44.38900 36.34700 23.20600
C  45.12600 35.00900 24.99900
N  42.44200 41.49300 24.12000
C  43.13300 40.64500 23.36400
C  43.03500 41.01100 21.92800
C  42.19500 42.29800 21.93200
C  42.15300 42.58900 23.43500
C  44.39200 41.12300 21.14700
C  40.83100 42.14000 21.33100
C  39.60200 41.79900 22.06200
N  41.76800 43.32700 26.24500
C  41.57500 44.24900 25.19200
C  41.11600 45.50500 25.68500
C  41.17000 45.32200 27.09600
C  41.65200 44.01100 27.33700
C  40.67800 46.68400 24.86100
C  40.78900 45.81900 28.42200
O  40.28700 46.88000 28.76700
C  41.10100 44.77600 29.51400
C  42.12100 45.34600 30.37400
O  43.18200 45.81700 29.99000
O  41.74600 45.24300 31.66800
C  42.73600 45.88500 32.62600
H  43.93200 38.44400 29.30900
H  44.04400 38.77900 22.92600
H  41.33500 44.59500 23.10400
H  43.04300 42.81100 31.14600
H  42.62900 39.91300 31.17400
H  44.94500 41.77100 31.42400
H  45.45700 40.58000 30.45500
H  44.77900 40.19500 32.19200
H  40.39000 41.23800 30.95400
H  40.37600 42.77300 31.56700
H  42.24600 41.42400 33.09400
H  40.88500 40.43800 33.13800
H  45.73200 37.05200 28.41200
H  45.62000 35.60200 27.42600
H  44.42400 36.10100 28.58800
H  44.52800 34.74300 25.87100
H  46.18200 35.06600 25.26100
H  45.02100 34.24400 24.22900
H  42.48300 40.13600 21.58500
H  42.72700 43.15500 21.51900
H  44.49200 40.23200 20.52700
H  45.24400 41.26400 21.81100
H  44.32900 41.92100 20.40600
H  40.96700 41.35100 20.59100
H  40.65400 43.10000 20.84500
H  39.69900 41.79600 23.14800
H  39.15500 40.85300 21.75700
H  38.87700 42.60600 21.95800
H  39.93500 46.39700 24.11800
H  41.48100 47.19000 24.32500
H  40.09300 47.34900 25.49600
H  40.20600 44.45000 30.04400
H  43.77800 45.60500 32.47300
H  42.50400 45.53000 33.63100
H  42.67900 46.97400 32.61700

