158

Mg 25.08500 1.02700 29.18300
C  27.32100 0.41400 31.79700
C  22.55400 1.50100 31.53700
C  22.90100 0.92000 26.73600
C  27.63700 0.04300 26.92400
N  25.02800 1.19900 31.43000
C  26.07000 0.87500 32.30700
C  25.64300 1.21800 33.75400
C  24.08600 1.37500 33.67200
C  23.85100 1.41600 32.09000
C  23.30000 0.22100 34.29300
C  26.36400 2.46200 34.15200
C  27.28600 2.40100 35.35100
H  26.99900 3.47000 36.57100
N  23.04000 1.33500 29.13200
C  22.18700 1.53900 30.17500
C  20.86200 1.63000 29.62100
C  20.91200 1.35800 28.19600
C  22.29900 1.21400 27.94600
C  19.63800 1.72400 30.50200
C  19.73900 1.15600 27.20500
O  19.95800 0.78700 26.01300
C  18.32100 1.43000 27.62600
N  25.23400 0.56900 27.10900
C  24.20500 0.77800 26.29400
C  24.52700 0.52100 24.73000
C  26.08300 0.34000 24.83900
C  26.33800 0.37400 26.37200
C  23.74200 -0.61000 24.00400
C  26.92400 1.44700 24.11300
C  27.80900 1.00500 22.93300
N  27.08300 0.39500 29.31100
C  27.99000 0.02100 28.30500
C  29.27200 -0.42800 28.89500
C  29.07700 -0.16400 30.29800
C  27.75000 0.28900 30.45300
C  30.47700 -0.91800 28.23500
C  29.70000 -0.20700 31.56400
O  30.82800 -0.44400 31.90900
C  28.64100 0.27800 32.57900
C  28.49800 -0.75900 33.60600
O  28.03000 -1.88800 33.41000
O  29.00700 -0.31000 34.83900
C  29.03500 -1.38300 35.76800
H  21.74800 1.69200 32.24800
H  22.22600 1.01100 25.88200
H  28.49900 -0.10500 26.27100
H  25.86400 0.54600 34.58400
H  23.69200 2.27300 34.14700
H  22.65300 -0.30000 33.58800
H  22.76500 0.57500 35.17500
H  23.97800 -0.58400 34.57500
H  25.61400 3.23800 34.30500
H  26.94100 2.82200 33.30100
H  28.33800 2.54400 35.10100
H  27.16700 1.54200 36.01100
H  19.88800 1.56500 31.55100
H  18.88200 0.99900 30.20100
H  19.25800 2.74600 30.49400
H  17.73800 1.53700 26.71100
H  18.34700 2.39800 28.12700
H  18.04500 0.58600 28.25800
H  24.29200 1.48600 24.28200
H  26.47500 -0.60700 24.46600
H  23.01300 -1.04000 24.69100
H  24.43400 -1.34300 23.58900
H  23.14900 -0.22300 23.17600
H  27.53600 2.06900 24.76600
H  26.35800 2.17100 23.52700
H  27.54100 1.35000 21.93400
H  27.81000 -0.08200 22.84100
H  28.85500 1.26500 23.09500
H  30.58000 -0.63700 27.18700
H  30.49500 -2.00400 28.33200
H  31.32700 -0.50700 28.78000
H  28.91100 1.22000 33.05600
H  28.01500 -1.33500 36.15000
H  29.67300 -1.12700 36.61400
H  29.36300 -2.30300 35.28400
Mg 29.62200 57.54600 41.48800
C  27.17900 55.66300 40.07800
C  31.98500 55.64000 39.78000
C  32.03900 59.96900 42.08200
C  27.14700 60.06800 42.07400
N  29.55700 55.89800 39.95700
C  28.44100 55.22100 39.67700
C  28.74700 53.87100 38.86400
C  30.32800 53.96300 38.68900
C  30.67300 55.20100 39.60200
C  31.05100 52.63000 38.90500
C  28.03500 53.71800 37.50100
C  28.07800 54.98600 36.59400
H  27.11900 55.21700 35.48800
N  31.67500 57.66700 41.11100
C  32.47800 56.75500 40.47100
C  33.79000 57.18200 40.49300
C  33.83600 58.43200 41.16200
C  32.46300 58.71600 41.48200
C  34.84300 56.34900 39.82300
C  35.17900 59.21700 41.48800
O  36.23500 58.71800 41.08600
C  35.20900 60.49400 42.29100
N  29.64000 59.69300 42.01800
C  30.67800 60.52700 42.19700
C  30.33700 61.99100 42.47800
C  28.77100 61.88700 42.47900
C  28.45600 60.45400 42.25700
C  30.97900 62.43800 43.85900
C  28.12100 62.92700 41.49900
C  28.61500 64.30300 41.76800
N  27.51600 57.74900 41.43500
C  26.68700 58.87700 41.57700
C  25.32900 58.36000 41.38700
C  25.42600 57.05100 40.89300
C  26.88300 56.83900 40.76300
C  24.05600 59.08200 41.64500
C  24.68800 55.92700 40.41700
O  23.49800 55.61300 40.41300
C  25.81500 55.03300 39.80000
C  25.56800 53.69200 40.37800
O  25.84900 53.37300 41.51200
O  24.74500 52.97300 39.47900
C  24.13100 51.65800 39.81900
H  32.69100 55.06300 39.17900
H  32.79800 60.75100 42.15800
H  26.40300 60.84700 42.25000
H  28.36700 53.06500 39.49200
H  30.62300 54.25300 37.68100
H  31.53700 52.31100 37.98300
H  30.35500 51.85600 39.22600
H  31.82500 52.94100 39.60700
H  27.03700 53.28400 37.56400
H  28.60100 52.92100 37.01900
H  28.97600 54.96500 35.97700
H  28.10800 55.92100 37.15300
H  34.98500 56.54800 38.76000
H  34.64300 55.28600 39.95200
H  35.73200 56.52400 40.42900
H  34.94100 61.36200 41.68900
H  36.25700 60.69600 42.51100
H  34.66100 60.40100 43.22900
H  30.68900 62.58600 41.63500
H  28.21400 62.22500 43.35200
H  31.41300 63.43200 43.74400
H  31.78500 61.77700 44.17800
H  30.12300 62.42700 44.53400
H  27.04000 63.02400 41.60000
H  28.33800 62.59400 40.48400
H  27.71600 64.90000 41.92300
H  29.24200 64.71300 40.97600
H  29.14600 64.41600 42.71300
H  23.17700 58.48200 41.40900
H  24.01100 59.99200 41.04600
H  23.98900 59.44400 42.67000
H  25.59900 55.06700 38.73200
H  24.18500 51.69700 40.90700
H  24.64800 50.78900 39.41200
H  23.06800 51.63700 39.57800

