158

Mg 8.70000 2.61900 27.76100
C  10.21200 1.34000 30.64700
C  6.81700 4.61500 29.80600
C  7.09500 3.64800 25.02100
C  10.31400 0.11900 25.81300
N  8.66500 2.97800 29.97600
C  9.40900 2.40900 30.99500
C  9.19400 3.00200 32.34200
C  8.13200 4.10100 32.00600
C  7.84600 3.96200 30.51100
C  6.82000 4.17100 32.83700
C  10.53300 3.56800 32.90200
C  10.37000 4.45000 34.19300
H  11.26500 4.20500 35.38000
N  7.13000 3.92900 27.46500
C  6.56000 4.69300 28.46600
C  5.58700 5.54300 27.86300
C  5.64600 5.31400 26.41400
C  6.68400 4.26400 26.22100
C  4.82600 6.61600 28.59200
C  4.80500 5.93700 25.37200
O  4.94400 5.58900 24.17700
C  3.61900 6.89900 25.74100
N  8.75700 2.02700 25.66700
C  7.94600 2.54300 24.74500
C  8.26500 1.98700 23.35600
C  9.29800 0.92700 23.59800
C  9.49600 0.98800 25.09000
C  6.93200 1.59000 22.63900
C  10.64900 1.10500 22.77800
C  11.23200 -0.19700 22.12600
N  9.90100 1.04100 28.07900
C  10.49300 0.11900 27.24100
C  11.37000 -0.77100 28.02400
C  11.25400 -0.36500 29.36000
C  10.33000 0.73900 29.33200
C  12.33600 -1.81700 27.44100
C  11.69800 -0.63300 30.63400
O  12.54700 -1.37200 31.06900
C  11.03200 0.51000 31.56300
C  10.32400 -0.19300 32.75400
O  9.27700 -0.78800 32.75300
O  10.95900 0.20000 33.91500
C  10.32400 -0.21400 35.18300
H  6.35700 5.30300 30.51800
H  6.61000 4.05700 24.13200
H  10.88400 -0.55500 25.17000
H  8.58000 2.35800 32.97000
H  8.67000 5.04000 32.13700
H  6.12000 3.59800 32.22900
H  6.43800 5.18400 32.96400
H  7.00600 3.67200 33.78800
H  10.98100 4.18400 32.12200
H  11.18600 2.72100 33.11400
H  9.33300 4.48900 34.52600
H  10.59800 5.50800 34.06400
H  5.03300 7.61700 28.21300
H  4.88700 6.54700 29.67800
H  3.75500 6.57200 28.39800
H  2.82800 6.35900 26.26000
H  3.31100 7.33700 24.79200
H  3.85500 7.85000 26.21900
H  8.67600 2.73900 22.68200
H  8.84400 -0.05300 23.45700
H  6.47500 2.34200 21.99700
H  6.22000 1.58600 23.46400
H  6.92800 0.61000 22.16300
H  11.35300 1.62100 23.43100
H  10.47800 1.79500 21.95100
H  11.24700 -0.00200 21.05300
H  10.62100 -1.02300 22.49100
H  12.29100 -0.23200 22.38000
H  11.71500 -2.47100 26.82900
H  12.82200 -2.40600 28.21900
H  13.13700 -1.36000 26.86000
H  11.89200 0.99600 32.02400
H  9.28000 0.10100 35.17000
H  10.81700 0.41300 35.92600
H  10.44100 -1.28400 35.35700
Mg 48.22000 44.72900 42.39700
C  44.85400 43.97400 42.19500
C  48.82600 41.27900 41.89000
C  51.47700 45.37100 42.16500
C  47.40000 48.09200 42.07600
N  46.96500 42.80300 41.95100
C  45.57800 42.82400 41.99600
C  44.99200 41.38800 41.96600
C  46.33800 40.49800 42.09900
C  47.47100 41.55400 41.96900
C  46.51400 39.52600 43.28800
C  43.92900 41.10500 40.80200
C  44.07900 41.96100 39.53100
H  44.34300 41.18300 38.24400
N  49.98000 43.50600 42.10200
C  49.99200 42.15500 41.95900
C  51.38300 41.74100 41.84000
C  52.19100 42.91400 41.95900
C  51.25700 43.97900 42.13700
C  51.74000 40.25300 41.66000
C  53.72100 42.98800 41.72000
O  54.38300 42.02800 41.28000
C  54.41600 44.31100 41.89400
N  49.26400 46.48000 42.12000
C  50.64200 46.45500 42.15200
C  51.23900 47.91500 42.13000
C  49.90600 48.79900 42.08100
C  48.73300 47.75300 41.99400
C  52.29700 48.21800 43.18800
C  49.78200 49.75200 40.90700
C  50.00300 51.25500 41.20300
N  46.45600 45.85700 42.26000
C  46.27400 47.27400 42.17600
C  44.87200 47.59800 42.23600
C  44.23800 46.33800 42.35300
C  45.26400 45.34200 42.33100
C  44.33600 48.96100 42.14700
C  42.98000 45.65500 42.39000
O  41.83000 46.05000 42.38700
C  43.30000 44.09600 42.33600
C  42.71300 43.44400 43.53900
O  41.89900 42.54300 43.57900
O  43.33400 43.99200 44.64400
C  42.96000 43.52000 46.03000
H  49.13300 40.23900 41.76200
H  52.50100 45.74600 42.21800
H  47.16500 49.15900 42.08900
H  44.36100 41.37700 42.85500
H  46.50100 39.92200 41.18800
H  46.56900 38.51800 42.87900
H  45.72600 39.55600 44.04100
H  47.49200 39.64900 43.75300
H  42.92000 41.29200 41.16800
H  43.93400 40.04100 40.56400
H  44.82300 42.75500 39.59900
H  43.15500 42.53900 39.54000
H  52.82400 40.17400 41.58100
H  51.33800 39.77500 40.76700
H  51.36700 39.73200 42.54200
H  54.14100 45.13800 41.24000
H  55.48800 44.11300 41.87000
H  54.12600 44.57000 42.91300
H  51.77400 47.90500 41.18000
H  49.61700 49.34100 42.98200
H  52.03400 47.55000 44.00800
H  52.17900 49.25200 43.51100
H  53.35200 48.03900 42.98100
H  48.79600 49.73100 40.44500
H  50.52200 49.51400 40.14200
H  49.18400 51.82600 40.76400
H  50.84200 51.77600 40.74200
H  50.30900 51.45500 42.22900
H  44.77300 49.53700 41.33100
H  44.53800 49.42200 43.11400
H  43.25500 48.99900 42.01200
H  42.78700 43.66000 41.47900
H  42.12700 44.12500 46.38800
H  43.84900 43.69500 46.63500
H  42.59100 42.49500 46.07100

