158

Mg 35.90600 48.94800 25.31700
C  36.14400 47.23300 28.39600
C  34.42700 51.50200 26.91300
C  34.71200 50.03500 22.38400
C  37.01000 46.07000 23.59500
N  35.51400 49.38100 27.42100
C  35.69300 48.55900 28.52800
C  35.35900 49.25400 29.85900
C  34.75900 50.64100 29.33200
C  34.90900 50.50500 27.76200
C  33.29300 50.91100 29.69100
C  36.65700 49.40700 30.71000
C  36.51000 49.50200 32.26300
H  34.99800 49.48200 32.77700
N  34.98400 50.69300 24.71600
C  34.44200 51.65500 25.53100
C  33.80100 52.72900 24.75700
C  33.80800 52.20700 23.37500
C  34.51500 50.94800 23.42500
C  33.08900 53.86600 25.34800
C  33.13600 52.75200 22.14800
O  32.99000 52.16800 21.10500
C  32.50200 54.11100 22.23100
N  36.00100 48.20400 23.27400
C  35.36500 48.85300 22.31500
C  35.42100 48.06700 20.97900
C  36.24400 46.78800 21.38500
C  36.55500 47.08200 22.81300
C  34.10400 47.91800 20.17100
C  37.43300 46.59800 20.40500
C  38.77800 47.15800 20.81400
N  36.49000 47.01700 25.85500
C  36.89600 45.98000 25.04100
C  37.09200 44.85400 25.85300
C  36.85700 45.23600 27.19700
C  36.45900 46.59700 27.10300
C  37.51900 43.53600 25.39800
C  36.85900 44.83300 28.57500
O  37.07800 43.79600 29.16300
C  36.54400 46.15200 29.41900
C  35.48200 45.76900 30.32900
O  34.30200 45.76000 30.15800
O  35.99100 45.34100 31.57600
C  34.98500 45.21200 32.64000
H  34.04200 52.32500 27.51900
H  34.37700 50.42800 21.42100
H  37.19400 45.19600 22.96700
H  34.67100 48.57800 30.36500
H  35.38000 51.51300 29.53500
H  32.59200 51.17300 28.89800
H  33.24800 51.73700 30.40000
H  32.92700 50.02100 30.20300
H  37.12800 50.34100 30.40600
H  37.31700 48.56700 30.49000
H  36.91200 50.48700 32.49900
H  37.05900 48.64100 32.64500
H  33.73000 54.73800 25.21400
H  32.87700 53.75200 26.41100
H  32.10600 54.04100 24.91000
H  33.21900 54.79800 22.68000
H  31.54300 54.08100 22.74900
H  32.29800 54.44800 21.21500
H  35.99500 48.65000 20.25800
H  35.59000 45.91600 21.36700
H  33.92400 46.92300 19.76500
H  34.16300 48.57700 19.30500
H  33.23800 48.19100 20.77400
H  37.12300 46.97700 19.43100
H  37.56800 45.53200 20.22500
H  39.41900 46.39000 21.24600
H  38.61800 47.96900 21.52500
H  39.27000 47.69600 20.00300
H  38.54700 43.64500 25.05100
H  36.99000 43.03000 24.59200
H  37.62600 42.89400 26.27200
H  37.44200 46.36800 29.99900
H  35.69100 45.20000 33.47000
H  34.43400 44.27400 32.70800
H  34.25700 46.01900 32.56600
Mg -10.27100 37.87300 41.12600
C  -8.15500 35.34100 40.12600
C  -8.22100 40.17500 39.51700
C  -12.64400 40.37600 41.71900
C  -12.69600 35.49000 41.87800
N  -8.43000 37.76900 39.89500
C  -7.68300 36.62400 39.68100
C  -6.40900 36.90900 38.91300
C  -6.37100 38.49200 38.74400
C  -7.71300 38.87200 39.55500
C  -5.04900 39.22500 39.25000
C  -6.21700 36.08400 37.62000
C  -7.47100 36.05800 36.68200
H  -7.20600 35.97900 35.17000
N  -10.41600 40.00400 40.77000
C  -9.45800 40.68000 40.07300
C  -9.84300 42.07500 39.92500
C  -11.07500 42.17800 40.65000
C  -11.44800 40.81300 41.06700
C  -9.06100 43.12400 39.16600
C  -11.89200 43.46900 40.84100
O  -11.36400 44.56800 40.59600
C  -13.27300 43.55000 41.42400
N  -12.40900 37.89500 41.58700
C  -13.04100 39.03800 41.96400
C  -14.46800 38.76700 42.51300
C  -14.54500 37.18400 42.42100
C  -13.05200 36.85000 42.02200
C  -14.83400 39.39000 43.90100
C  -15.52900 36.52200 41.41500
C  -16.13600 35.13300 41.84700
N  -10.38700 35.77400 41.17400
C  -11.46800 34.97500 41.44600
C  -11.04200 33.57700 41.41500
C  -9.71800 33.69500 40.91200
C  -9.36400 35.09800 40.72400
C  -11.77400 32.35900 41.95900
C  -8.48800 32.98300 40.47900
O  -8.19700 31.80400 40.30400
C  -7.47600 34.01500 39.96800
C  -6.11900 33.97200 40.55400
O  -5.60800 34.84500 41.28300
O  -5.57200 32.71200 40.36400
C  -4.37600 32.32700 41.12700
H  -7.60100 40.94100 39.04700
H  -13.44400 41.08300 41.94800
H  -13.35800 34.68100 42.19600
H  -5.61400 36.63300 39.60600
H  -6.45000 38.82700 37.71000
H  -5.31100 40.16000 39.74400
H  -4.37000 39.36200 38.40900
H  -4.60200 38.59800 40.02100
H  -5.85000 35.08800 37.87100
H  -5.50100 36.52000 36.92400
H  -8.01900 36.98400 36.85800
H  -8.21800 35.35300 37.04700
H  -9.41700 44.13700 38.97800
H  -9.02400 42.64400 38.18800
H  -8.01900 43.03100 39.47200
H  -13.17800 43.37300 42.49500
H  -13.82100 42.78700 40.87200
H  -13.77600 44.51500 41.35000
H  -15.18200 39.03900 41.73500
H  -14.72600 36.87700 43.45100
H  -15.09300 38.64800 44.65700
H  -15.79100 39.87800 43.71600
H  -14.16100 40.06000 44.43700
H  -15.15300 36.47000 40.39400
H  -16.43700 37.11500 41.30300
H  -17.22000 35.23200 41.79400
H  -15.77900 34.76300 42.80800
H  -15.87200 34.33500 41.15300
H  -11.32600 31.40900 41.66900
H  -12.82100 32.42300 41.66400
H  -11.82500 32.30600 43.04600
H  -7.30200 33.87500 38.90200
H  -3.93000 31.48200 40.60400
H  -4.57000 32.16300 42.18700
H  -3.65400 33.12800 40.96600

