158

Mg 45.23700 5.37300 48.80000
C  42.97200 7.83200 47.56400
C  42.87300 2.96000 47.79700
C  47.65500 2.98500 48.95000
C  47.72900 7.90800 48.84000
N  43.20200 5.45800 47.78300
C  42.52100 6.52600 47.35200
C  41.10300 6.14900 46.80200
C  41.12300 4.58200 46.91500
C  42.45100 4.30400 47.53200
C  39.89500 4.11400 47.76300
C  40.87600 6.62400 45.29300
C  39.56700 7.58200 45.16400
H  38.62700 7.33700 44.00700
N  45.20200 3.29200 48.64800
C  44.10000 2.50100 48.27600
C  44.52800 1.09200 48.36600
C  45.91900 1.14900 48.61500
C  46.30900 2.51400 48.77300
C  43.62500 -0.03000 48.09500
C  46.77000 -0.09400 48.81100
O  46.29800 -1.21700 48.63800
C  48.15100 -0.08200 49.28500
N  47.39000 5.45700 48.99200
C  48.16700 4.32500 49.08000
C  49.63400 4.64900 49.10400
C  49.64400 6.19600 49.08900
C  48.21400 6.54500 48.94600
C  50.41700 3.88700 50.15900
C  50.49300 6.76300 47.91900
C  51.29100 8.08800 48.24400
N  45.32300 7.44600 48.50400
C  46.41400 8.35600 48.61000
C  45.96600 9.64300 48.29700
C  44.59700 9.46800 47.99700
C  44.26600 8.12900 48.04200
C  46.86800 10.88300 48.34300
C  43.40700 10.20400 47.80900
O  43.19100 11.42100 47.88100
C  42.25000 9.14300 47.50700
C  41.17600 9.39300 48.60000
O  41.25400 8.85400 49.67100
O  40.13900 10.03800 47.99800
C  38.85800 10.03900 48.70800
H  42.03900 2.28000 47.60900
H  48.46200 2.25000 48.92900
H  48.56000 8.57900 49.06400
H  40.37500 6.56700 47.49700
H  41.12800 4.11400 45.93000
H  39.62300 3.15500 47.32400
H  39.04000 4.79100 47.74700
H  40.22600 3.86900 48.77200
H  40.97200 5.87900 44.50400
H  41.76300 7.23700 45.13100
H  39.93300 8.60700 45.10200
H  38.95800 7.53100 46.06700
H  43.38100 -0.50300 49.04600
H  44.09600 -0.74600 47.42200
H  42.70700 0.23300 47.57000
H  48.74000 0.42000 48.51700
H  48.55400 -1.04400 49.60200
H  48.23400 0.58700 50.14100
H  49.92900 4.33000 48.10400
H  49.89200 6.59500 50.07300
H  49.75200 3.17400 50.64600
H  50.89300 4.61300 50.81800
H  51.27200 3.33100 49.77300
H  49.92900 7.05300 47.03300
H  51.26700 6.03700 47.67000
H  50.80600 9.01800 47.94800
H  52.29800 7.93200 47.85500
H  51.48000 8.10700 49.31700
H  46.40500 11.54800 47.61500
H  47.88900 10.61600 48.06900
H  46.94700 11.26400 49.36200
H  41.79000 9.48300 46.58000
H  38.27000 10.90600 48.40400
H  38.97700 10.22000 49.77600
H  38.25100 9.15200 48.52700
Mg -2.11200 34.99500 27.38400
C  -3.79300 33.59100 30.07500
C  -1.00500 37.44100 29.56300
C  -0.58000 36.33200 24.74500
C  -3.64700 32.58200 25.18200
N  -2.47500 35.51700 29.63700
C  -3.02800 34.67400 30.54400
C  -2.72700 35.15500 31.91000
C  -2.17800 36.64000 31.69200
C  -1.82500 36.52000 30.20900
C  -3.24700 37.72400 32.02000
C  -1.85800 34.24200 32.83300
C  -1.84900 34.71000 34.30900
H  -2.62700 33.88200 35.27200
N  -0.97500 36.71700 27.16500
C  -0.54300 37.58900 28.21100
C  0.22100 38.65000 27.53700
C  0.47600 38.26900 26.20300
C  -0.38300 37.07400 25.95100
C  0.84400 39.75200 28.42200
C  1.28800 38.94200 25.10500
O  1.25200 38.60000 23.89900
C  2.00300 40.16500 25.45200
N  -2.15800 34.53700 25.25300
C  -1.35200 35.28200 24.41300
C  -1.42400 34.68700 22.98600
C  -2.29100 33.42400 23.16500
C  -2.80400 33.51900 24.62500
C  -1.91200 35.70800 21.92700
C  -1.54400 32.16400 22.83800
C  -2.16700 31.23500 21.79600
N  -3.54000 33.53200 27.47700
C  -4.10400 32.71100 26.53700
C  -5.05000 31.80500 27.12100
C  -5.00700 32.09400 28.53900
C  -4.07100 33.20800 28.68300
C  -5.75700 30.78000 26.35900
C  -5.29400 31.64600 29.88900
O  -5.90500 30.64000 30.27200
C  -4.72400 32.67100 30.92000
C  -5.78400 33.36800 31.69500
O  -6.23700 34.51100 31.68700
O  -6.07300 32.38600 32.61500
C  -7.00500 32.75700 33.65200
H  -0.53200 38.09800 30.29600
H  -0.05700 36.82800 23.92400
H  -4.12300 31.90500 24.47000
H  -3.74100 35.19900 32.30600
H  -1.23500 36.82500 32.20800
H  -4.09900 37.32700 32.57200
H  -3.57400 38.26800 31.13400
H  -2.72200 38.44500 32.64600
H  -0.82900 34.17200 32.48000
H  -2.20600 33.21000 32.77400
H  -2.27000 35.71500 34.31200
H  -0.83700 34.80500 34.70300
H  0.28400 40.67700 28.28300
H  1.88100 39.90600 28.12200
H  0.87200 39.38400 29.44700
H  1.20200 40.87500 25.65800
H  2.49200 40.49200 24.53400
H  2.71600 39.96600 26.25200
H  -0.38500 34.45100 22.75500
H  -3.06500 33.51500 22.40400
H  -2.93800 35.48700 21.63300
H  -1.26000 35.67800 21.05300
H  -1.84000 36.71100 22.34600
H  -1.28100 31.73300 23.80300
H  -0.56500 32.38400 22.41100
H  -1.47600 31.15600 20.95700
H  -3.16400 31.55600 21.49400
H  -2.30200 30.22700 22.18900
H  -6.33200 31.32000 25.60700
H  -6.40700 30.37700 27.13500
H  -5.06300 30.08200 25.89000
H  -4.06100 32.09100 31.56100
H  -6.71200 33.44800 34.44200
H  -7.41800 31.86300 34.12000
H  -7.89900 33.16300 33.17900

