158

Mg 35.00700 48.53200 25.63500
C  35.50100 46.82500 28.76800
C  33.89300 51.15500 27.41500
C  34.09700 49.91000 22.70200
C  35.72200 45.53500 24.07400
N  34.86400 48.93700 27.82400
C  34.99900 48.09500 28.91000
C  34.71000 48.73300 30.27300
C  34.05400 50.10600 29.77700
C  34.24000 50.07800 28.25800
C  32.60900 50.30300 30.26800
C  35.96500 49.03700 31.19600
C  35.90200 48.52200 32.58300
H  35.83800 49.56700 33.69100
N  34.25100 50.36800 25.18100
C  33.92100 51.34500 26.00900
C  33.56900 52.54900 25.24700
C  33.68400 52.23600 23.85600
C  33.99800 50.72500 23.89000
C  33.14400 53.86000 25.94600
C  33.47500 53.07200 22.66000
O  33.82000 52.62700 21.58100
C  32.93500 54.48400 22.84400
N  34.86700 47.82800 23.63600
C  34.50400 48.59000 22.56000
C  34.48100 47.86500 21.24300
C  35.09100 46.52800 21.68900
C  35.24600 46.57100 23.20600
C  33.20700 47.75900 20.39700
C  36.43300 46.16100 21.05200
C  36.38500 45.24400 19.79600
N  35.55600 46.58900 26.26400
C  35.93800 45.54000 25.48000
C  36.45100 44.41300 26.28700
C  36.26700 44.88800 27.61000
C  35.75000 46.17200 27.53800
C  36.99900 43.12000 25.87400
C  36.39000 44.56800 28.98100
O  36.86000 43.55300 29.54700
C  35.82200 45.79400 29.80500
C  34.66900 45.33100 30.64100
O  33.50400 45.10500 30.33700
O  35.06700 45.24400 31.98600
C  34.10300 44.86100 33.05700
H  33.58700 52.04800 27.96500
H  34.01600 50.36400 21.71200
H  36.02200 44.62400 23.55200
H  33.95100 48.16100 30.80700
H  34.67000 50.95700 30.06700
H  32.59600 50.81100 31.23200
H  31.97200 49.41900 30.28100
H  32.02000 50.85800 29.53700
H  36.18500 50.10300 31.25700
H  36.82800 48.55300 30.74000
H  36.86800 48.02400 32.67000
H  35.13700 47.75900 32.72400
H  33.88500 54.61100 25.67400
H  33.12400 53.75400 27.03100
H  32.16400 54.07800 25.52200
H  32.88200 54.96400 21.86700
H  33.75100 55.01000 23.33900
H  32.01100 54.46400 23.42300
H  35.30200 48.29600 20.66900
H  34.37800 45.77800 21.34700
H  32.44400 48.21300 21.02900
H  32.88800 46.74900 20.14000
H  33.29700 48.30200 19.45600
H  37.10200 45.64800 21.74300
H  36.98400 47.08700 20.88800
H  36.69200 45.73300 18.87200
H  35.33600 44.99200 19.64200
H  37.07600 44.44000 20.04900
H  37.77200 43.28400 25.12300
H  36.22500 42.52400 25.39100
H  37.39400 42.55700 26.71900
H  36.59700 46.14300 30.48900
H  33.14100 44.53100 32.66400
H  33.88600 45.67500 33.75000
H  34.55600 44.05300 33.63100
Mg 0.47700 44.25300 26.16700
C  3.03900 44.45600 28.70100
C  -1.72400 43.55500 28.67500
C  -1.81000 43.90400 23.71100
C  3.00800 44.79200 23.69600
N  0.66800 44.23100 28.42200
C  1.75300 44.40500 29.22900
C  1.33600 44.21400 30.66000
C  -0.14200 43.74100 30.67400
C  -0.44600 43.80400 29.15900
C  -0.37000 42.41400 31.37600
C  1.68500 45.57800 31.44600
C  1.49600 45.57300 32.94000
H  1.37900 44.25300 33.71700
N  -1.48900 43.75200 26.19600
C  -2.22100 43.55400 27.36200
C  -3.62700 43.50500 26.92300
C  -3.68400 43.49700 25.55600
C  -2.31600 43.73200 25.06800
C  -4.73500 43.34800 28.01200
C  -4.90300 43.48500 24.61800
O  -4.77300 43.60700 23.39300
C  -6.25600 43.34600 25.18200
N  0.54100 44.34000 24.03700
C  -0.48900 44.13400 23.25700
C  -0.10900 44.04300 21.78800
C  1.32000 44.66100 21.77700
C  1.68700 44.55900 23.26500
C  -0.26700 42.69900 21.07100
C  1.34600 46.04600 21.07100
C  2.49300 46.19300 20.14600
N  2.61900 44.50800 26.07300
C  3.49200 44.77100 25.04000
C  4.85300 44.94400 25.64700
C  4.68600 44.82500 27.00500
C  3.30700 44.54100 27.27100
C  6.06200 45.26100 24.90400
C  5.41000 44.83200 28.20000
O  6.62200 44.86300 28.47500
C  4.28800 44.70400 29.31300
C  4.73200 43.58700 30.25000
O  4.76500 42.40600 29.96400
O  5.06100 44.07500 31.57400
C  5.41400 43.04300 32.59900
H  -2.43800 43.40200 29.48700
H  -2.52500 43.61200 22.93900
H  3.77700 44.91200 22.93000
H  2.01300 43.46600 31.07200
H  -0.70900 44.48400 31.23500
H  0.62700 42.03600 31.60200
H  -0.80300 41.71300 30.66200
H  -0.99600 42.48100 32.26600
H  1.15600 46.42100 31.00200
H  2.74400 45.77600 31.28400
H  0.60500 46.16400 33.15300
H  2.36000 46.08800 33.36100
H  -5.48700 42.61200 27.72800
H  -5.25000 44.30800 27.98500
H  -4.49500 43.17500 29.06100
H  -6.25800 44.27000 25.76000
H  -6.42600 42.42100 25.73200
H  -7.01000 43.28800 24.39700
H  -0.81800 44.64400 21.21900
H  1.85300 43.93300 21.16500
H  -0.43900 41.87900 21.76800
H  0.60500 42.32200 20.53800
H  -0.98700 42.80400 20.25900
H  1.45300 46.73800 21.90700
H  0.43600 46.30500 20.53000
H  2.99600 47.14600 20.31100
H  2.16000 46.11100 19.11200
H  3.17800 45.35300 20.26300
H  5.77800 45.57600 23.90000
H  6.67500 44.37000 24.76500
H  6.72300 45.98500 25.38200
H  4.23900 45.63600 29.87700
H  5.96400 43.54100 33.39700
H  6.05100 42.28000 32.15100
H  4.57100 42.59600 33.12600

