158

Mg 17.47100 -2.98100 27.80800
C  16.30800 -0.96200 30.36800
C  19.39300 -4.64800 29.95400
C  18.72300 -4.77500 25.16800
C  16.01200 -0.67900 25.53500
N  17.86600 -2.74400 29.89100
C  17.18900 -1.98400 30.75300
C  17.67800 -2.21800 32.21700
C  18.83000 -3.24700 32.04500
C  18.78100 -3.54700 30.51800
C  20.21800 -2.81100 32.51200
C  16.51000 -2.71100 33.17400
C  16.52100 -2.12600 34.55100
H  17.84800 -1.50200 35.12500
N  18.68300 -4.59900 27.59700
C  19.33200 -5.16700 28.59500
C  20.04500 -6.32500 28.11500
C  19.83700 -6.34900 26.74600
C  18.96200 -5.27000 26.44400
C  20.72700 -7.26400 29.07600
C  20.39900 -7.35600 25.73900
O  20.22600 -7.26600 24.50500
C  21.22400 -8.46200 26.20000
N  17.43600 -2.72500 25.66900
C  18.08400 -3.54900 24.84000
C  18.12700 -2.97200 23.39500
C  16.97600 -1.92800 23.52300
C  16.83600 -1.71600 25.02900
C  19.51000 -2.37700 23.02200
C  15.59400 -2.30600 22.80700
C  14.40400 -2.66600 23.70200
N  16.22400 -1.25400 27.89600
C  15.77000 -0.36100 26.86100
C  15.07500 0.68700 27.47000
C  15.20900 0.45900 28.82400
C  15.95500 -0.66900 29.02500
C  14.38700 1.79000 26.81100
C  14.78700 0.95100 30.12200
O  14.02000 1.94100 30.30700
C  15.58200 0.02800 31.13100
C  16.32900 0.97400 31.97900
O  17.45600 1.35700 31.76000
O  15.43700 1.33600 32.90200
C  15.98200 2.09300 34.01800
H  19.94900 -5.23300 30.69000
H  19.23300 -5.18100 24.29100
H  15.38400 -0.05500 24.89700
H  18.02100 -1.28000 32.65300
H  18.61200 -4.18200 32.56100
H  21.05600 -2.84100 31.81500
H  20.49800 -3.44000 33.35700
H  20.24500 -1.77800 32.85900
H  16.44500 -3.79700 33.25200
H  15.56400 -2.48000 32.68400
H  16.32200 -2.98200 35.19500
H  15.76400 -1.34300 34.58500
H  21.75500 -7.44400 28.76200
H  20.19400 -8.20500 28.94600
H  20.86300 -6.97800 30.11900
H  20.60800 -8.90000 26.98600
H  22.18000 -8.10900 26.58800
H  21.39200 -9.08500 25.32100
H  17.79600 -3.73600 22.69100
H  17.28800 -0.94700 23.16400
H  20.23700 -2.20100 23.81500
H  19.44500 -1.36000 22.63600
H  19.94700 -3.06200 22.29600
H  15.78800 -3.20000 22.21400
H  15.34100 -1.44600 22.18700
H  14.01700 -1.81600 24.26300
H  14.75900 -3.41100 24.41300
H  13.52300 -3.06200 23.19700
H  14.75600 2.76800 27.12000
H  13.34900 1.74800 27.14000
H  14.44500 1.66900 25.72900
H  14.90100 -0.55700 31.75000
H  17.00400 1.86200 34.31700
H  15.57200 1.95300 35.01900
H  15.77300 3.13600 33.78300
Mg -9.65300 40.78300 41.46500
C  -8.62100 37.40400 40.96700
C  -6.80500 41.74900 39.83500
C  -10.73800 43.98300 41.62800
C  -12.55600 39.58600 42.74400
N  -7.95400 39.66700 40.49900
C  -7.76800 38.27300 40.40800
C  -6.42300 37.97700 39.72000
C  -5.70800 39.37800 39.72400
C  -6.88300 40.35400 40.01800
C  -4.54200 39.54300 40.65800
C  -6.74200 37.48800 38.26700
C  -5.92300 36.18500 37.84900
H  -4.95900 36.42000 36.75700
N  -8.96800 42.63200 40.67100
C  -7.64000 42.85100 40.21600
C  -7.34800 44.25000 40.10600
C  -8.58400 44.91700 40.57900
C  -9.51400 43.82500 40.96100
C  -5.98100 44.78800 39.70500
C  -8.68300 46.40200 40.57100
O  -7.77900 47.18200 40.24700
C  -9.94100 47.06200 41.12100
N  -11.50300 41.57600 41.92900
C  -11.67500 43.00200 42.03500
C  -13.09000 43.33000 42.53300
C  -13.71700 41.91900 42.65300
C  -12.52100 40.95300 42.48800
C  -13.12100 44.22900 43.75500
C  -14.95800 41.57500 41.70700
C  -16.19600 41.05400 42.37600
N  -10.41400 38.88200 41.91000
C  -11.62400 38.53400 42.45500
C  -11.68300 37.18900 42.76300
C  -10.49800 36.68300 42.20000
C  -9.80300 37.74200 41.65900
C  -12.82500 36.51500 43.43600
C  -9.69500 35.45400 42.06400
O  -9.82300 34.23900 42.45300
C  -8.50700 35.89800 41.09500
C  -7.20600 35.53400 41.76600
O  -6.92600 35.70300 42.92200
O  -6.45600 34.80400 40.83800
C  -5.26300 34.24100 41.47400
H  -5.83600 42.02500 39.41300
H  -11.03500 45.00600 41.87100
H  -13.56000 39.32000 43.08100
H  -5.73900 37.39400 40.33700
H  -5.37500 39.63400 38.71900
H  -3.68900 39.12300 40.12400
H  -4.72400 38.77200 41.40700
H  -4.39300 40.56000 41.02000
H  -6.59000 38.25300 37.50600
H  -7.75000 37.07500 38.25200
H  -6.63400 35.40300 37.58300
H  -5.33700 35.78600 38.67600
H  -5.54500 45.30200 40.56200
H  -6.14100 45.50000 38.89500
H  -5.38200 43.92900 39.40300
H  -9.99100 46.95500 42.20500
H  -10.90400 46.69900 40.76400
H  -9.83500 48.13600 40.96900
H  -13.50700 43.78000 41.63200
H  -14.01100 41.77700 43.69300
H  -13.60900 45.16400 43.47900
H  -12.12800 44.35500 44.18500
H  -13.74100 43.73100 44.50000
H  -14.73000 40.97600 40.82500
H  -15.31100 42.56400 41.41500
H  -15.85200 40.46400 43.22600
H  -16.81400 40.53500 41.64400
H  -16.85600 41.79100 42.83200
H  -12.47300 35.61200 43.93400
H  -13.54000 36.36400 42.62700
H  -13.28500 37.15500 44.18900
H  -8.61000 35.43700 40.11300
H  -4.70100 33.71800 40.70000
H  -5.41500 33.61000 42.35000
H  -4.62100 35.03000 41.86500

