158

Mg 49.32100 47.02500 42.53400
C  46.05500 47.61000 41.24800
C  49.24300 43.95900 40.71300
C  52.61900 46.62000 43.00300
C  49.41000 50.32200 43.54600
N  47.81400 45.96500 41.08800
C  46.56000 46.37600 40.75100
C  45.75100 45.34600 39.89200
C  46.80800 44.15700 39.93200
C  48.03800 44.66600 40.68800
C  46.29500 42.66800 40.18600
C  45.34400 45.81200 38.42400
C  44.20900 45.02500 37.72300
H  44.48600 43.88400 36.77200
N  50.70800 45.38200 42.12200
C  50.49800 44.28700 41.29300
C  51.75700 43.55700 41.10100
C  52.76100 44.35200 41.71100
C  52.04100 45.51500 42.32400
C  51.85400 42.28800 40.34300
C  54.31300 44.02300 41.72100
O  54.68300 42.89000 41.28700
C  55.36400 44.97300 42.35100
N  50.87200 48.29000 43.15100
C  52.08600 47.84500 43.49700
C  52.93600 49.08200 44.01800
C  51.87700 50.18000 44.19800
C  50.57800 49.54200 43.61700
C  53.83300 48.91900 45.29600
C  52.23100 51.47100 43.50100
C  52.12500 52.62000 44.48600
N  48.03400 48.62000 42.52700
C  48.14400 49.80200 43.12800
C  46.94900 50.59000 43.00100
C  46.06600 49.72600 42.32900
C  46.78000 48.57800 41.96400
C  46.85700 52.03000 43.32700
C  44.78800 49.56200 41.76800
O  43.86500 50.36200 41.94900
C  44.69300 48.29800 40.89900
C  43.57000 47.57200 41.40300
O  43.27600 47.42200 42.55500
O  43.01500 46.97600 40.31200
C  41.91300 46.03800 40.51200
H  49.14600 43.07000 40.08600
H  53.68900 46.65500 43.22100
H  49.46800 51.28800 44.05200
H  44.83200 45.07400 40.41200
H  47.12500 44.09900 38.89000
H  46.74100 42.26300 41.09400
H  46.59200 42.03000 39.35400
H  45.22300 42.82100 40.31500
H  46.26200 45.75500 37.83900
H  45.02500 46.85300 38.46900
H  43.54800 45.82400 37.38900
H  43.58100 44.68100 38.54500
H  51.97800 41.44400 41.02200
H  52.74800 42.33600 39.72200
H  51.04500 42.05700 39.65000
H  56.37900 44.57800 42.31900
H  55.03600 44.88200 43.38600
H  55.26300 45.99300 41.98200
H  53.51900 49.29500 43.12300
H  51.64700 50.40500 45.24000
H  54.02600 47.84700 45.28400
H  53.40800 49.30200 46.22400
H  54.81500 49.38500 45.20500
H  51.57600 51.63500 42.64500
H  53.23700 51.50400 43.08300
H  53.13600 52.88900 44.79200
H  51.43900 52.36600 45.29400
H  51.69900 53.48000 43.96900
H  47.13100 52.33500 44.33700
H  45.79900 52.29400 43.31400
H  47.30800 52.70700 42.60200
H  44.65100 48.53700 39.83600
H  41.91700 45.69900 41.54800
H  41.94200 45.16400 39.86200
H  40.99400 46.58800 40.31300
Mg -1.38300 34.23600 26.62900
C  -3.19800 32.46200 29.16700
C  0.12500 36.09500 29.23700
C  -0.13800 36.28800 24.30800
C  -3.00000 32.48800 24.22400
N  -1.57700 34.23200 28.92300
C  -2.25400 33.40200 29.73900
C  -2.08700 33.59800 31.25700
C  -1.09600 34.84700 31.23300
C  -0.78300 35.04000 29.64400
C  -1.55500 36.14300 31.89600
C  -1.47200 32.37400 31.92600
C  -2.14000 31.81100 33.16900
H  -1.42900 31.92600 34.48200
N  -0.20100 36.00200 26.72600
C  0.41300 36.52300 27.87500
C  1.18400 37.69700 27.51700
C  1.09700 37.69500 26.12800
C  0.29100 36.64300 25.63800
C  1.91600 38.56000 28.49800
C  1.55400 38.73100 25.14100
O  1.32500 38.77400 23.93400
C  2.31400 39.93900 25.57500
N  -1.64000 34.38300 24.57900
C  -0.92700 35.27400 23.84200
C  -0.96300 34.95900 22.33400
C  -1.74100 33.52700 22.35000
C  -2.22800 33.47900 23.75900
C  -1.75400 36.11300 21.57500
C  -0.96800 32.26100 21.93800
C  0.36200 31.84900 22.57500
N  -2.83300 32.83000 26.64300
C  -3.41600 32.27000 25.61900
C  -4.34300 31.30300 26.08000
C  -4.26900 31.32300 27.46500
C  -3.37400 32.34000 27.74700
C  -5.11600 30.38400 25.24200
C  -4.75000 30.67500 28.65700
O  -5.54500 29.70900 28.76200
C  -4.08700 31.42800 29.87600
C  -5.05600 32.05200 30.76100
O  -5.51300 33.22800 30.73200
O  -5.46500 31.15400 31.76400
C  -6.40600 31.69800 32.71000
H  0.49100 36.70900 30.06200
H  0.40000 36.63500 23.42300
H  -3.43300 31.80100 23.49300
H  -3.05000 33.87000 31.69000
H  -0.11000 34.64000 31.64900
H  -0.64900 36.51000 32.37900
H  -2.32100 35.92200 32.63900
H  -1.75800 36.92400 31.16300
H  -0.44500 32.62500 32.19100
H  -1.46500 31.60000 31.15800
H  -2.36900 30.75800 33.00000
H  -3.16000 32.18400 33.25500
H  2.43600 39.45700 28.16200
H  2.67900 37.95100 28.98300
H  1.24400 38.81300 29.31700
H  2.41700 40.59600 24.71200
H  3.29000 39.57800 25.90000
H  1.81900 40.50000 26.36800
H  0.02200 34.78200 21.90400
H  -2.64600 33.69000 21.76400
H  -1.79300 36.99000 22.22100
H  -2.77900 35.76900 21.43600
H  -1.33500 36.35200 20.59800
H  -0.90400 32.51900 20.88100
H  -1.66100 31.46000 22.19800
H  0.34100 32.40600 23.51200
H  1.29800 32.14800 22.10300
H  0.45200 30.82100 22.92600
H  -4.63600 30.16400 24.28800
H  -6.11200 30.76000 25.00800
H  -5.12800 29.38300 25.67200
H  -3.47600 30.71000 30.42300
H  -7.25400 32.26900 32.33100
H  -5.96300 32.48500 33.32100
H  -6.71600 30.85100 33.32300

