158

Mg -1.73900 17.50100 27.94200
C  -1.77300 14.94200 30.36700
C  -2.21100 19.85200 30.34500
C  -2.06800 19.65200 25.49100
C  -1.75200 14.79700 25.57100
N  -2.08500 17.33600 30.11400
C  -1.85900 16.22900 30.92300
C  -1.92600 16.60700 32.38000
C  -2.54300 18.11700 32.22500
C  -2.30600 18.48900 30.82000
C  -4.00700 18.13300 32.80800
C  -0.51700 16.68300 33.00100
C  -0.34700 17.33700 34.40500
H  0.44000 16.57100 35.44200
N  -1.91800 19.50800 27.95100
C  -2.12000 20.30600 29.01700
C  -2.27400 21.68400 28.55700
C  -2.24600 21.60200 27.13000
C  -2.07100 20.23100 26.78200
C  -2.40400 22.91500 29.49700
C  -2.32400 22.78500 26.19500
O  -2.25600 22.64400 25.00200
C  -2.51400 24.19500 26.62200
N  -1.67900 17.21500 25.95400
C  -1.86900 18.31400 25.09900
C  -1.92500 17.91200 23.59400
C  -1.41800 16.41200 23.67200
C  -1.64900 16.09800 25.14100
C  -3.32500 18.10400 22.99900
C  0.05700 16.15000 23.15100
C  1.28600 16.45900 24.12400
N  -1.80900 15.30000 27.89700
C  -1.70600 14.41700 26.87600
C  -1.70300 13.01700 27.37900
C  -1.67800 13.14700 28.78400
C  -1.79700 14.58400 29.00600
C  -1.79200 11.74400 26.51000
C  -1.71500 12.52700 30.04100
O  -1.89900 11.34900 30.38500
C  -1.72800 13.66800 31.10800
C  -0.41100 13.54400 31.80600
O  0.72100 13.65600 31.22500
O  -0.62300 13.16100 33.10200
C  0.58800 12.97000 33.82500
H  -2.40500 20.61000 31.10700
H  -2.27600 20.26600 24.61200
H  -1.73000 14.00700 24.81800
H  -2.49400 15.83700 32.90200
H  -2.05100 18.77900 32.93600
H  -4.04200 18.84100 33.63600
H  -4.33200 17.10600 32.97700
H  -4.59600 18.52200 31.97700
H  0.16600 17.19500 32.32300
H  -0.09100 15.68500 33.10300
H  -1.35900 17.55500 34.74600
H  0.11400 18.31900 34.29800
H  -3.37200 23.38300 29.31900
H  -1.54900 23.58500 29.40800
H  -2.58000 22.55400 30.51100
H  -3.53500 24.39300 26.94700
H  -2.13300 24.78000 25.78400
H  -1.96000 24.48900 27.51300
H  -1.23000 18.59300 23.10200
H  -2.10300 15.81800 23.06600
H  -3.83700 18.92100 23.50800
H  -3.94700 17.22100 23.15100
H  -3.21300 18.30400 21.93400
H  0.19200 16.71100 22.22600
H  0.17200 15.10700 22.85700
H  1.90400 15.57300 24.26900
H  0.83900 16.99600 24.96100
H  1.84800 17.15800 23.50400
H  -1.45700 11.97200 25.49800
H  -2.84600 11.46500 26.52400
H  -1.11800 10.95400 26.84200
H  -2.61400 13.57900 31.73700
H  0.81800 11.90400 33.85000
H  0.47900 13.29400 34.86000
H  1.48500 13.47500 33.46800
Mg 49.41200 35.22100 27.70100
C  47.27500 33.64600 29.86100
C  49.40300 37.92300 29.73000
C  50.90000 36.93600 25.27200
C  48.79300 32.63400 25.32700
N  48.30400 35.78100 29.51700
C  47.77300 34.84800 30.37700
C  47.65400 35.35500 31.81400
C  48.13800 36.87100 31.63900
C  48.60600 36.90900 30.23800
C  47.04900 38.00100 32.02500
C  48.43700 34.57700 32.86300
C  47.84800 34.25700 34.20400
H  46.89800 35.27900 34.77800
N  50.11200 37.16600 27.47600
C  50.13600 38.06900 28.48900
C  50.76100 39.33100 28.02000
C  51.08600 39.10400 26.59000
C  50.69100 37.66700 26.38900
C  50.92200 40.53700 28.87900
C  51.71000 40.13100 25.58900
O  52.06400 39.86100 24.45700
C  51.81700 41.66100 25.80400
N  49.77000 34.84200 25.52400
C  50.48900 35.65300 24.91500
C  50.83500 35.01600 23.52400
C  50.30200 33.58000 23.55400
C  49.60500 33.64500 24.88900
C  50.40500 35.94000 22.41600
C  51.40200 32.43400 23.50500
C  51.13300 31.11400 22.80800
N  48.26800 33.46700 27.55000
C  48.13700 32.50400 26.61100
C  47.09500 31.50900 26.99100
C  46.74300 31.89600 28.29500
C  47.44800 33.12300 28.54800
C  46.62800 30.39500 26.18000
C  46.01400 31.50400 29.53000
O  45.29700 30.56400 29.84800
C  46.36000 32.59500 30.55700
C  46.92300 31.84000 31.66800
O  48.07000 31.37800 31.68300
O  45.86900 31.59000 32.55800
C  46.28500 30.65400 33.61300
H  49.54500 38.74200 30.43800
H  51.30200 37.54900 24.46300
H  48.56700 31.75000 24.72700
H  46.61000 35.47800 32.10400
H  49.05300 36.97100 32.22300
H  46.34300 37.63000 32.76800
H  46.74200 38.47800 31.09500
H  47.65600 38.74200 32.54600
H  49.33100 35.12500 33.16200
H  48.76700 33.63900 32.41700
H  48.67900 34.28500 34.91000
H  47.32900 33.29900 34.18200
H  51.33200 41.41200 28.37500
H  51.59000 40.35000 29.72000
H  49.95500 40.73100 29.34300
H  52.10200 42.23900 24.92400
H  52.61200 41.87400 26.51800
H  50.85000 41.90800 26.24200
H  51.92400 35.01000 23.50800
H  49.53300 33.48200 22.78800
H  50.01400 35.34200 21.59300
H  51.35300 36.31000 22.02600
H  49.81800 36.81800 22.68600
H  51.47800 32.21000 24.56900
H  52.30200 32.99800 23.25900
H  52.00800 30.91600 22.18900
H  50.19700 31.10200 22.24800
H  51.11700 30.37300 23.60700
H  47.01300 30.42000 25.16000
H  45.55100 30.51100 26.05700
H  46.76800 29.43200 26.67100
H  45.53500 33.18300 30.95800
H  47.25700 30.94000 34.01500
H  46.33700 29.59400 33.36300
H  45.57300 30.83200 34.41900

