158

Mg 9.72600 47.47100 26.37700
C  7.97700 47.57800 29.34600
C  12.42500 48.51200 28.06200
C  11.38900 47.50900 23.46900
C  6.72500 46.82300 24.55700
N  10.08300 48.18800 28.43200
C  9.23300 48.13600 29.51500
C  10.01100 48.46200 30.87500
C  11.16200 49.34200 30.21200
C  11.25600 48.65400 28.78000
C  10.86200 50.98800 30.18400
C  10.47500 47.29200 31.73300
C  10.03100 47.38600 33.24400
H  10.02700 46.21200 34.19700
N  11.64100 47.76100 25.90600
C  12.66000 48.00500 26.77800
C  13.90100 47.93200 26.06700
C  13.64500 47.63600 24.69800
C  12.14200 47.64800 24.60900
C  15.22700 48.02100 26.70200
C  14.58700 47.49300 23.53000
O  14.26400 47.49600 22.35900
C  16.02100 47.56800 23.74800
N  9.13500 47.14500 24.29600
C  10.00400 47.45800 23.30500
C  9.32700 47.29600 21.86200
C  7.86400 46.80900 22.30100
C  7.85000 46.99400 23.81800
C  9.29000 48.55900 21.01400
C  7.43200 45.40500 21.85400
C  8.31600 44.11900 22.16400
N  7.68400 47.38700 26.76700
C  6.60200 47.06600 25.97300
C  5.46200 46.94200 26.77800
C  6.00200 47.00200 28.11800
C  7.33900 47.34400 28.07700
C  4.10700 46.55200 26.36100
C  5.62400 46.88400 29.54000
O  4.56200 46.63500 30.05100
C  6.94700 47.17400 30.34800
C  7.29700 45.90700 31.01100
O  8.03600 45.02900 30.54500
O  6.65300 45.85600 32.17900
C  6.98400 44.66400 33.03600
H  13.28100 48.86400 28.64300
H  11.94100 47.37600 22.53600
H  5.76500 46.64300 24.06800
H  9.29500 49.07000 31.42800
H  12.09000 49.22600 30.77200
H  10.04300 51.21500 30.86700
H  10.72400 51.25800 29.13700
H  11.77100 51.46500 30.54900
H  11.56200 47.21900 31.77100
H  10.13100 46.35200 31.30100
H  9.03400 47.82400 33.21700
H  10.73800 48.07100 33.71100
H  15.21100 48.10900 27.78900
H  15.73000 48.91900 26.34300
H  15.82100 47.13700 26.47100
H  16.17100 48.62400 23.97400
H  16.57400 47.39300 22.82500
H  16.18000 46.79200 24.49700
H  9.77500 46.46600 21.31500
H  7.07700 47.50000 21.99900
H  10.05200 48.41400 20.24800
H  9.50500 49.46200 21.58600
H  8.31800 48.62100 20.52500
H  7.33800 45.42200 20.76800
H  6.38600 45.22800 22.10600
H  9.20000 44.40600 22.73500
H  8.57000 43.61000 21.23400
H  7.85000 43.41100 22.85000
H  3.52900 46.51100 27.28400
H  4.12700 45.66800 25.72400
H  3.72900 47.36100 25.73700
H  6.63000 47.85100 31.14200
H  7.87800 44.98600 33.57100
H  7.14600 43.69100 32.57200
H  6.19400 44.54200 33.77700
Mg 1.18400 41.91900 26.21200
C  3.21000 42.54500 28.98900
C  -1.26700 40.81400 28.54200
C  -0.59200 40.93300 23.69100
C  3.90400 42.61000 24.11700
N  1.09100 41.69300 28.52000
C  1.98300 42.10900 29.42100
C  1.39600 42.08300 30.89500
C  0.01500 41.41500 30.63500
C  -0.06600 41.28700 29.14400
C  -0.24900 40.07400 31.38800
C  1.17200 43.65700 31.25400
C  1.27800 44.03800 32.78400
H  1.19400 42.83600 33.70600
N  -0.70700 41.00700 26.09900
C  -1.54000 40.63800 27.17400
C  -2.73500 40.04000 26.64800
C  -2.53400 39.97400 25.24000
C  -1.27300 40.71200 24.91300
C  -3.79700 39.45400 27.59200
C  -3.32900 39.16200 24.21100
O  -3.06900 39.18200 23.00200
C  -4.49200 38.40100 24.64100
N  1.57300 41.89200 24.19800
C  0.60600 41.46500 23.32800
C  1.01800 41.59700 21.81100
C  2.34000 42.49100 22.07800
C  2.70100 42.35300 23.50100
C  1.31600 40.27900 21.00500
C  2.24300 43.97300 21.68500
C  3.37900 44.67100 20.91400
N  3.15800 42.42200 26.42700
C  4.14400 42.62500 25.49100
C  5.35400 42.94000 26.15700
C  5.07900 42.89200 27.53800
C  3.70500 42.55100 27.66900
C  6.54900 43.56600 25.50700
C  5.61300 43.02300 28.85400
O  6.79500 43.21800 29.19500
C  4.48700 42.73500 29.83100
C  4.88100 41.61300 30.69700
O  4.71800 40.44700 30.36300
O  5.34400 42.07400 31.88500
C  5.84100 41.07100 32.80100
H  -2.08700 40.69400 29.25200
H  -1.09700 40.52700 22.81300
H  4.66200 42.84700 23.36800
H  2.11000 41.55100 31.52400
H  -0.82400 42.09300 30.79100
H  0.56200 39.89600 32.09300
H  -0.36300 39.32500 30.60300
H  -1.17600 40.32500 31.90300
H  0.17200 44.00200 30.99300
H  1.92900 44.29900 30.80200
H  0.43500 44.70400 32.96600
H  2.22200 44.53700 33.00000
H  -4.81300 39.60100 27.22300
H  -3.90500 39.90600 28.57800
H  -3.59400 38.39200 27.72700
H  -4.92400 37.81000 23.83300
H  -5.21700 39.10800 25.04200
H  -4.18600 37.63800 25.35700
H  0.15400 42.02900 21.30600
H  3.17500 42.09800 21.49900
H  0.69700 39.54200 21.51700
H  2.34800 39.93300 21.07300
H  1.13300 40.55000 19.96500
H  2.10000 44.62000 22.55100
H  1.37800 44.11500 21.03700
H  2.98200 44.89600 19.92400
H  4.28800 44.06900 20.89000
H  3.69800 45.56700 21.44600
H  6.94000 44.13500 26.35100
H  6.20900 44.30800 24.78400
H  7.27200 42.85700 25.10600
H  4.38600 43.63600 30.43700
H  6.92000 41.11000 32.94500
H  5.56100 40.06200 32.49900
H  5.45700 41.24200 33.80600

