158

Mg 40.79500 9.30200 29.24300
C  42.54600 10.63700 32.15500
C  38.61800 7.83500 31.34500
C  39.19200 8.36800 26.56300
C  43.48900 10.40300 27.34400
N  40.62400 9.26200 31.39400
C  41.36400 9.90200 32.40300
C  40.71400 9.77800 33.83800
C  39.65200 8.68300 33.51000
C  39.62500 8.57800 31.98400
C  40.05700 7.35500 34.23700
C  40.21700 11.20500 34.39500
C  40.39100 11.28800 35.97900
H  40.80300 12.64000 36.73800
N  39.15400 8.19400 28.96100
C  38.32100 7.64000 29.96100
C  37.21500 7.00300 29.38800
C  37.29100 7.37600 27.99500
C  38.57900 7.98000 27.72600
C  36.16400 6.36200 30.18200
C  36.24100 7.17900 26.87600
O  36.40000 7.51900 25.71700
C  34.87700 6.61400 27.26700
N  41.34600 9.35200 27.27100
C  40.39500 8.91700 26.32500
C  40.99900 9.01600 24.89100
C  42.36500 9.58400 25.16900
C  42.43700 9.81600 26.66000
C  40.88600 7.81100 23.99000
C  42.71900 10.79500 24.28200
C  42.14000 12.07800 24.90000
N  42.54100 10.43600 29.56500
C  43.55300 10.76800 28.66400
C  44.62100 11.47600 29.36000
C  44.25700 11.43000 30.71300
C  42.95800 10.86000 30.85000
C  45.95800 11.85200 28.74600
C  44.73000 11.78700 32.06100
O  45.79700 12.23600 32.36500
C  43.63200 11.39300 33.04200
C  44.07600 10.39000 34.03100
O  44.47400 9.24600 33.73400
O  43.81700 10.93600 35.28800
C  43.92700 9.94800 36.43900
H  37.96100 7.23400 31.97700
H  38.71900 7.93500 25.67900
H  44.36200 10.61200 26.72300
H  41.50900 9.36400 34.45700
H  38.67800 8.88600 33.95500
H  40.51300 6.77100 33.43800
H  39.19800 6.86900 34.69900
H  40.81500 7.55400 34.99400
H  39.13200 11.29600 34.34400
H  40.75300 12.09600 34.06800
H  41.09500 10.50700 36.26900
H  39.39400 11.06100 36.35700
H  36.55700 6.16300 31.17900
H  35.98100 5.33400 29.86800
H  35.23200 6.92700 30.20300
H  34.24500 6.28600 26.44200
H  34.44900 7.28100 28.01500
H  35.10600 5.70400 27.82200
H  40.44700 9.79400 24.36400
H  43.06500 8.78200 24.93500
H  41.80700 7.57600 23.45800
H  40.08100 7.97300 23.27300
H  40.59700 6.92700 24.55800
H  42.40900 10.70800 23.24000
H  43.79600 10.93400 24.18500
H  41.10400 11.91400 25.19700
H  42.09700 12.87200 24.15400
H  42.80000 12.42500 25.69500
H  46.08100 11.36600 27.77800
H  46.77800 11.37900 29.28600
H  46.12100 12.92900 28.71800
H  43.04500 12.20500 33.47100
H  43.46300 10.41600 37.30700
H  44.97200 9.74400 36.67400
H  43.38300 9.07100 36.08900
Mg 47.68100 16.70100 29.02900
C  45.25600 16.39000 31.74300
C  49.59500 18.69100 31.01500
C  49.54000 17.31000 26.40600
C  45.10100 15.31700 26.97500
N  47.39300 17.35400 31.13500
C  46.42900 17.07800 32.11000
C  46.86900 17.55800 33.50200
C  48.12000 18.39600 33.15200
C  48.43400 18.15600 31.61600
C  47.93800 19.90500 33.45600
C  47.00700 16.36200 34.55300
C  46.19300 16.48300 35.86800
H  46.08200 17.82400 36.56000
N  49.41000 17.75100 28.79100
C  50.04400 18.50300 29.69500
C  51.22300 19.07900 29.08100
C  51.30300 18.58600 27.79700
C  50.06000 17.78900 27.61000
C  52.16900 19.94700 29.78300
C  52.33600 18.94300 26.65000
O  52.17200 18.46000 25.57500
C  53.50400 19.89800 26.90300
N  47.36700 16.13300 27.06200
C  48.28300 16.58500 26.19000
C  47.77600 16.45000 24.76200
C  46.48200 15.62600 24.88000
C  46.27200 15.68000 26.36400
C  47.57900 17.81700 23.92700
C  46.60000 14.15900 24.36200
C  45.94200 13.88000 23.02600
N  45.68400 15.86700 29.26000
C  44.80200 15.37300 28.31300
C  43.53100 15.04300 28.90600
C  43.74000 15.31700 30.23800
C  45.02500 15.88100 30.41800
C  42.50500 14.22200 28.20800
C  43.10600 15.28300 31.51700
O  41.98200 14.89300 31.82500
C  44.11200 15.89700 32.60400
C  43.44500 17.04300 33.21400
O  43.48400 18.14800 32.78700
O  42.77800 16.68700 34.34900
C  42.07400 17.78100 34.98600
H  50.12900 19.31400 31.73500
H  50.19600 17.27400 25.53300
H  44.23500 15.20300 26.32000
H  46.02000 18.17000 33.80700
H  48.94500 18.08900 33.79400
H  47.06100 20.12700 34.06400
H  47.79500 20.45600 32.52600
H  48.77900 20.35800 33.98000
H  48.05600 16.30100 34.84000
H  46.61700 15.46400 34.07300
H  46.83100 15.89500 36.52700
H  45.20100 16.03300 35.89200
H  53.17100 19.52200 29.72000
H  51.96300 20.11100 30.84100
H  52.13400 20.95300 29.36400
H  54.10100 20.02800 26.00100
H  54.23500 19.45000 27.57600
H  53.25200 20.88100 27.30300
H  48.57400 15.83700 24.34300
H  45.59200 16.05800 24.42200
H  46.53700 17.79700 23.60800
H  48.35500 17.83900 23.16200
H  47.85500 18.75900 24.40100
H  46.10700 13.49400 25.07100
H  47.63400 13.81600 24.37700
H  45.04300 13.28100 23.17100
H  46.57400 13.22000 22.43100
H  45.87700 14.78800 22.42700
H  42.79800 13.19400 27.99600
H  42.11200 14.59400 27.26200
H  41.67200 14.10800 28.90200
H  44.34400 15.19600 33.40500
H  41.43200 18.18800 34.20400
H  42.74600 18.46400 35.50500
H  41.50300 17.33500 35.80100

