158

Mg 40.80500 40.67900 27.57600
C  39.99200 43.09800 29.92500
C  41.80400 38.65500 30.00500
C  41.85200 38.50400 25.17300
C  40.36600 43.10600 25.04300
N  40.84100 40.90400 29.68600
C  40.42100 41.89300 30.49900
C  40.50800 41.52600 31.96500
C  41.17900 40.15400 31.93700
C  41.40800 39.92000 30.42400
C  42.46000 39.96100 32.77500
C  39.14300 41.73900 32.66100
C  39.02000 42.71100 33.83300
H  38.34200 42.27200 35.13300
N  41.53200 38.81400 27.54100
C  41.85600 38.12800 28.69000
C  42.29600 36.77200 28.35500
C  42.28100 36.66200 26.93800
C  41.86200 38.02900 26.45000
C  42.67800 35.70400 29.30800
C  42.68300 35.51100 25.96900
O  42.54900 35.54700 24.75200
C  43.13100 34.10000 26.57400
N  41.18100 40.84000 25.44100
C  41.51500 39.75400 24.64000
C  41.62100 40.13500 23.14300
C  40.82800 41.45000 23.10800
C  40.78200 41.84800 24.63600
C  43.11800 40.25400 22.65500
C  39.45500 41.45200 22.43200
C  38.30900 40.73200 23.08500
N  40.35400 42.72000 27.45500
C  40.16600 43.57300 26.34000
C  39.67900 44.83100 26.77600
C  39.65000 44.75200 28.22000
C  40.05100 43.42400 28.56300
C  39.28700 45.96400 25.90200
C  39.24500 45.37600 29.49000
O  38.78200 46.46300 29.72200
C  39.50600 44.38600 30.62500
C  40.58700 44.94400 31.42400
O  41.77600 44.96100 31.08300
O  40.05600 45.49500 32.51900
C  41.07600 45.98200 33.45300
H  41.93900 38.05600 30.90800
H  42.14700 37.78700 24.40400
H  40.08400 43.75900 24.21400
H  41.08600 42.38200 32.31300
H  40.46300 39.41600 32.29700
H  43.40700 39.85000 32.24600
H  42.35000 39.05100 33.36400
H  42.70400 40.76900 33.46400
H  38.65500 40.79200 32.89100
H  38.51700 42.20800 31.90200
H  38.32100 43.49800 33.55200
H  40.02000 43.10100 34.02500
H  43.74600 35.48600 29.33300
H  42.12100 34.80300 29.05400
H  42.33100 35.99100 30.30100
H  43.40700 33.45600 25.73900
H  42.24700 33.79400 27.13500
H  44.00000 34.17300 27.22700
H  41.17600 39.31400 22.58200
H  41.31200 42.24800 22.54600
H  43.25000 39.54700 21.83500
H  43.73600 39.77400 23.41400
H  43.36300 41.28000 22.38100
H  39.56500 41.04200 21.42800
H  39.18300 42.49000 22.23900
H  38.59700 40.08300 23.91100
H  37.69800 40.10300 22.43800
H  37.64500 41.47100 23.53300
H  38.75400 45.58900 25.02800
H  40.05800 46.59100 25.45400
H  38.56000 46.54700 26.46600
H  38.54000 44.26700 31.11400
H  41.65500 45.14000 33.83300
H  40.51400 46.54100 34.20100
H  41.65400 46.79800 33.01800
Mg 8.96300 47.69600 26.64400
C  6.61400 47.82000 29.42900
C  11.47100 48.23100 28.81600
C  11.07800 47.54600 24.11200
C  6.24400 47.47200 24.53700
N  9.00600 47.85500 28.88400
C  7.96800 47.94600 29.82600
C  8.60300 48.38800 31.16600
C  10.02700 48.84500 30.87700
C  10.21900 48.20700 29.44100
C  10.28500 50.36400 30.95400
C  8.44500 47.30300 32.30500
C  8.22000 47.86100 33.68200
H  8.12900 46.81600 34.77100
N  11.00000 47.73500 26.49100
C  11.88000 48.11600 27.49200
C  13.18500 48.16800 26.97600
C  13.11600 47.66300 25.63600
C  11.68300 47.64700 25.33600
C  14.37100 48.56800 27.73800
C  14.18200 47.21200 24.70500
O  13.99200 46.72300 23.60700
C  15.61300 47.35700 25.23600
N  8.72400 47.85500 24.63400
C  9.69900 47.62800 23.75200
C  9.15300 47.41700 22.33400
C  7.65200 47.45000 22.44300
C  7.50800 47.53600 24.01500
C  9.80000 48.21400 21.15800
C  7.06900 46.23600 21.82500
C  5.54800 46.39900 21.43200
N  6.88800 47.63400 26.85500
C  5.92100 47.56700 25.91900
C  4.67800 47.62400 26.58300
C  4.89400 47.66400 27.95800
C  6.27400 47.67900 28.05900
C  3.51600 47.78700 25.77300
C  4.21900 47.76300 29.23300
O  3.00800 47.76900 29.46700
C  5.36900 47.65500 30.27200
C  5.31000 46.30900 30.91000
O  5.89700 45.32300 30.51000
O  4.48500 46.42700 31.98600
C  4.46000 45.25300 32.92200
H  12.31400 48.45600 29.47300
H  11.70400 47.33000 23.24300
H  5.41200 47.15600 23.90500
H  7.94500 49.17200 31.54000
H  10.69500 48.28000 31.52700
H  9.40500 50.88200 30.57300
H  11.09600 50.69900 30.30700
H  10.50100 50.76800 31.94300
H  9.26600 46.58600 32.29900
H  7.54700 46.70400 32.15500
H  7.26300 48.37200 33.78700
H  9.06900 48.53100 33.82100
H  14.19800 48.78800 28.79100
H  14.79300 49.49900 27.36000
H  14.98700 47.67200 27.82200
H  15.79100 48.41800 25.41400
H  16.32500 46.99000 24.49700
H  15.80700 46.72300 26.10100
H  9.36500 46.36000 22.16900
H  7.28200 48.38400 22.01900
H  10.04600 47.49000 20.38100
H  10.65600 48.78100 21.52600
H  9.07600 48.98000 20.88100
H  7.13100 45.34900 22.45600
H  7.44900 45.97000 20.83900
H  5.09400 45.53600 21.91800
H  5.40800 46.27000 20.35900
H  5.26200 47.42800 21.65000
H  3.19400 46.84000 25.34000
H  3.62300 48.63300 25.09400
H  2.69300 48.04700 26.43800
H  5.20200 48.33100 31.11000
H  5.16700 44.45500 32.69400
H  3.50000 44.74600 32.82700
H  4.43400 45.50100 33.98300

