158

Mg 25.72800 1.70900 29.51400
C  27.84000 1.31400 32.24000
C  23.07600 1.77900 31.65500
C  23.56900 1.65600 26.85000
C  28.47400 1.14700 27.42400
N  25.48100 1.52400 31.65700
C  26.54200 1.65300 32.51000
C  25.98400 1.87200 33.92600
C  24.40600 1.88100 33.76900
C  24.28000 1.68100 32.29200
C  23.66400 0.79800 34.57600
C  26.60500 3.03300 34.70900
C  27.26200 2.62900 36.02300
H  26.36700 2.92600 37.18500
N  23.60700 1.85300 29.25100
C  22.68400 1.82900 30.31300
C  21.35500 2.01600 29.75300
C  21.50600 2.11100 28.32400
C  22.92600 1.80400 28.09100
C  20.10100 2.25100 30.66500
C  20.44700 2.17800 27.22500
O  20.70800 2.21900 26.01300
C  19.03100 2.10600 27.73500
N  25.98100 1.34600 27.40500
C  24.93900 1.50900 26.54900
C  25.51100 1.83900 25.06300
C  27.16000 1.70700 25.25400
C  27.25400 1.33800 26.78800
C  24.94700 1.10000 23.78500
C  27.98600 2.90900 24.91400
C  27.47700 4.24700 25.40100
N  27.70500 1.21100 29.69200
C  28.72100 1.01600 28.81400
C  29.97600 0.67800 29.53000
C  29.66600 0.83900 30.87400
C  28.32700 1.13700 30.92100
C  31.30500 0.29100 29.00300
C  30.27000 0.75200 32.20600
O  31.42700 0.48400 32.47600
C  29.06300 1.08800 33.21400
C  28.99100 -0.02500 34.18900
O  28.26400 -0.97800 34.10100
O  29.83800 0.17500 35.18700
C  29.88800 -0.64200 36.35700
H  22.20300 1.74100 32.31000
H  23.02700 1.82200 25.91700
H  29.33600 1.23600 26.75900
H  26.27900 0.99300 34.49900
H  23.97100 2.84500 34.03000
H  23.25200 0.03600 33.91400
H  22.86800 1.27100 35.15200
H  24.42600 0.32800 35.19800
H  25.84700 3.79600 34.88600
H  27.43500 3.40200 34.10500
H  28.17700 3.21200 36.12600
H  27.61200 1.59700 36.04800
H  19.87900 3.31700 30.61100
H  20.11100 2.02900 31.73200
H  19.28400 1.64100 30.28000
H  18.81000 3.00300 28.31500
H  18.82100 1.20400 28.30900
H  18.30100 2.12400 26.92500
H  25.25100 2.88100 24.87500
H  27.43800 0.95500 24.51600
H  24.31200 0.24800 24.02900
H  25.76100 0.84100 23.10700
H  24.35600 1.76100 23.15200
H  27.89200 2.81000 23.83300
H  28.98700 2.65900 25.26800
H  26.72700 4.24600 26.19200
H  27.03000 4.73000 24.53300
H  28.27700 4.88700 25.77500
H  31.96400 1.06900 28.61900
H  31.09600 -0.42300 28.20700
H  31.75500 -0.38300 29.73200
H  29.33600 2.03900 33.67100
H  29.84800 -1.70500 36.12200
H  29.22400 -0.25500 37.13000
H  30.85800 -0.56300 36.84800
Mg 46.89900 16.72900 28.74900
C  44.90300 16.50200 31.72600
C  49.23900 18.34100 30.61700
C  48.30900 17.70500 25.94900
C  44.10200 15.63300 26.93700
N  47.16900 17.12700 30.95100
C  46.21700 16.97100 31.96400
C  46.76100 17.46600 33.31100
C  48.12000 18.16500 32.92900
C  48.24400 17.84500 31.41100
C  48.21200 19.62300 33.32100
C  47.01400 16.32700 34.30300
C  46.43700 16.64200 35.70400
H  46.39300 18.08900 36.17100
N  48.75400 17.68700 28.31300
C  49.49100 18.35800 29.25400
C  50.51200 19.11000 28.48200
C  50.33300 18.78400 27.12400
C  49.13000 17.95700 27.03900
C  51.44900 20.16600 29.10300
C  51.15500 19.19600 25.91800
O  50.93000 18.78400 24.77400
C  52.30400 20.17300 26.09800
N  46.28400 16.61300 26.77900
C  47.06700 17.10800 25.77100
C  46.47500 16.93400 24.40900
C  45.23400 16.17400 24.68500
C  45.18000 16.11200 26.23900
C  46.18000 18.26900 23.73500
C  45.18400 14.76900 24.05700
C  44.89600 14.63900 22.51800
N  44.89800 16.07300 29.23000
C  43.92600 15.58300 28.39600
C  42.82700 15.07400 29.14300
C  43.14800 15.46800 30.48100
C  44.41400 16.08400 30.46300
C  41.71400 14.40700 28.65400
C  42.66500 15.44400 31.82500
O  41.60500 14.99000 32.32300
C  43.81800 16.10700 32.72600
C  43.24800 17.26400 33.56300
O  43.21500 18.42000 33.15800
O  42.75600 16.80800 34.70800
C  42.07700 17.77400 35.58500
H  49.93200 19.01000 31.13200
H  48.79700 17.95700 25.00600
H  43.23600 15.22900 26.40800
H  46.06100 18.20200 33.70600
H  48.93500 17.70500 33.48800
H  49.20400 19.77400 33.74700
H  47.51900 19.88000 34.12200
H  48.10700 20.30100 32.47500
H  48.07100 16.08800 34.42600
H  46.48900 15.48800 33.84700
H  47.08700 16.20400 36.46100
H  45.46600 16.15100 35.77400
H  51.16800 20.51300 30.09800
H  51.40200 21.08000 28.51000
H  52.43000 19.69100 29.11000
H  53.04300 19.83000 26.82200
H  51.92700 21.18100 26.27600
H  52.83500 20.15300 25.14600
H  47.14900 16.41100 23.72900
H  44.26300 16.62100 24.46800
H  45.13600 18.49900 23.52300
H  46.69600 18.34600 22.77800
H  46.42900 19.07000 24.43100
H  44.41000 14.18900 24.56100
H  46.13200 14.29500 24.31300
H  43.87600 14.25600 22.49400
H  45.55900 13.90300 22.06300
H  45.03300 15.59000 22.00200
H  40.95100 15.12800 28.36100
H  41.25000 13.87800 29.48600
H  41.90500 13.71100 27.83700
H  44.05500 15.36300 33.48700
H  41.51200 18.48300 34.97900
H  42.87700 18.23700 36.16400
H  41.26700 17.38200 36.19900

