158

Mg 47.32800 16.02700 28.22300
C  45.03600 15.95700 30.89700
C  49.41500 17.92900 30.49000
C  49.20600 16.83700 25.75000
C  44.81700 14.82000 26.16100
N  47.17600 16.99300 30.44600
C  46.10800 16.70500 31.32400
C  46.51900 17.05500 32.76400
C  47.72000 17.99500 32.56900
C  48.19000 17.55200 31.13200
C  47.57600 19.56800 32.61400
C  46.96800 15.79400 33.54600
C  46.63500 15.94400 35.06200
H  46.38700 17.27800 35.70400
N  49.23900 17.06900 28.13500
C  49.90300 17.75100 29.16600
C  51.19200 18.22400 28.63300
C  51.17000 17.98900 27.21800
C  49.87400 17.27600 26.95500
C  52.32000 18.85100 29.47500
C  52.16400 18.33200 26.12900
O  51.86700 18.37000 24.96500
C  53.51400 18.96800 26.42400
N  47.02900 15.88700 26.28900
C  48.00200 16.20500 25.40600
C  47.57900 15.97100 23.94600
C  46.52600 14.91000 24.19700
C  46.05900 15.21600 25.61700
C  47.17600 17.23300 23.05400
C  47.23900 13.51500 24.19300
C  46.46900 12.41500 23.40800
N  45.32700 15.52700 28.41900
C  44.46800 14.90200 27.50900
C  43.30700 14.41500 28.19300
C  43.53300 14.73300 29.52300
C  44.72000 15.46800 29.62500
C  42.15300 13.56200 27.59300
C  42.94700 14.61300 30.83300
O  41.91600 14.05300 31.23600
C  43.92100 15.38400 31.79900
C  43.10500 16.32800 32.61100
O  42.69000 17.46700 32.23000
O  42.88600 15.84100 33.87100
C  42.03800 16.69100 34.71800
H  50.18800 18.30600 31.16400
H  49.84900 16.94900 24.87500
H  44.12400 14.22100 25.56600
H  45.73800 17.65500 33.23100
H  48.49700 17.73100 33.28700
H  47.58400 19.92600 31.58400
H  48.46000 20.02800 33.05700
H  46.68000 19.92400 33.12200
H  48.03100 15.58000 33.43600
H  46.47500 14.91500 33.13000
H  47.33500 15.33800 35.63700
H  45.72800 15.38200 35.28500
H  53.13800 18.15200 29.65000
H  51.96700 19.20900 30.44200
H  52.68800 19.69500 28.89100
H  53.42800 19.99300 26.78500
H  54.22100 18.94500 25.59500
H  53.89100 18.37400 27.25600
H  48.49100 15.67400 23.42800
H  45.71900 14.82200 23.46900
H  47.58300 18.15600 23.46700
H  46.09600 17.35400 22.97700
H  47.44400 17.04300 22.01500
H  47.28800 13.17600 25.22800
H  48.27800 13.54600 23.86200
H  47.19000 12.02400 22.69000
H  45.54000 12.78500 22.97400
H  46.07700 11.53800 23.92400
H  41.23500 13.97300 28.01200
H  42.24700 12.50500 27.84400
H  42.03500 13.65800 26.51300
H  44.32100 14.61400 32.45800
H  42.52400 16.68200 35.69400
H  41.07300 16.19500 34.82600
H  41.95300 17.73900 34.43100
Mg 36.02300 49.65000 25.37700
C  36.23900 47.49200 28.22600
C  34.38800 51.83600 27.20000
C  35.39200 51.34700 22.50000
C  37.35600 47.02200 23.55200
N  35.36900 49.64300 27.48800
C  35.65100 48.73600 28.47700
C  35.39000 49.39400 29.77400
C  34.77300 50.80700 29.46000
C  34.88500 50.79900 27.96600
C  33.28700 51.03300 29.94100
C  36.60500 49.54100 30.70400
C  36.58400 48.72300 31.99900
H  35.27800 48.68400 32.76400
N  35.05100 51.32000 24.93000
C  34.48500 52.16800 25.84200
C  34.11600 53.50300 25.17600
C  34.40400 53.32600 23.79600
C  35.01800 51.94600 23.69700
C  33.57300 54.59000 26.00800
C  33.95000 54.24800 22.65500
O  34.28400 54.12500 21.48800
C  33.10200 55.38100 23.01700
N  36.27200 49.22500 23.32300
C  35.96000 50.05800 22.28400
C  36.33200 49.37100 20.97100
C  37.25000 48.10300 21.38800
C  37.04700 48.14600 22.85600
C  35.10300 48.85600 20.19900
C  38.80200 48.27400 20.98900
C  39.52300 46.95900 20.88300
N  36.65900 47.68300 25.73700
C  37.14400 46.75900 24.85100
C  37.37800 45.49600 25.54900
C  37.11200 45.75700 26.85500
C  36.57900 47.08100 26.97300
C  37.97100 44.22500 24.88500
C  37.07700 45.19900 28.20100
O  37.48900 44.12600 28.62600
C  36.42200 46.27600 29.14200
C  35.17400 45.65500 29.80300
O  34.10100 45.50700 29.26700
O  35.41500 45.36500 31.10600
C  34.37100 44.74800 31.94100
H  33.88100 52.56300 27.83900
H  35.16400 51.94500 21.61500
H  37.64300 46.20900 22.88200
H  34.65300 48.73600 30.23500
H  35.35400 51.57800 29.96600
H  33.38900 51.89500 30.59900
H  32.86700 50.16800 30.45400
H  32.71300 51.35000 29.07000
H  36.72600 50.54400 31.11500
H  37.48700 49.20400 30.16000
H  37.32500 49.12200 32.69100
H  36.88800 47.69900 31.78300
H  32.50700 54.37100 26.06000
H  33.72800 55.61900 25.68300
H  33.89500 54.49100 27.04500
H  32.21500 55.13900 23.60200
H  32.71700 55.79100 22.08400
H  33.66300 56.05700 23.66300
H  36.82800 50.16000 20.40500
H  36.82300 47.16300 21.03800
H  34.42300 48.50500 20.97600
H  35.36200 47.95000 19.65000
H  34.84100 49.65200 19.50200
H  39.24100 49.09300 21.56000
H  38.77500 48.63300 19.96000
H  40.13700 46.82900 21.77400
H  40.10800 46.86900 19.96800
H  38.77800 46.16700 20.81600
H  37.67500 44.14600 23.83900
H  37.69900 43.41200 25.55800
H  39.04200 44.42500 24.84500
H  37.15500 46.53500 29.90600
H  33.52400 44.21700 31.50600
H  34.04200 45.59400 32.54500
H  34.78800 44.09700 32.70900

