158

Mg 0.97700 7.69900 27.42900
C  1.66700 9.76700 30.28900
C  0.31900 5.11600 29.80300
C  0.08800 5.77400 24.95800
C  1.69600 10.43400 25.36400
N  1.19700 7.34500 29.84000
C  1.29800 8.44100 30.72400
C  1.04900 8.00900 32.19700
C  0.74800 6.45300 32.00000
C  0.73700 6.27400 30.49700
C  1.79600 5.52200 32.72400
C  -0.20900 8.69300 32.69400
C  -0.26400 9.13100 34.15200
H  0.37400 8.26600 35.28200
N  0.34700 5.75500 27.39000
C  0.25400 4.80600 28.41000
C  -0.16500 3.54400 27.86300
C  -0.29500 3.71500 26.47400
C  0.05100 5.12300 26.17900
C  -0.24000 2.31100 28.80500
C  -0.66300 2.66600 25.41000
O  -0.63200 2.90300 24.21000
C  -1.11700 1.33900 25.86300
N  0.82800 8.07300 25.48800
C  0.55200 7.08200 24.61800
C  0.59800 7.58200 23.13800
C  1.14600 8.99200 23.25000
C  1.19100 9.25700 24.78100
C  1.35000 6.60500 22.23800
C  0.31600 10.07800 22.38800
C  -0.78500 10.84300 23.02100
N  1.70700 9.57700 27.69000
C  1.91400 10.56900 26.71700
C  2.20800 11.81600 27.43000
C  2.00200 11.54700 28.79900
C  1.80600 10.19000 28.92900
C  2.40200 13.16800 26.80800
C  2.05100 12.10000 30.10300
O  2.26300 13.26000 30.39800
C  1.78500 11.02400 31.11300
C  2.72900 11.11400 32.16800
O  3.89200 10.80300 32.11600
O  2.17000 11.73800 33.21200
C  3.01800 11.89500 34.39400
H  -0.00900 4.35900 30.51900
H  -0.17300 5.08300 24.15400
H  1.93100 11.20300 24.62400
H  1.93300 8.17400 32.81300
H  -0.21700 6.27100 32.47200
H  2.45000 4.93200 32.08100
H  1.20200 4.80200 33.28700
H  2.31400 6.14000 33.45800
H  -1.11800 8.10400 32.57300
H  -0.42900 9.52500 32.02500
H  -1.35200 9.18000 34.20200
H  0.09000 10.15300 34.28600
H  0.56300 1.60400 28.60100
H  -1.17900 1.77100 28.68200
H  -0.11400 2.55400 29.86000
H  -1.63800 0.84300 25.04300
H  -1.82700 1.48200 26.67700
H  -0.33900 0.66000 26.21200
H  -0.42900 7.60900 22.77300
H  2.19900 9.03400 22.97100
H  1.30800 7.01700 21.22900
H  0.84500 5.64100 22.29800
H  2.38100 6.50700 22.57700
H  -0.17200 9.56700 21.55800
H  1.06000 10.77000 21.99300
H  -1.56300 11.09800 22.30100
H  -0.44500 11.77500 23.47300
H  -1.33400 10.22400 23.73100
H  1.40300 13.59800 26.74200
H  2.96800 13.14100 25.87600
H  2.93000 13.85900 27.46500
H  0.83000 11.27800 31.57300
H  3.10500 10.93900 34.91100
H  2.53200 12.57700 35.09100
H  4.01400 12.29200 34.19700
Mg 8.22800 3.00700 27.75500
C  9.85400 1.73900 30.39200
C  6.29300 4.92400 29.66100
C  7.09200 4.50900 24.95800
C  10.16500 0.86700 25.55800
N  7.97600 3.16300 29.81300
C  8.85700 2.71800 30.76400
C  8.52400 3.19600 32.13000
C  7.30000 4.15400 31.87900
C  7.08600 4.06500 30.32900
C  6.00300 3.98100 32.69700
C  9.76600 3.75800 32.85800
C  9.36800 4.70700 34.06800
H  9.95200 4.30000 35.44500
N  6.70400 4.41200 27.37700
C  6.02200 5.13100 28.29200
C  5.23200 6.12600 27.72700
C  5.63300 6.14400 26.30900
C  6.50700 4.95000 26.12200
C  4.19700 7.02900 28.47600
C  5.24400 7.12900 25.23300
O  5.68200 7.07600 24.08500
C  4.30100 8.27100 25.52300
N  8.40100 2.56400 25.50800
C  7.90800 3.45700 24.62900
C  8.30800 3.18800 23.23000
C  9.40700 2.07700 23.43500
C  9.28300 1.73500 24.90900
C  7.19700 2.74800 22.27100
C  10.86700 2.51200 23.11500
C  11.68500 3.32300 24.16900
N  9.64000 1.57400 27.89000
C  10.35500 0.81800 26.94600
C  11.33100 -0.01300 27.66800
C  11.11400 0.25900 28.97800
C  10.09500 1.20700 29.11900
C  12.19500 -0.96700 26.97500
C  11.55800 -0.08800 30.31000
O  12.37200 -0.89200 30.69000
C  10.73600 0.92600 31.31000
C  10.02300 0.08500 32.28400
O  9.16500 -0.74600 32.06800
O  10.59400 0.29700 33.53900
C  9.91900 -0.44700 34.60600
H  5.80900 5.61200 30.35800
H  7.02400 5.25500 24.16300
H  10.98900 0.51000 24.93600
H  8.13100 2.43600 32.80500
H  7.55400 5.21000 31.97200
H  5.89900 3.00300 33.16600
H  5.12300 3.96900 32.05300
H  5.96000 4.83900 33.36800
H  10.36000 4.38800 32.19700
H  10.38300 2.98500 33.31600
H  8.29500 4.84800 34.20000
H  9.79200 5.68900 33.85700
H  4.10900 6.53200 29.44200
H  3.25500 6.96600 27.93100
H  4.45000 8.08000 28.61900
H  4.05800 8.74000 24.56900
H  4.62900 9.02200 26.24100
H  3.47900 7.67600 25.92200
H  8.80700 4.05600 22.80000
H  9.17100 1.25100 22.76400
H  6.28300 2.87800 22.85100
H  7.17400 1.66400 22.16200
H  7.29800 3.18300 21.27700
H  10.80100 2.97300 22.12900
H  11.37800 1.55200 23.04300
H  10.97000 3.71300 24.89400
H  12.10900 4.23600 23.75200
H  12.31900 2.73700 24.83500
H  12.94500 -0.45700 26.37000
H  11.54900 -1.50000 26.27700
H  12.70400 -1.67300 27.63100
H  11.38300 1.49000 31.98200
H  10.42200 -0.37400 35.57100
H  9.85700 -1.49900 34.32800
H  8.92300 -0.02600 34.73800

