158

Mg 49.18400 44.90200 43.12900
C  45.83100 45.43900 42.20500
C  48.92900 41.67900 41.79800
C  52.57400 44.58100 43.48600
C  49.33400 48.09700 44.36800
N  47.51900 43.71400 41.91200
C  46.25600 44.10400 41.81400
C  45.50800 42.90700 41.34600
C  46.44700 41.69700 41.46300
C  47.71100 42.37600 41.77900
C  45.95000 40.70700 42.45000
C  44.88200 43.16200 39.94500
C  43.48600 42.72100 39.55000
H  43.25900 41.87400 38.28600
N  50.53800 43.39300 42.69000
C  50.25600 42.13600 42.16500
C  51.42900 41.44100 41.92400
C  52.53800 42.26200 42.38300
C  51.91500 43.44100 42.98200
C  51.39700 40.05700 41.20000
C  53.99100 41.88900 42.19500
O  54.35900 40.81000 41.79800
C  55.11500 42.74700 42.73600
N  50.85400 46.28600 43.70400
C  52.11700 45.84500 43.94600
C  52.95700 47.04300 44.46100
C  51.82700 48.01800 44.98800
C  50.59000 47.43700 44.31100
C  54.04300 46.66700 45.46400
C  52.13300 49.48000 44.79500
C  51.67200 50.39900 46.00900
N  47.83700 46.49300 43.33500
C  48.08100 47.73500 43.78400
C  46.83600 48.47700 43.75800
C  45.90400 47.64900 43.13100
C  46.58000 46.45900 42.87600
C  46.60800 49.88400 44.08200
C  44.56700 47.49900 42.57500
O  43.62400 48.28500 42.52100
C  44.47200 46.11400 41.95600
C  43.25000 45.40100 42.37100
O  42.14600 45.49400 41.78500
O  43.46400 44.54200 43.43600
C  42.33600 43.66500 43.77100
H  48.93700 40.64600 41.44300
H  53.65400 44.56600 43.64200
H  49.28900 49.10100 44.79300
H  44.62300 42.77600 41.96800
H  46.57800 41.18300 40.51100
H  45.47200 39.82300 42.02900
H  45.26300 41.06000 43.21800
H  46.73500 40.21700 43.02600
H  45.48100 42.51500 39.30500
H  45.03200 44.19800 39.64000
H  42.92500 43.63800 39.37000
H  42.93600 42.12700 40.28100
H  52.36500 39.57600 41.06000
H  50.88000 40.15300 40.24500
H  50.65200 39.37000 41.59900
H  54.98800 42.77500 43.81800
H  55.16500 43.70200 42.21300
H  56.08200 42.32300 42.46400
H  53.40300 47.54200 43.60000
H  51.45700 47.92700 46.00900
H  55.07200 46.92100 45.20800
H  54.04500 45.65100 45.85700
H  53.83700 47.39800 46.24600
H  51.80600 49.81800 43.81200
H  53.20200 49.67400 44.88000
H  50.92500 51.12100 45.67800
H  52.52800 50.97400 46.36200
H  51.42600 49.81200 46.89400
H  47.07700 50.10700 45.04000
H  45.54500 50.11400 44.00800
H  47.10400 50.48500 43.31900
H  44.47100 46.12600 40.86700
H  41.79400 44.27900 44.49000
H  42.75300 42.70600 44.07700
H  41.69400 43.35800 42.94400
Mg 41.00400 40.93900 26.13400
C  40.43700 43.27600 28.87300
C  42.39000 38.89000 28.40200
C  41.75700 38.93000 23.60400
C  40.30800 43.60400 23.94200
N  41.42300 41.19100 28.35300
C  40.94400 42.08200 29.27600
C  41.06300 41.58600 30.67500
C  41.63600 40.17100 30.47700
C  41.80000 40.04700 28.97400
C  42.86200 39.90200 31.38000
C  39.69700 41.59900 31.45000
C  39.65100 42.32900 32.84200
H  38.83500 41.75300 34.03500
N  41.90600 39.12800 26.05000
C  42.36000 38.37800 27.06500
C  42.86800 37.07500 26.62200
C  42.55700 37.06900 25.21200
C  41.98600 38.41500 24.85600
C  43.51300 36.06700 27.57800
C  42.77700 35.89800 24.27300
O  42.38600 35.81900 23.12600
C  43.49400 34.71700 24.78600
N  41.17700 41.27500 24.07400
C  41.35300 40.22900 23.20000
C  41.00900 40.58200 21.75900
C  40.37900 42.00200 21.97400
C  40.67800 42.37800 23.42000
C  42.28300 40.53000 20.81400
C  38.84900 42.26300 21.61900
C  37.81500 41.81700 22.63000
N  40.55600 43.00800 26.26200
C  40.26200 43.94700 25.32800
C  39.86300 45.27100 25.93600
C  39.85300 44.99200 27.29500
C  40.38200 43.66000 27.50300
C  39.59900 46.56100 25.21500
C  39.64500 45.65800 28.59200
O  39.29400 46.78400 28.94000
C  40.08200 44.48100 29.71300
C  41.18800 44.99800 30.56200
O  42.34900 45.24500 30.17700
O  40.80000 45.06800 31.88100
C  41.79500 45.40700 32.89800
H  42.58700 38.11700 29.14700
H  41.94000 38.19100 22.82100
H  39.81900 44.27800 23.23600
H  41.81200 42.20800 31.16500
H  40.86900 39.50600 30.87300
H  42.78800 38.84400 31.63300
H  42.87500 40.44900 32.32200
H  43.76100 40.06000 30.78400
H  39.32100 40.58900 31.61200
H  39.03200 42.11000 30.75500
H  39.31300 43.35500 32.69300
H  40.67900 42.35200 33.20300
H  42.69400 35.36500 27.73000
H  43.86300 36.59300 28.46700
H  44.44400 35.68500 27.15900
H  43.48500 33.85700 24.11600
H  43.10000 34.32000 25.72100
H  44.52700 35.04700 24.89700
H  40.21600 40.01600 21.26900
H  41.10500 42.72100 21.59600
H  43.23700 40.39100 21.32400
H  42.38600 41.49800 20.32300
H  42.15100 39.79300 20.02200
H  38.62300 41.64500 20.75100
H  38.69400 43.30600 21.34400
H  37.00400 42.52100 22.81200
H  38.30900 41.59900 23.57700
H  37.43600 40.86500 22.25700
H  39.97400 46.61500 24.19300
H  40.12200 47.33600 25.77600
H  38.53900 46.78200 25.08700
H  39.17900 44.26600 30.28300
H  42.78800 45.71100 32.56600
H  42.01100 44.57200 33.56500
H  41.47600 46.19300 33.58200

