158

Mg 1.64800 -1.99300 45.28200
C  5.12200 -1.02100 45.22600
C  1.01600 0.84100 43.41500
C  -1.50700 -2.95200 45.19100
C  2.63800 -4.98000 46.51900
N  2.97400 -0.23700 44.51300
C  4.31400 -0.12300 44.52200
C  4.79100 1.10300 43.69200
C  3.44600 1.94500 43.55200
C  2.41200 0.80400 43.78000
C  3.23100 3.25800 44.42600
C  5.41900 0.71200 42.34800
C  6.38300 1.74600 41.80200
H  6.24500 2.04800 40.32500
N  -0.04800 -1.13400 44.40400
C  -0.06800 -0.00400 43.60200
C  -1.38300 0.22000 43.18400
C  -2.19500 -0.76400 43.84600
C  -1.24100 -1.68300 44.58400
C  -1.80100 1.34900 42.27300
C  -3.72000 -0.90300 43.70200
O  -4.31100 -0.13600 42.95700
C  -4.62000 -1.82400 44.57900
N  0.73400 -3.76000 45.80800
C  -0.63200 -3.91300 45.67500
C  -1.05700 -5.34400 46.09900
C  0.27300 -5.93500 46.58900
C  1.27800 -4.83700 46.27200
C  -2.30900 -5.40400 47.06500
C  0.66200 -7.35300 45.93300
C  0.93100 -8.50700 46.93800
N  3.51200 -2.92500 45.79900
C  3.72200 -4.08300 46.40100
C  5.16300 -4.21100 46.65700
C  5.80600 -3.05300 46.24300
C  4.69000 -2.27700 45.66800
C  5.81600 -5.41800 47.30000
C  7.02600 -2.28100 46.06400
O  8.18700 -2.57300 46.30100
C  6.63600 -0.95900 45.44200
C  6.93400 0.08800 46.49300
O  6.80300 -0.04700 47.69800
O  7.31200 1.25100 45.90100
C  7.80600 2.29000 46.80700
H  0.79900 1.79000 42.91900
H  -2.54300 -3.23400 45.38800
H  2.95000 -5.96000 46.88400
H  5.50400 1.64900 44.31000
H  3.30200 2.31700 42.53800
H  4.20200 3.56500 44.81500
H  2.46900 3.13700 45.19600
H  2.98200 4.11500 43.80100
H  4.55900 0.38700 41.76200
H  5.96200 -0.22100 42.49600
H  7.42800 1.59100 42.07300
H  6.14500 2.66300 42.34100
H  -0.98100 2.02500 42.03100
H  -2.53900 1.89900 42.85800
H  -2.36300 1.00600 41.40400
H  -4.14800 -1.87500 45.56000
H  -4.72000 -2.74400 44.00200
H  -5.67400 -1.55200 44.52900
H  -1.40500 -5.85000 45.19800
H  0.27300 -6.08000 47.66900
H  -1.99000 -5.83100 48.01600
H  -3.02600 -6.12200 46.66500
H  -2.88700 -4.49800 47.24900
H  1.50700 -7.23200 45.25400
H  -0.31500 -7.62800 45.53500
H  0.61000 -8.26800 47.95200
H  1.99200 -8.74000 47.02400
H  0.31800 -9.38300 46.72300
H  5.32700 -6.35900 47.04600
H  6.08700 -5.30500 48.35000
H  6.70400 -5.49400 46.67400
H  7.20400 -0.97500 44.51100
H  8.85800 2.55200 46.69700
H  7.65700 2.22400 47.88500
H  7.33900 3.20600 46.44500
Mg 0.74400 42.71800 25.91800
C  2.17100 42.99800 29.00200
C  -2.22200 41.77900 27.34200
C  -0.38200 41.78700 22.74500
C  3.89500 43.42700 24.40300
N  0.03700 42.36900 27.96200
C  0.81000 42.64200 29.07800
C  -0.06000 42.57100 30.33400
C  -1.46000 41.97000 29.82400
C  -1.22300 42.12800 28.28300
C  -1.79500 40.50200 30.24800
C  -0.13600 43.98400 31.05400
C  0.54900 44.05800 32.42500
H  -0.35700 43.91400 33.63900
N  -1.08200 42.03200 25.17900
C  -2.19100 41.74500 25.93800
C  -3.28100 41.30000 25.01600
C  -2.75500 41.28200 23.71900
C  -1.36700 41.66700 23.86900
C  -4.63100 40.95300 25.50700
C  -3.45500 40.88600 22.40600
O  -2.88600 40.88900 21.33500
C  -4.92200 40.58200 22.27400
N  1.64300 42.66700 23.91300
C  0.98100 42.13100 22.82200
C  1.93800 41.90600 21.68200
C  3.09700 42.92900 22.00400
C  2.95200 42.96500 23.54000
C  2.34400 40.41000 21.55000
C  3.08400 44.34400 21.24200
C  2.38400 45.52200 22.01800
N  2.59200 43.12000 26.54000
C  3.73100 43.48000 25.81000
C  4.75600 43.76200 26.76900
C  4.23100 43.47400 28.04000
C  2.87200 43.18200 27.81800
C  6.13200 44.20700 26.37900
C  4.53500 43.37800 29.46900
O  5.55500 43.42100 30.15900
C  3.21500 43.11700 30.17700
C  3.46700 41.85600 30.94700
O  3.34800 40.70000 30.56100
O  3.74200 42.22200 32.27200
C  3.77300 41.08600 33.13400
H  -3.17800 41.50900 27.79500
H  -0.69100 41.48000 21.74300
H  4.87300 43.63900 23.96600
H  0.29000 41.81200 31.03300
H  -2.28700 42.60600 30.14100
H  -0.92400 40.05200 30.72500
H  -2.18400 39.90100 29.42600
H  -2.63400 40.49700 30.94500
H  -1.19000 44.24700 31.14400
H  0.48400 44.70000 30.51300
H  1.02700 45.03600 32.48100
H  1.30100 43.28000 32.56500
H  -5.30100 41.53800 24.87800
H  -4.77000 41.20900 26.55700
H  -4.79200 39.88900 25.33400
H  -5.28400 39.86700 23.01400
H  -5.19600 40.16800 21.30400
H  -5.37800 41.54900 22.48500
H  1.40100 42.25500 20.79900
H  4.01200 42.41300 21.71500
H  1.47000 39.90900 21.96700
H  3.18600 40.17400 22.20100
H  2.23700 39.99600 20.54800
H  2.58000 44.27600 20.27800
H  4.09700 44.73000 21.12800
H  3.09000 46.29200 22.33100
H  1.89700 45.23700 22.95000
H  1.64400 45.93300 21.33200
H  6.63400 44.77800 27.16000
H  6.00600 44.73400 25.43300
H  6.85800 43.42300 26.16400
H  3.00800 43.97300 30.81800
H  4.82600 40.80900 33.18400
H  3.11000 40.24900 32.91500
H  3.42500 41.50200 34.08000

