158

Mg 0.29600 43.67700 25.93000
C  2.47200 43.92600 28.67900
C  -2.16400 42.72700 28.14400
C  -1.62700 42.96500 23.29700
C  3.08900 43.97800 23.77100
N  0.16300 43.50000 28.14500
C  1.14700 43.76800 29.05400
C  0.64700 43.83600 30.47700
C  -0.83500 43.25100 30.39200
C  -0.99700 43.09400 28.81400
C  -1.17100 41.95100 31.22200
C  0.69000 45.22400 31.22500
C  0.81100 45.39000 32.81800
H  0.57800 44.08700 33.59800
N  -1.64100 42.98200 25.82300
C  -2.50700 42.70000 26.79000
C  -3.83600 42.29200 26.21000
C  -3.63400 42.23900 24.82200
C  -2.26600 42.74200 24.59200
C  -4.99900 42.10300 27.07400
C  -4.67200 41.84700 23.66000
O  -4.39100 41.74300 22.46000
C  -6.11400 41.46000 24.10500
N  0.69100 43.54000 23.88000
C  -0.31400 43.34400 23.05600
C  0.25100 43.44000 21.57100
C  1.67300 43.96600 21.70600
C  1.82900 43.80200 23.20900
C  0.08000 42.14300 20.72100
C  1.82300 45.44700 21.30700
C  1.20200 46.59700 22.17000
N  2.34300 44.03500 26.09900
C  3.33500 44.16600 25.12900
C  4.65900 44.30700 25.83800
C  4.43400 44.22200 27.19000
C  2.96500 44.02600 27.28600
C  6.00900 44.52200 25.16400
C  4.95100 44.16500 28.55100
O  6.10000 44.15500 29.02000
C  3.76900 44.08600 29.56100
C  4.06700 42.79500 30.26400
O  4.26500 41.67100 29.82600
O  3.95100 43.10200 31.63300
C  4.34000 42.01400 32.54600
H  -3.03600 42.45900 28.74300
H  -2.30000 42.93900 22.43800
H  3.72300 44.03100 22.88300
H  1.16600 43.05500 31.03200
H  -1.53100 44.04500 30.66300
H  -1.47900 41.23600 30.45900
H  -1.91500 42.14500 31.99500
H  -0.24100 41.59700 31.66600
H  -0.21600 45.76600 30.95300
H  1.52100 45.70300 30.70900
H  0.09900 46.15700 33.12300
H  1.84000 45.72800 32.94700
H  -5.88900 42.54300 26.62400
H  -4.87600 42.67000 27.99700
H  -5.25900 41.13400 27.50100
H  -5.94300 40.71400 24.88000
H  -6.57100 40.99600 23.23100
H  -6.61100 42.35300 24.48400
H  -0.24200 44.32800 21.17500
H  2.42300 43.41000 21.14400
H  -0.56400 41.41100 21.20800
H  0.98300 41.63700 20.37900
H  -0.49700 42.45900 19.85200
H  1.36400 45.44200 20.31800
H  2.86800 45.68500 21.11200
H  0.78600 46.24000 23.11100
H  0.43500 46.92100 21.46600
H  1.96600 47.36400 22.29700
H  6.54000 43.57100 25.20400
H  6.57300 45.22800 25.77300
H  5.82100 44.82500 24.13400
H  3.75700 44.98200 30.18100
H  5.39800 41.88000 32.31800
H  3.94900 41.03400 32.27200
H  4.16800 42.39500 33.55300
Mg -10.89800 15.98300 41.45800
C  -7.39900 15.78000 41.05000
C  -10.74400 19.19000 40.33100
C  -14.14800 15.82500 41.12900
C  -10.86600 12.51500 42.38500
N  -9.24800 17.26100 40.58900
C  -7.86100 17.02600 40.65100
C  -7.09300 18.25200 40.20200
C  -8.17500 19.37900 40.59100
C  -9.46100 18.59500 40.50400
C  -7.91900 20.06900 41.93900
C  -6.64000 18.13300 38.70600
C  -5.09900 18.09200 38.50300
H  -4.67800 18.65500 37.19000
N  -12.24000 17.29100 40.86000
C  -11.96000 18.60500 40.45000
C  -13.22100 19.24100 40.03900
C  -14.25300 18.34400 40.41100
C  -13.58600 17.09000 40.78900
C  -13.43200 20.63300 39.44000
C  -15.72800 18.68300 40.34700
O  -16.12100 19.71000 39.84200
C  -16.74500 17.68500 40.93700
N  -12.35000 14.39300 41.66200
C  -13.63000 14.60800 41.50600
C  -14.56400 13.39700 41.88600
C  -13.47700 12.32300 42.23000
C  -12.12800 13.11200 42.18200
C  -15.64400 13.71700 42.89900
C  -13.50700 11.05300 41.27000
C  -12.62900 11.20700 39.94400
N  -9.46900 14.45800 41.64600
C  -9.58000 13.15600 42.08900
C  -8.24000 12.50400 42.11800
C  -7.36200 13.55200 41.79400
C  -8.15400 14.70600 41.49200
C  -7.95000 11.04400 42.60500
C  -5.93800 13.93400 41.67900
O  -4.93000 13.30700 41.82900
C  -5.96100 15.36400 41.14200
C  -5.29000 16.10600 42.20300
O  -5.73800 16.22300 43.33000
O  -4.00500 16.43000 41.79000
C  -3.27300 17.32900 42.70800
H  -10.67900 20.26300 40.13400
H  -15.23500 15.74600 41.05800
H  -10.96700 11.53200 42.84900
H  -6.17000 18.15900 40.77400
H  -8.22300 20.17100 39.84300
H  -7.37900 19.42000 42.62900
H  -8.87000 20.43900 42.32200
H  -7.28700 20.94800 41.81100
H  -7.18200 18.96200 38.25100
H  -7.04500 17.18900 38.34200
H  -4.78300 17.05300 38.41100
H  -4.60800 18.57000 39.35000
H  -14.13100 20.54400 38.60900
H  -12.54200 21.07800 38.99500
H  -13.95300 21.32800 40.09800
H  -17.65800 18.26600 41.06600
H  -16.46900 17.47700 41.97100
H  -16.99600 16.83800 40.29900
H  -15.02400 13.12000 40.93700
H  -13.66100 12.08600 43.27800
H  -15.82100 14.79200 42.88600
H  -15.18800 13.62800 43.88500
H  -16.52200 13.07800 42.80400
H  -14.46400 10.75000 40.84700
H  -13.08900 10.24700 41.87300
H  -11.61200 10.99200 40.27100
H  -12.61800 12.21300 39.52400
H  -12.97100 10.54100 39.15300
H  -6.90800 10.76500 42.44900
H  -8.45100 10.30600 41.97800
H  -8.22500 10.87700 43.64600
H  -5.52400 15.41000 40.14400
H  -3.68500 18.33700 42.75400
H  -2.29000 17.60200 42.32400
H  -3.14800 17.04200 43.75200

