158

Mg 34.88100 3.68500 30.38300
C  32.76200 4.80500 32.91700
C  37.47000 3.87200 32.72200
C  37.02800 2.98200 28.03200
C  32.35500 4.02300 28.06700
N  34.98700 4.17800 32.56500
C  34.03100 4.57800 33.40200
C  34.47500 4.60400 34.81400
C  36.04900 4.58600 34.72300
C  36.18200 4.24500 33.24800
C  36.74700 5.90400 35.09400
C  33.88100 3.40000 35.56200
C  33.74500 3.51200 37.09400
H  34.32400 4.61900 37.94100
N  36.88700 3.24500 30.39600
C  37.74300 3.35600 31.44700
C  39.03400 2.82900 31.04700
C  38.96500 2.46800 29.68100
C  37.58900 2.94600 29.27600
C  40.30300 2.72800 31.91900
C  39.92300 1.71100 28.78500
O  39.62800 1.44700 27.60800
C  41.35300 1.46500 29.16200
N  34.71800 3.79100 28.34500
C  35.81900 3.42500 27.60600
C  35.46000 3.55700 26.05800
C  33.91600 3.66000 26.13400
C  33.61300 3.78800 27.59600
C  36.05600 4.83000 25.32200
C  33.23100 2.45100 25.39600
C  32.90600 1.18300 26.22600
N  32.92300 4.36500 30.45300
C  31.94400 4.38300 29.45300
C  30.59100 4.73200 30.05700
C  30.88500 4.93200 31.44200
C  32.31800 4.75300 31.62200
C  29.37100 4.96300 29.33200
C  30.35100 5.35000 32.67500
O  29.26700 5.72300 33.02600
C  31.48400 5.18500 33.69800
C  31.69900 6.38500 34.58400
O  32.39500 7.34500 34.32600
O  30.99600 6.22600 35.77600
C  30.75000 7.38600 36.60300
H  38.23300 4.10800 33.46800
H  37.71800 2.88100 27.19200
H  31.64100 4.18500 27.25600
H  34.09100 5.48200 35.33500
H  36.37700 3.79800 35.40100
H  37.24000 5.82400 36.06300
H  35.96400 6.65500 35.19100
H  37.42600 6.22400 34.30300
H  34.54500 2.53800 35.49500
H  32.94100 3.06300 35.12500
H  34.11200 2.59800 37.56100
H  32.67400 3.56000 37.29000
H  40.68600 1.72200 32.09300
H  40.21200 2.98000 32.97600
H  41.01000 3.34300 31.36100
H  41.82800 0.89900 28.36100
H  41.42800 0.79900 30.02100
H  41.85700 2.41700 29.32600
H  35.73400 2.73000 25.40300
H  33.58600 4.59800 25.68800
H  36.40500 5.61400 25.99300
H  35.32900 5.29000 24.65200
H  36.91400 4.42900 24.78300
H  33.84000 2.17100 24.53600
H  32.33000 2.83600 24.92000
H  31.83700 0.97000 26.23900
H  33.31100 1.16300 27.23800
H  33.40100 0.43300 25.60900
H  28.90100 5.70700 29.97600
H  28.74500 4.09500 29.12300
H  29.56300 5.36700 28.33800
H  31.18600 4.36000 34.34500
H  29.81000 7.13000 37.09200
H  30.62900 8.26800 35.97400
H  31.57300 7.52500 37.30300
Mg 54.52400 24.10300 45.33900
C  52.21700 26.37100 43.96300
C  52.94800 21.68400 43.32300
C  57.24500 22.23600 45.52300
C  56.20200 26.87600 46.67100
N  52.87800 24.10300 43.62800
C  52.03300 25.10000 43.34200
C  50.86000 24.62100 42.43400
C  50.93200 23.10400 42.64100
C  52.36500 22.93800 43.29900
C  49.84900 22.52100 43.61400
C  51.24100 25.04300 40.95700
C  50.12300 24.83600 39.95400
H  50.35000 25.21300 38.47600
N  54.99900 22.13600 44.61100
C  54.17200 21.28700 43.93200
C  54.82900 19.99200 43.75600
C  56.12600 20.12500 44.39500
C  56.14600 21.54600 44.92300
C  54.18800 18.88000 42.97300
C  57.19700 19.09800 44.48500
O  57.06800 18.07700 43.78500
C  58.38000 19.14400 45.29200
N  56.52900 24.52500 45.82400
C  57.45400 23.56000 45.91100
C  58.79800 24.17400 46.40900
C  58.39200 25.63000 46.81700
C  56.93400 25.76300 46.44500
C  59.33700 23.34600 47.60400
C  59.29900 26.84600 46.40500
C  60.70200 26.61600 45.91600
N  54.20500 26.17600 45.50200
C  54.94900 27.16200 46.16100
C  54.17500 28.33800 46.29600
C  53.11600 28.04900 45.41600
C  53.18700 26.76600 44.90200
C  54.63500 29.52700 47.00500
C  51.95800 28.60700 44.95300
O  51.37600 29.64400 45.30000
C  51.28100 27.54900 43.93200
C  50.83400 28.13300 42.70300
O  51.60400 28.62200 41.84500
O  49.49600 27.93100 42.56600
C  48.89200 28.42800 41.32400
H  52.35900 20.85500 42.92400
H  58.07900 21.53100 45.53400
H  56.61400 27.62800 47.34700
H  49.88700 25.06200 42.65400
H  50.86300 22.54400 41.70800
H  50.36900 21.93700 44.37400
H  49.15400 21.96600 42.98400
H  49.25600 23.27900 44.12700
H  52.16000 24.51900 40.69400
H  51.50600 26.10000 40.94400
H  49.21600 25.32500 40.30900
H  49.93800 23.76200 39.93700
H  54.49800 18.92100 41.92800
H  53.13500 19.12900 43.10900
H  54.36600 17.91700 43.45100
H  58.85100 18.16300 45.36300
H  58.00700 19.41400 46.28000
H  59.00500 19.92600 44.86100
H  59.51400 24.13500 45.58800
H  58.36100 25.64000 47.90700
H  59.70300 23.97700 48.41400
H  60.16600 22.73100 47.25400
H  58.51600 22.74300 47.99100
H  59.30200 27.66100 47.12900
H  58.80100 27.25800 45.52700
H  61.25500 27.36000 46.48900
H  60.81500 26.80300 44.84800
H  61.05800 25.62100 46.18300
H  55.17100 30.26600 46.40900
H  55.20400 29.27700 47.90000
H  53.76400 30.08200 47.35200
H  50.38400 27.19400 44.44100
H  48.79600 29.51200 41.37600
H  47.90800 27.96900 41.22800
H  49.59900 28.16400 40.53700

