158

Mg 35.16500 3.28200 30.41500
C  32.76500 4.17400 32.74100
C  37.52600 3.15400 33.09000
C  37.75200 2.94400 28.34200
C  32.99300 3.72700 27.84800
N  35.16500 3.65500 32.66900
C  34.00600 3.96200 33.34800
C  34.27100 3.83100 34.87600
C  35.83200 3.75000 34.98300
C  36.20200 3.49400 33.49500
C  36.58900 5.05000 35.49100
C  33.53700 2.57500 35.50500
C  32.94300 2.74100 36.87000
H  33.51900 3.74500 37.90600
N  37.21800 2.77100 30.69700
C  38.01800 2.79600 31.81100
C  39.40900 2.44800 31.47300
C  39.49600 2.33000 30.04600
C  38.13300 2.67500 29.65000
C  40.48200 2.33600 32.49500
C  40.68200 1.98100 29.12100
O  40.64200 1.94400 27.87600
C  42.05600 1.76900 29.63200
N  35.35000 3.14500 28.39400
C  36.52200 3.17800 27.72400
C  36.28000 3.24200 26.16800
C  34.65600 3.08500 26.08600
C  34.29000 3.26400 27.53200
C  36.74600 4.56600 25.62200
C  34.16800 1.81100 25.45500
C  32.91800 1.88300 24.63600
N  33.26100 3.81700 30.30300
C  32.46700 3.94700 29.16700
C  31.16000 4.34500 29.57300
C  31.20000 4.38700 31.00800
C  32.52000 4.12800 31.41400
C  30.06900 4.54100 28.60900
C  30.47900 4.70300 32.19800
O  29.33000 5.06800 32.24600
C  31.40100 4.45400 33.40100
C  31.42500 5.71900 34.25400
O  31.93000 6.80200 33.94700
O  30.73900 5.48800 35.43200
C  30.81100 6.63700 36.36200
H  38.33500 3.17400 33.82300
H  38.54600 2.92000 27.59200
H  32.37500 3.74400 26.94800
H  33.83800 4.68100 35.40400
H  36.23900 2.95200 35.60400
H  35.88200 5.75400 35.93000
H  37.03400 5.58500 34.65200
H  37.24300 4.73300 36.30400
H  34.24500 1.74600 35.50400
H  32.67400 2.30600 34.89700
H  33.09900 1.79200 37.38300
H  31.87200 2.92900 36.78600
H  41.21700 1.54600 32.34100
H  40.00100 1.90700 33.37400
H  40.91500 3.31000 32.72400
H  42.24200 2.57500 30.34100
H  42.87600 1.67600 28.91900
H  41.94900 0.84700 30.20300
H  36.86400 2.38000 25.84700
H  34.30600 3.80800 25.34800
H  37.19600 5.24700 26.34500
H  35.92300 5.10600 25.15300
H  37.47500 4.41100 24.82700
H  34.03400 1.03400 26.20800
H  34.89800 1.38400 24.76800
H  32.12200 1.28500 25.08100
H  33.19800 1.64600 23.60900
H  32.49500 2.88800 24.64500
H  29.63100 3.54300 28.59600
H  30.40500 4.84700 27.61800
H  29.35800 5.26400 29.00900
H  31.11100 3.57400 33.97600
H  30.64400 7.55700 35.80200
H  31.83000 6.66400 36.74700
H  30.06600 6.36900 37.11200
Mg 48.31200 35.56800 28.21400
C  46.31900 34.14100 30.79500
C  48.83100 38.19000 30.08600
C  49.73300 37.05100 25.53200
C  47.44500 32.80400 26.17000
N  47.87200 35.96000 30.21100
C  47.07700 35.31300 31.13900
C  47.09000 35.96600 32.52700
C  47.49300 37.44300 32.15600
C  48.06600 37.17100 30.67100
C  46.33600 38.44100 32.10300
C  48.08700 35.32400 33.52500
C  47.65900 35.20300 34.97900
H  48.53800 35.84000 36.10700
N  49.26900 37.41700 27.85800
C  49.41200 38.37100 28.84300
C  50.11200 39.48400 28.26600
C  50.45100 39.09000 26.89500
C  49.72500 37.83000 26.69900
C  50.38600 40.78400 28.95300
C  51.26600 39.93900 25.82900
O  51.38800 39.63200 24.67300
C  51.91700 41.26700 26.17000
N  48.66700 34.95500 26.10200
C  49.31900 35.73800 25.24700
C  49.50200 35.01600 23.87900
C  48.95900 33.59800 24.25000
C  48.22300 33.79100 25.54900
C  48.79800 35.72200 22.63700
C  50.01500 32.49000 24.38500
C  50.15800 31.29700 23.39100
N  47.09500 33.77900 28.34400
C  46.79700 32.83000 27.45000
C  45.97400 31.74800 28.13400
C  45.71400 32.29400 29.37200
C  46.44800 33.54800 29.48100
C  45.57000 30.36500 27.65800
C  44.96100 32.09500 30.63900
O  44.18000 31.15600 30.90000
C  45.28800 33.34000 31.53100
C  45.72200 32.90100 32.85400
O  46.79200 32.45600 33.13300
O  44.70100 33.11000 33.78400
C  44.92300 32.54300 35.08800
H  48.86900 39.14900 30.60800
H  50.35700 37.39800 24.70500
H  47.25400 31.94000 25.53000
H  46.07900 35.91900 32.93300
H  48.22500 37.94500 32.78800
H  46.45500 39.24100 32.83500
H  45.36600 37.95600 32.21100
H  46.33000 38.84100 31.09000
H  48.99900 35.91700 33.45400
H  48.27700 34.30700 33.18200
H  47.73500 34.14500 35.23000
H  46.69400 35.67100 35.17400
H  49.71800 41.61500 28.72500
H  51.39800 41.10800 28.71100
H  50.42000 40.48400 30.00000
H  52.28500 41.79300 25.28900
H  52.63400 41.11100 26.97700
H  51.10000 41.93900 26.43300
H  50.56500 35.08900 23.65100
H  48.21800 33.26000 23.52500
H  49.42300 36.42200 22.08400
H  47.92200 36.27600 22.97500
H  48.44300 35.05700 21.84900
H  50.12800 32.16800 25.42100
H  51.01300 32.88600 24.19800
H  50.14800 30.40300 24.01400
H  51.08100 31.24900 22.81300
H  49.34100 31.33000 22.67000
H  46.06400 29.61600 28.27800
H  45.83700 30.29100 26.60400
H  44.49300 30.39700 27.82200
H  44.47500 34.04900 31.68600
H  44.02300 32.00800 35.38900
H  45.13800 33.30300 35.83900
H  45.75500 31.83900 35.09300

