158

Mg 52.48300 24.32200 45.35500
C  49.62300 26.06100 44.59900
C  50.92600 21.60200 43.82400
C  55.46200 22.78600 45.29600
C  54.02300 27.33300 46.35700
N  50.48000 23.93300 44.40100
C  49.51400 24.81800 44.08800
C  48.58100 24.29500 43.05100
C  48.71600 22.76900 43.29400
C  50.11100 22.69700 43.92900
C  47.62100 22.18100 44.25500
C  49.00300 24.70800 41.56200
C  47.83000 24.98400 40.59100
H  47.78700 24.04400 39.32800
N  53.12500 22.44300 44.70800
C  52.32000 21.43100 44.13500
C  53.10600 20.20600 43.94500
C  54.40300 20.52400 44.31800
C  54.41600 21.99300 44.77700
C  52.60400 18.98600 43.23600
C  55.59300 19.56200 44.18800
O  55.41800 18.39300 43.73500
C  56.93400 19.95400 44.53200
N  54.55900 25.07900 45.52400
C  55.53500 24.18300 45.68900
C  56.81100 24.90000 46.32700
C  56.37400 26.39500 46.29000
C  54.91200 26.29300 46.06500
C  57.28000 24.38800 47.71500
C  56.93600 27.29400 45.18800
C  57.90200 28.50100 45.55900
N  51.96800 26.21800 45.55300
C  52.65300 27.31900 46.04300
C  51.66500 28.36100 46.22600
C  50.47800 27.87700 45.66200
C  50.72300 26.58700 45.29700
C  51.76000 29.68200 46.85500
C  49.10900 28.24700 45.30900
O  48.53500 29.27600 45.55200
C  48.52500 27.11100 44.53400
C  48.21900 27.66100 43.20000
O  48.97500 28.12300 42.39000
O  46.81900 27.73700 43.01800
C  46.24900 28.36800 41.86000
H  50.45500 20.81100 43.23700
H  56.39600 22.22200 45.34700
H  54.37900 28.26600 46.79900
H  47.56800 24.57600 43.33900
H  48.58600 22.31000 42.31400
H  46.86000 21.67900 43.65700
H  47.10400 22.92100 44.86600
H  48.08800 21.47000 44.93700
H  49.48400 23.84600 41.10000
H  49.60600 25.61100 41.46300
H  47.67000 26.01200 40.26800
H  46.89200 24.77800 41.10600
H  51.66600 19.20000 42.72300
H  52.41600 18.19700 43.96400
H  53.31100 18.55500 42.52700
H  57.20500 20.80400 43.90600
H  57.74200 19.22700 44.45100
H  56.90700 20.30100 45.56500
H  57.66600 24.82900 45.65400
H  56.63000 26.83200 47.25600
H  56.87900 23.38700 47.87800
H  56.92500 25.10100 48.46000
H  58.35800 24.25200 47.79700
H  56.11500 27.68800 44.58900
H  57.39100 26.64500 44.44100
H  58.87200 28.23900 45.13800
H  58.04200 28.64800 46.63000
H  57.68000 29.50800 45.20400
H  52.39400 29.55300 47.73200
H  50.76300 29.96200 47.19600
H  52.13100 30.35100 46.07900
H  47.62600 26.70400 44.99700
H  45.25300 28.66200 42.19000
H  46.12400 27.61000 41.08600
H  46.89400 29.18600 41.54000
Mg 47.90500 14.34200 28.05700
C  45.89200 14.38400 30.78400
C  50.14900 16.42900 29.71300
C  49.75800 14.47700 25.26600
C  45.38100 12.89400 26.16100
N  47.91800 15.42800 29.94200
C  47.00800 15.21300 30.97200
C  47.43600 15.93900 32.25000
C  48.63400 16.77700 31.73200
C  48.94300 16.19900 30.33100
C  48.40400 18.35500 31.69500
C  47.69900 14.80000 33.29000
C  47.04400 15.04800 34.70900
H  47.91300 14.85100 35.99000
N  49.80200 15.21100 27.62900
C  50.59800 15.94200 28.40000
C  51.81000 16.20700 27.74100
C  51.79000 15.58100 26.53600
C  50.40600 15.06700 26.40500
C  52.96600 17.10400 28.32900
C  52.87300 15.39700 25.47300
O  52.69100 14.80500 24.42400
C  54.21200 15.87500 25.72000
N  47.60400 13.75500 26.06200
C  48.51200 13.92300 25.06900
C  48.20700 13.28400 23.72300
C  46.75400 12.70300 24.05200
C  46.55500 13.13600 25.50900
C  48.12800 14.22100 22.54300
C  46.73900 11.11100 23.80300
C  47.85600 10.13700 24.33900
N  45.98200 13.73500 28.32000
C  45.07200 13.20000 27.50000
C  43.88000 12.79800 28.27400
C  44.15000 13.29100 29.54600
C  45.42700 13.84400 29.49100
C  42.84100 11.92700 27.63100
C  43.70200 13.31100 30.90300
O  42.68900 12.85700 31.42500
C  44.77900 13.98800 31.81600
C  44.03800 15.15300 32.47200
O  43.72800 16.22500 31.92400
O  43.76400 14.85800 33.78300
C  43.31700 15.92700 34.60700
H  50.80900 17.06500 30.30600
H  50.26900 14.49900 24.30100
H  44.54200 12.43000 25.63800
H  46.60000 16.57100 32.55100
H  49.46900 16.48100 32.36600
H  47.48600 18.63200 32.21100
H  48.42400 18.73100 30.67200
H  49.22700 18.89400 32.16500
H  48.77400 14.66900 33.40900
H  47.24300 13.85500 32.99500
H  46.21500 14.34100 34.69500
H  46.62800 16.05500 34.70100
H  53.88900 16.52500 28.34000
H  52.53800 17.45200 29.26900
H  53.09300 17.92400 27.62200
H  54.12000 16.93700 25.95000
H  54.85600 15.86000 24.84100
H  54.76000 15.29000 26.45900
H  48.92700 12.51200 23.45300
H  45.90000 13.14700 23.54200
H  47.41200 15.01700 22.74600
H  47.75300 13.66600 21.68300
H  49.05700 14.69500 22.22600
H  46.73400 11.03600 22.71500
H  45.76200 10.70700 24.06800
H  48.29700 9.58000 23.51300
H  47.45200 9.39800 25.03100
H  48.56500 10.79900 24.83600
H  43.20100 10.94000 27.33900
H  42.32100 12.42000 26.81000
H  42.12700 11.63400 28.40000
H  45.15100 13.25300 32.53000
H  43.27600 15.50400 35.61000
H  42.36100 16.18600 34.15000
H  44.00300 16.77300 34.64700

