158

Mg 42.44900 41.97100 25.78800
C  41.91600 44.44100 28.45800
C  43.60500 39.98200 28.35900
C  43.30700 39.93600 23.44600
C  41.86400 44.60200 23.53300
N  42.73000 42.25600 28.14800
C  42.34600 43.24800 29.06200
C  42.25000 42.70000 30.52500
C  43.08100 41.38200 30.36500
C  43.19600 41.20000 28.84400
C  44.55000 41.40500 31.00600
C  40.81000 42.59200 31.04400
C  40.57600 41.89800 32.41700
H  39.87500 42.79000 33.48900
N  43.21700 40.15200 25.89600
C  43.59400 39.41400 27.05100
C  44.01000 38.11800 26.60500
C  43.86700 38.04300 25.21300
C  43.50300 39.39500 24.80300
C  44.52400 37.06000 27.59300
C  44.08900 36.80700 24.30200
O  44.10400 36.82900 23.11200
C  44.41000 35.50800 25.01100
N  42.66900 42.26700 23.79400
C  43.04700 41.23700 22.98000
C  43.10800 41.75900 21.51500
C  42.69400 43.27500 21.54300
C  42.29900 43.35200 23.03400
C  44.49100 41.37200 20.90900
C  41.57000 43.74300 20.51000
C  40.18100 43.12700 20.66000
N  41.97800 44.07700 25.93500
C  41.80000 44.99700 24.93000
C  41.32900 46.23500 25.50700
C  41.33700 46.02200 26.87000
C  41.89400 44.77000 27.07800
C  40.93100 47.52200 24.71100
C  41.15500 46.71100 28.08200
O  40.83800 47.89200 28.27500
C  41.44600 45.68100 29.19600
C  42.47800 46.19300 30.15400
O  43.54200 46.71800 29.87800
O  41.91100 46.14900 31.44000
C  42.84600 46.39800 32.55700
H  43.91600 39.31500 29.16600
H  43.52700 39.17900 22.69100
H  41.65700 45.36600 22.78100
H  42.72600 43.47600 31.12400
H  42.60100 40.45800 30.68700
H  44.98400 42.40400 31.01400
H  45.24400 40.78100 30.44100
H  44.56700 41.04300 32.03400
H  40.14400 42.03000 30.38900
H  40.41400 43.60600 31.10700
H  41.51800 41.49300 32.78700
H  39.89800 41.04500 32.42800
H  43.93200 36.17700 27.35200
H  44.39100 37.40000 28.61900
H  45.56500 36.78700 27.41600
H  44.65000 34.81400 24.20600
H  43.52900 35.13100 25.53100
H  45.30000 35.61400 25.63200
H  42.24800 41.28400 21.04300
H  43.59200 43.87900 21.41300
H  44.92000 42.29600 20.52300
H  44.36400 40.66200 20.09200
H  45.16600 40.91100 21.63000
H  41.95700 43.51300 19.51700
H  41.48500 44.82100 20.64700
H  39.84500 42.49000 19.84200
H  39.47100 43.91000 20.92500
H  40.05900 42.59200 21.60200
H  41.04700 47.43000 23.63100
H  41.56500 48.32600 25.08400
H  39.88600 47.78500 24.87600
H  40.45500 45.61000 29.64400
H  42.71700 47.46600 32.73400
H  43.87900 46.19800 32.27400
H  42.52700 45.71200 33.34100
Mg 26.63700 50.52500 27.07600
C  24.80300 51.90400 29.65800
C  28.98900 49.52900 29.35800
C  28.64100 49.74600 24.55000
C  24.15600 51.59900 24.75000
N  26.92600 50.81100 29.15200
C  25.98400 51.28300 30.04300
C  26.22000 50.87600 31.50300
C  27.66500 50.23900 31.39100
C  27.82800 50.14800 29.91100
C  28.74900 51.24800 31.93900
C  25.15100 49.84800 32.03000
C  24.63900 50.31200 33.41400
H  24.78100 49.17400 34.49400
N  28.56400 49.79700 26.98500
C  29.32300 49.29700 28.04000
C  30.41700 48.63800 27.50100
C  30.48000 48.78300 26.09700
C  29.18900 49.46200 25.84600
C  31.34800 47.97700 28.43200
C  31.52100 48.38400 25.10100
O  31.31900 48.60900 23.88200
C  32.70100 47.53100 25.51700
N  26.41500 50.58300 24.94100
C  27.36800 50.16400 24.11800
C  27.04600 50.34300 22.59700
C  25.54200 50.82800 22.66300
C  25.32700 51.03100 24.20100
C  27.99300 51.32200 21.81000
C  24.37000 49.97600 22.11200
C  23.53600 50.49800 20.92100
N  24.83400 51.49100 27.13100
C  23.95200 51.91000 26.15200
C  22.84900 52.56100 26.72900
C  23.15500 52.60700 28.10100
C  24.36900 51.95700 28.30600
C  21.81000 53.10000 25.99900
C  22.63600 52.99000 29.38700
O  21.56400 53.46800 29.75100
C  23.67000 52.47700 30.47000
C  24.18600 53.56200 31.33500
O  25.28200 54.13500 31.27700
O  23.35300 53.81400 32.34300
C  23.79100 54.81100 33.39400
H  29.76300 49.31500 30.09800
H  29.29200 49.57000 23.69100
H  23.37500 51.79100 24.01100
H  26.18100 51.72200 32.18900
H  27.78000 49.25300 31.84000
H  29.64900 51.22100 31.32600
H  29.06300 50.75500 32.85900
H  28.38500 52.23400 32.22800
H  25.59500 48.85500 32.09800
H  24.29300 49.75700 31.36500
H  23.55400 50.36100 33.32100
H  25.03700 51.21900 33.86900
H  32.29400 48.51700 28.40800
H  31.53400 46.97800 28.03900
H  30.91900 47.79700 29.41800
H  33.26400 47.79900 26.41000
H  33.35800 47.27100 24.68700
H  32.18800 46.60200 25.76400
H  27.29200 49.37500 22.16000
H  25.33800 51.79900 22.21200
H  27.45300 52.19400 21.44100
H  28.42700 50.72700 21.00600
H  28.88900 51.51000 22.40200
H  23.71200 49.54600 22.86600
H  24.86700 49.07300 21.75800
H  23.91900 50.20100 19.94400
H  23.51000 51.58600 20.86300
H  22.56500 50.00300 20.89900
H  21.36100 52.41700 25.27800
H  22.15400 54.05900 25.61200
H  20.99800 53.34900 26.68300
H  23.25300 51.84700 31.25600
H  24.19300 55.72600 32.95900
H  24.68400 54.52200 33.94800
H  23.05800 55.08900 34.15100

