158

Mg 53.63300 24.04700 44.62600
C  50.90700 25.95800 43.56900
C  52.06200 21.33400 43.27300
C  56.48300 22.56300 45.02500
C  55.08000 27.17300 45.88400
N  51.76100 23.70700 43.42400
C  50.83700 24.61600 43.07700
C  49.72900 23.97700 42.16800
C  49.80800 22.50200 42.57100
C  51.31000 22.47800 43.07200
C  48.80300 22.10000 43.68800
C  50.03500 24.36500 40.70700
C  48.89300 24.82300 39.76400
H  49.20700 25.23900 38.31900
N  54.20300 22.09500 44.28500
C  53.42200 21.10000 43.69800
C  54.08300 19.86200 43.86600
C  55.41400 20.20100 44.33400
C  55.44800 21.70200 44.58500
C  53.44500 18.56500 43.38700
C  56.52600 19.17900 44.48100
O  56.39300 17.96800 44.24600
C  57.83400 19.57100 45.01500
N  55.57300 24.84700 45.18100
C  56.58700 23.92600 45.26100
C  57.83500 24.52800 45.96200
C  57.36500 26.12100 45.99200
C  55.90700 26.03800 45.69400
C  58.32800 24.00200 47.37600
C  58.07100 27.00200 44.90400
C  58.92600 28.05300 45.55700
N  53.21500 26.18300 44.71700
C  53.79600 27.25900 45.34000
C  52.86400 28.39800 45.36900
C  51.75300 27.91200 44.70100
C  51.99600 26.51100 44.31800
C  53.06300 29.70900 45.95500
C  50.42800 28.23900 44.26600
O  49.80900 29.26600 44.39100
C  49.83600 26.97700 43.52800
C  49.29200 27.39200 42.26600
O  49.96800 27.71300 41.31200
O  47.92100 27.43500 42.27400
C  47.17400 27.84900 41.03200
H  51.43200 20.45900 43.09300
H  57.49000 22.14000 45.03700
H  55.57200 28.03500 46.34000
H  48.71800 24.28800 42.43200
H  49.71200 21.90600 41.66300
H  49.26400 21.21200 44.12100
H  47.88800 21.81000 43.17200
H  48.63700 22.92500 44.38100
H  50.49900 23.48500 40.26200
H  50.75800 25.17500 40.79200
H  48.23500 25.55500 40.23200
H  48.24300 23.95000 39.69800
H  52.44600 18.39000 43.78800
H  54.08300 17.69200 43.52300
H  53.40100 18.78200 42.32000
H  57.54500 20.11500 45.91400
H  58.43200 20.25600 44.41300
H  58.39600 18.68900 45.32200
H  58.70200 24.42500 45.30900
H  57.55100 26.41600 47.02500
H  58.03700 22.96100 47.52000
H  57.88000 24.56000 48.19800
H  59.39500 24.11000 47.57000
H  57.33400 27.38800 44.20100
H  58.87900 26.46200 44.41100
H  59.97900 27.81400 45.41000
H  58.83500 28.14200 46.63900
H  58.81200 29.04400 45.11800
H  52.59900 30.31400 45.17600
H  54.12700 29.92700 46.04600
H  52.58800 29.73200 46.93600
H  49.02100 26.57100 44.12800
H  46.58800 28.72700 41.30100
H  46.54700 27.04300 40.65000
H  47.85600 28.05400 40.20700
Mg 47.46800 15.65900 27.79800
C  45.22300 15.22000 30.55900
C  49.67900 17.21500 30.06800
C  49.30200 16.44400 25.15600
C  45.00800 14.42800 25.74800
N  47.36500 16.24600 30.01100
C  46.37800 15.88500 30.93800
C  46.74400 16.40500 32.34000
C  48.03900 17.18900 32.05900
C  48.38700 16.87200 30.60900
C  47.99500 18.68700 32.28200
C  46.85400 15.21000 33.33400
C  46.20200 15.39000 34.74200
H  45.89700 16.78300 35.38000
N  49.24500 16.67100 27.67500
C  50.00900 17.22100 28.72500
C  51.23800 17.72000 28.13800
C  51.10300 17.40900 26.70000
C  49.81700 16.88500 26.45800
C  52.26600 18.48700 28.87300
C  52.11600 17.59700 25.59100
O  51.92100 17.31300 24.41100
C  53.53800 17.85100 25.98600
N  47.21900 15.38500 25.69600
C  48.17200 15.74800 24.86200
C  47.69400 15.60200 23.37900
C  46.33500 14.86900 23.51200
C  46.17800 14.82400 25.06800
C  47.50200 17.02200 22.78800
C  46.29200 13.53500 22.75700
C  46.73200 12.22300 23.48400
N  45.58600 14.86300 28.04100
C  44.70800 14.42100 27.08700
C  43.53500 13.95200 27.67800
C  43.63800 14.25300 28.99900
C  44.95900 14.72100 29.18400
C  42.39000 13.26500 27.00300
C  42.92500 14.24000 30.29400
O  41.78100 14.04100 30.66900
C  43.98000 14.85200 31.40300
C  43.35300 16.20900 32.01100
O  43.64400 17.30900 31.59900
O  42.46600 16.02400 33.02100
C  41.90100 17.24100 33.65100
H  50.40700 17.61200 30.77800
H  49.80500 16.63100 24.20500
H  44.25100 13.99600 25.09100
H  45.93800 17.11600 32.52600
H  48.81700 16.75300 32.68600
H  48.99100 19.08500 32.47700
H  47.50700 18.83100 33.24600
H  47.44500 19.27000 31.54300
H  47.88800 15.03800 33.63500
H  46.43000 14.32300 32.86300
H  46.85900 14.84300 35.41800
H  45.29700 14.78300 34.73400
H  52.11000 19.54300 28.65300
H  53.29300 18.18600 28.66500
H  52.11400 18.40600 29.94900
H  54.04700 17.95900 25.02900
H  53.82900 17.02000 26.62800
H  53.67900 18.78500 26.53100
H  48.38500 14.92500 22.87700
H  45.48000 15.49500 23.26100
H  47.90100 17.75300 23.49100
H  46.49300 17.24200 22.43800
H  48.06200 17.04400 21.85400
H  47.01100 13.72200 21.95900
H  45.27700 13.43700 22.37100
H  46.70300 12.37700 24.56200
H  47.71500 11.85300 23.19100
H  46.03600 11.40500 23.29500
H  41.82300 12.62600 27.67900
H  42.78600 12.71300 26.15100
H  41.82500 14.08000 26.55100
H  44.16600 14.25100 32.29300
H  40.81600 17.13900 33.66800
H  42.20300 18.20200 33.23400
H  42.23200 17.09000 34.67900

