158

Mg 41.43900 42.29900 27.20200
C  40.31600 44.23100 29.81800
C  42.50300 39.93900 29.57500
C  42.77500 40.29700 24.76300
C  40.50200 44.63200 24.92800
N  41.31000 42.07300 29.46300
C  40.79800 43.00700 30.29600
C  40.83700 42.52900 31.79900
C  41.62400 41.18500 31.60500
C  41.85100 41.02600 30.11600
C  42.86500 40.97300 32.47800
C  39.44100 42.46800 32.48400
C  39.39500 41.81400 33.85700
H  39.30200 42.76100 35.06900
N  42.47700 40.41300 27.12100
C  42.74500 39.58100 28.21500
C  43.52900 38.46300 27.75800
C  43.52400 38.53000 26.34900
C  42.91000 39.79600 26.02600
C  43.94900 37.29500 28.70700
C  43.95800 37.39700 25.30900
O  43.83500 37.46500 24.08600
C  44.39900 36.14500 25.94300
N  41.58800 42.37400 25.09800
C  42.20700 41.48000 24.30300
C  42.18200 41.96500 22.85200
C  41.36700 43.32100 22.91700
C  41.09800 43.47700 24.41300
C  43.50600 42.05300 22.03100
C  40.11200 43.29800 21.95600
C  38.93700 42.55700 22.44200
N  40.58500 44.13600 27.25600
C  40.22900 44.99400 26.27100
C  39.64900 46.17400 26.82900
C  39.60500 45.95400 28.21300
C  40.22200 44.67600 28.43000
C  39.10800 47.34100 26.13300
C  39.19800 46.46800 29.51500
O  38.56200 47.44300 29.79600
C  39.60700 45.32600 30.51800
C  40.20800 45.94100 31.70700
O  41.42200 46.11300 31.80900
O  39.22800 46.26200 32.63900
C  39.71000 47.03500 33.80600
H  42.89800 39.18400 30.25700
H  43.46800 39.78600 24.09200
H  40.10900 45.37800 24.23300
H  41.48000 43.23200 32.32800
H  40.92400 40.38800 31.85500
H  43.69500 41.05800 31.77700
H  42.85300 39.99200 32.95200
H  42.96800 41.82800 33.14600
H  38.76300 41.91400 31.83500
H  39.10000 43.49800 32.58800
H  40.21000 41.11000 34.02400
H  38.50100 41.19600 33.92500
H  44.02900 37.66400 29.73000
H  44.96500 36.96100 28.49400
H  43.31900 36.40800 28.77100
H  43.51600 35.78300 26.47000
H  45.28400 36.41600 26.51900
H  44.70200 35.35800 25.25300
H  41.65000 41.15700 22.34900
H  41.99500 44.16900 22.64400
H  43.60300 41.37600 21.18200
H  44.28700 41.76000 22.73400
H  43.70100 43.04700 21.62900
H  40.24400 42.99400 20.91700
H  39.93100 44.36500 21.82300
H  38.18000 43.25700 22.79400
H  39.09900 41.90600 23.30200
H  38.51100 42.00600 21.60400
H  39.98500 47.82700 25.70500
H  38.62800 48.05500 26.80200
H  38.43700 47.17700 25.28900
H  38.60300 45.01400 30.80600
H  38.94100 47.69700 34.20300
H  40.52900 47.66600 33.46000
H  40.02400 46.45800 34.67500
Mg 9.04300 47.84300 24.85500
C  6.90200 47.70200 27.76200
C  11.38800 49.11600 26.88700
C  11.01000 47.80100 22.31800
C  6.20200 47.72200 22.90700
N  9.15900 48.36800 27.05400
C  8.20000 48.18600 28.05400
C  8.74400 48.83100 29.37100
C  9.90100 49.67200 28.86900
C  10.22200 49.11500 27.52900
C  9.57800 51.16600 28.76900
C  9.06600 47.79100 30.46200
C  9.17900 48.44200 31.88100
H  8.35100 47.74900 33.06100
N  10.95400 48.29300 24.65600
C  11.81700 48.69500 25.64900
C  13.17000 48.66600 25.16000
C  13.05200 48.14300 23.84300
C  11.62900 48.10700 23.55700
C  14.43600 49.04300 25.96700
C  14.14400 47.65900 22.82100
O  13.91500 47.15600 21.76000
C  15.53500 47.74000 23.20900
N  8.57100 47.97700 22.80100
C  9.63000 47.68200 21.99800
C  9.13000 47.56000 20.51300
C  7.61500 47.93300 20.70300
C  7.39500 47.76300 22.19600
C  9.96000 48.37600 19.42200
C  6.77100 47.06400 19.68200
C  6.44700 47.76900 18.33600
N  6.98900 47.73000 25.13500
C  5.99500 47.65000 24.27900
C  4.72000 47.34400 24.95800
C  5.03700 47.27500 26.32400
C  6.44500 47.57200 26.41700
C  3.35200 47.41700 24.30600
C  4.41000 47.12800 27.65700
O  3.29200 46.89300 28.08900
C  5.67100 47.54500 28.59900
C  5.83300 46.44500 29.55500
O  6.33100 45.39000 29.35100
O  5.11400 46.78600 30.65700
C  4.75900 45.73900 31.59900
H  12.20800 49.60700 27.41600
H  11.70000 47.71700 21.47600
H  5.36800 47.80300 22.20600
H  7.95100 49.50500 29.69400
H  10.77100 49.61000 29.52400
H  9.67600 51.52400 27.74400
H  10.17800 51.71900 29.49200
H  8.59900 51.46700 29.14300
H  9.99900 47.30400 30.18000
H  8.33900 46.98400 30.55700
H  9.05900 49.52400 31.83200
H  10.23900 48.31200 32.10100
H  14.12300 49.44800 26.92900
H  14.97800 49.86500 25.49800
H  15.16300 48.23600 26.05300
H  15.83700 46.84100 23.74700
H  15.84100 48.66700 23.69500
H  16.16700 47.70900 22.32200
H  9.26300 46.48900 20.35600
H  7.52200 49.00500 20.52900
H  10.65800 49.01600 19.96300
H  9.27700 48.94200 18.78800
H  10.60300 47.77800 18.77600
H  5.80800 46.81300 20.12800
H  7.15500 46.08100 19.41200
H  5.37000 47.93900 18.33000
H  6.60900 47.08400 17.50400
H  7.01900 48.69500 18.29400
H  2.57100 47.01500 24.95100
H  3.35000 46.89900 23.34700
H  3.10500 48.47100 24.17500
H  5.46600 48.45400 29.16300
H  5.63800 45.42300 32.16000
H  4.23600 44.88000 31.17800
H  4.05200 46.17200 32.30700

