158

Mg 40.90900 9.01900 29.62600
C  42.74200 10.40100 32.22300
C  38.92100 7.47400 31.97000
C  39.44900 7.38800 27.02300
C  43.61600 9.88200 27.45000
N  40.92900 8.87800 31.94400
C  41.55800 9.68800 32.72800
C  41.04400 9.60000 34.22200
C  40.00000 8.44700 34.11400
C  39.93400 8.25500 32.54200
C  40.45400 7.06700 34.74300
C  40.54800 11.00500 34.64100
C  39.72000 11.10100 35.94300
H  40.13900 12.08200 37.12800
N  39.31100 7.72300 29.53900
C  38.58200 7.22700 30.61200
C  37.39500 6.67200 30.07900
C  37.53100 6.56200 28.67800
C  38.80200 7.20800 28.35200
C  36.27300 6.22200 30.96100
C  36.61100 5.92600 27.63500
O  36.86000 5.83400 26.46100
C  35.28200 5.23200 27.99300
N  41.49500 8.59700 27.45100
C  40.64400 7.98900 26.61200
C  41.32800 7.95700 25.18000
C  42.51300 8.96400 25.30000
C  42.58200 9.12100 26.81300
C  41.68300 6.57400 24.72900
C  42.18500 10.23500 24.47300
C  41.32200 11.36200 25.19200
N  42.73700 10.00100 29.71800
C  43.72100 10.25200 28.78000
C  44.75600 11.00000 29.38600
C  44.44700 11.06100 30.74600
C  43.17700 10.48600 30.87400
C  46.08500 11.35700 28.81900
C  44.91400 11.52300 32.04000
O  45.96700 11.97000 32.46100
C  43.75600 11.15400 33.08100
C  44.40200 10.35100 34.11600
O  44.86700 9.21300 33.97900
O  44.27400 11.05600 35.25700
C  44.37200 10.28100 36.47900
H  38.33200 7.06100 32.79200
H  38.91500 7.00700 26.15000
H  44.40000 10.27700 26.80100
H  41.81900 9.26800 34.91400
H  39.07400 8.74700 34.60500
H  41.47500 7.26600 35.07000
H  40.38600 6.27000 34.00200
H  39.73700 6.85100 35.53500
H  40.15700 11.53300 33.77100
H  41.48700 11.50700 34.87500
H  39.73600 10.15100 36.47700
H  38.68000 11.34300 35.72000
H  36.34600 5.15000 31.14400
H  35.37200 6.46000 30.39700
H  36.23600 6.74500 31.91700
H  34.98800 4.64300 27.12400
H  34.59800 5.93000 28.47500
H  35.59000 4.57300 28.80500
H  40.70900 8.30500 24.35300
H  43.50800 8.62000 25.01900
H  41.16700 5.71500 25.15800
H  42.77000 6.55900 24.81400
H  41.58600 6.53600 23.64400
H  41.78200 9.93800 23.50400
H  43.18800 10.61400 24.27700
H  41.78100 12.34800 25.27000
H  41.02000 11.05400 26.19300
H  40.42000 11.45500 24.58800
H  46.26000 12.42900 28.90800
H  46.25900 11.06400 27.78400
H  46.84300 10.81000 29.37900
H  43.33900 12.07600 33.48600
H  43.60700 10.77200 37.08100
H  45.39100 10.42600 36.83700
H  43.93900 9.29400 36.32000
Mg -9.89400 40.29700 42.37100
C  -8.95000 37.03000 41.49000
C  -6.70200 41.28900 41.39800
C  -10.98900 43.42100 42.28700
C  -13.12400 39.13100 43.18700
N  -8.13000 39.24300 41.32000
C  -7.94000 37.97000 41.15700
C  -6.48600 37.55500 40.68000
C  -5.80700 38.91200 41.05200
C  -6.89700 39.88600 41.31500
C  -4.71700 39.02100 42.16500
C  -6.51200 37.15000 39.17800
C  -5.63500 36.06600 38.73100
H  -4.81600 36.44400 37.44100
N  -8.96400 42.07000 41.90900
C  -7.69300 42.31900 41.55800
C  -7.44300 43.74500 41.44600
C  -8.68000 44.34000 41.61800
C  -9.61700 43.26200 42.01700
C  -6.16200 44.40800 40.94400
C  -8.85100 45.85700 41.50500
O  -7.90200 46.61000 41.20600
C  -10.22600 46.48000 41.61400
N  -11.87300 41.14400 42.40800
C  -12.01000 42.49200 42.57200
C  -13.34400 42.89700 43.14300
C  -13.96400 41.51900 43.55600
C  -12.94500 40.50100 42.98700
C  -13.21200 43.92300 44.27900
C  -15.41300 41.19700 43.15900
C  -16.29900 40.77200 44.38800
N  -10.88000 38.45200 42.46400
C  -12.16200 38.15400 42.78700
C  -12.37900 36.71000 42.65400
C  -11.08100 36.25500 42.32300
C  -10.23600 37.32300 42.12300
C  -13.70600 35.94400 42.79500
C  -10.42200 35.03800 41.95100
O  -10.78500 33.86300 41.84300
C  -9.00200 35.54400 41.37200
C  -7.88200 34.93400 42.17400
O  -7.83700 34.90900 43.43000
O  -6.96600 34.35500 41.29200
C  -5.92600 33.62600 41.92000
H  -5.67100 41.64500 41.34000
H  -11.26700 44.47700 42.30600
H  -14.01500 38.81400 43.73300
H  -6.16300 36.74400 41.33300
H  -5.26900 39.33100 40.20200
H  -3.71400 39.17800 41.76800
H  -4.70400 38.08300 42.72100
H  -4.85700 39.80100 42.91300
H  -6.36300 38.05500 38.58900
H  -7.54300 36.84300 38.99900
H  -6.06300 35.08500 38.52500
H  -4.89100 35.92600 39.51500
H  -6.32900 44.84800 39.96000
H  -5.39400 43.64200 40.84300
H  -5.78600 45.11400 41.68400
H  -10.55500 46.39600 42.65000
H  -10.90500 45.93700 40.95700
H  -10.24900 47.55500 41.43400
H  -13.86500 43.40600 42.33300
H  -13.74300 41.51400 44.62300
H  -12.14700 44.03100 44.48700
H  -13.69800 43.55100 45.18100
H  -13.55700 44.92200 44.01300
H  -15.36000 40.43900 42.37700
H  -15.85300 42.08500 42.70500
H  -16.63700 39.76700 44.13700
H  -17.16300 41.40200 44.60100
H  -15.62200 40.75700 45.24100
H  -13.58200 34.86100 42.81200
H  -14.38600 36.23800 41.99600
H  -14.21200 36.25700 43.70900
H  -8.89500 35.13800 40.36600
H  -5.88700 33.47200 42.99900
H  -5.00100 34.17400 41.74300
H  -5.79100 32.69400 41.37200

