158

Mg 29.61100 57.81700 40.80300
C  26.90600 55.79100 40.03000
C  31.64200 55.14900 39.91400
C  32.15200 59.97300 40.97100
C  27.41100 60.47600 41.54200
N  29.27000 55.68800 39.97200
C  28.10500 55.03100 39.82400
C  28.30800 53.54200 39.43300
C  29.81500 53.39200 39.69000
C  30.29000 54.78900 39.86800
C  30.14600 52.38800 40.84400
C  27.81400 53.11300 37.97100
C  28.19400 53.90800 36.75900
H  27.24900 54.83500 36.09600
N  31.64800 57.58800 40.44600
C  32.32600 56.42500 40.11100
C  33.73400 56.71500 39.93200
C  33.87400 58.12300 40.14200
C  32.54700 58.60300 40.55500
C  34.70400 55.71400 39.44400
C  35.13200 58.82000 39.85900
O  36.19700 58.15600 39.55200
C  35.22600 60.33900 39.90200
N  29.72000 59.99300 41.14000
C  30.91500 60.55500 41.34500
C  30.71700 61.98700 41.75400
C  29.25100 62.05900 42.19600
C  28.74700 60.77300 41.63100
C  31.76600 62.51300 42.77000
C  28.53900 63.42100 41.95300
C  27.96600 64.17100 43.14900
N  27.62300 58.11400 40.80200
C  26.86100 59.27400 41.08400
C  25.41600 58.95100 40.99300
C  25.44600 57.57000 40.64700
C  26.75500 57.11600 40.45300
C  24.15700 59.87400 41.34000
C  24.53200 56.40400 40.28200
O  23.30300 56.24300 40.26200
C  25.49900 55.25000 40.03800
C  25.28000 54.08900 40.96700
O  25.44500 54.03800 42.19700
O  24.72400 53.00500 40.26400
C  24.24200 51.91600 41.13000
H  32.37900 54.36900 39.71500
H  32.84400 60.81700 41.00000
H  26.65000 61.12900 41.97400
H  27.82900 52.99500 40.24500
H  30.17300 52.92500 38.77300
H  29.34100 51.71800 41.14600
H  30.40800 53.02600 41.68800
H  31.02400 51.88100 40.44300
H  26.73600 53.03900 38.11400
H  28.26200 52.12900 37.83300
H  28.78400 53.31100 36.06300
H  28.80200 54.74200 37.10900
H  35.73100 55.74700 39.80900
H  34.82000 55.89500 38.37500
H  34.35800 54.68500 39.53800
H  34.33200 60.77600 39.45800
H  36.00600 60.68100 39.22200
H  35.40300 60.65000 40.93200
H  30.78800 62.58900 40.84800
H  29.24800 61.87700 43.27100
H  32.44200 61.67800 42.95800
H  31.37200 62.92700 43.69900
H  32.26300 63.23600 42.12400
H  27.77900 63.17300 41.21100
H  29.29300 64.05800 41.49000
H  28.33500 65.19600 43.15000
H  28.28700 63.75100 44.10200
H  26.88200 64.18600 43.27000
H  23.20500 59.54500 40.92400
H  24.34200 60.90600 41.04300
H  24.07200 59.81100 42.42500
H  25.15800 54.83700 39.08900
H  24.34900 51.00400 40.54200
H  23.19000 52.14700 41.29800
H  24.77300 51.88300 42.08100
Mg -2.25200 34.73100 26.66700
C  -3.83100 32.94200 29.06100
C  -1.22800 36.92700 29.09800
C  -1.20200 36.81100 24.26600
C  -4.15300 33.07300 24.20000
N  -2.65300 34.96900 28.81400
C  -3.10800 33.97500 29.64200
C  -2.88700 34.27200 31.11900
C  -2.08400 35.62500 31.10500
C  -2.01000 35.91100 29.60900
C  -2.69400 36.77500 31.92300
C  -2.31900 33.04100 31.97500
C  -2.96200 32.67400 33.38100
H  -2.08800 32.75900 34.61600
N  -1.07100 36.46200 26.71700
C  -0.72600 37.13500 27.81800
C  0.10100 38.19800 27.39000
C  0.16600 38.15500 26.00000
C  -0.77500 37.14600 25.58000
C  0.76900 39.16700 28.34100
C  0.92600 39.04100 25.00900
O  0.82800 38.84600 23.79000
C  1.79700 40.14500 25.39000
N  -2.84700 35.01200 24.57100
C  -2.12100 35.89300 23.75700
C  -2.73200 35.91100 22.34400
C  -3.38500 34.45800 22.29400
C  -3.38500 34.03600 23.76000
C  -3.79000 36.97200 22.11900
C  -2.68400 33.45400 21.39800
C  -1.34200 32.79300 21.85300
N  -3.74900 33.32900 26.57800
C  -4.37000 32.69600 25.53900
C  -5.32800 31.70900 25.99500
C  -5.11300 31.69700 27.43500
C  -4.16300 32.71400 27.68200
C  -6.10200 30.73200 25.05400
C  -5.52300 31.14700 28.66200
O  -6.23600 30.24900 29.02900
C  -4.67600 31.91500 29.77600
C  -5.76600 32.56800 30.63100
O  -6.66300 33.37200 30.32400
O  -5.66600 32.02600 31.88000
C  -6.64600 32.49900 32.90000
H  -0.91000 37.67900 29.82300
H  -0.91300 37.46100 23.43700
H  -4.66600 32.46100 23.45500
H  -3.81800 34.56200 31.60500
H  -1.10000 35.35000 31.48500
H  -3.23500 36.41600 32.79900
H  -3.36000 37.37900 31.30700
H  -1.88000 37.44300 32.20300
H  -1.25100 33.11200 32.18100
H  -2.37800 32.13200 31.37600
H  -3.22700 31.61700 33.35700
H  -3.83700 33.31700 33.48000
H  1.83800 38.96400 28.28200
H  0.62200 38.86700 29.37800
H  0.53400 40.22200 28.19900
H  2.52300 39.62600 26.01600
H  1.09900 40.67800 26.03500
H  2.27600 40.76500 24.63100
H  -1.94300 36.11600 21.62000
H  -4.42200 34.47100 21.95700
H  -3.62700 37.80900 22.79900
H  -4.79000 36.54200 22.16600
H  -3.58100 37.39800 21.13800
H  -2.47300 33.89100 20.42200
H  -3.36400 32.61700 21.24300
H  -0.54300 33.11100 21.18400
H  -1.42200 31.71800 21.69300
H  -1.03900 32.93100 22.89100
H  -5.37300 30.03400 24.64200
H  -6.57800 31.23200 24.21100
H  -6.91200 30.21600 25.57000
H  -4.13300 31.16200 30.34700
H  -7.57000 32.83700 32.43000
H  -6.11400 33.17300 33.57200
H  -6.89900 31.70300 33.60000

