158

Mg 36.73400 2.45700 30.19800
C  33.90300 3.22300 32.37100
C  38.66100 2.48000 32.87800
C  39.15200 1.54400 28.13500
C  34.48500 2.70600 27.38700
N  36.30500 2.87300 32.36000
C  35.10000 3.02600 33.07700
C  35.29400 2.88800 34.62100
C  36.89100 2.90100 34.70400
C  37.30400 2.77100 33.20900
C  37.38700 4.23600 35.39100
C  34.56000 1.68000 35.22800
C  34.25200 1.66500 36.80300
H  34.88300 2.80200 37.72900
N  38.75600 2.20800 30.41600
C  39.33000 2.23500 31.60900
C  40.76400 1.88600 31.46600
C  40.96700 1.50100 30.09700
C  39.59500 1.78200 29.46400
C  41.66200 1.87100 32.68900
C  42.14500 0.82300 29.33400
O  42.07300 0.69600 28.08800
C  43.34200 0.25100 30.09300
N  36.81700 2.32600 28.00200
C  37.94000 1.79800 27.46700
C  37.76900 1.54000 25.97200
C  36.25100 1.75900 25.73700
C  35.81500 2.30600 27.09600
C  38.74800 2.41400 25.12400
C  35.49600 0.48600 25.22700
C  35.04800 -0.57200 26.25200
N  34.63500 2.78900 29.84100
C  33.92000 2.94300 28.67400
C  32.55800 3.28400 28.98600
C  32.55000 3.40300 30.38100
C  33.82500 3.11300 30.87800
C  31.47300 3.39100 27.97600
C  31.69700 3.79800 31.53400
O  30.50100 4.21300 31.56000
C  32.50000 3.62000 32.84400
C  32.51500 4.83100 33.75200
O  32.72200 6.01800 33.40100
O  32.02500 4.56100 35.02400
C  32.23700 5.61600 35.97700
H  39.32500 2.66200 33.72600
H  39.72600 0.91200 27.45400
H  33.89000 2.95000 26.50500
H  34.89300 3.68000 35.25500
H  37.17900 2.07700 35.35700
H  37.52500 4.25600 36.47200
H  36.78200 5.09900 35.11300
H  38.28800 4.56600 34.87400
H  35.10400 0.77800 34.94700
H  33.65000 1.55500 34.64000
H  34.52600 0.64200 37.06100
H  33.19200 1.64900 37.05900
H  41.27300 1.18100 33.43800
H  41.70600 2.88300 33.09300
H  42.67100 1.58900 32.39200
H  43.04000 -0.18000 31.04800
H  44.05600 1.07300 30.13800
H  43.78300 -0.48900 29.42400
H  38.07800 0.50600 25.81800
H  36.07900 2.55600 25.01300
H  39.38900 3.13300 25.63400
H  38.29800 2.96500 24.29800
H  39.39600 1.77100 24.52800
H  36.07300 -0.09400 24.50600
H  34.72300 0.85000 24.55100
H  35.51400 -1.54800 26.12200
H  34.01100 -0.71400 25.94700
H  35.04800 -0.20200 27.27700
H  31.17400 2.42100 27.57900
H  31.64900 4.10700 27.17400
H  30.50300 3.56800 28.44300
H  32.00600 2.89600 33.49400
H  33.23600 6.01000 35.78800
H  32.30000 5.33000 37.02700
H  31.54000 6.41000 35.70700
Mg 26.78400 50.92600 26.43300
C  25.19500 52.22200 29.35000
C  29.31300 49.75900 28.48500
C  28.18200 49.54700 23.76100
C  24.84800 52.98000 24.51200
N  27.16900 51.05100 28.71500
C  26.33600 51.50700 29.71900
C  26.86300 51.22100 31.13200
C  28.26400 50.52300 30.81400
C  28.24800 50.42400 29.21600
C  29.50500 51.34900 31.32900
C  25.84200 50.49800 32.02900
C  26.27400 49.76400 33.36400
H  25.73400 50.48500 34.70200
N  28.46500 49.74000 26.19200
C  29.46500 49.40400 27.13000
C  30.45500 48.64800 26.49300
C  30.06200 48.48300 25.16900
C  28.93400 49.32000 24.98700
C  31.56600 47.89300 27.12800
C  30.54300 47.61100 24.11700
O  30.16800 47.61100 22.94200
C  31.34000 46.46100 24.45600
N  26.57000 51.36400 24.38900
C  27.11400 50.46100 23.53000
C  26.53500 50.69900 22.11200
C  25.58300 51.93300 22.36800
C  25.60500 52.08000 23.82800
C  27.54600 50.89700 20.92700
C  24.15900 51.60000 21.89100
C  23.73600 52.42900 20.66800
N  25.33200 52.22700 26.75400
C  24.58400 52.99100 25.85700
C  23.64100 53.79400 26.57400
C  23.84400 53.47600 27.86500
C  24.83100 52.50300 27.96500
C  22.66800 54.74700 25.88400
C  23.28000 53.77400 29.10500
O  22.32100 54.47100 29.35900
C  24.17300 52.91100 30.17500
C  24.70000 53.75300 31.33700
O  25.78100 54.17200 31.39900
O  23.83700 53.85300 32.33600
C  24.07000 54.84400 33.45900
H  30.05900 49.29700 29.13600
H  28.35100 48.93100 22.87600
H  24.16400 53.47700 23.82100
H  27.11600 52.24200 31.41900
H  28.23600 49.52900 31.26000
H  30.06600 51.54100 30.41500
H  30.04400 50.60300 31.91300
H  29.23100 52.27400 31.83700
H  25.27500 49.92200 31.29800
H  25.16800 51.29000 32.35800
H  27.36000 49.79300 33.46300
H  25.90600 48.73800 33.37100
H  31.66200 48.32800 28.12300
H  32.49800 48.08100 26.59500
H  31.25800 46.84900 27.18900
H  30.88100 45.83800 25.22400
H  32.24400 46.90100 24.87800
H  31.72100 45.81900 23.66100
H  25.98700 49.80900 21.80200
H  25.86400 52.88700 21.92000
H  28.53400 51.18100 21.29000
H  27.12200 51.76100 20.41500
H  27.56700 50.03900 20.25500
H  23.39000 51.82300 22.63000
H  24.09900 50.54300 21.63000
H  24.61200 52.94700 20.27900
H  22.95100 53.18000 20.75300
H  23.47800 51.77000 19.83900
H  23.22100 55.54700 25.39200
H  22.06900 55.25500 26.64000
H  22.05700 54.30000 25.10000
H  23.57800 52.10700 30.60800
H  24.44900 55.76900 33.02500
H  24.61900 54.41600 34.29800
H  23.05200 55.00700 33.81500

