158

Mg 46.88000 17.38200 27.70500
C  45.15800 17.24700 30.79200
C  49.55500 18.89500 29.39800
C  48.60600 17.72500 24.83600
C  44.18800 15.95300 26.15500
N  47.13300 18.15300 29.82400
C  46.41800 17.92600 30.94000
C  47.12800 18.35100 32.20400
C  48.35400 19.17100 31.64300
C  48.39200 18.74000 30.12800
C  48.09200 20.72800 31.82700
C  47.50700 17.18000 33.06600
C  47.22100 17.22800 34.60000
H  46.79700 18.64800 35.19300
N  48.69900 18.35500 27.14900
C  49.63200 18.88900 27.96500
C  50.80600 19.37600 27.17900
C  50.49200 19.02700 25.85900
C  49.22400 18.41500 25.86800
C  52.06600 19.78000 27.85400
C  51.28000 19.35000 24.49700
O  51.05200 18.87100 23.37200
C  52.36100 20.40500 24.44300
N  46.40200 17.00500 25.80500
C  47.38100 17.04600 24.79600
C  46.88300 16.36900 23.51100
C  45.61700 15.49100 24.05800
C  45.34700 16.24200 25.38000
C  46.59300 17.36500 22.34300
C  45.93700 14.01200 24.18600
C  44.75700 13.10100 24.24800
N  45.00300 16.90500 28.20200
C  44.01600 16.21500 27.54600
C  42.98400 15.74100 28.41900
C  43.44800 16.18000 29.67800
C  44.66900 16.87700 29.55300
C  41.68000 14.94300 28.13500
C  43.04600 16.02400 31.08900
O  42.10200 15.50700 31.66700
C  44.25800 16.77900 31.84100
C  43.56100 17.70000 32.77700
O  43.21200 18.81600 32.48300
O  43.23600 17.01600 33.92400
C  42.49500 17.76200 34.94700
H  50.42600 19.29500 29.92200
H  49.17400 17.65000 23.90700
H  43.34000 15.39300 25.75400
H  46.44900 19.03300 32.71600
H  49.28200 18.90100 32.14800
H  47.08300 21.12800 31.92900
H  48.61600 21.13500 30.96200
H  48.60200 21.08800 32.72000
H  48.54800 16.87200 32.96900
H  46.89000 16.34300 32.74200
H  48.16800 16.93400 35.05200
H  46.40900 16.52500 34.78600
H  52.11200 20.77300 28.30100
H  53.01400 19.72200 27.32000
H  52.33600 19.03500 28.60300
H  52.05900 21.41700 24.71100
H  52.66000 20.39000 23.39500
H  53.26100 20.18400 25.01700
H  47.61400 15.58700 23.30800
H  44.72400 15.69100 23.46700
H  46.48900 18.38800 22.70400
H  45.66300 17.09100 21.84500
H  47.46100 17.37600 21.68300
H  46.54900 13.88400 25.07900
H  46.54000 13.70600 23.33000
H  44.75700 12.39800 23.41500
H  43.85100 13.64900 23.98900
H  44.69700 12.59900 25.21300
H  41.71600 13.86500 27.98000
H  41.30700 15.49400 27.27100
H  41.01300 15.07500 28.98700
H  44.74100 15.93400 32.33200
H  43.23900 18.04800 35.69100
H  41.77700 17.17100 35.51700
H  42.13000 18.75600 34.69100
Mg 42.77700 42.17500 26.31700
C  41.64500 44.13100 28.90800
C  44.11800 39.96900 28.63100
C  43.92800 40.28700 23.76900
C  42.00000 44.71400 24.01700
N  42.85800 42.06100 28.53200
C  42.21500 42.91300 29.34400
C  42.23300 42.35300 30.82300
C  43.29300 41.22600 30.74300
C  43.50600 41.06000 29.19300
C  44.66900 41.47400 31.37200
C  40.75900 42.07400 31.34900
C  40.19600 43.02500 32.41700
H  39.71200 42.51200 33.75800
N  43.78900 40.34000 26.14500
C  44.25800 39.62300 27.21600
C  44.83300 38.40700 26.68300
C  44.70400 38.40000 25.27000
C  44.12600 39.71900 24.99600
C  45.63400 37.47900 27.59000
C  45.21700 37.47000 24.25100
O  45.34700 37.74300 23.07200
C  45.63500 36.14600 24.70200
N  43.14000 42.54900 24.17100
C  43.46000 41.54400 23.35200
C  43.35900 41.94700 21.81200
C  42.67800 43.37800 22.00700
C  42.62300 43.62100 23.50700
C  44.72200 41.93600 21.10000
C  41.37500 43.49200 21.18500
C  40.01200 43.02800 21.79800
N  42.07600 44.07600 26.36500
C  41.74000 45.03400 25.37600
C  41.03000 46.17400 25.96700
C  41.02500 45.84900 27.32000
C  41.71800 44.58800 27.54500
C  40.49500 47.39200 25.26600
C  40.56000 46.31900 28.62300
O  39.92500 47.32100 28.91000
C  40.89500 45.27800 29.69500
C  41.73900 45.84800 30.75000
O  42.93600 45.85200 30.70200
O  40.89900 46.27400 31.82300
C  41.55800 46.74700 33.07600
H  44.53500 39.30400 29.39000
H  44.27900 39.75200 22.88400
H  41.62900 45.39000 23.24400
H  42.59800 43.20700 31.39400
H  42.94800 40.21900 30.97700
H  45.31400 41.77200 30.54600
H  44.95500 40.59300 31.94700
H  44.46500 42.13200 32.21600
H  40.77300 41.13000 31.89300
H  39.96100 41.99900 30.61100
H  39.34100 43.57000 32.01700
H  40.99100 43.75300 32.58200
H  45.65400 37.82100 28.62500
H  46.61500 37.50900 27.11800
H  45.18500 36.48700 27.54400
H  44.80100 35.63400 25.18200
H  46.52800 36.32000 25.30100
H  45.83200 35.49400 23.85100
H  42.59200 41.33500 21.33700
H  43.40000 44.08900 21.60400
H  45.16400 40.94000 21.11600
H  45.33100 42.67500 21.62100
H  44.52900 42.31300 20.09500
H  41.49600 42.94500 20.25000
H  41.47400 44.53900 20.90000
H  39.35600 43.89700 21.75900
H  40.02700 42.63900 22.81600
H  39.53300 42.29300 21.15100
H  40.02400 46.88500 24.42400
H  41.35400 47.94800 24.89100
H  39.87500 47.96500 25.95600
H  39.96000 44.97700 30.16700
H  42.63400 46.78000 32.90300
H  41.21500 46.08500 33.87100
H  41.22000 47.76900 33.24400

