158

Mg 46.90700 16.42300 28.39900
C  44.59000 16.03300 30.95700
C  48.89600 18.23200 30.37700
C  48.96000 16.80800 25.81000
C  44.56700 14.80100 26.17600
N  46.76900 17.13000 30.39600
C  45.82800 16.72600 31.32600
C  46.23200 17.08200 32.74500
C  47.39600 18.05300 32.45900
C  47.69200 17.80800 30.98300
C  47.13000 19.53400 32.93900
C  46.60400 15.80900 33.57600
C  47.18700 16.09400 34.99800
H  47.09400 17.48100 35.64500
N  48.69300 17.35300 28.14100
C  49.41800 18.02600 29.11000
C  50.63900 18.62800 28.53400
C  50.69900 18.11400 27.17800
C  49.38800 17.31800 27.01500
C  51.59500 19.53700 29.38600
C  51.84000 18.26300 26.17800
O  51.90100 17.80200 25.04400
C  53.05400 19.05300 26.47200
N  46.63400 16.04500 26.24000
C  47.71800 16.27200 25.42900
C  47.32400 15.94500 23.97800
C  46.24400 14.82400 24.21700
C  45.77100 15.23300 25.61200
C  46.77100 17.25700 23.35700
C  46.78000 13.36400 24.18300
C  46.03600 12.47300 23.17800
N  45.00400 15.56900 28.47700
C  44.20000 14.96900 27.52500
C  43.00700 14.43500 28.22500
C  43.09500 14.81200 29.55500
C  44.34000 15.60400 29.58200
C  41.96500 13.57500 27.52000
C  42.43400 14.79000 30.84000
O  41.28900 14.39900 31.11500
C  43.37300 15.51800 31.72600
C  42.70000 16.53800 32.54300
O  41.78500 17.22600 32.09900
O  43.14900 16.49700 33.84800
C  42.69500 17.56900 34.74100
H  49.50200 18.82500 31.06600
H  49.67500 17.02500 25.01400
H  43.90400 14.15700 25.59500
H  45.50200 17.64400 33.32600
H  48.29800 17.72500 32.97500
H  47.05100 20.23500 32.10800
H  48.02100 19.93400 33.42300
H  46.34600 19.59300 33.69300
H  47.24200 15.24700 32.89400
H  45.74100 15.15900 33.72300
H  48.24000 15.87500 34.82200
H  46.86100 15.41900 35.78900
H  51.18400 19.72000 30.37900
H  51.68700 20.47300 28.83600
H  52.59900 19.11400 29.41300
H  52.85200 20.08300 26.76700
H  53.74400 18.86300 25.65000
H  53.71300 18.78600 27.29800
H  48.25600 15.58700 23.54100
H  45.33600 15.03600 23.65300
H  45.82200 17.47300 23.84800
H  46.72700 17.16800 22.27200
H  47.41600 18.08000 23.66500
H  46.70400 12.90200 25.16700
H  47.84100 13.44600 23.95100
H  45.45500 11.70300 23.68500
H  46.74700 11.87800 22.60300
H  45.31800 13.06800 22.61400
H  41.00200 13.93600 27.88100
H  42.14800 12.56300 27.88200
H  42.03100 13.77000 26.45000
H  43.74800 14.79300 32.44900
H  42.65600 17.17700 35.75700
H  41.67700 17.85800 34.47800
H  43.42800 18.37200 34.66400
Mg 9.50500 48.61400 25.74700
C  7.37100 48.86000 28.55800
C  11.95300 49.98700 27.60400
C  11.38800 48.43900 23.01400
C  6.69200 47.76700 23.92600
N  9.63400 49.25800 27.80000
C  8.68800 49.16800 28.80900
C  9.34400 49.53700 30.12900
C  10.63100 50.32900 29.67300
C  10.77100 49.81300 28.29500
C  10.49600 51.90600 29.68100
C  9.58600 48.34100 31.13200
C  9.02400 48.74900 32.53300
H  9.40800 47.74000 33.69200
N  11.53100 49.06600 25.39700
C  12.33000 49.69200 26.26500
C  13.62700 49.82500 25.64400
C  13.51600 49.16900 24.34300
C  12.09500 48.89100 24.17400
C  14.81800 50.40400 26.33100
C  14.55100 48.84500 23.41700
O  14.16100 48.31700 22.37800
C  16.00500 49.03800 23.67800
N  9.07600 48.30700 23.63800
C  10.04300 48.26400 22.72500
C  9.56700 47.59800 21.44500
C  8.19300 47.05800 21.85500
C  7.90700 47.80200 23.21900
C  9.64300 48.38800 20.08400
C  8.11900 45.47600 21.90800
C  8.25600 44.83000 23.32200
N  7.50700 48.31600 26.14700
C  6.45800 47.98000 25.28600
C  5.12100 47.91100 25.98000
C  5.49500 48.18200 27.28400
C  6.93500 48.42900 27.33000
C  3.73400 47.62700 25.38900
C  4.96900 48.27200 28.63400
O  3.83500 48.16600 29.10100
C  6.21700 48.56000 29.54800
C  6.28900 47.25800 30.21700
O  6.75800 46.19900 29.76500
O  5.87400 47.24100 31.54800
C  6.07900 45.99800 32.34700
H  12.82700 50.24000 28.20800
H  11.89900 48.13100 22.09900
H  5.90200 47.18300 23.44900
H  8.57500 50.21100 30.50700
H  11.46900 50.10600 30.33300
H  9.61000 52.22100 30.23300
H  10.60000 52.36000 28.69600
H  11.35100 52.28100 30.24300
H  10.64600 48.09000 31.17100
H  9.03800 47.45900 30.80200
H  7.95000 48.56600 32.50200
H  9.10100 49.82600 32.67700
H  15.56900 50.88600 25.70500
H  15.35100 49.73700 27.00900
H  14.46700 51.15900 27.03400
H  16.27100 50.06900 23.44100
H  16.49300 48.43900 22.91000
H  16.35800 48.66800 24.64100
H  10.28700 46.78400 21.35300
H  7.48200 47.35000 21.08200
H  9.26800 49.40500 20.19700
H  9.19600 47.80300 19.28000
H  10.70500 48.43400 19.84300
H  8.80900 45.06800 21.17000
H  7.15400 45.19200 21.48800
H  8.91200 45.37200 24.00200
H  8.70800 43.84100 23.24900
H  7.23600 44.82100 23.70700
H  3.42100 46.72400 25.91400
H  3.56500 47.63200 24.31200
H  3.09900 48.38300 25.85100
H  6.05700 49.40900 30.21200
H  5.83200 46.17500 33.39400
H  7.13000 45.74000 32.21600
H  5.42400 45.14900 32.15400

