158

Mg 30.55800 57.34600 40.83000
C  27.87700 55.78700 39.33100
C  32.59300 55.14600 39.21600
C  33.07100 59.41500 41.51200
C  28.24600 59.92800 41.79300
N  30.21500 55.76500 39.33700
C  29.04700 55.17500 38.97500
C  29.20300 54.09400 37.90500
C  30.73500 53.66900 38.23100
C  31.19100 54.93400 38.96600
C  30.80000 52.34600 39.04800
C  29.04700 54.62300 36.43000
C  28.61100 53.59600 35.38100
H  27.82500 54.05000 34.16500
N  32.59600 57.28600 40.52300
C  33.22200 56.25300 39.93100
C  34.60600 56.31600 40.19200
C  34.85500 57.65600 40.67600
C  33.50600 58.19700 41.00700
C  35.57000 55.36400 39.58800
C  36.24300 58.32400 40.90400
O  37.24500 57.75700 40.56900
C  36.37100 59.57800 41.67200
N  30.61400 59.36000 41.60200
C  31.76100 59.90600 41.80900
C  31.63700 61.29700 42.53200
C  30.06600 61.35400 42.80000
C  29.61000 60.12600 41.99900
C  32.56600 61.67000 43.72600
C  29.37600 62.75700 42.51200
C  28.19300 63.22400 43.41400
N  28.42400 57.74400 40.84500
C  27.64400 58.79200 41.22700
C  26.26300 58.58900 40.91100
C  26.30700 57.39700 40.18400
C  27.62200 56.90200 40.19100
C  25.09100 59.49400 41.24300
C  25.46400 56.45800 39.47200
O  24.24900 56.55300 39.25900
C  26.47000 55.35300 38.86500
C  26.10100 54.05000 39.46100
O  26.82700 53.33800 40.10900
O  24.96900 53.65200 38.88500
C  24.47700 52.28100 39.00200
H  33.22800 54.28600 38.99500
H  33.82300 60.13400 41.84500
H  27.45600 60.63400 42.05700
H  28.53600 53.26000 38.12200
H  31.28800 53.62500 37.29400
H  31.79300 52.21300 39.47900
H  30.51100 51.55900 38.35100
H  30.01300 52.27200 39.79900
H  30.03300 54.95300 36.10000
H  28.41000 55.50600 36.45900
H  28.03100 52.79000 35.83000
H  29.46500 53.10700 34.91000
H  35.48000 55.55100 38.51800
H  35.33200 54.31900 39.78600
H  36.61500 55.54200 39.84600
H  37.40100 59.91400 41.79400
H  36.02000 59.46500 42.69800
H  35.69400 60.29900 41.21200
H  31.87000 62.08200 41.81300
H  29.93700 61.05400 43.84000
H  32.01900 62.06100 44.58400
H  33.32900 62.39800 43.44900
H  33.27100 60.89400 44.02300
H  29.04100 62.65700 41.48000
H  30.14200 63.52200 42.64300
H  27.75400 62.30200 43.79700
H  27.45700 63.79600 42.84800
H  28.53300 63.67700 44.34500
H  25.22000 60.06000 42.16600
H  24.18900 58.88900 41.14800
H  24.97900 60.21000 40.42900
H  26.38800 55.50800 37.78900
H  24.94800 51.73900 39.82200
H  24.32900 51.82400 38.02300
H  23.47100 52.49100 39.36700
Mg 10.01200 48.65000 26.26200
C  7.95000 48.69100 29.10100
C  12.56700 49.63000 28.23000
C  11.95000 48.82300 23.45300
C  7.13700 48.30200 24.23100
N  10.20700 49.19300 28.37600
C  9.26300 49.11200 29.35100
C  9.84800 49.67600 30.66400
C  11.20100 50.27000 30.22200
C  11.36600 49.58600 28.89200
C  11.27200 51.82100 30.15300
C  9.97000 48.70300 31.88500
C  9.01000 49.01700 33.06800
H  9.63200 49.57900 34.29600
N  12.06400 49.08300 25.85900
C  12.95700 49.31400 26.82500
C  14.28800 49.46900 26.23200
C  14.10400 49.21400 24.83500
C  12.62900 49.09200 24.63300
C  15.52400 49.92400 27.02800
C  15.15800 49.10700 23.73600
O  14.88300 49.05600 22.57800
C  16.60800 49.23800 24.05600
N  9.56400 48.69700 24.09800
C  10.63300 48.61900 23.18300
C  10.03400 48.56900 21.73700
C  8.47000 48.17900 22.02800
C  8.34900 48.46800 23.51900
C  10.25900 49.81500 20.89100
C  8.10200 46.73500 21.67900
C  8.66300 45.61000 22.56300
N  7.94300 48.48200 26.56200
C  6.92500 48.31900 25.65400
C  5.65000 48.28100 26.37100
C  6.00500 48.32900 27.73600
C  7.41600 48.54000 27.75000
C  4.31000 48.01500 25.78700
C  5.52400 48.36900 29.12800
O  4.43800 48.29500 29.62100
C  6.76300 48.60900 30.06900
C  6.87000 47.32100 30.77700
O  7.60900 46.39400 30.45000
O  6.00600 47.26500 31.86100
C  6.28100 46.11500 32.78400
H  13.42800 50.00100 28.79000
H  12.66300 48.70000 22.63500
H  6.23900 48.34700 23.61200
H  9.21400 50.49200 31.01000
H  12.11400 49.93700 30.71400
H  10.28800 52.27400 30.03200
H  11.97900 52.11500 29.37700
H  11.67000 52.19700 31.09500
H  10.99100 48.79900 32.25400
H  9.82700 47.65300 31.62900
H  8.48100 48.09700 33.31700
H  8.18100 49.70900 32.92300
H  15.25400 50.10100 28.06900
H  15.93300 50.86800 26.66700
H  16.29500 49.16500 26.90100
H  16.91700 48.61200 24.89400
H  16.88000 50.25000 24.35400
H  17.16500 48.93500 23.16900
H  10.60000 47.73400 21.32600
H  7.84000 48.88600 21.49000
H  10.62200 50.52500 21.63400
H  9.35400 50.17000 20.39700
H  10.95400 49.63900 20.07000
H  8.46100 46.61800 20.65600
H  7.02100 46.60100 21.71100
H  7.95800 44.79000 22.69800
H  8.90100 46.00900 23.54900
H  9.51100 45.12700 22.07900
H  3.48600 47.80700 26.47000
H  4.51200 47.11400 25.20800
H  4.14200 48.77400 25.02300
H  6.69700 49.42700 30.78700
H  5.32900 45.58900 32.85600
H  6.56200 46.53500 33.75000
H  7.09400 45.45200 32.49100

