158

Mg 23.29800 -6.33800 45.42200
C  25.81200 -4.05500 44.37400
C  21.02200 -4.55300 43.62300
C  21.40200 -9.08100 45.47200
C  25.99800 -8.22900 46.90700
N  23.49300 -4.54000 44.05500
C  24.52900 -3.71000 43.84300
C  24.15100 -2.46200 43.02100
C  22.60600 -2.52800 43.16300
C  22.31400 -3.99700 43.60400
C  22.06700 -1.40500 44.13700
C  24.76600 -2.51000 41.67400
C  25.56400 -1.25200 41.24300
H  25.68200 -0.91100 39.74900
N  21.29500 -6.78200 44.75000
C  20.58600 -5.89100 43.95100
C  19.28100 -6.50300 43.76900
C  19.37400 -7.80900 44.38400
C  20.73200 -7.98200 44.87800
C  18.28800 -5.65300 43.05700
C  18.19300 -8.77500 44.56300
O  17.04600 -8.42600 44.20900
C  18.40800 -9.98100 45.32500
N  23.69700 -8.34100 46.07800
C  22.73800 -9.28600 46.03600
C  23.23400 -10.62800 46.56700
C  24.63800 -10.25700 47.12200
C  24.80500 -8.88400 46.59200
C  22.25500 -11.34400 47.55400
C  25.72700 -11.21400 46.60300
C  26.64400 -12.01400 47.59700
N  25.46700 -6.18400 45.70100
C  26.36600 -6.98700 46.35600
C  27.69900 -6.51600 46.20600
C  27.55900 -5.33300 45.47600
C  26.18500 -5.18600 45.17300
C  28.97400 -7.13700 46.80600
C  28.22200 -4.14900 44.89100
O  29.40300 -3.80700 44.88100
C  27.08100 -3.21900 44.22200
C  27.03600 -1.89400 44.90900
O  26.28500 -1.62700 45.78700
O  27.92200 -0.98000 44.36500
C  27.88000 0.45200 44.73500
H  20.25700 -3.90500 43.19100
H  20.90100 -10.04300 45.60100
H  26.70800 -8.91700 47.37100
H  24.48400 -1.53200 43.48200
H  22.10100 -2.45800 42.20000
H  21.58100 -1.78200 45.03800
H  21.36000 -0.77600 43.59700
H  22.85400 -0.77900 44.55600
H  23.96400 -2.57700 40.93800
H  25.36300 -3.40900 41.52400
H  26.56100 -1.38900 41.66000
H  25.11000 -0.36800 41.69200
H  18.10800 -4.72200 43.59400
H  17.28000 -6.06500 43.02200
H  18.63900 -5.36500 42.06500
H  17.45300 -10.47800 45.49300
H  18.89700 -9.78000 46.27900
H  18.95800 -10.74800 44.77900
H  23.34600 -11.25200 45.68000
H  24.62100 -10.18100 48.20900
H  22.05700 -12.36200 47.21800
H  21.32600 -10.78700 47.67500
H  22.58400 -11.22500 48.58600
H  26.37700 -10.71000 45.88800
H  25.25900 -11.89800 45.89500
H  27.67600 -11.84500 47.29000
H  26.49700 -13.08900 47.69400
H  26.48000 -11.57600 48.58200
H  29.36800 -7.92400 46.16400
H  28.77300 -7.64000 47.75200
H  29.68700 -6.34000 47.01700
H  27.33800 -3.14500 43.16600
H  26.91600 0.69600 45.18200
H  28.00200 1.17700 43.93000
H  28.62300 0.69400 45.49400
Mg 36.56400 49.44900 24.87800
C  36.83100 47.41600 27.69600
C  35.63100 52.02200 27.05900
C  36.40000 51.35800 22.22100
C  37.97100 46.80000 23.00900
N  36.12000 49.61400 27.18200
C  36.46400 48.70100 28.10600
C  36.45200 49.34800 29.47000
C  35.86200 50.75700 29.26500
C  35.86400 50.85400 27.72300
C  34.44700 51.08500 29.91500
C  37.92200 49.33200 30.04300
C  38.06600 49.26600 31.54000
H  36.90600 49.00600 32.50600
N  35.82800 51.37100 24.72500
C  35.57100 52.31300 25.66500
C  35.08300 53.57400 24.97800
C  35.33100 53.40000 23.56700
C  35.91900 52.03200 23.41600
C  34.38000 54.54600 25.77300
C  34.99100 54.33900 22.36800
O  35.23600 54.00300 21.21000
C  34.27100 55.69200 22.45400
N  36.80500 48.97500 22.72700
C  36.80000 50.05300 21.90500
C  37.30100 49.62300 20.54100
C  38.12800 48.36300 20.87200
C  37.64900 47.98400 22.28400
C  36.13100 49.49700 19.49800
C  39.63500 48.54900 20.71300
C  40.33600 47.21900 20.40600
N  37.06500 47.43500 25.18300
C  37.58200 46.46400 24.31300
C  37.85900 45.27000 25.07400
C  37.49000 45.57900 26.35400
C  37.11100 46.94500 26.42100
C  38.60900 44.11200 24.67900
C  37.50100 45.00700 27.63500
O  37.68000 43.87800 27.99200
C  37.19300 46.26000 28.58900
C  36.06900 45.94800 29.54100
O  34.90000 46.15700 29.32300
O  36.59000 45.51400 30.70700
C  35.64800 44.97300 31.65600
H  35.47100 52.82900 27.77700
H  36.48100 51.98400 21.32900
H  38.71300 46.11200 22.59700
H  35.81100 48.76000 30.12700
H  36.51400 51.58500 29.54400
H  33.78600 51.33700 29.08600
H  34.45500 51.92800 30.60500
H  33.87000 50.25400 30.32100
H  38.24500 50.33200 29.75400
H  38.54100 48.59100 29.53600
H  38.59700 50.17400 31.82300
H  38.83500 48.50300 31.66200
H  33.71100 54.11300 26.51700
H  33.78600 55.25700 25.19800
H  35.16300 55.11000 26.27900
H  34.88800 56.36900 23.04500
H  33.33000 55.42700 22.93700
H  34.16300 56.09100 21.44500
H  38.03200 50.37800 20.25300
H  37.82400 47.67200 20.08500
H  35.23300 49.40300 20.10900
H  36.01100 48.63000 18.84900
H  36.10600 50.38800 18.87100
H  40.09900 48.73000 21.68300
H  39.99300 49.24400 19.95400
H  39.75700 46.69000 19.64900
H  40.35400 46.65100 21.33600
H  41.34900 47.42200 20.05700
H  38.91500 44.17700 23.63500
H  37.95600 43.24300 24.75600
H  39.57700 43.86800 25.11600
H  38.00700 46.64100 29.20500
H  35.24600 44.01100 31.33800
H  34.82300 45.66400 31.83200
H  36.17900 45.00800 32.60700

