158

Mg -0.66400 6.94400 26.39000
C  0.43400 9.05300 28.88500
C  -0.63200 4.35000 28.60300
C  -1.68100 4.94600 23.88500
C  -0.11600 9.50000 24.02600
N  -0.22100 6.76500 28.49500
C  0.16300 7.79500 29.38200
C  0.12800 7.29800 30.82600
C  0.08000 5.73300 30.70200
C  -0.25400 5.57300 29.18200
C  1.41700 5.06400 31.08500
C  -1.17200 7.99400 31.51100
C  -1.36900 7.81700 32.99400
H  -0.22200 7.16100 33.68400
N  -1.09300 4.89700 26.23100
C  -1.02100 3.98000 27.26100
C  -1.46200 2.69200 26.77400
C  -1.90800 2.88600 25.44000
C  -1.62100 4.31000 25.15900
C  -1.27300 1.54000 27.54200
C  -2.42700 1.89200 24.36700
O  -2.80700 2.22100 23.23700
C  -2.41900 0.43800 24.68600
N  -0.64400 7.13000 24.20400
C  -1.23100 6.20900 23.48900
C  -1.33300 6.64200 21.95600
C  -0.72000 8.13900 22.02300
C  -0.48800 8.29900 23.55400
C  -0.64100 5.73700 20.88000
C  -1.66000 9.24400 21.38600
C  -2.85900 9.66900 22.26800
N  0.07300 8.81200 26.40700
C  0.18300 9.78000 25.41000
C  0.61900 11.02000 25.92100
C  0.76000 10.77000 27.33400
C  0.41500 9.46700 27.51800
C  0.68500 12.30800 25.12700
C  1.15800 11.42300 28.55200
O  1.67800 12.55000 28.68400
C  0.84700 10.33400 29.68100
C  2.00100 10.19700 30.52300
O  3.11500 9.73500 30.28500
O  1.71000 10.62700 31.75200
C  2.84000 11.11600 32.53500
H  -0.67000 3.54200 29.33700
H  -1.94600 4.31000 23.03800
H  -0.10200 10.32500 23.31200
H  0.95500 7.71700 31.40100
H  -0.65700 5.22800 31.32600
H  2.24000 5.77200 30.98300
H  1.72000 4.47100 30.22300
H  1.37400 4.62200 32.08100
H  -2.06600 7.58500 31.04100
H  -1.10800 9.03700 31.19900
H  -2.23800 7.17000 33.10700
H  -1.53700 8.83700 33.34000
H  -0.33300 1.43700 28.08500
H  -1.26200 0.70300 26.84300
H  -2.01200 1.40600 28.33200
H  -3.19800 0.38100 25.44700
H  -1.41900 0.16000 25.01700
H  -2.63100 -0.21000 23.83500
H  -2.39700 6.64100 21.71700
H  0.16400 8.29100 21.40300
H  -0.39900 4.70600 21.13600
H  0.27300 6.18700 20.49300
H  -1.33200 5.63800 20.04300
H  -2.16800 8.87900 20.49400
H  -1.14700 10.18200 21.17700
H  -2.54400 10.54400 22.83800
H  -3.14600 8.86200 22.94200
H  -3.74200 9.86000 21.65900
H  1.18000 13.05700 25.74500
H  -0.22600 12.82000 24.81800
H  1.35100 12.10300 24.28900
H  0.00100 10.71200 30.25500
H  3.45000 10.24500 32.77300
H  2.43700 11.56400 33.44400
H  3.38900 11.84900 31.94400
Mg 40.28500 9.77600 29.86500
C  42.21500 11.02100 32.35700
C  37.96200 8.50300 32.13200
C  38.69200 8.07300 27.48100
C  43.03100 10.33600 27.62500
N  40.05300 9.82200 31.96000
C  40.96100 10.50200 32.80900
C  40.37800 10.52400 34.20900
C  39.14300 9.54900 34.11400
C  38.98800 9.29100 32.63600
C  39.33400 8.23600 34.92100
C  40.02700 11.96400 34.80800
C  40.90900 12.37800 35.99100
H  40.29600 12.71100 37.33600
N  38.53900 8.56400 29.80200
C  37.74600 8.09700 30.80400
C  36.69800 7.26600 30.30800
C  36.85400 7.27200 28.87400
C  38.11400 7.88600 28.70600
C  35.82000 6.48700 31.20000
C  35.88100 6.67100 27.94600
O  36.12800 6.56700 26.78700
C  34.51800 6.39700 28.40000
N  40.70800 9.40300 27.82700
C  39.83400 8.71500 27.01600
C  40.33300 8.63000 25.50200
C  41.79100 9.30700 25.61400
C  41.86800 9.74200 27.12300
C  40.47700 7.15700 25.01200
C  41.93900 10.46400 24.57300
C  42.14700 11.86200 25.09100
N  42.18700 10.57000 29.90000
C  43.18700 10.71300 28.95600
C  44.33100 11.41000 29.60300
C  43.90600 11.57800 30.91000
C  42.70200 11.01000 31.05800
C  45.68500 11.68000 29.15000
C  44.36900 12.07500 32.16200
O  45.44700 12.55000 32.51500
C  43.20700 11.88300 33.07700
C  43.80100 11.25600 34.37500
O  44.19900 10.09000 34.44800
O  43.99700 12.11900 35.40300
C  44.41900 11.52100 36.69200
H  37.29200 8.22100 32.94700
H  38.26300 7.49900 26.65700
H  43.92700 10.46300 27.01300
H  41.18000 10.09400 34.80900
H  38.22300 10.01300 34.47000
H  40.19800 8.45100 35.54900
H  39.53900 7.46100 34.18200
H  38.49500 8.02000 35.58200
H  38.97100 12.05500 35.06200
H  40.17500 12.74000 34.05800
H  41.45800 13.25900 35.65900
H  41.74600 11.69700 36.14500
H  35.72200 5.43600 30.92800
H  34.81800 6.91300 31.15000
H  36.17800 6.47200 32.22900
H  33.95500 6.20200 27.48800
H  34.01200 7.21400 28.91400
H  34.54700 5.44500 28.92900
H  39.60300 9.15000 24.88100
H  42.59600 8.60200 25.40700
H  40.31700 6.46800 25.84200
H  41.28100 6.87000 24.33500
H  39.59300 7.08200 24.37800
H  41.08000 10.48200 23.90300
H  42.71800 10.14900 23.87900
H  41.89400 12.64900 24.38000
H  43.21400 12.05200 25.20900
H  41.48800 12.04500 25.94000
H  46.48300 11.63500 29.89100
H  45.66000 12.54700 28.48900
H  45.83900 10.84000 28.47300
H  42.87000 12.86600 33.40600
H  43.82700 10.62400 36.87100
H  44.20300 12.21800 37.50200
H  45.47600 11.30900 36.52600

