158

Mg 25.30800 1.58000 29.23300
C  27.50100 1.17000 32.07100
C  22.70100 1.91100 31.39300
C  23.51400 1.94800 26.47100
C  28.13200 0.85200 27.25300
N  25.10500 1.42900 31.52500
C  26.09200 1.40200 32.45500
C  25.55700 1.57800 33.87300
C  23.99400 1.76200 33.60100
C  23.90300 1.76100 32.03700
C  23.01500 0.70300 34.26400
C  26.33200 2.61800 34.78700
C  25.42000 3.32400 35.71900
H  25.97400 4.07400 36.95000
N  23.33100 1.92200 28.95200
C  22.36300 1.87500 29.97100
C  21.11100 1.89000 29.27600
C  21.32700 1.97400 27.89300
C  22.76400 1.97700 27.71000
C  19.84800 1.96200 30.00000
C  20.34200 1.95300 26.75800
O  20.61900 2.18100 25.57900
C  18.84200 1.48900 27.03200
N  25.79800 1.45900 27.20500
C  24.87800 1.79300 26.19400
C  25.47400 1.67400 24.77200
C  27.00400 1.39900 25.07600
C  27.01200 1.15900 26.58800
C  24.89800 0.49400 23.84700
C  27.93600 2.66300 24.71700
C  27.75700 3.86500 25.53100
N  27.39900 1.06400 29.53600
C  28.40700 0.74400 28.63100
C  29.56300 0.38800 29.34800
C  29.29700 0.56300 30.65900
C  27.97000 0.97400 30.75100
C  30.86700 0.09900 28.67800
C  29.84100 0.45300 31.94100
O  30.90900 -0.04400 32.27900
C  28.72000 0.99100 32.98700
C  28.48400 -0.02900 34.09800
O  27.60500 -0.89400 34.06100
O  29.29600 0.12600 35.16800
C  29.03000 -0.73500 36.26800
H  21.81100 2.04500 32.01100
H  22.95200 2.08500 25.54500
H  28.95100 0.56500 26.59000
H  25.77400 0.65800 34.41600
H  23.65700 2.71600 34.00800
H  22.45600 0.15200 33.50800
H  22.19800 1.06400 34.88900
H  23.49900 0.00400 34.94500
H  26.87300 3.32500 34.15900
H  27.12000 1.99200 35.20500
H  24.53100 2.75700 35.99800
H  25.03100 4.09600 35.05600
H  19.13400 2.57700 29.45200
H  20.02300 2.48800 30.93800
H  19.47700 0.93700 30.02800
H  18.67500 0.80900 27.86700
H  18.49900 1.15000 26.05400
H  18.20200 2.35800 27.18400
H  25.19400 2.56700 24.21400
H  27.40500 0.47000 24.67000
H  24.24600 -0.09300 24.49400
H  25.71000 -0.07700 23.39600
H  24.40400 1.00900 23.02400
H  27.68300 2.95900 23.69900
H  28.94000 2.23900 24.74500
H  27.24200 3.61400 26.45800
H  27.23200 4.68100 25.03500
H  28.67800 4.32300 25.89200
H  30.82000 -0.91100 28.27100
H  31.65100 0.13400 29.43400
H  31.01000 0.74000 27.80900
H  28.97400 1.96400 33.40800
H  28.01000 -0.57300 36.61700
H  29.72500 -0.43300 37.05200
H  29.23100 -1.77100 35.99600
Mg -11.54600 38.69400 42.39400
C  -9.59900 35.91600 41.20800
C  -9.12300 40.74900 40.72900
C  -13.59900 41.08000 42.74900
C  -13.88200 36.38600 43.60600
N  -9.58300 38.36900 40.98700
C  -8.97400 37.13200 40.72400
C  -7.63800 37.28000 40.06400
C  -7.42800 38.88700 40.11700
C  -8.78300 39.37700 40.62900
C  -6.22100 39.53500 40.76900
C  -7.67900 36.73600 38.55900
C  -6.53600 35.61900 38.23200
H  -5.78600 35.69800 36.82300
N  -11.38100 40.66900 41.86900
C  -10.29700 41.33100 41.28300
C  -10.58100 42.76800 41.36300
C  -11.96900 42.95400 41.84900
C  -12.38000 41.49000 42.19500
C  -9.58800 43.85000 40.85600
C  -12.76800 44.25100 42.00000
O  -12.20800 45.28800 41.68600
C  -14.22300 44.39200 42.46200
N  -13.61100 38.71100 42.89300
C  -14.20500 39.90000 43.07900
C  -15.70700 39.68200 43.36000
C  -15.85200 38.10200 43.69300
C  -14.36100 37.69500 43.39100
C  -16.24500 40.50400 44.51600
C  -16.82600 37.33300 42.76300
C  -18.20100 36.90100 43.39500
N  -11.74600 36.64500 42.46500
C  -12.71800 35.89200 43.14100
C  -12.35800 34.48400 42.99600
C  -11.13900 34.47500 42.26700
C  -10.88000 35.83700 41.88900
C  -13.04900 33.36100 43.52600
C  -10.15500 33.58900 41.73200
O  -10.16600 32.39800 41.82500
C  -9.16200 34.46200 40.88800
C  -7.84800 34.04700 41.33300
O  -7.11800 33.19700 40.75600
O  -7.61200 34.67100 42.52100
C  -6.41100 34.24500 43.25800
H  -8.25600 41.37300 40.50600
H  -14.19600 41.95800 43.00400
H  -14.62000 35.74500 44.09400
H  -6.82500 36.83000 40.63300
H  -7.39100 39.28700 39.10400
H  -5.53500 38.71000 40.96400
H  -6.54200 40.09800 41.64500
H  -5.67700 40.15900 40.06000
H  -7.68900 37.50200 37.78300
H  -8.65100 36.24500 38.50800
H  -7.02400 34.65800 38.39700
H  -5.77100 35.68800 39.00600
H  -9.96700 44.42900 40.01400
H  -8.59500 43.46800 40.61700
H  -9.55400 44.57100 41.67200
H  -14.81900 43.67100 41.90300
H  -14.52300 45.37400 42.09600
H  -14.31700 44.40500 43.54800
H  -16.17000 39.97500 42.41700
H  -16.10100 37.98800 44.74800
H  -16.90900 41.32300 44.24300
H  -15.48200 40.95500 45.15200
H  -16.81100 39.86800 45.19700
H  -16.32600 36.46700 42.33000
H  -16.98800 38.01100 41.92500
H  -18.97100 37.58800 43.04200
H  -18.14300 36.92700 44.48300
H  -18.48700 35.88500 43.12400
H  -12.90800 33.18200 44.59200
H  -12.64000 32.55200 42.92000
H  -14.13400 33.40000 43.43300
H  -9.26100 34.09900 39.86500
H  -6.37200 33.15600 43.25000
H  -6.65900 34.52700 44.28100
H  -5.49500 34.78000 43.00600

