158

Mg 23.96300 -6.77000 46.29900
C  26.39700 -4.60700 45.16400
C  21.63800 -5.19400 44.36500
C  21.92000 -9.55300 46.55900
C  26.55000 -8.65600 47.90100
N  24.11600 -5.22400 44.85800
C  25.15100 -4.42700 44.58000
C  24.76800 -3.32200 43.53600
C  23.19800 -3.39600 43.59400
C  22.96500 -4.66300 44.29700
C  22.43100 -2.24500 44.27000
C  25.46500 -3.67500 42.13500
C  26.01400 -2.43300 41.34100
H  25.85400 -2.38800 39.84800
N  21.97400 -7.20200 45.72000
C  21.20600 -6.40700 44.95600
C  19.96800 -7.13400 44.69300
C  20.06600 -8.39600 45.33300
C  21.35500 -8.37600 45.96600
C  19.00000 -6.61800 43.60200
C  18.85600 -9.40200 45.37200
O  17.86300 -9.26200 44.64000
C  18.85300 -10.59900 46.24000
N  24.18100 -8.73100 47.20700
C  23.17300 -9.71100 47.15500
C  23.57200 -10.95000 47.99900
C  25.04700 -10.57500 48.53500
C  25.28500 -9.26900 47.86800
C  22.53600 -11.52700 48.99100
C  26.11500 -11.66800 48.26500
C  26.68200 -12.31800 49.50500
N  26.01200 -6.60600 46.61000
C  26.90200 -7.39900 47.30400
C  28.24500 -6.75200 47.42900
C  28.12900 -5.68000 46.49800
C  26.75800 -5.66200 46.05500
C  29.42200 -7.32700 48.17200
C  28.72200 -4.52700 45.85400
O  29.85000 -4.14300 45.81600
C  27.63500 -3.81500 44.99600
C  27.48000 -2.51700 45.67200
O  26.70800 -2.27300 46.61800
O  28.32900 -1.63200 45.14500
C  28.33600 -0.33800 45.92800
H  20.84700 -4.61800 43.88000
H  21.20700 -10.35900 46.74100
H  27.35400 -9.06900 48.51500
H  25.14600 -2.36300 43.89100
H  22.73500 -3.56000 42.62100
H  23.01500 -1.32500 44.24700
H  22.09500 -2.51500 45.27100
H  21.48200 -2.10100 43.75300
H  24.86200 -4.12600 41.34700
H  26.37400 -4.17600 42.46800
H  26.98800 -2.08500 41.68400
H  25.36400 -1.65400 41.73900
H  18.40900 -7.46700 43.25900
H  19.59200 -6.31200 42.73900
H  18.41200 -5.74300 43.88100
H  19.12700 -10.33000 47.26000
H  19.53500 -11.36200 45.86400
H  17.83800 -10.99500 46.26600
H  23.74100 -11.68600 47.21300
H  24.96400 -10.38300 49.60400
H  22.98500 -11.63700 49.97800
H  22.35000 -12.53000 48.60800
H  21.68900 -10.84000 49.00800
H  26.92800 -11.33400 47.62000
H  25.60800 -12.51300 47.79800
H  26.14700 -13.25100 49.68400
H  26.66300 -11.67800 50.38700
H  27.71900 -12.54100 49.25700
H  29.80000 -8.25500 47.74300
H  29.23100 -7.53200 49.22600
H  30.20500 -6.57700 48.06700
H  27.85900 -3.61100 43.94900
H  28.48200 -0.60800 46.97400
H  27.48100 0.28000 45.65700
H  29.20100 0.06300 45.40100
Mg -9.92900 17.55500 42.13700
C  -6.46500 16.94600 42.80900
C  -9.18800 20.74700 41.43900
C  -13.18100 18.07300 41.43500
C  -10.51100 14.06500 42.56500
N  -7.93100 18.66100 42.06400
C  -6.74000 18.26400 42.38900
C  -5.73700 19.39400 42.14600
C  -6.69400 20.66200 42.08900
C  -8.02400 20.00500 41.78700
C  -6.74500 21.50000 43.40900
C  -4.81700 19.12600 40.91100
C  -5.37600 18.53000 39.64900
H  -5.10000 19.33300 38.35900
N  -11.03400 19.21300 41.57000
C  -10.54100 20.41300 41.39100
C  -11.56500 21.39900 41.21100
C  -12.77600 20.62600 41.09700
C  -12.35000 19.24200 41.34300
C  -11.42300 22.88000 40.93300
C  -14.17400 21.19300 40.92000
O  -14.36500 22.40200 40.99500
C  -15.41400 20.51000 40.54300
N  -11.64300 16.23600 41.95600
C  -12.92500 16.67300 41.73200
C  -13.90400 15.55100 41.88700
C  -13.05200 14.26500 42.17300
C  -11.65200 14.85400 42.27300
C  -14.87900 15.68100 42.96400
C  -13.17000 13.24200 41.02300
C  -14.13900 11.97100 41.25000
N  -8.80500 15.81600 42.44700
C  -9.14400 14.52800 42.58300
C  -7.94700 13.67500 42.81800
C  -6.89300 14.64100 42.94300
C  -7.44400 15.88700 42.76500
C  -7.83000 12.22700 42.94800
C  -5.43800 14.78300 43.26200
O  -4.55700 13.91600 43.32900
C  -5.19200 16.27800 43.20900
C  -4.61400 16.74600 44.47400
O  -3.59700 17.40700 44.53400
O  -5.45000 16.54000 45.55600
C  -5.20100 17.27000 46.82500
H  -9.01300 21.79600 41.19200
H  -14.23600 18.25900 41.22300
H  -10.67300 12.99000 42.66300
H  -5.09900 19.38900 43.03100
H  -6.29700 21.24600 41.25900
H  -7.77100 21.43800 43.77300
H  -6.53400 22.49900 43.02800
H  -5.88100 21.10000 43.93900
H  -4.28600 18.21400 41.18100
H  -4.06700 19.91500 40.85000
H  -6.44600 18.50600 39.85200
H  -4.98600 17.54100 39.40400
H  -11.36800 23.10400 39.86700
H  -10.45400 23.21600 41.30200
H  -12.18100 23.44500 41.47600
H  -15.54900 19.86500 41.41100
H  -15.29000 19.96300 39.60800
H  -16.23800 21.22200 40.48400
H  -14.38200 15.51100 40.90800
H  -13.18100 13.91400 43.19700
H  -15.68600 16.35800 42.68600
H  -14.38800 16.12800 43.82900
H  -15.24100 14.71000 43.30200
H  -12.16100 12.86500 40.85800
H  -13.49800 13.84100 40.17400
H  -15.03500 11.97600 40.63000
H  -14.44600 12.12400 42.28500
H  -13.63600 11.01000 41.14100
H  -8.63800 11.84900 42.32000
H  -7.99300 11.99300 44.00000
H  -6.78900 12.05500 42.67700
H  -4.30800 16.43700 42.59200
H  -5.09400 18.34500 46.68000
H  -4.30400 16.87800 47.30400
H  -6.10000 17.11400 47.42200

