158

Mg 44.44600 4.01400 48.03100
C  42.27800 6.73800 47.45900
C  41.88000 1.84600 47.92200
C  46.84100 1.43400 48.02200
C  47.13400 6.20900 47.73000
N  42.34500 4.27000 47.63600
C  41.66700 5.48100 47.45500
C  40.18000 5.17300 47.35200
C  40.00200 3.62000 47.76000
C  41.52300 3.21300 47.80700
C  39.10900 3.38600 48.99500
C  39.41400 5.58400 46.05300
C  38.42000 6.79100 46.13500
H  37.64900 6.99200 44.80700
N  44.37700 1.93600 47.88600
C  43.16300 1.24900 47.93200
C  43.46300 -0.16800 47.93900
C  44.88400 -0.28900 48.05700
C  45.44800 1.06500 48.01000
C  42.42500 -1.24600 47.79100
C  45.60100 -1.69800 48.24600
O  44.99400 -2.74700 48.29500
C  47.05100 -1.81900 48.32100
N  46.63900 3.80300 47.82100
C  47.37400 2.70000 48.00100
C  48.93600 2.90300 48.01700
C  49.01600 4.50600 47.99500
C  47.51800 4.87100 47.79400
C  49.61500 2.27600 49.28800
C  49.86300 5.07900 46.83500
C  50.73100 6.27600 47.23800
N  44.65800 6.02200 47.65300
C  45.82800 6.74100 47.61000
C  45.47600 8.13500 47.38200
C  44.10200 8.20700 47.36300
C  43.67500 6.91300 47.52200
C  46.43400 9.34900 47.25000
C  42.91400 9.06400 47.33600
O  42.77700 10.29300 47.15000
C  41.74100 8.11800 47.42100
C  40.96800 8.48500 48.63000
O  41.00100 7.85600 49.65100
O  40.32700 9.65400 48.41200
C  39.44500 10.22100 49.46800
H  40.95000 1.27500 47.96100
H  47.62000 0.67500 48.11900
H  47.99700 6.87600 47.67800
H  39.69400 5.67500 48.18900
H  39.46900 3.06100 46.99200
H  38.55500 4.25500 49.35100
H  39.71700 3.03400 49.82800
H  38.41300 2.62000 48.65400
H  38.97700 4.73500 45.52700
H  40.26300 6.04000 45.54300
H  39.00700 7.70700 46.06600
H  37.73600 6.78700 46.98300
H  41.51500 -0.92300 47.28500
H  42.20100 -1.68800 48.76100
H  42.80000 -2.01200 47.11300
H  47.14400 -2.90300 48.25500
H  47.46300 -1.63400 49.31300
H  47.68300 -1.50200 47.49100
H  49.34000 2.34600 47.17200
H  49.20900 4.95300 48.97000
H  50.14700 2.98100 49.92800
H  50.35100 1.60400 48.84700
H  48.83100 1.72300 49.80500
H  49.19900 5.28500 45.99600
H  50.53700 4.30500 46.46600
H  51.66400 6.18700 46.68200
H  51.06400 6.27100 48.27600
H  50.30700 7.25600 47.01600
H  46.61000 9.91500 48.16400
H  46.07900 10.09000 46.53400
H  47.40900 9.06600 46.85500
H  41.19200 8.28200 46.49400
H  38.39300 9.94200 49.40900
H  39.43500 11.31100 49.44400
H  39.71800 9.99600 50.49900
Mg 41.35200 40.99400 26.89000
C  40.71300 43.28700 29.57100
C  42.30500 38.79700 29.39200
C  42.08100 38.92700 24.56000
C  40.85900 43.67300 24.60000
N  41.45100 41.02800 29.20800
C  41.11400 42.01500 30.05700
C  41.04200 41.55000 31.51100
C  41.91900 40.29400 31.43400
C  41.93800 40.00400 29.89500
C  43.44000 40.56600 32.00400
C  39.63300 41.38400 32.13700
C  39.25600 42.36500 33.30700
H  38.48800 41.77900 34.51200
N  41.95700 39.09000 27.00600
C  42.26700 38.40200 28.14000
C  42.67800 37.03200 27.76300
C  42.68900 37.03800 26.31300
C  42.15100 38.36900 25.87300
C  42.97200 35.89200 28.70300
C  43.07500 35.92900 25.36700
O  42.91300 35.96800 24.17000
C  43.60300 34.64600 25.89600
N  41.64700 41.31500 24.84200
C  41.77400 40.17700 24.10700
C  41.73500 40.52500 22.60700
C  41.22700 41.96600 22.67600
C  41.26600 42.34700 24.10800
C  43.07300 40.30800 21.96500
C  39.90200 42.31400 21.98700
C  38.63400 41.74200 22.63100
N  40.75900 42.99700 26.96900
C  40.70600 43.99300 26.01200
C  40.33300 45.26300 26.58700
C  40.31500 44.98000 27.99500
C  40.61600 43.59600 28.14500
C  40.02400 46.56800 25.85200
C  40.07400 45.69700 29.25600
O  39.92000 46.92000 29.41500
C  40.30400 44.57400 30.34400
C  41.36600 45.09900 31.31600
O  42.56100 44.93700 31.19000
O  40.82000 45.75500 32.38800
C  41.69600 46.41300 33.43400
H  42.66800 38.09300 30.14400
H  42.29800 38.18800 23.78600
H  40.65700 44.43500 23.84500
H  41.63000 42.30100 32.04000
H  41.42400 39.42800 31.87300
H  44.14300 40.62200 31.17300
H  43.64500 39.89400 32.83700
H  43.52600 41.54400 32.47700
H  39.50500 40.37500 32.53000
H  38.88600 41.62500 31.38100
H  38.69000 43.19300 32.87800
H  40.15600 42.80300 33.73700
H  42.28400 35.05500 28.58200
H  42.91100 36.24300 29.73300
H  43.95900 35.50300 28.45300
H  42.79300 34.23000 26.49500
H  44.51500 34.76100 26.48200
H  43.66700 34.02400 25.00300
H  41.05000 39.83100 22.12000
H  41.92600 42.63800 22.17700
H  43.13600 39.36200 21.42600
H  43.83000 40.26700 22.74800
H  43.31500 41.05400 21.20800
H  39.92900 41.80700 21.02200
H  39.80200 43.39500 21.88300
H  38.87500 41.10000 23.47900
H  37.97600 41.24300 21.91900
H  38.13500 42.62200 23.03700
H  39.62400 47.29700 26.55700
H  39.23700 46.40600 25.11600
H  40.88900 47.02800 25.37300
H  39.36400 44.47500 30.88600
H  42.76300 46.30800 33.23300
H  41.55500 45.86200 34.36400
H  41.42100 47.44500 33.65100

