158

Mg 24.74500 -7.80600 46.18700
C  27.55300 -5.63100 45.62200
C  23.02100 -5.86500 44.04800
C  22.66400 -10.33600 45.85800
C  27.01900 -9.87800 47.97300
N  25.23700 -5.94500 45.06800
C  26.39800 -5.26600 44.94300
C  26.21700 -4.05800 44.03400
C  24.68500 -3.82900 44.17800
C  24.24700 -5.29800 44.39300
C  24.14500 -2.80300 45.22600
C  26.75500 -4.24100 42.61000
C  26.98400 -3.01200 41.66800
H  26.09100 -2.97800 40.45500
N  22.94600 -8.06200 45.19800
C  22.42500 -7.13700 44.35700
C  21.13200 -7.60800 43.99600
C  20.94400 -8.96000 44.53000
C  22.24500 -9.20800 45.19300
C  20.12900 -6.72800 43.23200
C  19.74300 -9.84400 44.45300
O  18.70500 -9.49200 43.87300
C  19.75500 -11.23400 45.05900
N  24.94000 -9.78700 46.80000
C  23.83300 -10.59800 46.59100
C  23.98500 -11.99700 47.30200
C  25.33300 -11.83300 48.13400
C  25.77500 -10.40300 47.64600
C  22.67300 -12.49000 48.11600
C  26.47200 -12.94000 47.90700
C  27.41100 -13.28100 49.06700
N  26.85800 -7.72300 46.91300
C  27.54600 -8.62700 47.59600
C  28.91200 -8.10100 47.80600
C  28.95300 -6.86400 47.05500
C  27.72600 -6.73800 46.50200
C  30.04100 -8.76100 48.48100
C  29.82300 -5.78200 46.56700
O  30.98400 -5.58100 46.90100
C  28.92100 -5.00100 45.46300
C  29.00500 -3.55700 45.70200
O  28.37400 -2.91000 46.51800
O  29.77000 -3.07300 44.68500
C  29.35900 -1.75500 44.21900
H  22.41300 -5.18500 43.44700
H  22.06300 -11.24600 45.80100
H  27.64700 -10.49800 48.61700
H  26.65900 -3.18100 44.50700
H  24.34500 -3.36500 43.25200
H  24.94200 -2.40900 45.85600
H  23.53600 -3.40100 45.90400
H  23.49900 -2.04900 44.77700
H  26.02400 -4.89800 42.13900
H  27.73200 -4.72400 42.61400
H  27.99500 -3.18000 41.29800
H  26.99700 -1.98400 42.03200
H  20.23400 -5.70200 43.58400
H  19.11100 -7.11200 43.30200
H  20.36500 -6.58800 42.17700
H  19.91700 -11.22900 46.13700
H  20.58400 -11.65000 44.48800
H  18.82300 -11.76600 44.86700
H  24.12800 -12.71900 46.49800
H  25.03500 -11.75600 49.18000
H  21.79000 -11.88400 47.90900
H  22.77200 -12.50100 49.20100
H  22.40000 -13.46100 47.70300
H  26.98900 -12.79100 46.96000
H  25.86400 -13.84000 47.81400
H  26.97800 -14.00900 49.75200
H  27.68500 -12.47500 49.74700
H  28.30100 -13.77500 48.67500
H  30.53900 -7.94300 49.00000
H  30.75200 -9.12400 47.74000
H  29.63800 -9.61800 49.02100
H  29.22900 -5.24400 44.44600
H  28.37400 -1.46800 44.58700
H  29.22500 -1.79900 43.13800
H  30.12900 -1.07100 44.57800
Mg 47.62800 34.84100 28.33100
C  46.15000 33.02500 30.85900
C  47.70500 37.64900 30.60700
C  48.54600 36.87800 25.79000
C  46.80100 32.37400 26.01300
N  46.86100 35.30200 30.51000
C  46.51600 34.31600 31.36400
C  46.40500 34.87200 32.77100
C  46.61800 36.38700 32.62400
C  47.14200 36.49200 31.16800
C  45.28200 37.19800 32.79100
C  47.51000 34.25100 33.72800
C  47.11300 34.05900 35.25400
H  48.00400 34.83800 36.18100
N  48.17200 36.86100 28.28400
C  48.21600 37.82900 29.32600
C  48.76000 39.07700 28.79700
C  49.07800 38.77800 27.41400
C  48.56000 37.41200 27.10300
C  48.85500 40.33600 29.67700
C  49.67300 39.71300 26.36300
O  49.97700 39.39800 25.25300
C  50.06000 41.19800 26.73800
N  47.69100 34.64700 26.17800
C  48.10900 35.62300 25.37300
C  48.10200 35.18000 23.86900
C  47.54600 33.71500 23.94300
C  47.41200 33.49100 25.51400
C  47.12600 36.12800 23.00400
C  48.39800 32.59100 23.18700
C  49.64300 32.04500 23.91000
N  46.85600 32.98200 28.43200
C  46.49800 32.14800 27.39600
C  45.77100 30.97500 27.94500
C  45.70900 31.28400 29.35300
C  46.28500 32.55600 29.51600
C  45.24400 29.77300 27.19800
C  45.12800 30.79400 30.54700
O  44.60500 29.71000 30.81200
C  45.23300 32.04100 31.56300
C  45.77500 31.62800 32.87200
O  46.82700 31.03500 33.05300
O  44.68700 31.77100 33.76400
C  44.97800 31.25600 35.16300
H  47.82400 38.46100 31.32700
H  48.86000 37.44600 24.91200
H  46.42800 31.62100 25.31600
H  45.38500 34.66900 33.09600
H  47.23100 36.64700 33.48600
H  45.01300 37.34000 33.83800
H  44.43400 36.66100 32.36600
H  45.42300 38.20500 32.39800
H  48.40600 34.87100 33.70600
H  47.85700 33.34200 33.23700
H  47.12900 32.99200 35.47700
H  46.09100 34.27100 35.56900
H  49.59200 40.33100 30.47900
H  47.89500 40.44200 30.18100
H  49.09900 41.30000 29.23000
H  50.56000 41.69600 25.90700
H  50.90200 41.08300 27.42000
H  49.25300 41.77700 27.18700
H  49.10800 35.33300 23.47900
H  46.58700 33.61500 23.43500
H  47.10900 37.00200 23.65600
H  46.14900 35.67100 22.84600
H  47.70800 36.23400 22.08900
H  48.72900 33.00200 22.23300
H  47.76200 31.71000 23.09700
H  49.58000 31.08400 24.42000
H  49.81800 32.76600 24.70800
H  50.53800 31.98700 23.29000
H  44.80700 30.06200 26.24200
H  44.46500 29.42200 27.87600
H  45.97700 28.97100 27.10700
H  44.20000 32.37700 31.65500
H  44.70600 30.21100 35.31400
H  44.56400 31.98200 35.86300
H  46.03600 31.24000 35.42700

