158

Mg -1.95500 17.22400 25.33300
C  -2.59800 15.10400 28.15200
C  -3.04000 19.83200 27.19200
C  -2.30700 19.00200 22.46000
C  -1.37100 14.41200 23.35600
N  -2.77600 17.33400 27.41500
C  -2.84100 16.46300 28.42800
C  -3.19100 17.19000 29.74300
C  -3.66700 18.62300 29.28700
C  -3.11000 18.60500 27.86000
C  -5.19500 18.89100 29.34300
C  -2.10900 17.29900 30.92400
C  -2.77500 17.35000 32.30900
H  -2.42800 16.22200 33.31500
N  -2.29000 19.13200 24.86500
C  -2.66500 20.09500 25.80200
C  -2.51300 21.41400 25.18400
C  -2.36200 21.16200 23.84600
C  -2.34500 19.71700 23.66000
C  -2.59900 22.66300 26.00700
C  -2.18100 22.18900 22.68500
O  -2.17600 21.87000 21.50500
C  -2.06300 23.64400 23.03500
N  -1.93400 16.73800 23.21100
C  -2.22400 17.60600 22.23700
C  -2.04800 16.97200 20.85300
C  -1.33600 15.63400 21.18200
C  -1.46200 15.57200 22.70700
C  -3.39200 16.96500 20.06900
C  0.12100 15.32400 20.72800
C  1.26300 15.46600 21.75300
N  -2.03400 15.22200 25.63400
C  -1.62200 14.19200 24.75400
C  -1.57500 12.96000 25.52400
C  -1.97700 13.30400 26.75300
C  -2.21100 14.67900 26.86200
C  -1.37000 11.59100 25.05000
C  -2.21400 12.71400 28.02300
O  -2.18500 11.54300 28.38800
C  -2.74300 13.85600 28.94900
C  -1.82200 13.65600 30.13900
O  -0.61500 14.04800 30.24700
O  -2.47400 12.93400 31.08000
C  -1.77200 12.67400 32.37300
H  -3.46600 20.69200 27.71300
H  -2.24800 19.43000 21.45700
H  -1.16300 13.67600 22.57700
H  -4.07400 16.66700 30.10800
H  -3.24000 19.32800 30.00000
H  -5.32800 19.63900 30.12400
H  -5.62600 17.94800 29.68000
H  -5.57900 19.23400 28.38200
H  -1.57300 18.24600 30.98700
H  -1.41000 16.46300 30.89400
H  -3.85900 17.33800 32.19500
H  -2.47100 18.28500 32.77800
H  -2.64300 22.49200 27.08300
H  -3.40200 23.28600 25.61400
H  -1.64600 23.16200 25.82800
H  -1.13700 23.71900 23.60500
H  -2.86400 23.98500 23.69100
H  -1.85200 24.33700 22.22000
H  -1.35200 17.59100 20.28700
H  -1.93600 14.81200 20.79100
H  -4.01200 17.72400 20.54600
H  -3.85600 15.97900 20.04400
H  -3.13100 17.24800 19.04900
H  0.35200 16.07000 19.96700
H  0.20500 14.31300 20.33100
H  0.93300 16.12900 22.55300
H  2.11900 16.00000 21.34200
H  1.42900 14.52400 22.27600
H  -1.41400 11.66700 23.96400
H  -2.27000 11.15400 25.48400
H  -0.41900 11.14500 25.34100
H  -3.72800 13.45800 29.19200
H  -1.27500 11.71700 32.20900
H  -2.54600 12.63300 33.13900
H  -0.92200 13.29000 32.66600
Mg -9.54100 40.67700 42.73300
C  -8.59500 37.39400 41.63700
C  -6.76600 41.95400 41.02500
C  -10.81200 43.71900 43.07300
C  -12.54100 39.23500 43.78400
N  -7.98400 39.78300 41.39900
C  -7.79700 38.38600 41.12200
C  -6.41800 38.19700 40.43900
C  -5.78800 39.63500 40.50500
C  -6.93900 40.54800 40.98600
C  -4.43400 39.82900 41.30200
C  -6.46400 37.63300 39.03600
C  -5.51800 36.37800 38.74600
H  -4.38400 36.61100 37.70900
N  -8.92200 42.55100 42.16400
C  -7.74500 42.81900 41.51700
C  -7.59100 44.27500 41.38500
C  -8.71100 44.87800 42.04200
C  -9.56000 43.76800 42.48900
C  -6.38400 44.98300 40.72500
C  -9.01400 46.46400 42.17900
O  -8.27800 47.32000 41.73000
C  -10.26000 46.96400 42.89100
N  -11.49200 41.40700 43.40900
C  -11.65500 42.74700 43.47800
C  -13.20000 42.97700 43.73600
C  -13.77000 41.52400 44.00200
C  -12.52300 40.65700 43.81600
C  -13.40800 44.00500 44.87500
C  -15.05700 41.12400 43.16900
C  -15.78300 39.85900 43.62300
N  -10.45900 38.70800 42.69200
C  -11.59800 38.34400 43.23500
C  -11.69100 36.92600 43.24800
C  -10.50000 36.53300 42.66100
C  -9.78600 37.63700 42.34800
C  -12.87100 36.12600 43.60800
C  -9.78200 35.37200 42.23700
O  -10.01000 34.15200 42.33200
C  -8.53500 35.89200 41.55100
C  -7.32300 35.23400 42.18800
O  -7.06200 35.20500 43.34300
O  -6.71600 34.44800 41.25300
C  -5.63800 33.51300 41.77900
H  -5.86600 42.34400 40.54400
H  -11.26700 44.70800 43.16500
H  -13.44000 38.76100 44.18400
H  -5.88200 37.53800 41.12100
H  -5.57900 39.99100 39.49600
H  -3.89000 38.89000 41.41200
H  -4.75000 40.16000 42.29100
H  -3.83100 40.66100 40.93800
H  -6.14100 38.34400 38.27600
H  -7.47400 37.37700 38.71600
H  -6.11500 35.52600 38.41900
H  -5.06300 36.03500 39.67600
H  -6.67600 45.22600 39.70300
H  -5.54700 44.29300 40.83300
H  -6.10100 45.87200 41.28800
H  -10.08800 48.02200 43.08800
H  -10.30500 46.44900 43.85100
H  -11.15300 46.84100 42.27700
H  -13.70700 43.35100 42.84600
H  -13.92600 41.41900 45.07600
H  -12.47900 44.04300 45.44400
H  -14.26700 43.73200 45.48700
H  -13.46700 45.01900 44.47800
H  -14.79600 40.98400 42.12100
H  -15.82800 41.89000 43.24600
H  -15.40800 39.64800 44.62400
H  -15.73100 38.97400 42.98900
H  -16.82400 40.17100 43.71000
H  -13.50000 36.68200 44.30300
H  -12.65600 35.20100 44.14400
H  -13.34700 35.84800 42.66700
H  -8.54400 35.74400 40.47100
H  -5.92700 32.99300 42.69300
H  -4.67500 34.00200 41.92100
H  -5.36600 32.79000 41.01100

