158

Mg 41.02600 9.38000 29.94700
C  42.75100 10.57800 32.70800
C  38.74400 7.97200 32.17800
C  39.57400 7.86300 27.36400
C  43.73200 10.34100 27.91200
N  40.85700 9.13500 32.21000
C  41.58400 9.93200 33.08000
C  41.02400 9.81000 34.53600
C  39.74300 8.94600 34.28900
C  39.76500 8.70800 32.83500
C  39.64700 7.65400 35.18800
C  40.70500 11.22400 35.03500
C  39.86300 11.32500 36.30000
H  40.50800 12.23800 37.29500
N  39.34700 8.19400 29.76100
C  38.55200 7.71900 30.77500
C  37.44400 6.90700 30.19000
C  37.56600 6.95300 28.74900
C  38.89900 7.61700 28.57000
C  36.30400 6.41000 31.03200
C  36.69900 6.33200 27.75900
O  36.92200 6.35700 26.57500
C  35.50300 5.57400 28.23100
N  41.53800 9.17800 27.89700
C  40.75400 8.52000 27.01800
C  41.28600 8.55700 25.55000
C  42.65800 9.34300 25.80500
C  42.66000 9.66500 27.30900
C  41.59600 7.18200 24.81800
C  42.58800 10.67400 24.92300
C  41.67900 11.73600 25.47900
N  42.85700 10.37700 30.19900
C  43.84300 10.64200 29.29900
C  44.86900 11.43900 29.92500
C  44.39500 11.52600 31.27900
C  43.24600 10.72400 31.41200
C  46.15600 11.95100 29.34000
C  44.89100 12.05500 32.54300
O  45.87700 12.63000 32.95400
C  43.81400 11.38000 33.54000
C  44.62500 10.60400 34.47400
O  45.31500 9.61500 34.18400
O  44.44300 11.11100 35.68500
C  44.90900 10.29400 36.79700
H  38.02700 7.60800 32.91600
H  39.13600 7.54600 26.41600
H  44.50000 10.76900 27.26500
H  41.74900 9.28400 35.15700
H  38.84500 9.52600 34.50400
H  38.65500 7.44000 35.58600
H  40.20600 8.00100 36.05700
H  40.09300 6.79300 34.68900
H  40.06600 11.69200 34.28600
H  41.64200 11.78000 35.07000
H  39.81500 10.36000 36.80500
H  38.88200 11.69500 36.00100
H  35.40400 6.91200 30.67800
H  36.43000 6.56600 32.10400
H  36.20700 5.34100 30.84500
H  34.90700 5.14600 27.42500
H  34.87400 6.28200 28.77100
H  35.82700 4.80600 28.93200
H  40.52200 9.10600 25.00000
H  43.54300 8.74400 25.59000
H  41.51100 6.44800 25.62000
H  42.58700 7.26200 24.37200
H  40.88000 6.95500 24.02800
H  42.34900 10.53400 23.86800
H  43.61900 11.02700 24.90200
H  41.22200 11.48200 26.43500
H  40.94800 12.10200 24.75800
H  42.19200 12.69600 25.53600
H  46.09000 11.79000 28.26400
H  47.00600 11.47300 29.82800
H  46.29300 13.03200 29.36800
H  43.37700 12.25800 34.01600
H  45.82000 10.82700 37.06700
H  45.04600 9.23800 36.56400
H  44.19400 10.26700 37.61900
Mg 0.64900 43.01000 25.34700
C  2.56000 43.08700 28.27400
C  -2.13800 42.81900 27.26600
C  -1.11400 42.72600 22.57000
C  3.58000 43.48200 23.41700
N  0.29900 43.02200 27.52400
C  1.19200 43.01000 28.63000
C  0.56100 42.87600 29.99800
C  -0.95200 42.68500 29.54400
C  -0.93200 42.89700 28.02900
C  -1.53400 41.29100 29.91400
C  0.90200 44.03000 30.94700
C  1.11800 43.72200 32.44100
H  0.75700 42.27900 32.85600
N  -1.34000 42.65300 24.98600
C  -2.33000 42.72600 25.91200
C  -3.58400 42.73800 25.21600
C  -3.43300 42.58800 23.79200
C  -1.92700 42.59700 23.73000
C  -4.91500 42.68800 25.95500
C  -4.41800 42.42000 22.67700
O  -4.09600 42.18300 21.51800
C  -5.87800 42.56400 23.02600
N  1.10000 43.17600 23.26700
C  0.21200 42.96800 22.32400
C  0.74500 43.31500 20.88000
C  2.20300 43.73600 21.22300
C  2.33300 43.46700 22.75300
C  0.71100 42.03700 19.93500
C  2.44900 45.22300 20.85800
C  3.76900 45.51000 20.09400
N  2.65400 43.26400 25.76200
C  3.71600 43.41800 24.84800
C  4.94800 43.54500 25.63500
C  4.57700 43.32800 27.02200
C  3.16300 43.20700 26.96300
C  6.36100 43.63100 25.08100
C  5.08300 43.10600 28.33000
O  6.21000 43.10600 28.77400
C  3.81300 42.94900 29.21400
C  3.88000 41.77000 30.13200
O  3.57600 40.65100 29.76100
O  4.51200 42.01700 31.33300
C  5.03600 40.89000 32.10600
H  -2.96600 42.63700 27.95500
H  -1.72500 42.77600 21.66600
H  4.41800 43.55300 22.72000
H  0.87700 41.90700 30.38700
H  -1.57800 43.45000 30.00400
H  -2.42300 41.40700 30.53300
H  -0.85900 40.78000 30.60000
H  -1.70100 40.64100 29.05500
H  0.12000 44.78300 30.84800
H  1.75500 44.58800 30.56000
H  0.44700 44.36000 33.01500
H  2.15000 44.03100 32.60700
H  -5.43500 43.41000 25.32500
H  -4.94200 43.01900 26.99300
H  -5.31500 41.69300 25.76100
H  -6.20700 41.96200 23.87400
H  -6.46000 42.17700 22.19000
H  -6.24600 43.58900 23.07300
H  0.09600 44.10200 20.49700
H  2.94500 43.04300 20.82600
H  0.30000 41.17600 20.46200
H  1.65700 41.84500 19.42900
H  -0.09000 42.20200 19.21500
H  2.42300 45.85400 21.74600
H  1.75200 45.69800 20.16600
H  4.38500 44.62100 20.23200
H  4.25000 46.39500 20.50900
H  3.56900 45.69700 19.03900
H  6.81100 44.60200 25.28500
H  6.38700 43.39600 24.01700
H  6.91400 42.78900 25.49700
H  3.85100 43.81500 29.87500
H  6.10200 41.03800 32.28200
H  4.82400 39.91700 31.66300
H  4.53400 40.93700 33.07200

