158

Mg 2.03800 8.24500 27.06200
C  2.15000 10.45000 29.86500
C  2.07200 5.69700 29.32900
C  1.91600 6.15800 24.50300
C  2.46200 10.96900 24.87700
N  2.05300 8.12800 29.38100
C  2.00800 9.10100 30.25200
C  1.86400 8.57500 31.71800
C  2.20800 7.05900 31.59800
C  2.19000 6.93800 30.02700
C  3.62100 6.60300 32.22900
C  0.44300 8.85300 32.39800
C  0.54000 9.60400 33.70300
H  1.13100 8.83600 34.92300
N  1.87500 6.27200 26.90000
C  1.90500 5.35200 27.93400
C  1.78300 3.97800 27.44400
C  1.81600 4.09400 26.06200
C  1.88800 5.57400 25.80200
C  1.57600 2.75000 28.39800
C  1.74600 3.02900 24.94700
O  1.90300 3.25500 23.77100
C  1.64400 1.58600 25.33500
N  2.01200 8.51900 25.02300
C  1.98000 7.49000 24.11400
C  2.19400 8.08400 22.67500
C  1.86600 9.58800 22.88700
C  2.25000 9.69200 24.35600
C  3.58800 7.85400 21.98100
C  0.35500 9.98800 22.57600
C  -0.00900 11.35600 22.11400
N  2.42300 10.27200 27.27500
C  2.60100 11.24200 26.27700
C  2.73900 12.47100 26.93600
C  2.63000 12.21500 28.33000
C  2.49000 10.84300 28.52200
C  2.95800 13.83500 26.20800
C  2.55200 12.80200 29.66200
O  2.76000 13.93200 30.02700
C  2.25600 11.67300 30.63900
C  3.34000 11.61500 31.69300
O  4.44100 11.07900 31.62600
O  2.81800 12.18700 32.85700
C  3.71200 12.08700 34.00900
H  2.03400 4.90300 30.07900
H  1.74600 5.46200 23.67900
H  2.75000 11.74800 24.16800
H  2.68800 9.03200 32.26600
H  1.50300 6.39200 32.09400
H  3.37900 5.60800 32.60300
H  3.95100 7.34000 32.96100
H  4.43800 6.59600 31.50800
H  -0.11200 7.93700 32.60100
H  -0.14500 9.38100 31.64600
H  -0.44900 10.03100 33.86900
H  1.17600 10.45500 33.46000
H  2.47000 2.42600 28.93000
H  1.13800 1.91500 27.85000
H  0.93700 3.05800 29.22700
H  0.63200 1.28400 25.60300
H  2.31400 1.51200 26.19100
H  2.00200 0.85700 24.60700
H  1.50300 7.67800 21.93700
H  2.68700 10.01600 22.31200
H  4.00900 7.03200 22.56100
H  4.29800 8.68000 22.00500
H  3.47800 7.40200 20.99500
H  -0.21600 9.76700 23.47800
H  0.03800 9.24400 21.84500
H  0.87200 11.83100 21.68100
H  -0.56600 11.99500 22.79900
H  -0.74800 11.30700 21.31400
H  2.18000 13.83700 25.44500
H  3.92000 13.91700 25.70300
H  2.78800 14.69000 26.86300
H  1.33600 11.86700 31.19000
H  3.78300 11.05600 34.35600
H  3.40100 12.75700 34.81000
H  4.71300 12.43200 33.75100
Mg 24.50500 -5.74000 45.75700
C  27.00900 -3.49900 44.27600
C  22.28600 -4.41700 43.60100
C  22.69900 -8.48000 46.14000
C  27.30900 -7.34400 47.20900
N  24.70500 -4.26600 44.02600
C  25.76000 -3.43900 43.64200
C  25.32500 -2.42500 42.53100
C  23.75100 -2.61000 42.56400
C  23.57600 -3.91700 43.36400
C  22.98100 -1.39300 43.12000
C  26.00500 -2.76800 41.18800
C  26.32400 -1.46500 40.36900
H  25.78100 -1.37100 38.95000
N  22.63100 -6.28300 45.17000
C  21.81100 -5.52600 44.31600
C  20.55700 -6.23900 44.08100
C  20.72900 -7.52300 44.71900
C  22.09600 -7.48600 45.34300
C  19.41900 -5.71600 43.26300
C  19.70700 -8.65000 44.67700
O  18.59700 -8.52300 44.18500
C  20.05800 -10.08100 44.93500
N  24.99100 -7.66000 46.57200
C  24.01900 -8.55500 46.69300
C  24.48600 -9.79000 47.55900
C  25.92500 -9.36400 48.02000
C  26.13300 -8.04200 47.24100
C  23.56200 -10.22900 48.70000
C  27.07900 -10.39300 47.72900
C  27.75500 -10.90400 48.95800
N  26.68800 -5.40500 45.98700
C  27.64700 -6.15400 46.63200
C  28.92300 -5.40100 46.68700
C  28.63900 -4.34300 45.74500
C  27.30300 -4.47800 45.26900
C  30.30500 -5.74500 47.28500
C  29.31500 -3.32000 45.05100
O  30.50200 -3.04800 45.11600
C  28.22500 -2.61100 44.08700
C  27.98600 -1.17100 44.58900
O  27.88700 -0.79500 45.75300
O  28.06200 -0.31100 43.50600
C  27.99600 1.12000 43.82700
H  21.48600 -3.95500 43.01800
H  22.01300 -9.28700 46.40300
H  28.15800 -7.68700 47.80300
H  25.48600 -1.38400 42.81400
H  23.41700 -2.94200 41.58200
H  23.59500 -0.50200 42.99300
H  22.77300 -1.57400 44.17500
H  22.05000 -1.11800 42.62400
H  25.36600 -3.41500 40.58800
H  26.87300 -3.41200 41.32900
H  27.39500 -1.27100 40.43400
H  25.94000 -0.60800 40.92300
H  19.64900 -6.14600 42.28800
H  19.41100 -4.62700 43.21400
H  18.45300 -6.05100 43.64200
H  19.44300 -10.74900 44.33100
H  19.89400 -10.31900 45.98600
H  21.08600 -10.21700 44.59900
H  24.57700 -10.62900 46.87000
H  26.03300 -9.02900 49.05100
H  22.86600 -11.03100 48.45400
H  22.88200 -9.38700 48.82600
H  24.16000 -10.43500 49.58700
H  27.75100 -9.93900 47.00100
H  26.69700 -11.24500 47.16800
H  27.57200 -10.30000 49.84700
H  28.80900 -10.94900 48.68200
H  27.47500 -11.88600 49.33800
H  30.14100 -5.95100 48.34300
H  30.99300 -4.91800 47.11000
H  30.68900 -6.65700 46.82800
H  28.60800 -2.56200 43.06800
H  27.98300 1.78800 42.96600
H  28.91200 1.45200 44.31600
H  27.13800 1.46500 44.40400

