158

Mg 40.70500 9.89400 30.04500
C  42.56300 11.10300 32.68300
C  38.23200 8.79300 32.12300
C  39.12200 8.54200 27.49700
C  43.36300 10.82900 27.83400
N  40.49100 9.84500 32.19200
C  41.33700 10.48800 33.04400
C  40.65000 10.55900 34.49500
C  39.34100 9.73700 34.26000
C  39.35300 9.41700 32.83500
C  39.20900 8.42500 35.06400
C  40.28400 11.96700 34.94200
C  39.95200 12.06600 36.42400
H  40.91500 12.90000 37.34500
N  38.96000 8.64400 29.85600
C  38.04100 8.41000 30.83800
C  36.86000 7.87200 30.31500
C  37.13400 7.67600 28.90000
C  38.46900 8.24700 28.68900
C  35.69300 7.29700 31.20100
C  36.29500 7.07800 27.76700
O  36.72900 6.90000 26.58500
C  34.92000 6.60100 28.17500
N  41.20400 9.79600 27.93700
C  40.32800 9.11900 27.16500
C  40.81500 9.14000 25.70600
C  42.15300 10.00900 25.74500
C  42.31000 10.13100 27.24500
C  41.11500 7.66000 25.16000
C  41.89100 11.46700 25.23400
C  40.60200 12.25400 25.60500
N  42.60200 10.78500 30.20100
C  43.48500 11.15400 29.25700
C  44.59200 11.79800 29.84100
C  44.21200 11.95000 31.21100
C  43.03600 11.19300 31.35600
C  45.93300 12.21000 29.20800
C  44.66900 12.49100 32.46000
O  45.63000 13.12700 32.76900
C  43.45900 12.03400 33.48500
C  44.11200 11.33100 34.54200
O  44.86300 10.36700 34.46500
O  43.71100 11.83500 35.72500
C  44.06400 11.13900 36.92300
H  37.33600 8.54800 32.69700
H  38.67800 8.27300 26.53600
H  44.26000 11.06900 27.26000
H  41.27800 10.08600 35.25000
H  38.40000 10.28700 34.27400
H  38.14200 8.20500 35.08700
H  39.66300 8.64600 36.02900
H  39.80800 7.67000 34.55600
H  39.51000 12.29900 34.25100
H  41.15000 12.61900 34.83200
H  39.99500 11.07900 36.88600
H  38.93500 12.45600 36.43200
H  34.68900 7.37900 30.78400
H  35.69700 7.54500 32.26200
H  35.73600 6.20800 31.21700
H  35.08800 5.84700 28.94400
H  34.43200 6.13800 27.31700
H  34.39600 7.51600 28.45200
H  40.10200 9.59600 25.02000
H  42.96900 9.40900 25.34200
H  41.67200 7.03100 25.85400
H  41.61500 7.61900 24.19200
H  40.16800 7.13300 25.04400
H  42.04200 11.49500 24.15500
H  42.65300 12.19500 25.51300
H  40.18600 12.56400 24.64700
H  40.77000 13.11100 26.25600
H  39.89000 11.59100 26.09700
H  46.69300 12.43800 29.95600
H  45.79100 13.06700 28.54900
H  46.38500 11.43800 28.58500
H  43.15900 13.00000 33.89200
H  45.15300 11.13300 36.97000
H  43.70400 10.11800 36.79400
H  43.59400 11.50800 37.83400
Mg 46.51700 25.70300 28.26800
C  47.77200 27.93100 30.73100
C  45.91900 23.47600 30.71900
C  46.04500 23.47400 25.78400
C  47.85500 27.93700 25.77300
N  46.71500 25.76300 30.48200
C  47.12400 26.81100 31.28000
C  46.84000 26.55800 32.73400
C  46.45700 25.05200 32.74900
C  46.39400 24.66600 31.19600
C  47.46800 24.09300 33.58800
C  45.62400 27.46100 33.26100
C  45.12500 27.03300 34.65200
H  44.76700 28.15000 35.66300
N  45.81100 23.76800 28.29800
C  45.74100 22.97500 29.40200
C  45.46200 21.63000 28.96300
C  45.42400 21.59100 27.53100
C  45.72900 22.97500 27.13400
C  45.45200 20.48400 29.94000
C  45.18700 20.43600 26.51000
O  45.24200 20.55700 25.29100
C  44.91500 19.20200 27.09700
N  46.77600 25.79000 26.08800
C  46.46700 24.71500 25.35500
C  46.62400 25.08200 23.83900
C  47.08000 26.50200 23.79600
C  47.27800 26.74600 25.32700
C  47.71200 24.14200 23.27900
C  45.97500 27.41200 23.15600
C  46.05700 27.50800 21.61800
N  47.64000 27.51700 28.18800
C  48.13000 28.27200 27.12100
C  48.86800 29.41300 27.65200
C  48.72900 29.38500 29.06300
C  47.96600 28.20100 29.33300
C  49.54400 30.51200 26.81500
C  48.97900 30.04700 30.37500
O  49.59300 31.07700 30.60900
C  48.32500 29.21600 31.46700
C  49.34900 28.87500 32.52000
O  50.42500 28.35400 32.26900
O  48.90600 29.18800 33.76100
C  49.90000 29.07900 34.88400
H  45.56600 22.86000 31.54900
H  45.85600 22.71800 25.02000
H  48.17600 28.64800 25.00800
H  47.75700 26.87000 33.23300
H  45.44900 24.87100 33.12300
H  46.97100 23.61600 34.43300
H  48.27600 24.64000 34.07400
H  47.91800 23.33300 32.94900
H  44.82200 27.44200 32.52400
H  46.04900 28.46400 33.22300
H  45.92800 26.40900 35.04500
H  44.21400 26.46100 34.47800
H  45.90500 19.53900 29.64200
H  44.43500 20.19100 30.19800
H  45.88100 20.76400 30.90200
H  44.17800 19.25400 27.89800
H  45.86100 18.83200 27.49300
H  44.52200 18.47800 26.38300
H  45.68200 24.86500 23.33600
H  48.04900 26.66400 23.32400
H  48.52400 24.08500 24.00300
H  48.05100 24.53800 22.32200
H  47.33500 23.12200 23.19900
H  46.12200 28.41100 23.56500
H  44.94600 27.09000 23.31500
H  46.38600 28.49300 21.28700
H  45.04400 27.44900 21.21900
H  46.71400 26.74400 21.20300
H  49.81900 31.37000 27.42900
H  49.02100 30.84200 25.91800
H  50.45300 29.96500 26.56300
H  47.57500 29.81100 31.98700
H  49.63200 28.32400 35.62200
H  49.86300 30.02100 35.43100
H  50.91900 28.92600 34.52900

