158

Mg 25.70600 1.22100 29.11500
C  27.69500 0.74900 31.94100
C  22.94000 1.56900 31.31000
C  23.76100 1.40600 26.43300
C  28.57300 0.32000 27.08900
N  25.37200 1.17000 31.30800
C  26.40900 1.13300 32.24400
C  25.93400 1.33500 33.68100
C  24.35300 1.24200 33.49000
C  24.18200 1.39100 31.93400
C  23.73300 -0.08900 34.02900
C  26.50600 2.69600 34.34000
C  27.16100 2.66100 35.69700
H  26.53600 3.53600 36.83500
N  23.59400 1.44200 28.92600
C  22.67000 1.54600 29.92900
C  21.35500 1.70600 29.34000
C  21.62900 1.61900 27.91500
C  23.02500 1.51800 27.69000
C  20.10200 1.86000 30.14400
C  20.67300 1.80800 26.71200
O  21.09000 1.78000 25.59000
C  19.20900 2.12800 26.94800
N  26.05800 0.99100 27.08700
C  25.10600 1.08900 26.15100
C  25.65900 0.73100 24.70200
C  27.14500 0.33300 24.98000
C  27.25800 0.56800 26.46700
C  24.83300 -0.38000 24.03700
C  28.19700 0.98900 23.99700
C  28.63400 0.12100 22.81300
N  27.76600 0.71600 29.36400
C  28.75600 0.38600 28.49600
C  29.97800 0.09800 29.26900
C  29.58400 0.18500 30.57200
C  28.29100 0.59900 30.63000
C  31.40400 -0.05700 28.79500
C  30.10400 0.11900 31.88400
O  31.30500 -0.00200 32.33800
C  28.84600 0.42300 32.87300
C  28.61900 -0.62700 33.85700
O  27.95500 -1.68700 33.66600
O  29.24300 -0.33200 35.06000
C  28.96400 -1.29400 36.10400
H  22.18600 1.67000 32.09300
H  23.32000 1.57200 25.44800
H  29.31500 -0.15000 26.44000
H  26.23500 0.51000 34.32700
H  23.82800 2.04000 34.01400
H  23.32400 -0.09600 35.04000
H  24.51400 -0.84800 33.97100
H  22.98000 -0.52300 33.37200
H  25.77600 3.49200 34.48200
H  27.28100 3.11100 33.69500
H  28.21000 2.95700 35.67200
H  27.17600 1.64300 36.08600
H  19.64700 0.87900 30.00500
H  19.48500 2.62700 29.67600
H  20.27400 2.00400 31.21100
H  18.57400 1.97900 26.07500
H  19.06900 3.18500 27.17400
H  18.69700 1.43800 27.61800
H  25.58200 1.63500 24.09800
H  27.19200 -0.75000 24.86600
H  24.19200 -0.83800 24.79000
H  25.49700 -1.08600 23.53800
H  24.24300 0.04600 23.22600
H  29.02500 1.35700 24.60200
H  27.62700 1.85900 23.67100
H  28.52400 0.50000 21.79800
H  28.02100 -0.77500 22.90800
H  29.66100 -0.20100 22.98700
H  31.56900 0.11100 27.73100
H  31.48000 -1.12900 28.97600
H  32.06800 0.59400 29.36400
H  29.13600 1.32300 33.41500
H  29.27100 -2.28400 35.76800
H  27.91400 -1.33700 36.39400
H  29.47100 -1.06300 37.04100
Mg 6.32400 53.83100 40.83600
C  6.23200 50.29300 40.57700
C  9.52800 53.79600 39.48900
C  6.30500 57.16100 40.87100
C  2.91200 53.68000 41.71900
N  7.60500 52.14500 39.97000
C  7.41800 50.83000 40.02900
C  8.67700 50.08200 39.63600
C  9.76500 51.20400 39.65700
C  8.88800 52.52200 39.65400
C  10.74800 51.18100 40.87500
C  8.52600 49.23500 38.32700
C  7.64900 49.80800 37.21000
H  8.23000 50.81800 36.19900
N  7.76700 55.25000 40.37400
C  8.98900 55.11800 39.80900
C  9.67900 56.37000 39.66600
C  8.79500 57.37100 40.12800
C  7.56100 56.59400 40.53300
C  11.08200 56.50200 39.21500
C  9.10100 58.83500 40.24900
O  10.15800 59.25800 39.85100
C  8.14100 59.86800 40.93500
N  4.80900 55.23900 41.19100
C  5.00800 56.59500 41.01300
C  3.70500 57.39400 41.29000
C  2.60500 56.21300 41.36600
C  3.45000 54.95600 41.51800
C  3.67700 58.35700 42.43000
C  1.63900 55.98300 40.15100
C  2.23700 55.45400 38.79800
N  4.79800 52.38800 41.16600
C  3.54500 52.44800 41.63800
C  3.01100 51.14000 41.82600
C  4.10100 50.26300 41.58800
C  5.10900 51.06100 40.98700
C  1.64200 50.81800 42.43600
C  4.62900 48.90800 41.70500
O  4.24900 47.96300 42.38700
C  5.96400 48.85100 40.84800
C  5.57700 47.93100 39.69600
O  4.87500 48.20200 38.71800
O  6.13400 46.70600 39.91500
C  5.73000 45.74300 38.92300
H  10.57900 53.71000 39.20500
H  6.37100 58.22100 41.12500
H  1.88900 53.45900 42.03100
H  8.90500 49.29900 40.35800
H  10.28400 51.08500 38.70600
H  10.67800 50.22700 41.39700
H  10.57100 52.05500 41.50100
H  11.74600 51.17400 40.43600
H  8.18000 48.23000 38.56800
H  9.53200 48.99400 37.98300
H  6.79700 50.32600 37.65000
H  7.26400 48.96000 36.64400
H  11.63700 55.60700 39.49300
H  11.67200 57.22900 39.77300
H  11.11900 56.82200 38.17300
H  7.25800 59.87200 40.29600
H  8.53400 60.88300 40.87900
H  7.76300 59.58900 41.91900
H  3.46000 57.96800 40.39600
H  2.09700 56.32200 42.32400
H  3.12000 59.20700 42.03700
H  4.64900 58.69000 42.79400
H  3.06800 57.98700 43.25500
H  1.28100 56.97700 39.88200
H  0.75900 55.36600 40.33200
H  1.81000 54.50600 38.47100
H  3.32500 55.49100 38.73200
H  2.02600 56.19000 38.02300
H  1.68300 51.24200 43.44000
H  1.74500 49.75600 42.65800
H  0.80000 51.21500 41.86900
H  6.65200 48.35200 41.53100
H  6.29300 46.01500 38.03000
H  4.64600 45.79500 38.81700
H  5.96000 44.69100 39.09500

