158

Mg 0.79700 6.87100 26.60900
C  1.35200 9.27000 29.06200
C  0.80200 4.47000 28.88500
C  0.10400 4.76500 24.01100
C  1.34900 9.41600 24.19100
N  0.97000 6.91100 28.70900
C  1.12100 8.00900 29.54700
C  1.05000 7.59200 31.04300
C  1.20500 6.04500 30.94200
C  0.99800 5.77500 29.40800
C  2.58200 5.59400 31.43700
C  -0.19900 7.97100 31.85100
C  0.06700 8.16100 33.38700
H  1.26200 7.61400 34.06100
N  0.58500 4.83900 26.50600
C  0.61400 3.98700 27.54400
C  0.40000 2.63500 27.08700
C  0.14100 2.74100 25.71700
C  0.26000 4.17300 25.34700
C  0.46900 1.46300 28.08400
C  -0.30400 1.59900 24.77000
O  -0.47200 1.73200 23.55900
C  -0.29600 0.21800 25.25500
N  0.78200 7.12800 24.39500
C  0.38400 6.08100 23.59400
C  0.31300 6.53000 22.09100
C  0.88900 8.00700 22.16000
C  1.02000 8.18700 23.65200
C  0.96200 5.49300 21.13900
C  0.03000 9.05900 21.33900
C  0.69300 10.09800 20.39800
N  1.30400 8.91400 26.58400
C  1.53400 9.81700 25.48800
C  2.01400 11.05500 25.98700
C  1.87300 10.92000 27.42000
C  1.44800 9.56600 27.69500
C  2.34100 12.25300 25.13100
C  2.04000 11.60000 28.66500
O  2.37500 12.74600 28.91600
C  1.55900 10.54200 29.79800
C  2.66100 10.59300 30.80300
O  3.81800 10.22800 30.58800
O  2.20500 10.95000 31.99800
C  3.19800 11.08700 33.08300
H  0.78200 3.68700 29.64600
H  -0.34500 4.05800 23.31000
H  1.52000 10.18400 23.43400
H  1.93800 7.98900 31.53400
H  0.37000 5.63400 31.50800
H  3.00700 4.76100 30.87700
H  2.56200 5.12100 32.41900
H  3.22400 6.47500 31.41700
H  -0.87000 7.11700 31.93300
H  -0.68500 8.80700 31.34800
H  -0.79700 7.75100 33.91100
H  0.13100 9.23000 33.59000
H  0.90500 0.61400 27.55900
H  -0.46600 1.12200 28.52800
H  1.13700 1.78300 28.88400
H  -0.61900 -0.42300 24.43500
H  -0.98500 0.19200 26.09900
H  0.73000 -0.08100 25.47200
H  -0.73700 6.48400 21.80100
H  1.92200 8.09700 21.82500
H  1.82300 5.96500 20.66400
H  0.28700 5.29200 20.30700
H  1.22300 4.48700 21.46800
H  -0.51700 9.63900 22.08300
H  -0.71600 8.58200 20.70400
H  0.28700 11.08900 20.60100
H  0.62200 9.70400 19.38400
H  1.76700 10.11100 20.58300
H  3.05600 12.86900 25.67500
H  1.48100 12.84100 24.81100
H  2.89100 11.93700 24.24400
H  0.65600 10.99700 30.20700
H  2.90100 11.66700 33.95700
H  4.01400 11.68100 32.67000
H  3.45000 10.05100 33.30900
Mg 16.82600 -2.34300 27.81800
C  15.75500 -0.27800 30.61300
C  18.45700 -4.31200 30.14000
C  18.04100 -4.00500 25.31600
C  15.07900 -0.18800 25.84600
N  16.99100 -2.32600 30.07500
C  16.53800 -1.39800 30.97400
C  16.99300 -1.75700 32.34800
C  18.01500 -2.91500 32.19600
C  17.90900 -3.18900 30.68400
C  19.47300 -2.56500 32.64000
C  15.84100 -2.01000 33.38600
C  16.01000 -1.32900 34.70800
H  17.40100 -1.05900 35.30600
N  18.18100 -3.86600 27.71900
C  18.63900 -4.62300 28.79000
C  19.41200 -5.69100 28.25300
C  19.33700 -5.76000 26.86600
C  18.51400 -4.53000 26.52800
C  20.25100 -6.61200 29.18300
C  19.99000 -6.71900 25.88800
O  19.77000 -6.59800 24.70400
C  20.80100 -7.83800 26.35900
N  16.61900 -2.12600 25.83000
C  17.21600 -2.94500 24.95400
C  16.96600 -2.48600 23.55500
C  15.82700 -1.47500 23.65200
C  15.86900 -1.19700 25.19300
C  18.22000 -2.03700 22.83400
C  14.43500 -1.97900 23.23500
C  14.20600 -1.96800 21.71100
N  15.63700 -0.62900 28.10800
C  14.98400 0.13700 27.20800
C  14.34400 1.31100 27.84200
C  14.58200 1.13000 29.20800
C  15.34600 -0.06300 29.30100
C  13.68000 2.43900 27.19500
C  14.37000 1.70600 30.53700
O  13.80600 2.73900 30.94000
C  15.18700 0.79300 31.47300
C  16.19400 1.63400 32.14000
O  17.16100 2.07900 31.64500
O  15.77500 1.86300 33.40400
C  16.49200 2.93200 34.08400
H  18.82300 -4.95600 30.94200
H  18.33300 -4.57000 24.42900
H  14.40200 0.33600 25.16800
H  17.50500 -0.85500 32.68300
H  17.70800 -3.79200 32.76700
H  19.63900 -2.93900 33.65000
H  19.52100 -1.47600 32.62600
H  20.20600 -2.86800 31.89100
H  15.70100 -3.08000 33.53800
H  14.90500 -1.61200 32.99400
H  15.37200 -1.90200 35.38100
H  15.49200 -0.37000 34.67000
H  19.58000 -7.44700 29.38800
H  20.60500 -6.23300 30.14200
H  21.20700 -7.01600 28.85200
H  20.27300 -8.25200 27.21900
H  21.76500 -7.45900 26.69900
H  20.92800 -8.49400 25.49800
H  16.61300 -3.36200 23.01000
H  16.13200 -0.53200 23.20000
H  18.31900 -1.06800 22.34600
H  18.59300 -2.67800 22.03500
H  19.01100 -2.08500 23.58300
H  13.68300 -1.41000 23.78200
H  14.39800 -3.04300 23.46800
H  13.81600 -0.99300 21.42000
H  13.47000 -2.72900 21.45300
H  15.17800 -2.11600 21.24100
H  12.65100 2.13900 26.99700
H  14.07400 2.76900 26.23400
H  13.69300 3.33500 27.81700
H  14.57700 0.24600 32.19100
H  16.94500 3.67900 33.43200
H  17.36200 2.49100 34.57100
H  15.82900 3.45800 34.77100

