158

Mg 46.08900 4.44700 47.25900
C  43.95300 7.28200 46.61400
C  43.41100 2.53400 46.50700
C  48.18600 1.91200 47.28100
C  48.76900 6.75300 47.63100
N  43.84200 4.88900 46.67500
C  43.19600 6.06900 46.60600
C  41.70600 5.89600 46.26200
C  41.54500 4.35200 46.45700
C  43.01100 3.88400 46.56700
C  40.68300 3.87900 47.70300
C  41.27100 6.41000 44.82600
C  40.12100 7.48600 44.71800
H  40.40200 8.57000 43.68600
N  45.83500 2.41800 47.03600
C  44.65100 1.86000 46.84800
C  44.89400 0.47300 46.63800
C  46.26200 0.19300 46.75300
C  46.85800 1.45600 47.11500
C  43.73100 -0.56000 46.38400
C  46.97100 -1.12200 46.50300
O  46.34600 -2.08800 46.22100
C  48.41200 -1.24800 46.71600
N  48.23700 4.33700 47.13600
C  48.81600 3.13400 47.39400
C  50.24600 3.31000 47.90300
C  50.44600 4.86600 47.83800
C  49.09400 5.36100 47.46400
C  50.64400 2.65000 49.23000
C  51.47700 5.41200 46.78600
C  52.70300 6.11500 47.38400
N  46.38200 6.60200 47.06900
C  47.50700 7.33900 47.30400
C  47.15700 8.77200 47.16500
C  45.78600 8.81700 46.89100
C  45.34800 7.45900 46.83900
C  48.13200 9.90100 47.38300
C  44.69400 9.70500 46.67800
O  44.56700 10.94900 46.73800
C  43.46600 8.69100 46.40400
C  42.44800 9.05500 47.48200
O  42.28300 8.51100 48.58700
O  41.60600 10.04200 46.91500
C  40.51800 10.45200 47.88200
H  42.59100 1.82900 46.35100
H  48.91700 1.12100 47.45400
H  49.58000 7.46800 47.78700
H  41.15900 6.53400 46.95600
H  41.21700 3.91600 45.51400
H  39.84600 3.27000 47.36100
H  40.31300 4.72400 48.28500
H  41.40900 3.35400 48.32400
H  40.96500 5.57700 44.19300
H  42.23900 6.71700 44.42900
H  39.91800 8.04000 45.63500
H  39.18500 6.96800 44.50600
H  43.64600 -0.67100 45.30300
H  42.77000 -0.16100 46.70900
H  43.74500 -1.56400 46.80900
H  48.93400 -0.61800 45.99600
H  48.72400 -2.26600 46.48000
H  48.70700 -1.01900 47.74000
H  50.86800 2.77500 47.18500
H  50.55200 5.27200 48.84400
H  51.23900 1.74500 49.10500
H  49.70400 2.35900 49.69900
H  51.26300 3.35100 49.79000
H  51.02600 6.28700 46.31800
H  51.70800 4.61400 46.08000
H  52.27600 6.73000 48.17700
H  53.21900 6.82900 46.74200
H  53.39600 5.37200 47.77800
H  47.52300 10.57800 47.98100
H  48.47500 10.23000 46.40200
H  48.97600 9.48500 47.93400
H  43.08800 8.91000 45.40500
H  40.06300 11.41600 47.65100
H  40.92500 10.53300 48.88900
H  39.65100 9.79300 47.83600
Mg 46.90800 16.30100 27.66900
C  45.11700 15.99700 30.68400
C  49.49500 17.88000 29.44600
C  48.55900 16.57700 24.84700
C  44.05900 14.94100 26.04600
N  47.28100 16.85800 29.86900
C  46.41700 16.60500 30.87100
C  46.98500 17.16200 32.17300
C  48.22200 18.00200 31.77600
C  48.33400 17.58600 30.28100
C  47.97300 19.53300 32.04300
C  47.17600 15.99900 33.20800
C  47.35100 16.44300 34.65300
H  47.23200 17.94900 35.08900
N  48.76200 17.06000 27.24500
C  49.67600 17.63600 28.04100
C  50.93200 17.83600 27.35600
C  50.68000 17.55800 26.02700
C  49.24300 17.07900 25.99300
C  52.16300 18.31600 28.05800
C  51.66800 17.49100 24.77300
O  51.33600 17.15900 23.65200
C  53.01100 18.02400 24.94300
N  46.30400 15.94500 25.70800
C  47.20400 16.12200 24.66700
C  46.60100 15.70800 23.31200
C  45.25300 14.99400 23.83100
C  45.21300 15.23500 25.29100
C  46.54500 16.93100 22.35900
C  45.31600 13.46700 23.49200
C  44.50200 13.17500 22.22300
N  45.02100 15.51700 28.18400
C  43.94800 15.08100 27.42600
C  42.80100 14.82800 28.23800
C  43.20900 15.13200 29.55300
C  44.54000 15.62200 29.45400
C  41.45200 14.27100 27.79000
C  42.83100 15.11800 30.84500
O  41.81000 14.56100 31.31100
C  43.98400 15.76300 31.74600
C  43.46100 16.95700 32.39900
O  43.26700 18.05600 31.88600
O  43.17400 16.62900 33.73400
C  42.81400 17.71900 34.63600
H  50.15200 18.49700 30.06400
H  49.17100 16.40200 23.95900
H  43.26700 14.49600 25.44000
H  46.16800 17.77400 32.55500
H  49.06900 17.79800 32.43100
H  48.87900 20.09500 32.27100
H  47.28200 19.66100 32.87600
H  47.52500 19.93100 31.13200
H  48.09500 15.49300 32.91300
H  46.32100 15.32400 33.16700
H  48.39000 16.23100 34.90700
H  46.64600 15.83400 35.21800
H  51.91900 19.37800 28.02400
H  53.11200 17.95600 27.66000
H  52.19100 18.14600 29.13400
H  53.46700 17.28300 25.60000
H  53.02700 19.04100 25.33500
H  53.61400 17.94000 24.03900
H  47.22500 14.94100 22.85300
H  44.55000 15.58100 23.24000
H  47.20200 17.69900 22.76700
H  45.52700 17.30600 22.25400
H  46.87900 16.71700 21.34400
H  44.87700 12.95100 24.34500
H  46.30700 13.01400 23.48500
H  45.15000 12.56600 21.59200
H  44.31600 14.09700 21.67200
H  43.54800 12.67000 22.37200
H  40.64200 14.64900 28.41300
H  41.42800 13.19200 27.93800
H  41.14500 14.38300 26.75000
H  44.09500 14.99800 32.51500
H  41.86900 18.10600 34.25400
H  43.59500 18.46700 34.49500
H  42.82400 17.53700 35.71000

