158

Mg 53.40300 24.77700 44.97400
C  50.66200 26.75000 44.13800
C  51.71800 22.14800 43.49300
C  56.31400 22.96400 44.72600
C  55.21500 27.48500 45.88400
N  51.43500 24.49100 43.76600
C  50.43100 25.41600 43.59200
C  49.30300 24.83200 42.64300
C  49.48600 23.35500 43.03400
C  50.99200 23.27400 43.46200
C  48.51100 22.92700 44.16700
C  49.69600 25.10500 41.14400
C  48.56500 25.23600 40.07900
H  47.95600 23.94800 39.54400
N  53.90400 22.75500 44.36700
C  53.03900 21.92600 43.73000
C  53.74600 20.65800 43.51700
C  55.10000 20.85400 43.94000
C  55.17000 22.22400 44.33100
C  53.21600 19.41300 42.85600
C  56.18800 19.74500 43.90100
O  55.94400 18.68400 43.39200
C  57.47800 19.89500 44.45100
N  55.45800 25.20400 45.19400
C  56.42800 24.29500 45.20800
C  57.79200 24.80300 45.69900
C  57.43000 26.29400 45.93800
C  55.93800 26.38600 45.61600
C  58.24700 23.95000 46.95500
C  58.14900 27.33900 45.09600
C  58.40700 28.70400 45.72300
N  52.99100 26.75100 45.14600
C  53.86700 27.78400 45.50200
C  53.10200 28.98800 45.58700
C  51.83700 28.61100 45.01600
C  51.84200 27.23600 44.81100
C  53.51700 30.35100 46.00700
C  50.59600 29.10700 44.59800
O  50.09700 30.24600 44.61900
C  49.75200 27.95000 44.10200
C  48.97100 28.23900 42.80800
O  49.40400 28.41200 41.69900
O  47.63600 28.30700 43.02200
C  46.77000 28.38600 41.81500
H  51.13100 21.31100 43.10700
H  57.28200 22.46900 44.62500
H  55.63800 28.43600 46.21600
H  48.27200 25.13800 42.82100
H  49.23200 22.68700 42.21000
H  48.91800 22.47700 45.07200
H  47.91500 22.11100 43.75700
H  47.70400 23.62700 44.38300
H  50.22300 24.25200 40.71600
H  50.26400 26.03500 41.13200
H  48.96900 25.92800 39.34000
H  47.67500 25.70300 40.50100
H  53.81800 19.17900 41.97900
H  52.21000 19.55600 42.46100
H  53.23900 18.62800 43.61200
H  58.04700 18.97200 44.55900
H  57.39300 20.40800 45.40900
H  58.04500 20.48100 43.72700
H  58.51300 24.61100 44.90400
H  57.43500 26.45900 47.01500
H  59.25700 23.63700 46.68600
H  57.73300 22.99900 47.09400
H  58.34400 24.63700 47.79500
H  57.61300 27.59200 44.18100
H  59.13300 26.93300 44.86200
H  59.45400 28.99300 45.81000
H  57.88500 28.74000 46.67900
H  57.91800 29.47400 45.12700
H  53.03900 31.11300 45.39100
H  54.59900 30.42300 45.89400
H  53.19900 30.52700 47.03500
H  49.04200 27.77700 44.91000
H  46.87000 27.42200 41.31600
H  47.01000 29.12600 41.05200
H  45.75900 28.45400 42.21700
Mg -1.53000 33.98200 26.76000
C  -2.82600 32.36700 29.48100
C  0.17800 36.09300 28.99100
C  -0.61000 36.09400 24.21800
C  -3.29600 32.08700 24.57600
N  -1.37900 34.19400 29.01900
C  -1.94700 33.40000 29.91200
C  -1.65800 33.81700 31.38900
C  -0.75000 35.03400 31.14900
C  -0.66400 35.19100 29.59600
C  -1.12400 36.29900 31.95500
C  -1.03900 32.59100 32.23500
C  -0.11700 32.79900 33.43400
H  -0.53400 32.12500 34.81100
N  -0.28800 35.74000 26.57500
C  0.38100 36.33300 27.63200
C  1.16800 37.35800 27.07100
C  1.02000 37.37300 25.65600
C  0.00800 36.40000 25.39300
C  2.07900 38.19600 27.83200
C  1.68400 38.26300 24.53500
O  1.38300 38.29900 23.33200
C  2.70700 39.22700 24.92100
N  -2.08400 34.24100 24.65300
C  -1.55200 35.13800 23.80900
C  -1.75600 34.74200 22.32800
C  -2.42100 33.32400 22.54000
C  -2.61900 33.18000 24.04300
C  -2.58000 35.79500 21.48600
C  -1.55400 32.11400 21.92900
C  -0.16700 31.92000 22.64100
N  -2.86800 32.58600 26.94100
C  -3.46100 31.82400 25.94100
C  -4.19600 30.79800 26.53500
C  -4.05900 30.99200 27.96600
C  -3.21100 32.07300 28.11900
C  -4.99300 29.72300 25.72100
C  -4.32800 30.50800 29.31900
O  -5.01200 29.57900 29.60700
C  -3.60400 31.36300 30.35700
C  -4.62500 31.99300 31.22500
O  -5.52300 32.75400 30.88200
O  -4.47000 31.55700 32.54900
C  -5.36200 32.11700 33.52300
H  0.75700 36.71300 29.67800
H  -0.28900 36.74600 23.40300
H  -3.67300 31.27000 23.95700
H  -2.62900 34.08900 31.80200
H  0.26700 34.77800 31.44700
H  -2.01300 36.22100 32.58000
H  -1.44200 37.02600 31.20700
H  -0.22500 36.59000 32.49900
H  -0.61900 31.83200 31.57500
H  -1.90500 32.00700 32.54600
H  0.03200 33.86800 33.58900
H  0.86600 32.43100 33.13900
H  2.10600 37.74400 28.82400
H  1.72200 39.21900 27.95300
H  3.10600 38.12100 27.47600
H  2.89600 39.99700 24.17400
H  3.65800 38.69600 24.97200
H  2.59000 39.72700 25.88200
H  -0.78200 34.71100 21.83900
H  -3.44100 33.22900 22.16900
H  -2.77800 36.69100 22.07300
H  -3.55200 35.49900 21.09100
H  -2.00500 35.91600 20.56800
H  -1.48100 32.33600 20.86400
H  -2.12200 31.18900 22.02600
H  -0.07200 32.73900 23.35400
H  0.47000 32.15900 21.78900
H  0.06200 30.89700 22.93900
H  -4.77300 28.78700 26.23600
H  -4.88600 29.81300 24.64000
H  -6.04200 29.85500 25.98400
H  -2.93700 30.78600 30.99800
H  -4.89600 32.22400 34.50300
H  -6.04900 31.28200 33.65600
H  -5.87400 33.05600 33.31200

