158

Mg 3.03800 -1.55100 44.33100
C  6.56800 -1.50700 44.09600
C  2.91100 1.16600 42.53400
C  -0.24500 -2.29700 43.66000
C  3.41800 -4.84500 45.55300
N  4.60900 -0.38400 43.30600
C  5.96300 -0.49700 43.34200
C  6.70200 0.53900 42.52400
C  5.48100 1.48800 42.16400
C  4.19600 0.74100 42.77200
C  5.51400 2.99800 42.62700
C  7.58900 -0.04200 41.32200
C  8.91100 0.63600 40.95700
H  8.99200 1.03300 39.47900
N  1.49100 -0.58000 43.31700
C  1.66900 0.56400 42.70500
C  0.41500 1.03100 42.15500
C  -0.53300 -0.01300 42.39800
C  0.18500 -1.02100 43.12900
C  0.24600 2.29600 41.34800
C  -2.02700 -0.04800 41.89100
O  -2.53300 0.91000 41.39600
C  -2.89300 -1.27400 42.07800
N  1.77800 -3.32100 44.57800
C  0.46800 -3.33500 44.25800
C  -0.23300 -4.70300 44.64300
C  1.03200 -5.54000 45.22800
C  2.13500 -4.46200 45.15100
C  -1.45900 -4.54300 45.63900
C  1.31300 -6.92700 44.46200
C  1.00000 -8.20400 45.22300
N  4.61300 -2.87500 44.97900
C  4.60000 -4.15800 45.30800
C  5.92600 -4.68100 45.55400
C  6.70200 -3.57600 45.27000
C  5.91500 -2.55800 44.73000
C  6.26600 -6.05500 46.09700
C  8.08200 -3.13600 45.29900
O  9.01400 -3.73100 45.70300
C  8.07500 -1.78200 44.43800
C  8.57200 -0.77600 45.41500
O  8.35100 -0.71400 46.58800
O  9.31700 0.12300 44.72600
C  9.54600 1.42900 45.30300
H  2.90400 2.09400 41.95800
H  -1.27600 -2.63300 43.52600
H  3.51000 -5.88600 45.86800
H  7.43600 1.01900 43.17000
H  5.29600 1.53600 41.09100
H  5.51700 3.57500 41.70300
H  6.38700 3.36000 43.17000
H  4.59000 3.22800 43.15700
H  6.92500 0.06300 40.46300
H  7.73200 -1.10800 41.49700
H  9.63200 -0.16800 41.10800
H  9.21800 1.51400 41.52600
H  0.59100 3.18200 41.88200
H  -0.80600 2.32200 41.06300
H  0.82900 2.18400 40.43400
H  -3.95500 -1.20400 41.84300
H  -2.85000 -1.48400 43.14700
H  -2.44200 -2.12000 41.56100
H  -0.53900 -5.09100 43.67100
H  0.83400 -5.77100 46.27500
H  -1.55100 -3.52600 46.02100
H  -1.40000 -5.22700 46.48500
H  -2.35800 -4.78700 45.07400
H  2.33500 -7.10400 44.12600
H  0.78700 -7.03400 43.51400
H  0.08900 -8.62700 44.79900
H  0.82600 -7.96300 46.27200
H  1.83500 -8.90300 45.18700
H  6.57900 -6.64300 45.23400
H  5.38800 -6.49200 46.57400
H  7.02000 -5.94000 46.87600
H  8.58100 -1.85600 43.47500
H  9.15800 2.14300 44.57700
H  10.56700 1.71400 45.55600
H  8.91200 1.57700 46.17700
Mg 24.55200 -6.41300 45.62300
C  26.89000 -4.11700 44.27400
C  22.32900 -5.03200 43.51500
C  22.67900 -9.08800 46.13200
C  27.29900 -7.76200 47.50700
N  24.63800 -4.78200 43.99900
C  25.67400 -3.98100 43.64500
C  25.40300 -3.16400 42.40500
C  23.86900 -3.12600 42.63800
C  23.55100 -4.37300 43.41700
C  23.42200 -1.72300 43.31500
C  25.86500 -3.80900 41.09400
C  26.64100 -2.83000 40.21000
H  26.46000 -2.83500 38.69800
N  22.72700 -6.91300 44.93700
C  21.94600 -6.25000 44.08800
C  20.65100 -6.93700 43.93100
C  20.71400 -8.10300 44.75200
C  22.11700 -8.09600 45.29400
C  19.46300 -6.51000 43.07900
C  19.61800 -9.11600 44.87400
O  18.59300 -9.06400 44.16400
C  19.76500 -10.35800 45.81600
N  24.95200 -8.22000 46.54800
C  23.96000 -9.12600 46.74400
C  24.56800 -10.34800 47.51100
C  25.85300 -9.72900 48.10700
C  26.09600 -8.52100 47.33800
C  23.55600 -10.93600 48.57800
C  27.05200 -10.80900 48.12100
C  27.68800 -11.21700 49.44100
N  26.61600 -6.03300 45.88900
C  27.56800 -6.62700 46.72200
C  28.81500 -5.94100 46.59000
C  28.60900 -4.94400 45.61500
C  27.26100 -5.10900 45.21100
C  30.05300 -6.30200 47.32600
C  29.25400 -3.88400 44.96900
O  30.42300 -3.51500 44.98700
C  28.12800 -3.28300 43.97600
C  27.89400 -1.81800 44.18900
O  27.37900 -1.32700 45.13800
O  28.56100 -1.07200 43.17600
C  28.64500 0.42000 43.31900
H  21.53700 -4.51100 42.97400
H  22.03000 -9.92700 46.38800
H  28.12800 -8.14100 48.10900
H  25.90700 -2.21000 42.56200
H  23.32900 -3.29500 41.70600
H  22.77400 -1.18000 42.62600
H  24.27700 -1.05200 43.39300
H  22.91800 -1.85400 44.27200
H  24.98300 -4.06700 40.50800
H  26.51100 -4.68200 41.19300
H  27.67900 -2.89700 40.53400
H  26.35600 -1.83300 40.54700
H  18.58400 -6.59500 43.71800
H  19.26400 -7.16700 42.23300
H  19.62400 -5.48300 42.75100
H  18.90600 -11.02500 45.88900
H  19.98400 -10.09400 46.85000
H  20.51400 -10.99800 45.35200
H  24.85700 -11.11900 46.79800
H  25.71900 -9.45000 49.15200
H  22.81800 -10.15800 48.77400
H  24.14000 -11.10000 49.48300
H  23.06600 -11.81700 48.16200
H  27.93000 -10.52900 47.54000
H  26.76600 -11.78300 47.72300
H  28.03600 -12.24200 49.31000
H  27.10300 -11.00100 50.33500
H  28.54900 -10.54900 49.45400
H  30.89800 -5.66500 47.06400
H  30.22800 -7.32000 46.98000
H  29.87200 -6.20200 48.39700
H  28.52400 -3.52300 42.98900
H  27.84900 1.00400 42.85600
H  29.44600 0.70300 42.63600
H  28.84100 0.65500 44.36500

