158

Mg 52.45000 24.42700 45.67200
C  49.85500 26.59700 44.79700
C  50.78800 21.73000 44.62000
C  55.38900 22.62000 45.99500
C  54.48100 27.31300 46.26500
N  50.57000 24.20400 44.76100
C  49.60100 25.18300 44.51800
C  48.19600 24.54500 44.38100
C  48.52400 23.02000 44.50100
C  50.05700 22.97100 44.61100
C  47.91500 22.34800 45.80800
C  47.43800 24.87100 43.03500
C  48.14200 24.68500 41.70000
H  47.50400 23.73600 40.74300
N  52.95000 22.40500 45.44100
C  52.16000 21.46700 44.97700
C  52.86500 20.15500 45.04900
C  54.11200 20.32000 45.68700
C  54.19400 21.82800 45.77200
C  52.22700 18.85000 44.41600
C  55.05600 19.24300 46.06900
O  54.82600 18.08100 45.78600
C  56.30900 19.55200 46.92100
N  54.63300 24.87800 45.97700
C  55.64000 23.97300 46.05400
C  56.99200 24.55100 46.42500
C  56.72300 26.08600 46.29500
C  55.18100 26.13000 46.25000
C  57.53900 24.01400 47.73600
C  57.33200 26.70100 44.92500
C  57.96000 28.10800 45.18300
N  52.20700 26.55000 45.77500
C  53.07400 27.58100 46.04700
C  52.44300 28.85700 45.99800
C  51.15100 28.49500 45.49100
C  51.09500 27.05800 45.37900
C  53.03500 30.12100 46.34100
C  49.89800 29.09600 45.00300
O  49.45500 30.24600 44.97700
C  48.98800 27.85000 44.44500
C  48.74900 28.03400 43.03100
O  49.40800 27.56300 42.08200
O  47.58300 28.74800 42.88800
C  47.06700 28.95300 41.51800
H  50.20200 20.82500 44.44600
H  56.22800 21.94400 46.17400
H  55.02100 28.25400 46.38800
H  47.47500 24.89000 45.12100
H  48.26700 22.45900 43.60200
H  47.88300 21.26800 45.66300
H  46.92200 22.71100 46.07400
H  48.65800 22.41500 46.60300
H  47.06500 25.89500 43.02000
H  46.57800 24.20200 43.05500
H  49.17100 24.34000 41.80600
H  48.04200 25.65800 41.22000
H  51.37500 19.01000 43.75500
H  51.94700 18.16200 45.21300
H  53.01900 18.40300 43.81500
H  56.69700 18.59200 47.26200
H  55.87600 20.15200 47.72100
H  56.95500 20.07500 46.21500
H  57.71000 24.18600 45.69100
H  57.12700 26.70300 47.09900
H  57.36700 22.95200 47.91300
H  56.99700 24.51500 48.53800
H  58.59600 24.25400 47.84900
H  56.62000 26.85900 44.11500
H  58.09200 26.04500 44.50200
H  59.00400 28.19400 44.87900
H  57.82900 28.47000 46.20300
H  57.58700 28.78900 44.41800
H  52.53800 30.89600 45.75800
H  54.11400 30.18000 46.19600
H  52.96700 30.26400 47.42000
H  48.04000 27.75100 44.97300
H  46.94700 28.02200 40.96500
H  47.80500 29.58100 41.02000
H  46.18400 29.58100 41.63900
Mg 36.04500 50.32100 25.44600
C  35.95000 48.43800 28.53000
C  34.74700 52.95300 27.26800
C  35.99200 52.03400 22.58800
C  37.06700 47.47000 23.76000
N  35.46400 50.73800 27.69800
C  35.60500 49.82100 28.72000
C  35.19200 50.48300 30.06100
C  34.75900 51.89900 29.61300
C  34.97800 51.94200 28.10600
C  33.33300 52.32000 30.05900
C  36.28100 50.42700 31.15900
C  35.88600 49.71600 32.47000
H  34.47000 49.83600 33.04200
N  35.64500 52.27200 25.02400
C  34.99900 53.20600 25.84500
C  34.60200 54.40100 25.09400
C  35.01300 54.21700 23.76500
C  35.62000 52.82900 23.74800
C  33.89800 55.54100 25.74500
C  34.83000 55.07500 22.54400
O  35.29900 54.90800 21.42200
C  34.17600 56.41100 22.80800
N  36.26300 49.77900 23.47200
C  36.25200 50.66000 22.42200
C  36.67000 49.99300 21.09200
C  37.29200 48.66700 21.50200
C  36.80300 48.63500 23.01400
C  35.46500 49.98300 20.07500
C  38.84000 48.57100 21.37300
C  39.72300 49.29100 22.41500
N  36.34500 48.40100 25.94000
C  36.84100 47.32700 25.15900
C  37.01300 46.11500 25.97500
C  36.63000 46.50700 27.23700
C  36.23200 47.91700 27.20600
C  37.50900 44.81500 25.43700
C  36.50600 46.04800 28.61800
O  36.77000 44.95100 29.10400
C  36.17400 47.29000 29.48500
C  35.01500 46.82900 30.29800
O  33.81000 47.05700 29.96800
O  35.33100 46.12000 31.41900
C  34.24000 45.50600 32.23400
H  34.19700 53.80900 27.66400
H  35.95900 52.61400 21.66400
H  37.44900 46.58900 23.24100
H  34.31200 49.95900 30.43400
H  35.44700 52.65600 29.99300
H  32.79800 52.73400 29.20400
H  33.36700 53.15200 30.76200
H  32.67900 51.49900 30.35300
H  36.72200 51.40600 31.34900
H  37.07900 49.85000 30.69200
H  36.54200 50.05500 33.27100
H  36.15000 48.68400 32.23400
H  33.79600 55.61100 26.82800
H  32.94100 55.65200 25.23400
H  34.29900 56.53800 25.56500
H  33.12300 56.32500 23.07800
H  34.30200 57.05200 21.93600
H  34.75400 56.93400 23.56900
H  37.37000 50.63900 20.56200
H  36.78500 47.82300 21.03500
H  34.57900 50.11000 20.69700
H  35.41900 49.00300 19.60000
H  35.47700 50.87700 19.45200
H  39.09100 49.03600 20.41900
H  39.07200 47.51200 21.25900
H  39.10800 49.86700 23.10700
H  40.48000 49.85600 21.87100
H  40.27500 48.55700 23.00100
H  38.17300 45.13800 24.63500
H  36.60200 44.32700 25.07900
H  37.97500 44.13600 26.15100
H  37.00100 47.55500 30.14300
H  33.62200 44.90200 31.57000
H  33.71000 46.38400 32.60200
H  34.58700 44.82200 33.00800

