158

Mg 30.44700 57.46600 40.53800
C  27.67500 55.67100 39.58700
C  32.44600 55.01900 39.30300
C  33.07300 59.73500 40.35600
C  28.27300 60.32000 41.14700
N  30.01000 55.61500 39.34700
C  28.87400 55.00700 39.22200
C  29.05600 53.63700 38.54600
C  30.57000 53.32100 38.93700
C  31.05200 54.74100 39.22700
C  30.79400 52.33500 40.13600
C  28.71300 53.76000 37.01900
C  27.52500 52.96700 36.46600
H  26.57600 53.59600 35.46600
N  32.48900 57.38500 40.05700
C  33.09300 56.22700 39.67400
C  34.50300 56.44600 39.72900
C  34.74100 57.78800 40.07000
C  33.42700 58.41100 40.18700
C  35.54200 55.38500 39.28000
C  36.12700 58.44400 40.09100
O  37.14300 57.90400 39.66200
C  36.31300 59.77600 40.74400
N  30.59800 59.79300 40.64500
C  31.83900 60.39700 40.66300
C  31.68000 61.86500 41.10000
C  30.12200 61.99600 41.37000
C  29.63100 60.60300 41.05600
C  32.53800 62.31900 42.28200
C  29.43600 62.98500 40.52000
C  28.34300 63.81000 41.10100
N  28.34000 57.86300 40.61800
C  27.62800 59.10400 40.88100
C  26.22600 58.76600 40.82400
C  26.14200 57.42900 40.30300
C  27.49000 56.92400 40.18100
C  25.12100 59.70000 40.97300
C  25.32800 56.28300 39.81200
O  24.16300 56.23800 39.65100
C  26.25200 55.12900 39.44500
C  25.80500 54.02800 40.28900
O  25.85100 53.91300 41.47200
O  25.33200 53.07500 39.54500
C  24.82400 51.83900 40.05100
H  33.09300 54.17300 39.06400
H  33.88500 60.45900 40.45500
H  27.60500 61.12300 41.46300
H  28.39300 52.91800 39.02600
H  30.99200 52.86000 38.04400
H  31.51900 52.71300 40.85700
H  31.37500 51.48600 39.77500
H  29.90100 52.18000 40.74300
H  29.65900 53.49600 36.54700
H  28.43200 54.77600 36.74000
H  26.90300 52.56700 37.26600
H  27.95400 52.08700 35.98700
H  35.95800 55.62300 38.30000
H  35.07600 54.40000 39.27900
H  36.33000 55.28900 40.02600
H  35.53300 59.79800 41.50500
H  36.18500 60.51800 39.95600
H  37.32600 59.87300 41.13400
H  31.90400 62.60000 40.32600
H  29.90200 62.21100 42.41500
H  32.08500 62.54800 43.24600
H  32.98400 63.27100 41.99400
H  33.34300 61.60900 42.47300
H  28.99800 62.53500 39.62900
H  30.13900 63.69800 40.09000
H  28.03800 63.40500 42.06600
H  27.50500 63.84500 40.40500
H  28.61500 64.83000 41.37400
H  24.37000 59.13800 41.52900
H  24.89800 60.05000 39.96500
H  25.53200 60.52400 41.55500
H  26.01900 54.86800 38.41300
H  23.75600 51.63500 39.97700
H  25.02700 51.66900 41.10900
H  25.28200 50.99100 39.54300
Mg 0.53400 42.45700 26.23900
C  1.83300 42.41800 29.51700
C  -2.28400 41.12700 27.37800
C  -0.21500 41.64800 23.11200
C  3.97800 43.09800 25.15500
N  -0.06300 41.77800 28.17100
C  0.48100 42.02600 29.40300
C  -0.45400 41.87200 30.58500
C  -1.72900 41.21800 29.89800
C  -1.38600 41.36300 28.37400
C  -1.97400 39.66400 30.15300
C  -0.80800 43.29800 31.21600
C  -0.50000 43.49400 32.75000
H  -0.71000 42.37500 33.74700
N  -1.14400 41.71900 25.34100
C  -2.26400 41.20600 26.00900
C  -3.28300 40.94100 25.00700
C  -2.61000 41.01200 23.70500
C  -1.27300 41.49500 23.97800
C  -4.69300 40.50300 25.46300
C  -3.22700 40.55800 22.34000
O  -2.59300 40.71300 21.33000
C  -4.71100 40.24300 22.30600
N  1.79700 42.27600 24.44700
C  1.13700 42.05700 23.27000
C  2.05700 42.37200 22.08800
C  3.22900 43.21100 22.71800
C  2.98300 42.87000 24.22300
C  2.32800 41.11200 21.17700
C  3.27200 44.81200 22.45700
C  4.11600 45.16700 21.21400
N  2.50700 42.76300 27.13200
C  3.76000 43.11100 26.56100
C  4.74400 43.17400 27.62500
C  4.07100 42.94200 28.84500
C  2.69700 42.68400 28.44400
C  6.19900 43.43300 27.54700
C  4.16900 42.88000 30.26800
O  5.13000 43.03600 31.03000
C  2.68500 42.68900 30.71900
C  2.83900 41.56600 31.64300
O  3.00200 40.39100 31.30300
O  3.01000 42.00700 32.95400
C  3.25000 40.94800 33.97400
H  -3.21000 40.80500 27.85800
H  -0.42300 41.33800 22.08600
H  4.95900 43.43400 24.81200
H  0.07300 41.28200 31.33500
H  -2.66900 41.74100 30.07600
H  -1.61900 39.35700 31.13700
H  -1.52600 39.04400 29.37700
H  -3.03800 39.44700 30.04800
H  -1.87600 43.44800 31.05200
H  -0.31800 44.09000 30.65000
H  -1.02300 44.37600 33.12000
H  0.57700 43.63700 32.82900
H  -4.88600 40.85900 26.47500
H  -4.66500 39.41300 25.47100
H  -5.54300 40.98700 24.98200
H  -4.93600 39.39900 22.95800
H  -4.97600 39.88000 21.31300
H  -5.32500 41.08000 22.63800
H  1.58000 43.13500 21.47400
H  4.15200 42.72100 22.40900
H  1.99700 40.27000 21.78500
H  3.37700 41.05700 20.88500
H  1.78800 41.21800 20.23600
H  3.55100 45.41400 23.32200
H  2.27200 45.09000 22.12200
H  3.53500 45.73300 20.48600
H  4.56400 44.26500 20.79700
H  4.88300 45.83900 21.59900
H  6.38100 44.48900 27.74500
H  6.65500 43.12300 26.60600
H  6.77400 42.87400 28.28600
H  2.33600 43.56400 31.26700
H  2.92700 39.96700 33.62500
H  2.66300 41.07300 34.88400
H  4.29600 40.79100 34.23700

