158

Mg 40.75000 9.00800 29.32000
C  42.64800 10.26800 32.14900
C  38.52500 7.89200 31.62300
C  38.96800 7.91700 26.88200
C  43.43900 9.89900 27.30800
N  40.70000 9.04400 31.63900
C  41.44400 9.69600 32.56500
C  40.82300 9.58900 33.95700
C  39.56500 8.73300 33.80500
C  39.60400 8.56000 32.22600
C  39.50000 7.44000 34.59400
C  40.53800 10.95000 34.71700
C  39.77000 11.00600 36.03500
H  40.65100 11.33300 37.29000
N  38.95600 8.01900 29.26300
C  38.21000 7.67500 30.33700
C  36.97900 7.00600 29.83300
C  37.07600 7.03800 28.41100
C  38.36500 7.66200 28.09000
C  35.84900 6.38600 30.74500
C  36.08400 6.55000 27.38600
O  36.43800 6.46700 26.21900
C  34.62800 6.12900 27.79800
N  41.19300 8.88900 27.39100
C  40.22300 8.44300 26.53600
C  40.60600 8.65000 25.02400
C  41.99900 9.30100 25.20800
C  42.29100 9.29100 26.75600
C  40.65000 7.36600 24.13700
C  42.01600 10.66300 24.45600
C  42.06900 11.96200 25.22100
N  42.67800 9.86500 29.59600
C  43.63900 10.21100 28.67800
C  44.70000 10.97400 29.22000
C  44.37500 11.00000 30.62800
C  43.08200 10.43200 30.78100
C  45.84000 11.52500 28.45100
C  44.82500 11.42800 32.04200
O  45.86300 11.98500 32.39600
C  43.62300 11.04200 33.03600
C  44.16900 10.29100 34.21900
O  44.24300 9.09700 34.37400
O  44.63100 11.21000 35.12500
C  45.24800 10.59800 36.34200
H  37.72400 7.70600 32.34100
H  38.44900 7.65100 25.95900
H  44.23200 10.19600 26.61900
H  41.56600 9.01200 34.50700
H  38.69600 9.35200 34.02500
H  40.45900 7.24200 35.07400
H  39.31900 6.66700 33.84700
H  38.69000 7.45900 35.32300
H  39.98600 11.60900 34.04600
H  41.56900 11.24300 34.91300
H  39.19400 10.10300 36.23900
H  39.10700 11.86000 35.90100
H  34.97200 6.98300 30.49600
H  36.14900 6.38900 31.79300
H  35.69600 5.37900 30.35700
H  34.03400 5.88900 26.91500
H  34.14200 6.94700 28.33000
H  34.65500 5.30200 28.50700
H  39.88800 9.39000 24.66900
H  42.75400 8.69500 24.70700
H  39.92300 7.41700 23.32700
H  40.38600 6.53900 24.79600
H  41.66200 7.24300 23.74900
H  41.16800 10.64900 23.77200
H  42.93800 10.62800 23.87500
H  41.38800 11.96700 26.07200
H  41.68300 12.66400 24.48200
H  43.08800 12.27300 25.44800
H  46.20500 12.35900 29.05000
H  45.44300 11.76000 27.46400
H  46.65300 10.82300 28.26700
H  43.15100 11.92300 33.47100
H  44.59600 10.09800 37.05900
H  45.71900 11.45800 36.81800
H  46.06800 9.92700 36.08700
Mg 9.98100 47.36900 26.02800
C  8.02700 47.33500 28.92900
C  12.63300 48.77900 27.97200
C  11.92200 47.56600 23.29000
C  7.09600 46.86600 24.14100
N  10.18000 48.01200 28.12000
C  9.35000 47.71700 29.11600
C  9.84000 48.35100 30.37200
C  11.12700 49.12100 30.02900
C  11.34200 48.55300 28.62300
C  11.02100 50.67300 30.08100
C  10.10500 47.31400 31.56300
C  9.74500 47.69100 33.01300
H  9.87900 46.60000 34.07000
N  12.02800 47.96400 25.67700
C  12.92600 48.47800 26.64100
C  14.29000 48.43400 25.97200
C  14.09500 48.09800 24.57400
C  12.61000 47.90100 24.45300
C  15.59500 48.78100 26.76500
C  15.24300 47.75900 23.52600
O  14.98600 47.45300 22.34300
C  16.68800 47.82500 23.94200
N  9.51900 47.28800 24.01300
C  10.55500 47.24700 23.09400
C  10.01900 47.07900 21.65300
C  8.50100 46.67700 21.92400
C  8.34300 46.99500 23.46200
C  10.35600 48.31000 20.78000
C  8.21800 45.21800 21.57500
C  8.47900 44.13800 22.68600
N  7.90100 47.03600 26.43500
C  6.86500 46.87100 25.57000
C  5.65600 46.77900 26.36800
C  6.04800 46.87700 27.69100
C  7.46800 47.06400 27.69900
C  4.25300 46.64900 25.80700
C  5.59100 46.88600 29.08600
O  4.43800 46.65300 29.55800
C  6.90900 47.27500 29.91200
C  7.15800 46.13300 30.82400
O  7.72500 45.13300 30.48300
O  6.58700 46.42400 32.05600
C  6.50200 45.24200 32.89200
H  13.44200 49.13800 28.61200
H  12.47700 47.50800 22.35200
H  6.20000 46.74500 23.52900
H  9.06200 49.04000 30.70000
H  12.00400 48.82600 30.60600
H  11.41400 51.06100 29.14200
H  11.52500 51.12600 30.93500
H  10.02000 51.09000 30.18700
H  11.19100 47.23100 31.59700
H  9.75800 46.30200 31.35600
H  8.70100 48.00400 33.05100
H  10.41200 48.52800 33.21600
H  15.40200 48.94000 27.82600
H  15.86200 49.74500 26.33200
H  16.32700 47.97900 26.67200
H  16.72000 46.89300 24.50600
H  16.84300 48.71600 24.54900
H  17.50200 47.91800 23.22400
H  10.50900 46.21500 21.20400
H  7.74400 47.28500 21.42900
H  10.76300 49.12900 21.37300
H  9.49800 48.83400 20.35800
H  11.11600 48.05700 20.04100
H  8.75800 44.91000 20.68000
H  7.14400 45.08800 21.44000
H  8.93800 44.32700 23.65600
H  9.23300 43.49300 22.23500
H  7.55700 43.57200 22.81900
H  4.04300 45.59600 25.62100
H  4.27100 47.15100 24.84000
H  3.57000 47.17700 26.47400
H  6.82200 48.21300 30.46000
H  6.26900 44.36100 32.29500
H  5.62500 45.35500 33.53100
H  7.36500 45.28300 33.55600

