158

Mg 1.17300 -2.54100 44.50600
C  4.67100 -2.21200 43.62000
C  0.55500 0.10200 42.47400
C  -2.04400 -3.70700 44.20900
C  2.01000 -5.57900 46.06000
N  2.50700 -1.37300 43.07300
C  3.88000 -1.25100 42.99000
C  4.33600 -0.14800 41.99500
C  3.00600 0.71700 42.01700
C  1.92800 -0.25900 42.54900
C  3.03700 1.99300 42.86000
C  4.77900 -0.60400 40.54500
C  6.19000 -0.07400 40.10500
H  6.29500 0.73700 38.84700
N  -0.57500 -1.85000 43.62500
C  -0.59100 -0.67800 42.86500
C  -1.93900 -0.39400 42.44000
C  -2.77600 -1.44800 42.88700
C  -1.88200 -2.37700 43.64300
C  -2.36200 0.84600 41.53300
C  -4.27300 -1.57500 42.65000
O  -4.89900 -0.63800 42.13100
C  -5.02700 -2.81300 43.02100
N  0.13100 -4.35700 45.11300
C  -1.20600 -4.61800 44.89600
C  -1.66400 -5.98700 45.53300
C  -0.35400 -6.34700 46.35200
C  0.66900 -5.37000 45.81400
C  -2.98000 -5.92000 46.34800
C  0.04000 -7.86800 46.09900
C  0.60100 -8.55200 47.36800
N  2.91200 -3.67900 44.93400
C  3.11800 -4.85000 45.64500
C  4.55300 -5.20200 45.62300
C  5.15000 -4.13300 44.93700
C  4.11200 -3.26900 44.45400
C  5.31200 -6.36700 46.25600
C  6.47200 -3.57100 44.48900
O  7.61700 -3.89700 44.71800
C  6.18300 -2.43000 43.56500
C  6.89500 -1.21100 44.10400
O  6.47200 -0.40400 44.91500
O  8.03100 -1.01400 43.31500
C  8.98100 0.03200 43.72400
H  0.34500 1.06300 41.99900
H  -3.06800 -4.08400 44.21800
H  2.30100 -6.54200 46.48600
H  5.05900 0.43100 42.57000
H  2.73300 0.98400 40.99600
H  2.84500 2.81500 42.17100
H  4.01100 2.19200 43.30600
H  2.24600 2.09400 43.60400
H  4.11900 -0.22800 39.76300
H  4.76200 -1.69000 40.46400
H  6.98600 -0.79200 39.90900
H  6.58800 0.63100 40.83500
H  -3.32000 0.68200 41.03900
H  -1.62500 0.89300 40.73100
H  -2.55600 1.75300 42.10600
H  -4.36500 -3.62900 42.73200
H  -5.91300 -2.77200 42.38800
H  -5.21600 -2.91300 44.09000
H  -1.83700 -6.75000 44.77300
H  -0.51500 -6.11800 47.40500
H  -2.79000 -6.20800 47.38200
H  -3.66300 -6.70200 46.01400
H  -3.49300 -4.97400 46.17400
H  0.79900 -7.82800 45.31900
H  -0.89900 -8.35800 45.84200
H  0.00200 -9.36200 47.78300
H  0.64800 -7.84600 48.19800
H  1.52100 -9.05100 47.06600
H  4.59900 -6.82600 46.94000
H  6.28300 -6.17100 46.71000
H  5.42200 -7.10400 45.46000
H  6.51900 -2.66400 42.55400
H  9.86300 -0.51300 44.06100
H  8.55700 0.75500 44.42100
H  9.33800 0.55400 42.83600
Mg 23.86300 -5.04100 45.18300
C  25.78300 -2.53200 43.71500
C  21.29500 -4.15900 43.11600
C  22.31100 -7.96700 45.90100
C  26.90500 -6.32800 46.66400
N  23.63000 -3.58200 43.52300
C  24.49200 -2.62200 43.14200
C  23.87700 -1.59400 42.15000
C  22.38700 -2.02700 42.15500
C  22.42500 -3.36900 43.01100
C  21.43100 -0.99700 42.76800
C  24.55600 -1.69000 40.79100
C  24.14800 -0.66400 39.72300
H  24.52600 -0.97700 38.18900
N  22.01300 -5.92100 44.69100
C  21.12800 -5.35900 43.81200
C  19.97700 -6.32700 43.61600
C  20.25300 -7.46100 44.47400
C  21.55300 -7.14600 45.08200
C  18.82300 -5.97800 42.71600
C  19.32500 -8.60400 44.68100
O  18.32800 -8.68100 44.00600
C  19.53200 -9.70500 45.70800
N  24.50500 -6.80400 46.25700
C  23.63600 -7.84800 46.38000
C  24.28200 -8.98700 47.21900
C  25.69400 -8.44400 47.50100
C  25.77800 -7.21200 46.66700
C  23.35500 -9.26400 48.47200
C  26.91800 -9.41000 47.05400
C  28.09100 -9.55900 47.98500
N  25.89200 -4.49100 45.31900
C  26.94200 -5.07300 46.05200
C  28.07600 -4.13200 46.01400
C  27.73900 -3.13700 45.07100
C  26.33300 -3.43600 44.67600
C  29.50400 -4.28300 46.75700
C  28.18700 -1.93400 44.37400
O  29.22900 -1.34200 44.45000
C  26.95000 -1.51000 43.47100
C  26.61500 -0.16200 43.86600
O  25.79500 0.14200 44.71000
O  27.45200 0.74100 43.24300
C  27.19900 2.12400 43.58300
H  20.44400 -3.92500 42.47400
H  21.81500 -8.88000 46.23600
H  27.75900 -6.76800 47.18500
H  23.98500 -0.55800 42.47200
H  22.12700 -2.29900 41.13200
H  21.43300 0.03500 42.41600
H  21.46600 -0.90100 43.85400
H  20.43600 -1.40900 42.60200
H  24.34900 -2.71900 40.49500
H  25.55500 -1.33500 41.03900
H  24.87700 0.13000 39.88500
H  23.18500 -0.16900 39.84300
H  18.99300 -6.39600 41.72400
H  18.69100 -4.89800 42.64900
H  17.90600 -6.36500 43.16100
H  18.77500 -10.46500 45.89800
H  19.61800 -9.21600 46.67900
H  20.41100 -10.30600 45.47500
H  24.21900 -9.94700 46.70600
H  25.70000 -8.26900 48.57600
H  22.47100 -8.62600 48.50700
H  23.89200 -9.06600 49.40000
H  23.08800 -10.30800 48.63900
H  27.29600 -9.04800 46.09800
H  26.50000 -10.39000 46.82200
H  28.25100 -10.62200 48.16300
H  27.90400 -9.14500 48.97600
H  28.99100 -9.13500 47.54000
H  30.32100 -4.43200 46.05200
H  29.38000 -5.07000 47.50000
H  29.75500 -3.37200 47.30100
H  27.36100 -1.64100 42.47000
H  26.27500 2.36600 43.05700
H  28.05300 2.68000 43.19800
H  27.27300 2.30200 44.65600

