158

Mg 47.50400 25.31400 28.51700
C  48.46500 27.61700 31.06700
C  46.50000 23.18300 30.74100
C  47.21700 23.04200 25.86300
C  48.54700 27.74300 26.15500
N  47.61800 25.34600 30.62700
C  47.98900 26.37000 31.49200
C  47.64000 26.10400 32.95300
C  47.00100 24.63200 32.78200
C  47.05700 24.36700 31.30300
C  47.68600 23.45000 33.54200
C  46.63200 27.13800 33.54500
C  46.92100 27.81000 34.89200
H  45.73500 28.00900 35.82400
N  46.91400 23.47300 28.37000
C  46.52300 22.74700 29.42100
C  46.11700 21.42800 29.10100
C  46.24700 21.32900 27.66000
C  46.80400 22.65400 27.15700
C  45.58900 20.33200 29.97500
C  45.71300 20.25300 26.75600
O  45.87500 20.39400 25.59200
C  44.87500 19.08600 27.30400
N  47.86600 25.36900 26.36600
C  47.56800 24.32600 25.51200
C  47.96300 24.71500 24.06800
C  48.09900 26.22900 24.20300
C  48.14700 26.48000 25.67200
C  49.24700 23.91500 23.61400
C  46.99200 27.10000 23.52800
C  47.56300 28.25100 22.70500
N  48.19900 27.32200 28.51800
C  48.68300 28.15400 27.51300
C  49.24800 29.35800 28.05800
C  49.13400 29.18300 29.43400
C  48.56200 27.93900 29.68800
C  49.87100 30.44200 27.16700
C  49.48500 29.79600 30.69200
O  50.06900 30.83500 30.86000
C  49.10200 28.78000 31.81300
C  50.27800 28.47000 32.72300
O  51.28400 27.90200 32.28800
O  50.11300 29.14800 33.93300
C  51.30100 29.14000 34.80200
H  46.20200 22.38200 31.42000
H  46.97000 22.36300 25.04500
H  48.79800 28.48700 25.39600
H  48.49000 25.95300 33.61800
H  45.96400 24.48200 33.08100
H  48.56400 23.01900 33.06000
H  46.93300 22.67000 33.65700
H  48.01100 23.77600 34.53000
H  45.69300 26.58700 33.59400
H  46.38000 27.99600 32.92200
H  47.38400 28.78200 34.72600
H  47.55400 27.07800 35.39600
H  44.53400 20.08300 29.86500
H  45.82100 20.57300 31.01300
H  46.29900 19.57800 29.63500
H  44.63000 18.53500 26.39600
H  43.91600 19.47000 27.65100
H  45.44800 18.41900 27.94900
H  47.12200 24.43400 23.43400
H  49.07000 26.53100 23.81200
H  50.01400 24.52400 23.13800
H  48.90500 23.09600 22.98100
H  49.73800 23.40600 24.44400
H  46.41900 27.50700 24.36100
H  46.25100 26.58300 22.91800
H  48.29100 27.83700 22.00800
H  47.80200 29.14300 23.28400
H  46.77600 28.47200 21.98300
H  49.43300 30.56300 26.17700
H  50.95200 30.34000 27.07200
H  49.83300 31.40900 27.67000
H  48.19900 29.15000 32.29800
H  52.19500 29.33600 34.21200
H  51.48700 28.16500 35.25400
H  51.01200 29.96700 35.45100
Mg -12.15300 38.53500 41.59000
C  -9.62600 36.26000 40.94500
C  -10.41500 40.92100 39.82200
C  -14.81200 40.64000 41.84200
C  -14.22300 35.97000 42.74000
N  -10.42600 38.48600 40.13000
C  -9.47200 37.48000 40.19200
C  -8.19100 37.87900 39.53700
C  -8.47300 39.40900 39.13500
C  -9.83700 39.67400 39.75700
C  -7.25700 40.33700 39.50400
C  -7.72700 36.95100 38.35400
C  -6.27900 36.40500 38.43400
H  -5.50900 36.44400 37.09500
N  -12.56600 40.53800 40.87700
C  -11.65900 41.38400 40.24100
C  -12.33800 42.61100 39.88800
C  -13.58500 42.61600 40.52700
C  -13.71700 41.19000 41.09400
C  -11.63000 43.75000 39.06800
C  -14.58200 43.79700 40.56600
O  -14.26400 44.86200 40.04600
C  -15.95300 43.76600 41.07400
N  -14.36300 38.24800 41.99100
C  -15.16300 39.32200 42.18200
C  -16.53900 38.90100 42.73300
C  -16.38400 37.28900 42.89500
C  -14.94800 37.12200 42.50400
C  -16.95000 39.65400 44.04000
C  -17.36300 36.39400 42.02600
C  -18.61500 35.92200 42.76100
N  -12.07000 36.44600 41.76500
C  -12.93400 35.56300 42.41700
C  -12.17500 34.32600 42.61900
C  -10.88500 34.58600 42.16500
C  -10.90000 35.81700 41.55600
C  -12.60800 33.17400 43.43500
C  -9.47500 34.08300 42.03500
O  -9.08200 32.98000 42.36100
C  -8.69000 35.08100 41.17600
C  -7.40600 35.37700 41.90900
O  -6.35900 34.74200 41.68300
O  -7.49700 36.49800 42.66600
C  -6.21900 36.88700 43.29400
H  -9.72800 41.67300 39.42800
H  -15.60900 41.31800 42.15600
H  -14.89500 35.21900 43.16100
H  -7.45200 37.81700 40.33600
H  -8.53500 39.47600 38.04900
H  -6.64500 39.78000 40.21400
H  -7.51800 41.35100 39.80600
H  -6.61000 40.55600 38.65400
H  -7.84000 37.60600 37.49000
H  -8.39900 36.13400 38.09200
H  -6.17700 35.40500 38.85700
H  -5.75600 37.02700 39.15900
H  -12.32200 44.26100 38.39900
H  -11.07800 43.22800 38.28600
H  -10.84700 44.31300 39.57700
H  -16.48800 42.96300 40.56700
H  -16.49500 44.70600 40.97600
H  -16.01100 43.46900 42.12100
H  -17.22000 39.16500 41.92400
H  -16.43300 37.06700 43.96100
H  -17.41500 40.59900 43.75700
H  -16.07000 39.91800 44.62600
H  -17.60200 39.06700 44.68700
H  -16.77600 35.51500 41.75900
H  -17.81800 37.00400 41.24500
H  -18.48600 36.22700 43.79900
H  -18.74100 34.85100 42.59800
H  -19.46800 36.40900 42.29000
H  -12.84800 32.27200 42.87100
H  -13.39000 33.43700 44.14700
H  -11.75300 32.94700 44.07200
H  -8.49500 34.57500 40.23100
H  -6.10400 36.03900 43.97000
H  -6.27600 37.71200 44.00400
H  -5.43300 36.99100 42.54700

