158

Mg 29.84700 57.67400 40.25400
C  27.11300 55.65300 39.15800
C  32.01600 55.34700 39.48100
C  32.32400 60.04900 40.59300
C  27.49500 60.04800 41.27800
N  29.59900 55.86400 39.28600
C  28.40900 55.13500 39.08800
C  28.70000 53.65700 38.65300
C  30.27000 53.64200 38.72400
C  30.67100 55.06800 39.22500
C  30.81300 52.49500 39.71100
C  28.01100 53.13100 37.42800
C  27.61100 54.07700 36.24100
H  28.38300 54.02100 34.97500
N  31.96400 57.66300 40.00300
C  32.66500 56.55500 39.77700
C  34.09300 56.78300 39.74100
C  34.25200 58.11000 40.18800
C  32.83000 58.72400 40.27400
C  35.08600 55.72100 39.44500
C  35.60400 58.79600 40.46900
O  36.64300 58.09700 40.41400
C  35.66000 60.15000 40.79600
N  29.80900 59.76700 40.80600
C  31.01400 60.50100 40.86200
C  30.69100 61.91600 41.30900
C  29.16100 61.86000 41.54900
C  28.75200 60.41900 41.28700
C  31.43200 62.38200 42.59500
C  28.44000 62.91200 40.71500
C  27.28800 63.73700 41.42500
N  27.66700 57.87700 40.18700
C  26.88700 58.92700 40.64800
C  25.56300 58.66300 40.39100
C  25.55300 57.34400 39.84100
C  26.87400 56.93000 39.74300
C  24.38200 59.51700 40.72700
C  24.71300 56.22600 39.34600
O  23.48900 56.20700 39.28000
C  25.66600 55.10800 38.87700
C  25.25400 53.78600 39.63500
O  25.70800 53.39500 40.70000
O  24.22400 53.18900 38.93500
C  23.82200 51.92500 39.52400
H  32.69500 54.50600 39.32900
H  33.11900 60.76700 40.80400
H  26.79500 60.74000 41.75200
H  28.33600 52.97800 39.42400
H  30.84500 53.34500 37.84700
H  30.94200 52.79400 40.75100
H  31.78100 52.22400 39.29000
H  30.15700 51.63100 39.81600
H  27.15100 52.54900 37.76000
H  28.73100 52.43200 37.00400
H  27.76100 55.09700 36.59300
H  26.54100 54.06500 36.03500
H  36.10400 56.09700 39.33700
H  34.97900 55.12500 38.53900
H  35.02300 54.97200 40.23400
H  36.74000 60.29200 40.76700
H  35.11500 60.30400 41.72800
H  35.21500 60.83400 40.07300
H  30.97600 62.56800 40.48300
H  28.91200 62.06200 42.59100
H  32.25900 61.69700 42.78300
H  30.76300 62.43700 43.45400
H  31.88700 63.36100 42.44300
H  27.85100 62.35700 39.98400
H  29.15900 63.58000 40.24100
H  27.42900 63.55900 42.49100
H  26.24900 63.48500 41.21400
H  27.46800 64.78600 41.19300
H  23.60400 58.80500 40.99900
H  24.04100 60.14000 39.90000
H  24.60000 59.98700 41.68600
H  25.58700 55.00900 37.79400
H  24.70700 51.28900 39.50600
H  23.08600 51.39000 38.92500
H  23.56200 52.09500 40.56900
Mg 1.96800 41.63000 25.22500
C  2.72200 41.77500 28.71600
C  -1.04800 40.36800 26.10000
C  1.49900 40.84600 21.97200
C  5.16300 42.95600 24.57200
N  1.02300 41.01200 27.18100
C  1.43800 41.24400 28.49100
C  0.33900 41.01600 29.52800
C  -0.81500 40.49500 28.66700
C  -0.28000 40.64700 27.20800
C  -1.30400 39.01600 28.91900
C  -0.01300 42.26200 30.42600
C  0.09500 41.86800 31.88800
H  -0.77100 40.76900 32.50500
N  0.44100 40.79200 24.16800
C  -0.74000 40.37700 24.69500
C  -1.62600 39.88500 23.57800
C  -0.88000 40.10600 22.38600
C  0.43800 40.55800 22.82800
C  -3.02100 39.23300 23.72300
C  -1.29500 39.82600 20.93400
O  -0.65300 40.24600 19.97300
C  -2.54300 39.14900 20.61300
N  3.25900 41.85000 23.47800
C  2.83600 41.36100 22.23600
C  3.81900 41.85300 21.17600
C  4.90400 42.72000 21.96900
C  4.42400 42.48800 23.41900
C  4.47900 40.67500 20.36800
C  4.88700 44.29100 21.47300
C  3.87500 45.26200 22.12300
N  3.64300 42.32700 26.39500
C  4.83400 42.90200 25.94100
C  5.66000 43.19200 27.09000
C  4.81000 42.70600 28.15800
C  3.61500 42.21500 27.72000
C  7.03600 43.72900 27.10900
C  4.89600 42.55100 29.59400
O  5.75700 42.84800 30.40300
C  3.54800 41.82200 29.94600
C  3.78700 40.53200 30.51600
O  4.43600 39.60300 29.94500
O  3.27900 40.43900 31.77500
C  3.47700 39.24100 32.60100
H  -2.00800 39.90100 26.33000
H  1.38600 40.75200 20.89000
H  6.08000 43.50000 24.33700
H  0.70200 40.16100 30.09900
H  -1.67000 41.14200 28.86800
H  -0.83400 38.54500 29.78200
H  -1.06400 38.39700 28.05500
H  -2.38300 39.05900 29.06600
H  -0.96100 42.75600 30.21000
H  0.61000 43.15300 30.33500
H  0.20200 42.79500 32.45200
H  1.07500 41.41200 32.02700
H  -3.73000 39.66800 23.01900
H  -3.32700 39.35500 24.76200
H  -2.99000 38.16000 23.53400
H  -3.41100 39.79400 20.75100
H  -2.61400 38.24400 21.21600
H  -2.43200 38.95900 19.54600
H  3.15600 42.48000 20.58000
H  5.90600 42.31600 21.82100
H  5.48900 40.49300 20.73700
H  4.46500 41.09000 19.36000
H  3.76700 39.86000 20.49800
H  4.73900 44.28600 20.39300
H  5.86000 44.73400 21.68500
H  3.33600 45.58700 21.23300
H  4.35600 46.08000 22.65800
H  3.20300 44.88500 22.89400
H  7.19700 44.15300 26.11800
H  7.74700 42.91100 27.22700
H  7.10300 44.46900 27.90800
H  3.07800 42.51000 30.64900
H  4.29900 39.64500 33.19300
H  3.67500 38.26500 32.15900
H  2.46600 39.14200 32.99700

