158

Mg 47.87100 24.83200 29.32300
C  48.38000 27.46000 31.80500
C  46.64500 22.89100 31.96300
C  47.46500 22.51600 27.13100
C  49.45400 26.93300 27.01000
N  47.69500 25.09700 31.67400
C  47.82600 26.29800 32.43000
C  47.29800 26.25200 33.87900
C  46.87500 24.70500 33.90000
C  47.00200 24.17400 32.42700
C  47.48500 23.77900 34.98700
C  46.10000 27.23400 34.23500
C  46.19700 27.83100 35.65700
H  47.05900 27.27500 36.75400
N  47.16400 22.91200 29.53400
C  46.61100 22.29800 30.63000
C  46.10900 21.04000 30.20100
C  46.26300 20.94500 28.79800
C  46.98900 22.14800 28.42900
C  45.61400 20.02100 31.16800
C  45.78900 19.85100 27.84800
O  45.84100 19.90900 26.64100
C  45.06600 18.57700 28.29200
N  48.69100 24.51500 27.43600
C  48.32500 23.48300 26.67200
C  48.78200 23.58400 25.20300
C  49.13900 25.12100 25.22200
C  49.12000 25.59600 26.66000
C  49.92900 22.65400 24.77900
C  48.29200 25.94900 24.17000
C  46.81200 26.01400 24.52400
N  48.79500 26.78000 29.32100
C  49.36900 27.46300 28.32500
C  49.79600 28.74400 28.74300
C  49.36100 28.84600 30.06300
C  48.80500 27.59200 30.42200
C  50.52500 29.79200 27.91700
C  49.23300 29.71400 31.20800
O  49.47900 30.87800 31.29000
C  48.59200 28.85500 32.35000
C  49.61800 28.90600 33.46700
O  50.74800 28.45800 33.35200
O  49.17600 29.47800 34.58700
C  50.24600 29.70400 35.61100
H  46.24800 22.33200 32.81400
H  47.34800 21.75500 26.35600
H  49.84400 27.43100 26.12000
H  48.10300 26.33700 34.60800
H  45.82800 24.58100 34.17600
H  48.45600 23.33400 34.76700
H  46.68100 23.06500 35.16500
H  47.49700 24.41700 35.87000
H  45.09500 26.81300 34.28100
H  46.13500 28.11100 33.59000
H  45.16300 27.97100 35.97200
H  46.52500 28.86500 35.55200
H  45.38100 20.56600 32.08300
H  46.30400 19.18200 31.25600
H  44.64400 19.56400 30.97400
H  45.82900 18.13900 28.93500
H  44.78100 17.95100 27.44700
H  44.24300 19.05800 28.82000
H  47.95900 23.45500 24.50000
H  50.15400 25.29900 24.86400
H  49.62700 22.12000 23.87800
H  50.12700 21.91900 25.55900
H  50.84300 23.17600 24.49800
H  48.44400 25.32700 23.28800
H  48.62700 26.97700 24.03300
H  46.72400 26.10700 25.60600
H  46.23700 25.22900 24.03100
H  46.44800 26.95900 24.12100
H  51.17400 30.33200 28.60600
H  49.88000 30.54900 27.47100
H  51.18500 29.30300 27.20100
H  47.72000 29.36500 32.75900
H  50.57000 28.80300 36.13200
H  50.04700 30.46700 36.36300
H  51.10200 30.16400 35.11700
Mg -12.01900 38.25300 42.14600
C  -10.01300 35.55600 41.51100
C  -9.59500 40.35200 40.77500
C  -14.20500 40.75200 42.38500
C  -14.59200 35.91800 42.88500
N  -10.06900 37.93600 41.15100
C  -9.52400 36.75000 40.95000
C  -8.15300 36.87700 40.29900
C  -7.86600 38.47300 40.29300
C  -9.24100 38.99600 40.74900
C  -6.66600 38.98300 41.14100
C  -8.01500 36.23700 38.84600
C  -6.62700 35.62900 38.56100
H  -5.87900 36.34500 37.41400
N  -11.87500 40.32000 41.74200
C  -10.81400 40.97000 41.26000
C  -11.03100 42.38600 41.28500
C  -12.36200 42.61100 41.64800
C  -12.90400 41.21700 41.93000
C  -10.06600 43.51200 40.86700
C  -13.09600 43.99100 41.69500
O  -12.59800 45.08500 41.36800
C  -14.52600 43.98000 42.18000
N  -14.17000 38.29100 42.38700
C  -14.76000 39.48900 42.63700
C  -16.23300 39.32100 43.10700
C  -16.30100 37.74500 43.18800
C  -14.94500 37.24400 42.70100
C  -16.66700 40.10100 44.36600
C  -17.52200 37.13900 42.37200
C  -18.37000 36.10200 43.14600
N  -12.30200 36.07600 42.31800
C  -13.32400 35.31300 42.73000
C  -12.90200 33.90200 42.88900
C  -11.54200 34.01200 42.45500
C  -11.25200 35.33300 42.08400
C  -13.62100 32.68800 43.42800
C  -10.39400 33.19200 42.24900
O  -10.18600 31.97800 42.43000
C  -9.32100 34.22300 41.64900
C  -8.20800 34.19500 42.61100
O  -8.13900 35.03400 43.45100
O  -7.24400 33.29000 42.38900
C  -5.99800 33.23000 43.23600
H  -8.83600 40.97300 40.29400
H  -14.94400 41.49100 42.70000
H  -15.35500 35.22500 43.24700
H  -7.42000 36.38800 40.93900
H  -7.78300 38.86800 39.28100
H  -6.04800 38.14700 41.46800
H  -6.87200 39.61100 42.00800
H  -6.00900 39.58300 40.51200
H  -8.30500 37.07300 38.21000
H  -8.79900 35.48400 38.93200
H  -6.76300 34.55200 38.46000
H  -6.02100 35.67500 39.46600
H  -9.11900 43.03700 40.60900
H  -10.01400 44.21600 41.69800
H  -10.53900 44.15200 40.12300
H  -15.06500 43.24300 41.58400
H  -14.88800 44.97800 41.93400
H  -14.68900 43.84800 43.25000
H  -16.83000 39.71600 42.28500
H  -16.37900 37.42400 44.22700
H  -15.89900 40.75200 44.78400
H  -17.13400 39.54800 45.18100
H  -17.47400 40.76000 44.04500
H  -17.17100 36.61400 41.48400
H  -18.22500 37.87800 41.98700
H  -17.95800 35.80800 44.11100
H  -18.62500 35.15500 42.67100
H  -19.31800 36.54600 43.45100
H  -14.70100 32.82100 43.35300
H  -13.46200 32.51100 44.49200
H  -13.25700 31.76100 42.98500
H  -9.01300 33.81300 40.68700
H  -5.08100 33.08100 42.66600
H  -6.06300 32.41300 43.95500
H  -5.93400 34.15300 43.81100

