158

Mg -2.32800 17.57900 25.50100
C  -2.62500 15.57600 28.42200
C  -3.36700 20.25900 27.66000
C  -2.06400 19.60400 22.89700
C  -2.06100 14.74800 23.65200
N  -2.85800 17.87200 27.85200
C  -2.94400 16.88100 28.79500
C  -3.48800 17.45100 30.11900
C  -4.12800 18.87300 29.65300
C  -3.38800 19.03800 28.33000
C  -5.63600 18.90800 29.50700
C  -2.44100 17.67800 31.25800
C  -2.94200 17.54100 32.69200
H  -2.20600 16.60200 33.61600
N  -2.47600 19.58500 25.33400
C  -2.93900 20.52500 26.29500
C  -2.97700 21.80600 25.70000
C  -2.41700 21.68200 24.35100
C  -2.27000 20.24700 24.18100
C  -3.31300 23.09200 26.39900
C  -2.04500 22.82900 23.31700
O  -1.67700 22.55000 22.23000
C  -2.12400 24.20000 23.72300
N  -2.33100 17.24700 23.50100
C  -2.09000 18.23500 22.61400
C  -1.92400 17.65000 21.18100
C  -1.62300 16.09300 21.49000
C  -2.06700 16.03500 22.98000
C  -3.17200 18.02700 20.25200
C  -0.09500 15.72700 21.30500
C  0.89400 16.51100 22.26300
N  -2.25100 15.62400 25.89500
C  -2.14600 14.58000 25.05200
C  -2.01200 13.33800 25.80100
C  -2.08400 13.75000 27.15500
C  -2.34700 15.16300 27.09400
C  -1.86800 11.93200 25.29400
C  -2.14400 13.28200 28.51200
O  -2.08500 12.12800 28.91500
C  -2.32700 14.48900 29.37500
C  -1.06100 14.71200 30.20500
O  -0.10100 15.43700 29.92000
O  -1.00000 13.88200 31.29600
C  0.26700 13.90100 31.98000
H  -3.50700 21.15200 28.27300
H  -1.78100 20.13400 21.98500
H  -1.79600 13.93600 22.97200
H  -4.28200 16.75500 30.39200
H  -3.92400 19.67100 30.36700
H  -6.08800 18.08500 30.06100
H  -5.92200 19.00800 28.46000
H  -5.91100 19.83400 30.01200
H  -2.04600 18.69200 31.20900
H  -1.56100 17.04500 31.15100
H  -3.91900 17.11100 32.46800
H  -3.15200 18.55800 33.02300
H  -2.46400 23.77600 26.38600
H  -3.54000 22.93300 27.45300
H  -4.23900 23.59400 26.11800
H  -1.80000 24.86800 22.92600
H  -1.36100 24.42100 24.47000
H  -3.12800 24.45800 24.06100
H  -1.01000 18.13900 20.84400
H  -2.27900 15.37700 20.99600
H  -2.83600 18.80700 19.56900
H  -3.99300 18.47900 20.81000
H  -3.57800 17.19000 19.68300
H  0.28800 16.01200 20.32600
H  0.13000 14.66500 21.40500
H  1.42000 17.28300 21.70200
H  1.64100 15.82600 22.66500
H  0.36400 16.88000 23.14100
H  -1.69000 12.01900 24.22200
H  -2.80400 11.42200 25.52500
H  -1.02200 11.45400 25.78700
H  -3.20700 14.27300 29.98000
H  0.32700 14.82000 32.56200
H  1.06900 13.90100 31.24200
H  0.40300 13.02900 32.62000
Mg -5.89000 24.86600 26.24000
C  -4.37600 26.57000 28.98400
C  -7.14100 22.64600 28.70500
C  -7.44200 23.42400 23.84900
C  -4.10700 27.02200 24.00800
N  -5.81400 24.63800 28.58300
C  -5.27100 25.57800 29.43200
C  -5.51400 25.19600 30.93300
C  -6.16200 23.70200 30.80500
C  -6.46100 23.63800 29.27500
C  -5.22700 22.56400 31.14800
C  -6.15300 26.28400 31.82100
C  -7.25600 25.79100 32.77100
H  -6.91800 24.81600 33.98800
N  -7.09800 23.21900 26.24200
C  -7.47500 22.42600 27.32400
C  -8.25100 21.33000 26.84200
C  -8.51200 21.58900 25.45400
C  -7.63500 22.75700 25.09600
C  -8.78300 20.20400 27.78700
C  -9.41800 20.90700 24.56500
O  -9.54300 21.11500 23.37000
C  -10.33600 19.77400 25.16200
N  -5.76500 25.16600 24.22200
C  -6.53100 24.40600 23.42300
C  -6.39700 24.96700 21.95300
C  -5.60900 26.28500 22.07300
C  -5.10700 26.14000 23.51300
C  -5.86800 23.92800 20.91900
C  -6.52400 27.56000 21.91800
C  -6.96500 27.95700 20.51100
N  -4.49000 26.46600 26.42200
C  -3.83900 27.17200 25.41000
C  -2.88300 27.98400 26.02500
C  -3.04900 27.86500 27.41600
C  -4.01200 26.85900 27.62200
C  -2.02300 28.97900 25.38600
C  -2.62800 28.37700 28.69100
O  -1.85500 29.32200 28.90600
C  -3.48500 27.56000 29.76600
C  -2.52900 26.82600 30.71500
O  -2.00100 25.80600 30.33600
O  -2.47600 27.45400 31.95800
C  -1.95400 26.62500 33.04700
H  -7.53200 21.93500 29.43600
H  -8.04100 22.94800 23.07000
H  -3.66400 27.81800 23.40500
H  -4.51300 25.06600 31.34400
H  -7.12700 23.53400 31.28200
H  -4.36100 22.78000 31.77300
H  -4.95000 21.94100 30.29800
H  -5.85000 21.93100 31.78000
H  -6.64700 27.03500 31.20400
H  -5.40700 26.83400 32.39500
H  -8.06500 25.34700 32.19300
H  -7.65300 26.69300 33.23700
H  -9.76400 20.52200 28.13700
H  -8.14200 20.24600 28.66800
H  -8.72400 19.23500 27.29000
H  -9.65900 18.92100 25.21000
H  -11.11800 19.75200 24.40200
H  -10.72800 20.10000 26.12500
H  -7.37900 25.28700 21.60500
H  -4.73400 26.49500 21.45700
H  -4.77800 23.94800 20.89900
H  -6.33600 24.01600 19.93800
H  -6.11100 22.92200 21.25900
H  -5.92800 28.41300 22.24100
H  -7.42700 27.46900 22.52000
H  -8.01400 27.72200 20.33500
H  -6.37600 27.50600 19.71200
H  -6.90800 29.04300 20.43200
H  -2.60400 29.72600 24.84400
H  -1.38300 28.35800 24.75900
H  -1.21800 29.45600 25.94500
H  -4.07800 28.33200 30.25600
H  -2.01100 25.54100 32.95200
H  -2.53500 26.83300 33.94600
H  -0.91000 26.85800 33.25400

