158

Mg 40.70500 9.89400 30.04500
C  42.56300 11.10300 32.68300
C  38.23200 8.79300 32.12300
C  39.12200 8.54200 27.49700
C  43.36300 10.82900 27.83400
N  40.49100 9.84500 32.19200
C  41.33700 10.48800 33.04400
C  40.65000 10.55900 34.49500
C  39.34100 9.73700 34.26000
C  39.35300 9.41700 32.83500
C  39.20900 8.42500 35.06400
C  40.28400 11.96700 34.94200
C  39.95200 12.06600 36.42400
H  40.91500 12.90000 37.34500
N  38.96000 8.64400 29.85600
C  38.04100 8.41000 30.83800
C  36.86000 7.87200 30.31500
C  37.13400 7.67600 28.90000
C  38.46900 8.24700 28.68900
C  35.69300 7.29700 31.20100
C  36.29500 7.07800 27.76700
O  36.72900 6.90000 26.58500
C  34.92000 6.60100 28.17500
N  41.20400 9.79600 27.93700
C  40.32800 9.11900 27.16500
C  40.81500 9.14000 25.70600
C  42.15300 10.00900 25.74500
C  42.31000 10.13100 27.24500
C  41.11500 7.66000 25.16000
C  41.89100 11.46700 25.23400
C  40.60200 12.25400 25.60500
N  42.60200 10.78500 30.20100
C  43.48500 11.15400 29.25700
C  44.59200 11.79800 29.84100
C  44.21200 11.95000 31.21100
C  43.03600 11.19300 31.35600
C  45.93300 12.21000 29.20800
C  44.66900 12.49100 32.46000
O  45.63000 13.12700 32.76900
C  43.45900 12.03400 33.48500
C  44.11200 11.33100 34.54200
O  44.86300 10.36700 34.46500
O  43.71100 11.83500 35.72500
C  44.06400 11.13900 36.92300
H  37.33600 8.54800 32.69700
H  38.67800 8.27300 26.53600
H  44.26000 11.06900 27.26000
H  41.27800 10.08600 35.25000
H  38.40000 10.28700 34.27400
H  38.14200 8.20500 35.08700
H  39.66300 8.64600 36.02900
H  39.80800 7.67000 34.55600
H  39.51000 12.29900 34.25100
H  41.15000 12.61900 34.83200
H  39.99500 11.07900 36.88600
H  38.93500 12.45600 36.43200
H  34.68900 7.37900 30.78400
H  35.69700 7.54500 32.26200
H  35.73600 6.20800 31.21700
H  35.08800 5.84700 28.94400
H  34.43200 6.13800 27.31700
H  34.39600 7.51600 28.45200
H  40.10200 9.59600 25.02000
H  42.96900 9.40900 25.34200
H  41.67200 7.03100 25.85400
H  41.61500 7.61900 24.19200
H  40.16800 7.13300 25.04400
H  42.04200 11.49500 24.15500
H  42.65300 12.19500 25.51300
H  40.18600 12.56400 24.64700
H  40.77000 13.11100 26.25600
H  39.89000 11.59100 26.09700
H  46.69300 12.43800 29.95600
H  45.79100 13.06700 28.54900
H  46.38500 11.43800 28.58500
H  43.15900 13.00000 33.89200
H  45.15300 11.13300 36.97000
H  43.70400 10.11800 36.79400
H  43.59400 11.50800 37.83400
Mg 26.94500 50.51400 26.24700
C  25.31300 51.47900 29.19000
C  29.59100 49.45800 28.39800
C  28.82300 49.81600 23.53200
C  24.44400 51.96900 24.40200
N  27.49700 50.60300 28.54200
C  26.46000 50.78400 29.49800
C  26.97000 50.30600 30.88400
C  28.46000 49.93200 30.59300
C  28.49100 49.96800 29.08300
C  29.54100 50.87600 31.16600
C  26.19700 49.08500 31.54500
C  25.44500 49.29700 32.85900
H  26.37100 49.47700 34.05800
N  28.93700 49.76700 26.02500
C  29.84300 49.29700 27.00300
C  31.08600 48.83600 26.37600
C  30.90800 49.05800 24.96600
C  29.51800 49.60400 24.81200
C  32.19900 48.22600 27.15000
C  31.80900 48.88500 23.80800
O  31.54300 49.19900 22.65900
C  33.29700 48.41100 24.09700
N  26.82400 50.98500 24.30400
C  27.59100 50.40600 23.29800
C  26.96300 50.58600 21.89600
C  25.53100 51.13900 22.28900
C  25.61500 51.37300 23.78500
C  27.78400 51.47900 20.91100
C  24.25000 50.48200 21.74400
C  23.29900 51.41700 20.96800
N  25.17700 51.57300 26.70600
C  24.25400 52.07900 25.81800
C  23.13700 52.57300 26.49400
C  23.47900 52.42200 27.84700
C  24.77800 51.77100 27.89800
C  21.92100 53.14600 25.85700
C  23.18100 52.64600 29.15800
O  22.23700 53.20900 29.58100
C  24.19000 51.99200 30.21900
C  24.74700 53.00800 31.17600
O  25.40800 53.99300 30.86900
O  24.29600 52.72600 32.45000
C  24.52000 53.81100 33.43300
H  30.34900 49.11100 29.10400
H  29.24800 49.43500 22.60100
H  23.66400 52.35000 23.74000
H  27.00400 51.12900 31.59800
H  28.67600 48.91200 30.91100
H  30.25200 50.41500 31.85200
H  29.13800 51.70700 31.74500
H  30.06500 51.30400 30.31200
H  26.89400 48.26400 31.71100
H  25.49200 48.64800 30.83800
H  24.85300 48.38600 32.94100
H  24.76200 50.14500 32.81400
H  32.13100 48.15400 28.23600
H  33.16200 48.71900 27.02200
H  32.24000 47.15500 26.95400
H  33.81400 49.34700 24.31000
H  33.80200 47.84600 23.31400
H  33.45400 47.88800 25.04000
H  26.94100 49.57800 21.48300
H  25.58300 52.10700 21.79100
H  28.53800 52.03300 21.47000
H  27.24300 52.21900 20.32200
H  28.30200 50.88200 20.16000
H  23.66600 50.12200 22.59100
H  24.55800 49.57900 21.21700
H  23.83900 51.64700 20.04900
H  23.09900 52.36700 21.46300
H  22.36400 50.90000 20.74900
H  21.70000 52.58500 24.94900
H  22.08000 54.18200 25.55600
H  21.15000 53.08500 26.62500
H  23.65200 51.23900 30.79500
H  24.76800 54.79400 33.03500
H  25.46600 53.52800 33.89600
H  23.77000 53.77100 34.22400

