158

Mg -1.10200 17.76700 26.85000
C  -1.66100 15.23600 29.40300
C  -1.74600 20.10800 29.30000
C  -0.50300 19.88000 24.47100
C  -1.27600 15.15500 24.52700
N  -1.75300 17.65000 29.11400
C  -1.69300 16.52400 29.94000
C  -2.18900 16.97300 31.38300
C  -2.23800 18.52700 31.27700
C  -1.91800 18.81500 29.80600
C  -3.57400 19.25600 31.63300
C  -1.18900 16.44400 32.53800
C  -1.20400 17.24800 33.89900
H  -0.72600 16.50200 35.11900
N  -1.02400 19.64400 26.87200
C  -1.31200 20.50900 27.96500
C  -1.16600 21.84200 27.58300
C  -0.81600 21.79600 26.18700
C  -0.72800 20.39500 25.79600
C  -1.32100 23.00600 28.59100
C  -0.56600 22.93300 25.29600
O  -0.07800 22.83700 24.21200
C  -0.91100 24.28800 25.68600
N  -1.09300 17.58400 24.74900
C  -0.63200 18.60000 24.02800
C  -0.50200 18.14000 22.53200
C  -0.53000 16.60500 22.65000
C  -1.00900 16.40700 24.04300
C  -1.60700 18.75300 21.62500
C  0.85400 15.96000 22.29700
C  1.99900 16.12000 23.30600
N  -1.39600 15.68800 26.89900
C  -1.46200 14.77300 25.87300
C  -1.70500 13.47100 26.35500
C  -1.64000 13.56900 27.74900
C  -1.57100 14.94400 28.05800
C  -1.89300 12.22400 25.52200
C  -1.82700 12.78500 28.96300
O  -2.07600 11.62100 29.19100
C  -1.79600 13.90800 30.13500
C  -0.62500 13.56400 30.91100
O  0.52000 13.69100 30.43500
O  -0.93600 13.03000 32.13300
C  0.21100 12.82200 33.07300
H  -1.78100 20.78900 30.15300
H  -0.24400 20.60400 23.69500
H  -1.37900 14.31200 23.84000
H  -3.15200 16.47100 31.47900
H  -1.47400 19.00900 31.88700
H  -4.15600 18.56100 32.23700
H  -4.08100 19.50500 30.70100
H  -3.22400 20.16500 32.12100
H  -0.18100 16.22500 32.18700
H  -1.60000 15.47800 32.83000
H  -2.11800 17.79400 34.13300
H  -0.46600 18.02700 33.70700
H  -0.52300 23.74100 28.48800
H  -1.28300 22.77100 29.65500
H  -2.27100 23.53500 28.50200
H  -1.92400 24.35000 26.08500
H  -0.84600 25.05800 24.91700
H  -0.15400 24.60900 26.40000
H  0.36400 18.38700 21.91800
H  -1.18500 16.05400 21.97500
H  -2.08500 17.92000 21.10900
H  -1.28400 19.53900 20.94200
H  -2.36800 19.19400 22.26900
H  1.15900 16.51700 21.41100
H  0.79600 14.88800 22.10700
H  1.74400 15.67100 24.26600
H  2.19100 17.16800 23.53600
H  2.95800 15.69000 23.01800
H  -0.95900 11.82700 25.12500
H  -2.56800 12.50000 24.71200
H  -2.38000 11.43300 26.09200
H  -2.72500 13.90800 30.70600
H  1.09500 13.41100 32.82800
H  0.44400 11.76600 33.20800
H  -0.13500 13.26800 34.00600
Mg 36.37900 49.43100 26.20300
C  36.78900 47.12000 28.86700
C  35.52100 51.76400 28.33200
C  35.58600 51.25900 23.56700
C  36.90200 46.60200 23.96600
N  36.35000 49.44400 28.37000
C  36.46000 48.49100 29.21100
C  36.38200 49.01700 30.67600
C  35.52700 50.35700 30.46900
C  35.83300 50.55400 28.94900
C  34.05500 50.07600 30.59200
C  37.74400 49.36600 31.26800
C  37.89400 49.15900 32.73500
H  37.57700 50.32300 33.62800
N  35.75500 51.29900 25.97300
C  35.53800 52.13600 26.96800
C  35.11200 53.43100 26.46300
C  35.03500 53.32900 25.01000
C  35.51900 51.96300 24.79200
C  34.62500 54.63100 27.41200
C  34.56500 54.23200 23.97400
O  34.34200 53.83300 22.87200
C  34.27800 55.56600 24.38800
N  36.05000 48.86800 24.06400
C  35.85000 49.92700 23.21000
C  36.15000 49.55700 21.74100
C  36.74500 48.13700 21.90600
C  36.51300 47.77500 23.35200
C  34.88500 49.79300 20.75500
C  38.17000 47.94900 21.44900
C  38.34100 47.33300 20.04300
N  36.78600 47.31500 26.32100
C  36.95700 46.34700 25.32600
C  37.31400 45.13600 25.92800
C  37.21700 45.35600 27.32800
C  36.91700 46.69000 27.50600
C  37.62800 43.82400 25.25800
C  37.19500 44.73700 28.65000
O  37.40700 43.59100 28.98100
C  36.95400 45.91900 29.74700
C  35.63700 45.71100 30.45300
O  34.54600 45.60800 29.97200
O  35.92200 45.84300 31.78600
C  34.65700 46.03500 32.64400
H  35.23300 52.52900 29.05600
H  35.47700 51.75000 22.59800
H  37.20000 45.83200 23.25200
H  35.84900 48.35900 31.36300
H  35.77200 51.24500 31.05200
H  33.93500 49.30300 31.35000
H  33.57700 49.78100 29.65700
H  33.59800 50.98800 30.97600
H  38.18400 50.32500 30.99500
H  38.40800 48.63700 30.80300
H  38.89800 48.85300 33.02900
H  37.25700 48.34400 33.08000
H  34.31300 54.29600 28.40000
H  33.72700 55.15100 27.07900
H  35.49500 55.28600 27.47800
H  35.03000 55.93200 25.08600
H  33.26700 55.54600 24.79400
H  34.23200 56.16600 23.47800
H  36.89600 50.24000 21.33300
H  36.10700 47.50000 21.29400
H  34.05300 50.11700 21.38000
H  34.47800 48.89000 20.30000
H  35.12000 50.56400 20.02100
H  38.58700 47.21000 22.13300
H  38.66900 48.91600 21.51100
H  38.84000 46.36500 20.07300
H  38.91700 48.09600 19.51800
H  37.45100 47.25100 19.41900
H  38.04300 43.90000 24.25200
H  36.66800 43.31300 25.19100
H  38.37700 43.41300 25.93400
H  37.72100 45.98100 30.51900
H  34.84700 46.98300 33.14700
H  34.45600 45.27800 33.40300
H  33.71500 46.33000 32.18200

