158

Mg -2.16200 17.14500 26.18900
C  -2.50300 14.60700 28.72000
C  -3.19900 19.44300 28.60100
C  -1.88300 19.65700 24.02700
C  -1.87800 14.61200 23.86100
N  -2.62700 17.03600 28.30000
C  -2.55900 15.91000 29.18900
C  -2.80800 16.25300 30.64300
C  -3.46700 17.66900 30.44400
C  -3.15700 18.07600 28.96100
C  -4.94700 17.74200 30.73500
C  -1.41700 16.37500 31.43200
C  -1.47400 17.24100 32.75800
H  -1.01600 16.63200 34.03600
N  -2.52000 19.31000 26.25600
C  -2.97300 20.04600 27.37500
C  -3.13400 21.46600 26.96900
C  -2.79200 21.47200 25.59800
C  -2.32500 20.13100 25.25400
C  -3.44400 22.66700 27.95600
C  -2.79100 22.57900 24.55500
O  -2.57500 22.38400 23.39300
C  -3.12300 23.96400 25.05000
N  -2.00600 17.16600 24.23700
C  -1.86500 18.30200 23.47400
C  -1.57400 17.93400 22.06100
C  -1.39300 16.35400 22.12700
C  -1.73100 16.00200 23.52300
C  -2.70600 18.45900 21.10900
C  0.12300 15.97400 21.83700
C  0.27600 15.00500 20.62800
N  -2.06100 15.01500 26.21900
C  -1.99400 14.12100 25.15000
C  -2.00700 12.77000 25.62000
C  -2.23200 12.91300 27.01100
C  -2.28200 14.32100 27.32500
C  -1.80800 11.54600 24.78800
C  -2.31400 12.18700 28.24700
O  -2.07000 10.99000 28.39400
C  -2.76300 13.25900 29.38600
C  -1.82500 12.99500 30.56200
O  -0.66500 12.85800 30.49600
O  -2.57700 12.96800 31.72500
C  -1.96100 12.44800 32.89200
H  -3.59700 19.95100 29.48200
H  -1.56000 20.39000 23.28500
H  -1.74700 13.90100 23.04300
H  -3.54200 15.64500 31.17200
H  -3.16200 18.46800 31.12000
H  -5.28900 18.73100 30.43100
H  -4.93800 17.71900 31.82500
H  -5.52700 16.94200 30.27600
H  -0.56200 16.67600 30.82500
H  -1.22000 15.33700 31.69700
H  -2.51400 17.53500 32.90500
H  -0.98700 18.21600 32.78400
H  -3.20900 22.42600 28.99300
H  -4.48900 22.97600 27.94400
H  -2.90900 23.57400 27.67400
H  -4.06600 23.81300 25.57700
H  -3.20700 24.59200 24.16300
H  -2.31600 24.24100 25.72800
H  -0.63800 18.37700 21.72100
H  -2.06300 15.85000 21.43200
H  -3.55700 18.51600 21.78700
H  -3.00800 17.74800 20.34000
H  -2.37600 19.43700 20.75700
H  0.62500 15.56000 22.71200
H  0.73800 16.85200 21.63700
H  -0.68500 14.55200 20.38600
H  1.08400 14.27500 20.68100
H  0.43300 15.74800 19.84600
H  -1.10800 11.74000 23.97600
H  -2.76400 11.25000 24.35500
H  -1.35700 10.87400 25.51900
H  -3.80700 13.10400 29.66000
H  -0.87400 12.48500 32.82400
H  -2.28600 11.42500 33.08100
H  -2.45600 12.97000 33.71100
Mg 29.90800 58.30800 39.69000
C  27.30200 56.02200 38.97300
C  32.11600 55.96900 38.57300
C  32.31200 60.71400 40.01300
C  27.39200 60.67100 40.25300
N  29.71600 56.27000 39.03600
C  28.60400 55.57700 38.71000
C  28.99400 54.24600 38.10200
C  30.46100 54.07500 38.47900
C  30.82300 55.50300 38.73300
C  30.79700 53.04600 39.64500
C  28.70100 54.22000 36.62500
C  27.65800 53.30200 36.05800
H  26.83600 54.00100 34.96700
N  31.95900 58.32100 39.55000
C  32.66700 57.28900 38.95300
C  34.04100 57.65800 38.84400
C  34.16100 58.93300 39.38900
C  32.77600 59.40000 39.65400
C  35.12900 56.73000 38.12400
C  35.52100 59.68400 39.54300
O  36.60300 59.25300 39.13300
C  35.60000 61.02700 40.19100
N  29.83600 60.35900 40.18400
C  30.97600 61.16900 40.20400
C  30.54300 62.60900 40.42600
C  29.00700 62.59000 40.48800
C  28.74500 61.10600 40.22600
C  31.25400 63.32800 41.56800
C  28.20600 63.48200 39.52200
C  26.82600 63.99800 40.10000
N  27.70000 58.41800 39.56900
C  26.87900 59.40500 39.88100
C  25.49000 58.91400 39.80800
C  25.66500 57.63000 39.38300
C  27.01100 57.32300 39.31500
C  24.26300 59.64200 40.03900
C  24.84700 56.41600 39.07000
O  23.60700 56.29300 39.10300
C  25.91600 55.40000 38.67800
C  25.61500 54.09100 39.32500
O  25.96800 53.80900 40.46100
O  24.85800 53.32900 38.45300
C  24.36000 52.12700 39.07200
H  32.83700 55.27100 38.14200
H  33.04800 61.52000 40.02000
H  26.61500 61.42300 40.40500
H  28.45900 53.46100 38.63800
H  30.93900 53.70100 37.57300
H  30.09900 52.23200 39.84200
H  30.92200 53.62000 40.56300
H  31.73100 52.55800 39.36600
H  29.62300 54.07800 36.06100
H  28.38700 55.26000 36.52600
H  26.89500 52.94500 36.74900
H  28.19000 52.46500 35.60800
H  35.73800 56.24300 38.88600
H  35.76300 57.37000 37.51200
H  34.85400 55.93800 37.42800
H  35.10600 61.75700 39.54900
H  36.58500 61.26200 40.59200
H  35.02000 60.91600 41.10700
H  30.80100 63.22900 39.56800
H  28.80300 62.81100 41.53600
H  31.88200 62.58500 42.05900
H  30.54100 63.83200 42.22100
H  31.83200 64.13400 41.11400
H  27.90900 62.90900 38.64400
H  28.69900 64.39200 39.18200
H  26.09700 63.59800 39.39500
H  26.71800 65.08300 40.10300
H  26.56500 63.62900 41.09200
H  24.39900 60.72100 39.96200
H  23.92900 59.39400 41.04600
H  23.54800 59.42200 39.24600
H  25.68500 55.20500 37.63000
H  25.00100 51.75800 39.87200
H  24.10600 51.31900 38.38600
H  23.46000 52.34200 39.64700

