158

Mg -10.64600 40.00700 42.45900
C  -10.14100 36.65600 41.30700
C  -7.67500 40.90300 41.09900
C  -11.53400 43.24500 42.79600
C  -14.03700 39.16300 42.94700
N  -9.18800 38.92400 41.21300
C  -9.10300 37.55000 41.02600
C  -7.82500 37.18100 40.28300
C  -6.92700 38.51600 40.42000
C  -7.94300 39.53400 40.89500
C  -5.84500 38.36000 41.46500
C  -8.05300 36.74100 38.81900
C  -7.36600 35.50800 38.31700
H  -6.22400 35.61100 37.32100
N  -9.67500 41.87600 42.12500
C  -8.44800 41.97300 41.49900
C  -8.12500 43.36600 41.41000
C  -9.19400 44.09900 42.07100
C  -10.17000 43.09700 42.40100
C  -6.88200 43.85300 40.69100
C  -9.32800 45.54000 42.27100
O  -8.69400 46.34700 41.61500
C  -10.27000 46.16800 43.23600
N  -12.48100 41.12800 42.63000
C  -12.51300 42.34800 43.00600
C  -13.95000 42.85000 43.22800
C  -14.79200 41.54000 43.13100
C  -13.68500 40.54900 42.84100
C  -14.05800 43.59800 44.55800
C  -15.77500 41.37900 41.95000
C  -17.12400 40.72500 42.31500
N  -11.80100 38.21100 42.47900
C  -13.16600 38.02100 42.73000
C  -13.41400 36.59400 42.58100
C  -12.22100 36.02300 42.10800
C  -11.30600 37.09400 41.91600
C  -14.70000 35.92500 42.95700
C  -11.66900 34.76100 41.76200
O  -11.97300 33.65200 41.84200
C  -10.31000 35.20100 41.11100
C  -9.17400 34.32500 41.59500
O  -8.60500 34.41100 42.66900
O  -8.73400 33.43600 40.65800
C  -7.50600 32.55700 40.94800
H  -6.64300 41.19800 40.89800
H  -11.86100 44.26900 42.98800
H  -15.07200 38.89900 43.17300
H  -7.28500 36.40600 40.82600
H  -6.35400 38.80000 39.53700
H  -4.97000 39.00500 41.38700
H  -5.49200 37.32900 41.48200
H  -6.22600 38.69100 42.43100
H  -7.59200 37.57800 38.29500
H  -9.07500 36.80500 38.44600
H  -8.11200 34.85400 37.86600
H  -6.89400 34.97700 39.14400
H  -7.21100 44.79200 40.24400
H  -6.47200 43.13900 39.97700
H  -6.04700 44.17100 41.31500
H  -11.19300 46.38500 42.69800
H  -9.86400 46.89200 43.94200
H  -10.55300 45.42800 43.98400
H  -14.18300 43.53700 42.41500
H  -15.18900 41.24900 44.10400
H  -13.12100 44.08000 44.83600
H  -14.40100 42.88200 45.30600
H  -14.84800 44.33100 44.39500
H  -15.36700 40.89700 41.06100
H  -16.06400 42.36100 41.57700
H  -17.08000 40.28200 43.31000
H  -17.49600 40.01600 41.57500
H  -17.90700 41.48400 42.31400
H  -14.75800 34.86800 42.70000
H  -15.43200 36.33900 42.26400
H  -14.92500 36.09200 44.01000
H  -10.42700 34.96100 40.05500
H  -7.17000 32.46000 41.98000
H  -6.57700 32.94000 40.52500
H  -7.68500 31.67200 40.33700
Mg -0.22800 43.41000 26.24300
C  2.08100 42.83100 28.73800
C  -2.70000 42.29600 28.33400
C  -2.44300 43.65500 23.62600
C  2.37200 43.96300 23.99500
N  -0.22900 42.49800 28.26900
C  0.78400 42.58100 29.11800
C  0.26100 42.39800 30.58600
C  -1.15900 41.81600 30.36000
C  -1.41700 42.18300 28.89300
C  -1.41300 40.34400 30.59700
C  0.44700 43.71900 31.39900
C  1.07500 43.62200 32.76500
H  0.69500 42.34000 33.54400
N  -2.28400 43.07900 26.01900
C  -3.09400 42.62900 27.00000
C  -4.44800 42.69300 26.45200
C  -4.41200 43.16600 25.17700
C  -3.02800 43.27300 24.85700
C  -5.60800 42.19500 27.33500
C  -5.60000 43.50900 24.25300
O  -5.40200 43.81400 23.08900
C  -6.98000 43.50800 24.70400
N  -0.01700 43.53900 24.03200
C  -1.10500 43.83000 23.28800
C  -0.73600 44.33200 21.87300
C  0.76500 44.60800 22.00300
C  1.10400 44.00600 23.38800
C  -1.12700 43.34900 20.81800
C  1.20500 46.10500 22.00700
C  0.62900 47.06000 23.11000
N  1.87100 43.40400 26.28800
C  2.80300 43.63800 25.31600
C  4.10600 43.65400 25.93800
C  3.89800 43.34300 27.28400
C  2.54100 43.20200 27.40100
C  5.51600 43.81100 25.24500
C  4.52000 43.02500 28.55300
O  5.66300 42.77200 28.82800
C  3.31700 42.96700 29.58200
C  3.54200 41.76200 30.42400
O  3.57800 40.64300 29.95600
O  3.89100 42.17400 31.66200
C  4.45700 41.14600 32.60300
H  -3.54200 42.03600 28.97900
H  -3.12200 43.96900 22.83000
H  3.20700 44.19300 23.32900
H  0.82000 41.57500 31.03200
H  -1.75200 42.42300 31.04400
H  -2.02200 40.18700 31.48700
H  -0.42700 39.88100 30.63200
H  -1.82200 39.72500 29.79800
H  -0.54500 44.10500 31.63600
H  0.92100 44.48600 30.78700
H  0.61200 44.45500 33.29400
H  2.13800 43.77100 32.57800
H  -6.52700 41.96300 26.79700
H  -5.64800 42.87800 28.18300
H  -5.24800 41.26900 27.78300
H  -7.46600 42.53400 24.76400
H  -7.65000 44.10900 24.09000
H  -6.96400 43.98600 25.68400
H  -1.24800 45.24700 21.57600
H  1.40700 44.13000 21.26300
H  -0.38900 43.20200 20.03000
H  -2.01600 43.70500 20.29600
H  -1.37600 42.35300 21.18200
H  0.94700 46.60400 21.07300
H  2.29400 46.07400 22.03400
H  1.29500 47.36800 23.91600
H  -0.21300 46.59500 23.62000
H  0.31400 47.98300 22.62300
H  5.35000 44.73300 24.68800
H  5.97000 43.01500 24.65600
H  6.14700 44.11800 26.08000
H  3.48800 43.77600 30.29200
H  5.19300 40.53500 32.07900
H  3.69900 40.49900 33.04500
H  4.93100 41.79200 33.34200

