158

Mg 34.99700 2.10700 29.98200
C  32.99200 3.26400 32.42000
C  37.72200 2.29200 32.24900
C  37.08900 1.31300 27.40200
C  32.47300 2.61600 27.66800
N  35.34900 2.72600 32.07400
C  34.31600 3.04900 32.86400
C  34.78900 3.25400 34.27100
C  36.37400 3.47300 34.18100
C  36.52800 2.82500 32.76800
C  36.91600 4.92700 34.11500
C  34.32200 1.97400 34.94900
C  34.53800 1.93900 36.53000
H  35.28400 3.11200 37.16900
N  37.04500 1.67700 29.92100
C  37.94100 1.78800 30.93300
C  39.28900 1.50700 30.44400
C  39.14400 1.21800 29.02400
C  37.68700 1.39300 28.72800
C  40.52800 1.51900 31.23500
C  40.26200 0.90800 27.92600
O  40.03700 0.79100 26.72300
C  41.77400 0.52200 28.30300
N  34.70700 1.73200 27.89100
C  35.71000 1.40500 27.03700
C  35.24600 1.38700 25.54000
C  33.67700 1.66100 25.68000
C  33.58900 1.95300 27.19900
C  35.94800 2.48900 24.63700
C  32.84700 0.44300 25.25900
C  32.36000 0.29700 23.75800
N  33.06700 2.86500 29.99400
C  32.14700 3.05400 28.95800
C  30.85000 3.39700 29.53200
C  31.15900 3.56300 30.97600
C  32.50300 3.20100 31.16400
C  29.57900 3.59400 28.83800
C  30.62000 3.89200 32.26900
O  29.50400 4.28200 32.66200
C  31.80800 3.75900 33.26300
C  32.04000 5.01800 34.01800
O  32.57600 6.06300 33.61500
O  31.51000 4.84800 35.26800
C  31.61000 6.09000 36.11000
H  38.52900 2.48100 32.96100
H  37.80000 1.34800 26.57400
H  31.62300 2.82900 27.01700
H  34.39500 4.19600 34.65300
H  36.73900 2.94600 35.06300
H  37.57400 5.17200 34.94900
H  36.05100 5.57100 34.27700
H  37.36200 5.12400 33.14000
H  34.97400 1.16100 34.63000
H  33.30800 1.65500 34.70900
H  34.88000 0.92500 36.74000
H  33.62900 2.04500 37.12100
H  40.41200 0.61700 31.83500
H  40.55700 2.39900 31.87800
H  41.37600 1.53200 30.54900
H  42.32900 1.42800 28.54400
H  42.16700 0.05300 27.40200
H  41.85900 -0.19900 29.11700
H  35.53900 0.41000 25.15600
H  33.43300 2.50700 25.03700
H  36.63900 3.12700 25.18800
H  35.27300 3.13100 24.07100
H  36.55200 1.94200 23.91300
H  31.89000 0.37800 25.77700
H  33.40000 -0.48100 25.42600
H  32.61400 -0.70300 23.40800
H  32.87800 1.04200 23.15400
H  31.27800 0.41100 23.70400
H  29.51100 3.08400 27.87700
H  29.51700 4.65000 28.57700
H  28.78500 3.35500 29.54500
H  31.55600 3.01300 34.01600
H  30.78800 6.00600 36.82000
H  31.31000 6.96900 35.54000
H  32.58900 6.29400 36.54400
Mg 9.93600 47.97200 26.30200
C  8.01700 48.09800 29.17800
C  12.55500 49.47800 28.04700
C  11.92400 47.28900 23.73000
C  7.11600 47.15800 24.40200
N  10.20600 48.67700 28.33800
C  9.38000 48.44300 29.44700
C  9.94900 49.01000 30.74700
C  11.12800 49.82300 30.23300
C  11.35300 49.36100 28.73200
C  10.96500 51.36000 30.46200
C  10.42200 47.92800 31.85800
C  9.81700 48.30900 33.30400
H  9.73100 47.17200 34.31900
N  12.01200 48.18000 26.01500
C  12.89000 48.79900 26.87000
C  14.18900 48.55400 26.39600
C  14.07500 48.02900 25.01700
C  12.65800 47.84600 24.83900
C  15.40900 49.13900 27.15100
C  15.18000 47.67200 23.98200
O  14.91500 47.33100 22.86000
C  16.66600 47.75700 24.38100
N  9.59100 47.52100 24.28700
C  10.57000 47.15900 23.39700
C  10.05900 46.54400 22.08200
C  8.55200 46.50000 22.32800
C  8.38300 47.03100 23.75300
C  10.41500 47.38600 20.82700
C  8.00400 45.05200 22.15700
C  8.42000 44.02300 23.26500
N  7.94700 47.93400 26.63600
C  6.93300 47.43000 25.77200
C  5.74700 47.22700 26.53300
C  6.07900 47.53500 27.90800
C  7.44700 47.91600 27.90100
C  4.44000 46.76800 26.02400
C  5.56800 47.71100 29.29000
O  4.45300 47.73900 29.80300
C  6.83600 47.94600 30.17500
C  7.17900 46.79100 31.08400
O  7.96200 45.86900 30.84500
O  6.41700 47.01400 32.20000
C  6.22200 45.85800 33.07700
H  13.27400 49.97000 28.70600
H  12.59500 47.05200 22.90100
H  6.33600 46.76900 23.74400
H  9.20900 49.70200 31.15000
H  12.02500 49.44300 30.72200
H  11.07700 51.78800 29.46600
H  11.65600 51.70000 31.23400
H  9.94100 51.59400 30.75200
H  11.50000 47.90200 32.01100
H  10.09000 46.98100 31.43300
H  8.79000 48.67100 33.25900
H  10.46700 49.11200 33.65200
H  15.14500 49.45300 28.16100
H  15.99100 49.81100 26.52100
H  16.10800 48.32200 27.33200
H  16.76200 47.33900 25.38300
H  17.10000 48.73700 24.57700
H  17.24800 47.25600 23.60700
H  10.60800 45.60300 22.13100
H  8.09800 47.12000 21.55400
H  11.44900 47.28700 20.49700
H  10.15500 48.40400 21.11700
H  9.77200 47.05800 20.01100
H  8.19900 44.71400 21.14000
H  6.92500 45.13000 22.29600
H  8.61900 44.47700 24.23600
H  9.34500 43.53300 22.96100
H  7.56200 43.35200 23.31200
H  3.82300 47.50700 25.51300
H  3.87800 46.50900 26.92100
H  4.56200 45.85500 25.44200
H  6.70700 48.85000 30.77000
H  5.17000 45.58300 33.00400
H  6.58500 46.13000 34.06900
H  6.77200 44.97900 32.74100

