158

Mg 29.41100 59.43000 41.77500
C  26.28300 58.08300 40.76600
C  30.95900 56.52600 40.45000
C  32.46400 60.82400 42.08900
C  27.79800 62.23100 42.79800
N  28.67600 57.60700 40.59100
C  27.40600 57.27200 40.37500
C  27.41500 55.99800 39.61900
C  28.82800 55.41300 39.75300
C  29.53800 56.52300 40.45100
C  28.98400 54.00600 40.26500
C  26.81300 56.07800 38.13500
C  26.11300 54.83300 37.70400
H  26.64600 54.26200 36.38300
N  31.44200 58.79600 41.23100
C  31.92800 57.51400 40.78600
C  33.27000 57.45400 40.63500
C  33.70000 58.77300 40.96600
C  32.52800 59.53600 41.48100
C  33.97300 56.22500 40.08100
C  35.07500 59.22100 40.87600
O  35.95200 58.41200 40.56700
C  35.56400 60.63200 41.14000
N  30.06700 61.29600 42.30100
C  31.38000 61.64300 42.44400
C  31.52700 63.08300 42.95000
C  29.98900 63.54000 43.10900
C  29.22200 62.32400 42.62500
C  32.29800 63.27600 44.29900
C  29.63000 64.85300 42.25400
C  29.10000 65.95700 43.20200
N  27.44000 59.99100 41.91200
C  26.93100 61.20900 42.41100
C  25.45300 61.03300 42.51900
C  25.19600 59.84800 41.82800
C  26.43400 59.30900 41.39900
C  24.54400 62.13100 42.90100
C  24.09800 58.97800 41.31300
O  22.89300 59.00100 41.42200
C  24.83100 57.78400 40.62200
C  24.38300 56.49200 41.17900
O  24.34300 56.26300 42.34900
O  24.00800 55.62300 40.20900
C  23.48400 54.42200 40.89600
H  31.47100 55.64400 40.05900
H  33.40000 61.28800 42.40500
H  27.43200 63.18700 43.17800
H  26.74800 55.40500 40.24500
H  29.24200 55.58800 38.76000
H  29.75800 54.14200 41.02000
H  29.31400 53.43700 39.39600
H  28.01200 53.62600 40.58100
H  27.63300 56.18500 37.42500
H  26.16900 56.93900 37.95400
H  25.06400 55.02100 37.47700
H  26.12100 54.05800 38.47000
H  34.03300 56.34400 39.00000
H  33.61300 55.21400 40.27500
H  34.92800 56.04800 40.57700
H  34.72200 61.28600 40.91600
H  36.44600 60.83100 40.53100
H  35.75300 60.59900 42.21400
H  32.10800 63.55500 42.15700
H  29.89800 63.72300 44.18000
H  31.95700 64.07900 44.95200
H  33.29500 63.44200 43.88900
H  32.27500 62.32800 44.83700
H  28.86100 64.60600 41.52200
H  30.49600 65.15100 41.66300
H  29.51900 66.94500 43.01400
H  29.15600 65.59200 44.22800
H  28.02200 66.07800 43.10000
H  23.62700 61.64500 43.23300
H  24.43100 62.72800 41.99600
H  24.85600 62.70000 43.77700
H  24.54200 57.75500 39.57200
H  24.36500 53.87600 41.23100
H  22.93100 53.80500 40.18800
H  22.75000 54.62200 41.67700
Mg -5.39400 24.69900 26.54600
C  -3.71200 26.46200 29.26100
C  -6.22000 22.36800 28.92500
C  -6.80900 22.85900 24.19200
C  -3.98400 26.90700 24.35400
N  -5.15900 24.55700 28.82000
C  -4.49700 25.35800 29.74700
C  -4.66500 24.95000 31.19500
C  -5.33900 23.57100 30.98600
C  -5.68100 23.51700 29.45200
C  -4.49500 22.28200 31.49800
C  -5.38100 26.06700 32.03900
C  -6.70900 25.84900 32.81700
H  -6.64800 25.28700 34.28700
N  -6.40700 22.88900 26.50300
C  -6.54600 22.06800 27.57900
C  -6.99400 20.80600 27.18300
C  -7.33800 20.97200 25.81000
C  -6.92300 22.33800 25.42100
C  -7.09600 19.68400 28.16200
C  -8.03500 20.01000 24.87800
O  -8.19400 20.28200 23.71000
C  -8.60900 18.72200 25.38800
N  -5.36800 24.77300 24.59100
C  -6.11000 24.02100 23.73000
C  -6.14300 24.56400 22.26800
C  -5.23600 25.85400 22.36300
C  -4.87400 25.92100 23.94300
C  -5.58400 23.56900 21.20400
C  -5.91200 27.14700 21.95700
C  -5.03300 27.86400 20.89200
N  -4.12500 26.38500 26.70800
C  -3.54900 27.19900 25.70200
C  -2.75800 28.25000 26.33800
C  -2.81000 27.96900 27.69200
C  -3.61200 26.78400 27.91100
C  -2.11400 29.34800 25.52400
C  -2.27000 28.38400 28.86600
O  -1.33400 29.18300 29.06500
C  -2.84200 27.45700 29.99900
C  -1.73200 26.83700 30.80700
O  -0.89900 26.03600 30.49200
O  -1.73400 27.41400 32.06200
C  -0.93000 26.78900 33.15900
H  -6.50400 21.61800 29.66600
H  -7.15900 22.28900 23.32900
H  -3.61200 27.66000 23.65700
H  -3.64600 24.76300 31.53400
H  -6.27600 23.50500 31.53900
H  -3.53000 22.57800 31.90800
H  -4.28100 21.67100 30.62100
H  -4.98700 21.61600 32.20600
H  -5.54700 26.91600 31.37600
H  -4.57000 26.37800 32.69600
H  -7.31400 25.24000 32.14500
H  -7.08300 26.87300 32.81800
H  -6.15000 19.70700 28.70200
H  -7.40500 18.70800 27.78800
H  -7.97200 19.86100 28.78700
H  -9.00100 18.28900 24.46800
H  -9.38800 19.06900 26.06800
H  -7.84000 18.09900 25.84500
H  -7.19400 24.78900 22.08600
H  -4.31800 25.66100 21.80900
H  -4.68700 23.04300 21.53400
H  -5.20200 23.93400 20.25100
H  -6.43400 22.91700 21.00500
H  -5.94000 27.83900 22.79800
H  -6.95000 26.90900 21.72500
H  -3.96500 27.79100 21.09700
H  -5.21000 28.90400 21.16500
H  -5.33400 27.75200 19.85100
H  -2.85000 29.93700 24.97700
H  -1.58300 28.85900 24.70700
H  -1.44800 29.92200 26.16800
H  -3.42200 28.07800 30.68100
H  -0.71700 27.52500 33.93400
H  0.04600 26.47900 32.78600
H  -1.46700 25.90600 33.50600

