158

Mg 26.24900 -0.64300 29.59700
C  28.00500 -0.85100 32.57000
C  23.38400 -0.53900 31.32100
C  24.54500 -0.60800 26.61700
C  29.11700 -1.40400 27.85200
N  25.72700 -0.74000 31.66900
C  26.64200 -0.64400 32.72100
C  25.86700 -0.36600 34.07400
C  24.40200 -0.47100 33.64800
C  24.48800 -0.62800 32.11900
C  23.45200 -1.57200 34.36500
C  26.29100 1.05500 34.66900
C  27.04200 1.12000 35.97800
H  26.55800 2.01800 37.11300
N  24.18800 -0.62900 29.05000
C  23.17300 -0.55100 29.93600
C  21.93100 -0.54000 29.18000
C  22.28500 -0.45800 27.85000
C  23.71500 -0.64500 27.75900
C  20.59700 -0.66700 29.87800
C  21.35000 -0.36400 26.68200
O  21.83400 -0.32700 25.52800
C  19.86200 -0.12600 26.86500
N  26.69400 -1.26700 27.52100
C  25.89800 -0.89600 26.50700
C  26.65000 -0.71000 25.13700
C  27.99100 -1.31100 25.51500
C  27.94600 -1.26700 27.06300
C  26.00200 -1.50700 23.97600
C  29.22900 -0.67600 24.88000
C  29.61300 0.72400 25.33400
N  28.20000 -1.06300 30.06100
C  29.30600 -1.27100 29.25400
C  30.48400 -1.48200 30.05900
C  30.07800 -1.25700 31.34800
C  28.65700 -1.07000 31.32100
C  31.81100 -1.97800 29.56700
C  30.46700 -1.16900 32.75400
O  31.58600 -1.37000 33.21800
C  29.16400 -0.79700 33.66100
C  29.11800 -1.85100 34.70900
O  28.87500 -3.07700 34.57600
O  29.38400 -1.27100 35.92100
C  29.58400 -2.21800 37.03500
H  22.47200 -0.21800 31.82900
H  24.16500 -0.48000 25.60100
H  30.01500 -1.70300 27.30600
H  26.12600 -1.21300 34.70900
H  23.85600 0.46200 33.78700
H  22.82600 -1.99600 33.58000
H  22.72200 -1.11200 35.03200
H  24.00800 -2.39600 34.81000
H  25.46200 1.76000 34.73700
H  26.97300 1.35300 33.87200
H  28.07700 1.38100 35.76000
H  26.95000 0.08200 36.29600
H  19.97700 -1.37900 29.33300
H  20.16300 0.32900 29.96700
H  20.63200 -1.05100 30.89800
H  19.23700 0.01800 25.98400
H  19.82800 0.68800 27.58800
H  19.43800 -0.91100 27.49100
H  26.76500 0.36400 24.99200
H  27.99700 -2.39100 25.36800
H  25.35200 -0.80800 23.45100
H  25.32700 -2.30100 24.29600
H  26.72600 -1.87000 23.24700
H  29.02600 -0.55500 23.81600
H  30.14800 -1.25800 24.94900
H  30.59500 0.54500 25.77100
H  28.89900 1.02600 26.10000
H  29.62000 1.44300 24.51400
H  31.84000 -2.11700 28.48700
H  31.89500 -2.97800 29.99300
H  32.58100 -1.35400 30.02100
H  29.23400 0.20000 34.09800
H  29.73600 -3.24800 36.71300
H  28.71100 -2.19800 37.68700
H  30.42900 -1.77000 37.55800
Mg 53.28000 23.38400 45.03300
C  50.91400 25.75500 44.26400
C  51.25600 21.00100 43.69800
C  55.85900 21.22400 45.00500
C  55.42400 25.99200 45.89900
N  51.34500 23.39600 43.92700
C  50.46500 24.48000 43.78900
C  49.05000 24.08300 43.20000
C  49.12400 22.52100 43.51100
C  50.69900 22.25500 43.67800
C  48.26500 21.90200 44.71200
C  48.82700 24.53000 41.68100
C  48.83700 23.49000 40.52800
H  48.77800 23.94100 39.12800
N  53.51400 21.36100 44.47100
C  52.54300 20.57400 43.93400
C  53.09900 19.19400 43.87700
C  54.36100 19.22800 44.39800
C  54.65100 20.65100 44.65100
C  52.26800 18.10000 43.50700
C  55.21600 17.93700 44.61200
O  54.79500 16.78700 44.38600
C  56.73300 18.09100 45.08800
N  55.33900 23.55000 45.43100
C  56.20700 22.51300 45.39700
C  57.69800 23.01000 45.63600
C  57.49000 24.46000 45.97000
C  55.99700 24.68000 45.71300
C  58.48500 22.14000 46.70500
C  58.41200 25.48700 45.35000
C  59.75000 25.80700 46.08900
N  53.23300 25.43100 45.19800
C  54.08200 26.33700 45.68900
C  53.42100 27.63800 45.84300
C  52.19800 27.47900 45.22300
C  52.11400 26.12000 44.87900
C  53.90500 28.90500 46.42000
C  50.93500 28.14600 44.97400
O  50.54500 29.29300 45.28400
C  50.02100 27.06700 44.23400
C  49.60400 27.54600 42.89600
O  50.43900 27.96200 42.08500
O  48.27000 27.57500 42.61300
C  47.91300 28.11100 41.32500
H  50.51500 20.20400 43.78800
H  56.71200 20.54600 44.92900
H  56.06700 26.83800 46.15100
H  48.25400 24.55200 43.77800
H  48.92200 21.94900 42.60600
H  48.82600 21.33000 45.45100
H  47.50500 21.20900 44.35100
H  47.75900 22.71000 45.24200
H  49.45800 25.37000 41.39100
H  47.84700 25.00700 41.65600
H  48.02300 22.76900 40.59700
H  49.70000 22.82900 40.61000
H  51.55200 17.82200 44.28100
H  52.70900 17.20500 43.06800
H  51.76200 18.60400 42.68400
H  57.39700 18.39000 44.27700
H  57.15100 17.16300 45.47900
H  56.76000 18.77200 45.93800
H  58.22400 22.92500 44.68500
H  57.58700 24.43400 47.05600
H  58.98500 22.71900 47.48100
H  59.29000 21.67300 46.13900
H  57.79300 21.38300 47.07700
H  57.94800 26.39400 44.96400
H  58.87900 24.91700 44.54700
H  60.59300 25.94200 45.41200
H  60.05200 24.94500 46.68400
H  59.53900 26.71100 46.66100
H  53.25300 29.71200 46.08700
H  54.92300 29.09600 46.07900
H  53.97000 28.92300 47.50800
H  49.06600 27.04300 44.75800
H  48.09300 27.47800 40.45600
H  48.28100 29.13300 41.24100
H  46.82400 28.08200 41.29300

