158

Mg 48.14600 15.45300 27.55600
C  45.80200 15.57000 30.26400
C  50.22800 17.49200 29.42400
C  50.25100 15.34400 25.01700
C  45.54800 13.96800 25.70700
N  47.99600 16.39900 29.60500
C  47.02300 16.30500 30.54500
C  47.37900 16.94300 31.91300
C  48.72000 17.79600 31.57000
C  49.04500 17.22200 30.12500
C  48.57800 19.26300 31.51500
C  47.70800 15.90700 33.05200
C  47.96700 16.57600 34.46900
H  48.95400 16.06100 35.47800
N  50.00800 16.18900 27.29000
C  50.73800 16.98800 28.19300
C  52.04000 17.27600 27.56900
C  52.16000 16.47700 26.37800
C  50.78800 15.98200 26.14100
C  53.05400 18.17100 28.30500
C  53.35400 16.21500 25.47000
O  53.44700 15.44800 24.48600
C  54.64700 16.96200 25.82700
N  47.87700 14.67800 25.69800
C  48.94100 14.87700 24.79900
C  48.56700 14.29000 23.36400
C  47.10500 13.62000 23.68100
C  46.75800 14.18000 25.07900
C  48.56900 15.35700 22.17700
C  47.11900 12.05100 23.67900
C  47.58700 11.27100 22.41300
N  46.07300 14.94700 27.79400
C  45.16400 14.29600 26.95400
C  43.92300 13.98600 27.68600
C  44.17200 14.38000 28.98500
C  45.50200 14.92500 28.99400
C  42.72000 13.31900 27.04400
C  43.55200 14.60000 30.26800
O  42.33600 14.32200 30.55600
C  44.59200 15.31500 31.18400
C  43.94700 16.47900 31.76100
O  43.21300 17.26200 31.17600
O  44.24500 16.50800 33.10000
C  43.70400 17.61300 33.92500
H  50.82400 18.28700 29.87500
H  51.04200 15.25000 24.27100
H  44.83200 13.41900 25.09300
H  46.61700 17.67200 32.19000
H  49.55000 17.51100 32.21700
H  48.30300 19.61400 30.52000
H  49.55600 19.70300 31.70700
H  47.78200 19.54300 32.20500
H  48.65400 15.45500 32.75300
H  46.83400 15.26500 33.15600
H  47.02200 16.67300 35.00400
H  48.29700 17.57200 34.17400
H  53.61400 17.40500 28.84200
H  52.59200 18.88900 28.98200
H  53.61700 18.86100 27.67700
H  54.55600 18.04600 25.76300
H  55.45900 16.67900 25.15700
H  54.97500 16.60800 26.80400
H  49.34400 13.57000 23.10900
H  46.31000 14.00000 23.03900
H  49.49800 15.19700 21.62900
H  48.45600 16.36200 22.58400
H  47.78800 15.15100 21.44400
H  46.09100 11.82400 23.95900
H  47.81800 11.73800 24.45500
H  47.53300 11.91900 21.53800
H  46.96700 10.41600 22.14700
H  48.62200 10.95300 22.53000
H  43.15300 12.40800 26.63200
H  42.29400 13.91100 26.23400
H  41.85100 13.04700 27.64400
H  44.89100 14.69000 32.02600
H  43.49900 18.52800 33.36900
H  44.33400 17.76700 34.80100
H  42.81000 17.11800 34.30400
Mg 46.94600 24.97500 29.18300
C  47.72100 27.39000 31.65800
C  46.03400 22.80000 31.58900
C  46.81100 22.65300 26.79000
C  48.22200 27.27700 26.93700
N  46.83600 25.10000 31.38300
C  47.23200 26.18200 32.21400
C  46.80600 25.88200 33.69500
C  46.36900 24.37600 33.67300
C  46.34800 24.03800 32.12300
C  47.09800 23.29900 34.46100
C  45.67900 26.88600 34.22400
C  46.10100 27.74400 35.38900
H  45.06400 27.87200 36.53300
N  46.35700 23.01400 29.19300
C  46.00900 22.25500 30.26900
C  45.56000 20.96600 29.89900
C  45.79800 20.90900 28.49900
C  46.27900 22.21800 28.04400
C  44.93600 19.93900 30.94300
C  45.48000 19.79700 27.49300
O  45.69400 19.94700 26.28600
C  44.91300 18.53300 27.88500
N  47.46300 24.99400 27.11800
C  47.32600 23.90400 26.40600
C  47.72500 24.13600 24.85600
C  47.81800 25.74300 24.96800
C  47.83500 26.04800 26.40200
C  49.09600 23.39000 24.49100
C  46.61400 26.41400 24.27100
C  45.27500 26.17800 24.92900
N  47.75300 26.97900 29.23100
C  48.32400 27.71400 28.23900
C  48.86700 28.96800 28.74400
C  48.59100 28.86900 30.12400
C  47.94200 27.68600 30.33900
C  49.64600 30.05900 27.96500
C  48.70400 29.54200 31.43000
O  49.13600 30.63900 31.74700
C  48.18400 28.59500 32.49300
C  49.31900 28.30100 33.39200
O  50.23900 27.52600 33.13400
O  49.02100 28.90100 34.63400
C  50.05500 28.62200 35.68300
H  45.49600 22.22500 32.34600
H  46.89000 21.83200 26.07300
H  48.73400 27.88700 26.19000
H  47.69700 25.84600 34.32300
H  45.33500 24.23100 33.98700
H  46.56500 23.17500 35.40400
H  48.09400 23.67900 34.69100
H  47.00800 22.33100 33.96900
H  44.77900 26.32700 34.48500
H  45.41900 27.65500 33.49700
H  46.19000 28.77300 35.04100
H  47.06100 27.42000 35.79100
H  45.13000 18.90100 30.67400
H  43.87300 20.06900 31.14500
H  45.29600 20.12800 31.95500
H  45.74700 17.88600 28.15700
H  44.43500 17.98800 27.07100
H  44.15600 18.59000 28.66700
H  46.97800 23.84900 24.11500
H  48.77100 26.07400 24.55600
H  49.55400 23.05000 25.42000
H  49.86700 24.04500 24.08700
H  48.87500 22.56800 23.81000
H  46.59000 26.00100 23.26300
H  46.74200 27.49300 24.18800
H  44.47600 26.10900 24.19100
H  45.11000 27.03400 25.58400
H  45.26500 25.18800 25.38600
H  50.52000 30.35400 28.54600
H  48.93200 30.87800 27.88400
H  50.00400 29.79800 26.96900
H  47.39800 29.14900 33.00700
H  50.01700 29.43700 36.40700
H  51.07900 28.58800 35.31100
H  49.79500 27.73200 36.25600

