158

Mg 25.06400 -8.05600 47.35300
C  27.43000 -5.80600 46.06100
C  22.90600 -7.11200 44.90000
C  23.36900 -10.83600 48.01100
C  27.92400 -9.56700 49.18500
N  25.29700 -6.80300 45.34200
C  26.23600 -5.75900 45.26100
C  25.84200 -4.75400 44.16200
C  24.34300 -5.13600 43.97600
C  24.15900 -6.43700 44.75900
C  23.32400 -4.01100 44.36300
C  26.63900 -4.87900 42.82700
C  27.73200 -3.78300 42.64900
H  27.83400 -3.21200 41.23400
N  23.25100 -8.77200 46.79600
C  22.52100 -8.19500 45.79400
C  21.27900 -8.85500 45.77600
C  21.37000 -9.90700 46.76000
C  22.73600 -9.86700 47.27200
C  20.09500 -8.37400 44.88400
C  20.37400 -10.89100 47.16300
O  19.33100 -10.93300 46.53300
C  20.37500 -11.75200 48.46300
N  25.59000 -9.93000 48.47500
C  24.64200 -10.88500 48.58400
C  25.20500 -12.22000 49.24500
C  26.48900 -11.63700 49.86400
C  26.69000 -10.26100 49.19000
C  24.30600 -12.92900 50.25600
C  27.70100 -12.54900 49.82600
C  28.53900 -12.68700 51.19000
N  27.16600 -7.80600 47.69600
C  28.18100 -8.37400 48.50600
C  29.44300 -7.58900 48.38500
C  29.12400 -6.61100 47.44800
C  27.77700 -6.77000 47.07500
C  30.71400 -7.80600 49.29100
C  29.77600 -5.48000 46.85400
O  30.85600 -4.99400 47.10300
C  28.65000 -4.81000 46.02200
C  28.30800 -3.43200 46.61800
O  27.54300 -3.27900 47.58500
O  28.95800 -2.43000 45.90800
C  28.44700 -1.04100 46.04700
H  22.25800 -6.71900 44.11300
H  22.80400 -11.75400 48.18400
H  28.78000 -10.02700 49.68300
H  25.98900 -3.77800 44.62500
H  24.19200 -5.36900 42.92200
H  22.41600 -4.03200 43.76000
H  23.93200 -3.10800 44.29500
H  23.01900 -4.10000 45.40500
H  25.99100 -4.92600 41.95200
H  27.07200 -5.87100 42.95100
H  28.69600 -4.23600 42.87900
H  27.58800 -2.91900 43.29800
H  20.13200 -7.30400 44.67800
H  19.17100 -8.57800 45.42500
H  20.04200 -8.96600 43.97100
H  20.88900 -12.68800 48.24400
H  19.32200 -11.81400 48.74000
H  20.99100 -11.20600 49.17800
H  25.52100 -12.86600 48.42600
H  26.20500 -11.37600 50.88400
H  24.46800 -12.58500 51.27800
H  24.33700 -14.01700 50.18800
H  23.27100 -12.66600 50.03700
H  28.35300 -12.31100 48.98500
H  27.32900 -13.54200 49.57300
H  29.46600 -12.12000 51.10000
H  28.70300 -13.74600 51.39000
H  27.90000 -12.27000 51.96800
H  30.48400 -8.34600 50.20900
H  31.13500 -6.84800 49.59500
H  31.49700 -8.26700 48.68800
H  28.91500 -4.50000 45.01100
H  28.79200 -0.50900 46.93300
H  27.35800 -1.01900 46.09300
H  28.79500 -0.52100 45.15400
Mg 9.77700 47.00200 25.42000
C  7.48600 46.87500 27.97200
C  12.28600 47.70200 27.55900
C  11.83200 47.70100 22.70000
C  7.07600 46.75300 23.10500
N  9.81400 47.39500 27.56400
C  8.78000 47.16600 28.45000
C  9.36200 47.35100 29.89700
C  10.80100 47.82100 29.68500
C  10.99900 47.59500 28.16300
C  11.15300 49.22200 30.20900
C  9.13500 46.17400 30.93400
C  10.07800 46.16400 32.16800
H  9.33700 45.74200 33.42300
N  11.84500 47.56100 25.16000
C  12.70600 47.75200 26.16300
C  14.06900 47.86700 25.59300
C  13.95300 47.71600 24.18600
C  12.47000 47.70600 23.95000
C  15.31100 48.02100 26.41400
C  15.01100 47.61300 23.10500
O  14.66800 47.56300 21.91700
C  16.52900 47.41500 23.40700
N  9.50000 47.23700 23.13700
C  10.51900 47.44800 22.31800
C  10.08000 47.35600 20.88500
C  8.55400 46.99000 20.99500
C  8.34300 46.91700 22.53400
C  10.44800 48.58100 19.96000
C  8.02400 45.70600 20.26900
C  6.85400 45.83200 19.28000
N  7.68600 46.78800 25.48800
C  6.69600 46.74500 24.49700
C  5.36800 46.56800 25.06800
C  5.68100 46.63700 26.39800
C  7.07700 46.72100 26.64500
C  4.08900 46.29000 24.32300
C  5.11900 46.51500 27.74500
O  3.96100 46.28700 28.07700
C  6.24500 46.62300 28.73500
C  6.26400 45.43300 29.55400
O  7.10700 44.54900 29.46600
O  5.36300 45.52900 30.57500
C  5.45000 44.50300 31.69000
H  13.14600 47.74400 28.23100
H  12.57400 47.75500 21.90100
H  6.33600 46.42000 22.37500
H  8.80900 48.20700 30.28300
H  11.47600 47.08700 30.12600
H  11.84900 49.16300 31.04700
H  10.32200 49.70300 30.72300
H  11.55200 49.85100 29.41300
H  9.36600 45.31300 30.30700
H  8.12700 46.14100 31.34700
H  10.59800 47.12000 32.22400
H  10.82000 45.37800 32.03000
H  15.14500 47.90800 27.48600
H  15.72300 49.00900 26.20700
H  15.99000 47.20500 26.16600
H  16.42000 46.52300 24.02400
H  16.94800 48.29000 23.90400
H  16.95700 47.20300 22.42700
H  10.53800 46.51400 20.36500
H  7.95500 47.84500 20.67900
H  10.97400 48.22400 19.07500
H  10.99800 49.43500 20.35400
H  9.66000 49.05900 19.37800
H  7.86200 44.93200 21.01900
H  8.85000 45.30000 19.68500
H  6.72700 44.94900 18.65500
H  6.93500 46.72000 18.65200
H  5.93500 45.89600 19.86300
H  4.13400 46.38300 23.23800
H  3.35600 47.02700 24.65100
H  3.68100 45.31800 24.60200
H  6.15700 47.48500 29.39600
H  4.62000 44.53900 32.39600
H  6.44600 44.53000 32.13100
H  5.41400 43.51400 31.23300

