158

Mg 24.71500 -7.11700 47.30700
C  27.19600 -4.95100 46.04300
C  22.62100 -5.88500 44.99100
C  22.66500 -9.77600 47.82900
C  27.29000 -8.77600 49.01500
N  24.91300 -5.68300 45.71700
C  26.00000 -4.87100 45.41600
C  25.75300 -3.98000 44.25600
C  24.15700 -4.12300 44.01000
C  23.87500 -5.30700 44.94600
C  23.24100 -2.88400 44.35000
C  26.69100 -4.31500 42.99700
C  27.62500 -3.04700 42.66000
H  27.62600 -2.51500 41.26500
N  22.79000 -7.65100 46.61500
C  22.01800 -6.90600 45.77900
C  20.76400 -7.57400 45.62500
C  20.75200 -8.70800 46.44500
C  22.09500 -8.76700 47.02700
C  19.66200 -7.14900 44.68200
C  19.55700 -9.62400 46.52600
O  18.46100 -9.39700 45.94500
C  19.57400 -10.88600 47.35200
N  24.84500 -8.99600 48.38700
C  23.94000 -9.99800 48.36500
C  24.44700 -11.19100 49.22100
C  25.84100 -10.79300 49.63400
C  26.07600 -9.43200 48.97800
C  23.42400 -11.58300 50.41300
C  27.05100 -11.80700 49.30700
C  27.93000 -12.25800 50.45900
N  26.85800 -6.94500 47.45200
C  27.75400 -7.70400 48.23900
C  29.09000 -7.08200 48.21800
C  28.83400 -5.97900 47.35700
C  27.52800 -6.00500 46.93700
C  30.40800 -7.58800 48.84500
C  29.47600 -4.87400 46.71200
O  30.60100 -4.43800 46.80100
C  28.44900 -4.10500 45.97500
C  28.35500 -2.75900 46.55500
O  28.45600 -2.44700 47.73800
O  28.17800 -1.76500 45.63300
C  27.83500 -0.41400 46.05700
H  21.94000 -5.43400 44.26600
H  22.04100 -10.64800 48.03300
H  28.12700 -9.29500 49.48700
H  25.97300 -2.95600 44.55900
H  24.01200 -4.29500 42.94300
H  23.03100 -2.54400 43.33600
H  23.77600 -2.09800 44.88400
H  22.38100 -3.31000 44.86500
H  26.03200 -4.55000 42.16100
H  27.32800 -5.14500 43.30300
H  28.67500 -3.32100 42.76200
H  27.52500 -2.22300 43.36700
H  19.79900 -6.13900 44.29500
H  18.66700 -7.14000 45.12600
H  19.79300 -7.87300 43.87800
H  18.56400 -11.27400 47.48400
H  20.07300 -10.79300 48.31700
H  20.00800 -11.70200 46.77400
H  24.43500 -12.09400 48.61000
H  25.70000 -10.72400 50.71300
H  22.91800 -12.51700 50.16500
H  22.52900 -10.96200 50.44100
H  23.93200 -11.62800 51.37700
H  27.79600 -11.49200 48.57700
H  26.54000 -12.70700 48.96700
H  27.81900 -13.31400 50.70500
H  27.73700 -11.71700 51.38600
H  28.97700 -12.08500 50.21000
H  30.28600 -7.97500 49.85600
H  31.21200 -6.85400 48.77900
H  30.68800 -8.49400 48.30800
H  28.90300 -4.05400 44.98600
H  28.67400 0.11500 46.50800
H  27.01800 -0.27200 46.76500
H  27.68100 0.00600 45.06300
Mg 43.83300 3.73600 47.59000
C  41.52700 6.33800 47.38100
C  41.10400 1.48000 47.44000
C  46.00900 1.34300 47.02000
C  46.42600 6.19700 47.03000
N  41.57700 3.85700 47.24200
C  40.88200 5.04900 47.40800
C  39.33900 4.79200 47.70700
C  39.32500 3.24100 47.85300
C  40.74400 2.82200 47.55900
C  38.86000 2.76200 49.22500
C  38.39200 5.36800 46.56200
C  38.84100 5.01500 45.10500
H  39.17500 6.14300 44.19900
N  43.58400 1.67600 47.30800
C  42.40400 0.93500 47.35600
C  42.74900 -0.37300 47.00400
C  44.16500 -0.52100 47.08100
C  44.62500 0.86700 47.13300
C  41.68800 -1.40600 46.57200
C  44.96300 -1.80800 46.88400
O  44.36400 -2.84100 46.66600
C  46.47700 -1.86500 46.99400
N  45.92200 3.74200 47.06200
C  46.57700 2.61100 47.07400
C  48.09500 2.82100 47.00100
C  48.22400 4.39900 47.07400
C  46.77100 4.82000 46.96100
C  49.01900 2.01300 48.01400
C  49.18800 5.09900 46.07200
C  50.44700 5.65600 46.71300
N  44.05800 5.91000 47.37600
C  45.14900 6.71900 47.21000
C  44.64700 8.08400 47.30000
C  43.26000 8.03200 47.32900
C  42.97300 6.62200 47.31400
C  45.52300 9.31700 47.47400
C  41.96900 8.72300 47.35800
O  41.76200 9.93800 47.38800
C  40.83600 7.68300 47.42200
C  39.93800 7.93000 48.63300
O  40.12800 7.46200 49.71000
O  38.82800 8.68000 48.32600
C  37.88600 8.91300 49.40300
H  40.26900 0.79300 47.58900
H  46.75100 0.55100 46.89500
H  47.23400 6.93100 46.99500
H  39.06300 5.31200 48.62400
H  38.74100 2.79500 47.04700
H  39.66800 2.47800 49.90000
H  38.16000 1.94700 49.03800
H  38.30500 3.52700 49.76700
H  38.32300 6.45500 46.61300
H  37.41200 4.93700 46.76500
H  38.03300 4.44800 44.64500
H  39.73200 4.39000 45.04800
H  42.01400 -1.80900 45.61300
H  40.74700 -0.86200 46.49500
H  41.73700 -2.14000 47.37700
H  46.66900 -1.39600 47.96000
H  46.89500 -1.44300 46.08000
H  46.68300 -2.92700 46.86300
H  48.41800 2.58200 45.98700
H  48.53000 4.69900 48.07600
H  49.53100 1.22200 47.46500
H  48.37300 1.59600 48.78700
H  49.69100 2.77100 48.41600
H  48.69800 5.83700 45.43700
H  49.56700 4.29000 45.44800
H  51.31100 5.28900 46.16000
H  50.54100 5.37800 47.76300
H  50.39500 6.73500 46.57200
H  45.26000 9.96600 46.64000
H  46.55400 9.01400 47.28700
H  45.35100 9.79900 48.43700
H  40.21900 7.89700 46.54900
H  38.46900 9.35400 50.21100
H  37.52600 7.97900 49.83500
H  37.00500 9.45400 49.05800

