158

Mg 47.37100 34.56200 27.12100
C  45.81800 32.84600 29.79800
C  47.58400 37.27300 29.34300
C  48.59100 36.42400 24.55100
C  46.83900 31.96300 25.03300
N  47.07300 34.96000 29.44500
C  46.38000 34.08600 30.25000
C  46.34500 34.55900 31.72900
C  46.49400 36.13400 31.49600
C  47.14500 36.15800 30.01200
C  45.25500 37.04900 31.66800
C  47.59300 33.92600 32.56500
C  47.34900 33.35100 33.87000
H  48.13800 34.04900 34.97800
N  48.12300 36.56100 27.02600
C  48.10500 37.48700 28.04200
C  48.66700 38.72800 27.49100
C  48.95100 38.54600 26.15200
C  48.60800 37.14000 25.81800
C  49.10300 39.90700 28.44500
C  49.56000 39.56100 25.22600
O  50.05200 39.27800 24.11600
C  49.91000 41.03200 25.76300
N  47.67300 34.27800 25.07400
C  48.13600 35.15000 24.17800
C  48.15000 34.69500 22.72400
C  47.62000 33.20700 22.97900
C  47.41800 33.10300 24.49300
C  47.15700 35.60000 21.90500
C  48.57400 32.16400 22.43600
C  49.65500 31.72000 23.39100
N  46.52600 32.77800 27.31300
C  46.41200 31.81400 26.35300
C  45.68500 30.67300 26.95200
C  45.40800 31.05500 28.30000
C  46.01400 32.33300 28.44900
C  45.34200 29.39000 26.29300
C  44.68900 30.66500 29.49600
O  44.12900 29.56600 29.74700
C  44.78200 31.92600 30.45200
C  45.13000 31.28600 31.74900
O  46.18800 30.87600 32.12400
O  43.98900 31.27500 32.42700
C  44.07900 30.57900 33.75000
H  47.60200 38.17800 29.95500
H  49.09800 37.00300 23.77600
H  46.66100 31.02900 24.49500
H  45.43100 34.30200 32.26500
H  47.26900 36.60600 32.10000
H  45.20000 37.70600 32.53600
H  44.37200 36.41200 31.61400
H  45.23600 37.73100 30.81800
H  48.36200 34.69800 32.57400
H  47.98600 33.15600 31.90000
H  47.67500 32.31600 33.96600
H  46.28200 33.36600 34.09400
H  49.25000 39.58400 29.47600
H  48.50000 40.80100 28.28800
H  50.11600 40.16200 28.13600
H  49.02500 41.48000 26.21500
H  50.22900 41.52500 24.84400
H  50.75800 41.05500 26.44700
H  49.14700 34.75500 22.28800
H  46.59600 33.12600 22.61500
H  46.86800 36.42000 22.56200
H  46.31300 35.07400 21.46100
H  47.78800 36.11500 21.18000
H  49.00000 32.58900 21.52700
H  48.00900 31.26900 22.17400
H  50.52600 31.54200 22.76100
H  49.44500 30.79600 23.92900
H  49.90400 32.58100 24.01300
H  44.75600 28.68700 26.88500
H  46.22100 28.87200 25.90700
H  44.69900 29.59300 25.43700
H  43.83300 32.46100 30.43500
H  44.51900 29.59800 33.57100
H  43.11300 30.56300 34.25700
H  44.73000 31.10900 34.44500
Mg 26.21100 50.49600 26.19900
C  23.92500 51.68700 28.60000
C  28.45700 49.74900 28.76600
C  28.44300 49.65700 23.92400
C  24.08300 51.67800 23.70200
N  26.18400 50.83000 28.35900
C  25.09700 51.10000 29.13000
C  25.43100 50.81300 30.57900
C  27.00300 50.62400 30.66200
C  27.28800 50.40800 29.14600
C  27.86500 51.72900 31.21700
C  24.63000 49.69100 31.30900
C  24.00000 50.12500 32.67000
H  25.05700 50.58400 33.71500
N  28.10900 49.65000 26.33400
C  28.86900 49.40300 27.45800
C  30.07600 48.82700 27.06200
C  30.17300 48.89500 25.62800
C  28.86000 49.37400 25.19100
C  31.27500 48.42500 27.94700
C  31.32400 48.66800 24.71000
O  31.24600 48.74200 23.46500
C  32.78400 48.35500 25.18600
N  26.27100 50.65200 24.11100
C  27.29200 50.32500 23.37700
C  26.99800 50.36700 21.83200
C  25.47400 50.80800 21.80800
C  25.22800 51.05600 23.31800
C  27.90300 51.28500 20.98300
C  24.37300 49.84100 21.23500
C  23.79700 48.73500 21.99700
N  24.33100 51.58300 26.08800
C  23.62500 52.00500 25.02600
C  22.39800 52.61000 25.50000
C  22.44400 52.55300 26.87000
C  23.65100 51.89800 27.23300
C  21.39700 53.39300 24.58700
C  21.76200 52.89900 28.19300
O  20.66700 53.45200 28.32200
C  22.68400 52.25700 29.32300
C  23.12700 53.30000 30.22700
O  23.96300 54.19400 29.93700
O  22.48900 53.13200 31.47800
C  22.92500 54.00900 32.58500
H  29.05100 49.29500 29.56200
H  29.11300 49.30800 23.13500
H  23.49100 52.08800 22.88100
H  25.20500 51.71100 31.15400
H  27.19900 49.66600 31.14400
H  27.26900 52.64100 31.25500
H  28.75500 51.78900 30.59100
H  28.12900 51.52900 32.25500
H  25.11900 48.71800 31.35800
H  23.85700 49.41700 30.59200
H  23.60000 49.16300 32.98900
H  23.23700 50.90200 32.61500
H  30.99600 48.33600 28.99700
H  32.04100 49.19800 27.88300
H  31.70900 47.43900 27.77900
H  33.00200 49.06200 25.98700
H  33.48000 48.41300 24.34900
H  32.85600 47.32700 25.54100
H  27.06800 49.38400 21.36600
H  25.33900 51.85100 21.52300
H  28.75200 50.81100 20.49000
H  28.31000 52.03500 21.66100
H  27.45900 51.91400 20.21100
H  24.87000 49.34500 20.40000
H  23.63600 50.40900 20.66800
H  24.08500 48.68200 23.04600
H  24.06900 47.77100 21.56700
H  22.72600 48.90500 21.88500
H  21.41800 53.11900 23.53300
H  21.59500 54.46500 24.55800
H  20.44600 53.08700 25.02300
H  22.25000 51.49300 29.96800
H  23.00400 55.02100 32.18800
H  23.88000 53.71500 33.02200
H  22.25100 54.01700 33.44200

