158

Mg 2.75000 -0.77700 44.04300
C  5.88800 0.69700 43.57000
C  1.51600 2.00400 42.16100
C  -0.31400 -2.27800 43.82900
C  4.00000 -3.60700 45.25300
N  3.67100 1.07400 42.85000
C  4.95100 1.50500 42.90100
C  5.19800 2.87000 42.31900
C  3.77900 3.37500 42.04100
C  2.94200 2.07500 42.33800
C  3.38400 4.63000 42.83300
C  6.17200 2.94500 41.11600
C  6.12200 1.81200 40.03500
H  5.97700 2.04900 38.44900
N  0.91900 -0.26900 43.04200
C  0.58900 0.94600 42.45400
C  -0.80400 0.95400 42.09700
C  -1.30800 -0.32400 42.48100
C  -0.18800 -1.05800 43.17600
C  -1.46900 2.05700 41.43000
C  -2.65700 -0.78400 42.12300
O  -3.40800 -0.13100 41.42900
C  -3.20900 -2.14600 42.52300
N  1.94000 -2.77500 44.41600
C  0.65100 -3.13500 44.36600
C  0.35700 -4.42600 45.07500
C  1.78300 -4.90800 45.45700
C  2.60500 -3.69600 45.03000
C  -0.59200 -4.36600 46.28400
C  2.27800 -6.29300 44.95600
C  2.94900 -7.23900 45.87300
N  4.48400 -1.31500 44.50800
C  4.90300 -2.51600 45.01200
C  6.35800 -2.45900 45.22900
C  6.78900 -1.14000 44.70200
C  5.61600 -0.58600 44.17300
C  7.17700 -3.60400 45.93100
C  7.91000 -0.31600 44.44500
O  9.05800 -0.47400 44.72900
C  7.36700 0.97600 43.79600
C  7.43600 2.01000 44.84100
O  6.71200 2.21000 45.74800
O  8.46600 2.83300 44.57000
C  8.84700 3.87000 45.61600
H  1.17500 2.92400 41.68200
H  -1.29700 -2.75300 43.83900
H  4.46100 -4.50300 45.67400
H  5.71000 3.48100 43.06200
H  3.70400 3.63200 40.98500
H  2.55800 4.48500 43.52900
H  3.10800 5.40300 42.11600
H  4.15200 5.02000 43.50100
H  7.09200 2.99800 41.69800
H  6.03000 3.92900 40.66900
H  5.33500 1.09900 40.27900
H  7.07400 1.29100 40.14300
H  -1.54500 1.76700 40.38200
H  -1.00400 3.03900 41.50100
H  -2.39900 2.15000 41.99100
H  -4.22300 -2.17100 42.12400
H  -3.40500 -2.08800 43.59400
H  -2.63600 -2.99300 42.14700
H  -0.01400 -5.19700 44.39900
H  1.90300 -4.80900 46.53500
H  -0.03000 -4.43700 47.21400
H  -1.41000 -5.08600 46.26500
H  -1.11800 -3.41200 46.24900
H  2.90100 -6.19800 44.06700
H  1.37300 -6.74100 44.54500
H  3.89300 -7.60400 45.46700
H  2.30100 -8.10500 46.00500
H  3.15400 -6.75500 46.82800
H  8.07900 -3.21900 46.40800
H  7.47100 -4.36300 45.20600
H  6.67100 -4.10600 46.75600
H  7.86500 1.22200 42.85900
H  8.41700 4.85700 45.44600
H  9.93500 3.88800 45.68100
H  8.44500 3.50800 46.56200
Mg -2.26900 34.77100 27.14000
C  -4.09900 33.17900 29.72700
C  -0.83400 36.84100 29.42600
C  -1.32700 36.82900 24.57700
C  -4.26500 32.89200 24.93000
N  -2.54800 35.02700 29.38700
C  -3.30000 34.25100 30.25500
C  -2.99300 34.58800 31.73100
C  -2.26400 35.98500 31.51800
C  -1.77600 35.93500 30.06500
C  -2.96000 37.29600 31.80700
C  -2.17300 33.48600 32.41300
C  -1.92300 33.72300 33.88000
H  -2.48600 32.82800 34.93300
N  -1.06800 36.43300 27.02000
C  -0.44400 37.08500 28.07500
C  0.43200 38.09400 27.56400
C  0.27400 38.12300 26.10800
C  -0.78400 37.10600 25.84700
C  1.35800 38.85800 28.45200
C  1.14100 38.90500 25.08700
O  0.89200 38.73800 23.91400
C  2.23200 39.76900 25.42200
N  -2.80000 34.91700 25.07100
C  -2.22500 35.88600 24.19700
C  -2.73800 35.70400 22.75500
C  -3.56400 34.34300 22.86100
C  -3.54800 33.98200 24.36800
C  -3.56400 36.88600 22.27900
C  -3.24100 33.12900 21.82300
C  -2.32500 31.93100 22.38200
N  -3.84900 33.28100 27.20000
C  -4.48400 32.53600 26.24800
C  -5.40700 31.61000 26.79700
C  -5.21200 31.76200 28.18800
C  -4.30500 32.84600 28.40600
C  -6.31600 30.67100 26.09300
C  -5.64800 31.23400 29.47800
O  -6.56500 30.45600 29.82400
C  -4.92300 32.14500 30.48600
C  -5.94300 32.73000 31.42400
O  -6.85000 33.45500 31.01600
O  -5.73500 32.36300 32.76100
C  -6.82400 32.65300 33.62500
H  -0.27600 37.42800 30.15900
H  -0.99000 37.54300 23.82300
H  -4.74500 32.14500 24.29400
H  -3.90500 34.78100 32.29600
H  -1.29400 35.92600 32.01100
H  -3.76200 37.20000 32.53800
H  -3.33900 37.59200 30.83000
H  -2.23200 37.97500 32.25200
H  -1.17000 33.37600 32.00200
H  -2.77500 32.58000 32.34300
H  -2.25200 34.73900 34.09700
H  -0.84600 33.79900 34.02900
H  0.87100 39.81100 28.65800
H  2.33800 38.94000 27.98300
H  1.57600 38.39400 29.41400
H  2.66200 40.35900 24.61200
H  3.02700 39.11300 25.77600
H  1.96100 40.53400 26.15000
H  -1.83800 35.67100 22.14100
H  -4.61800 34.56900 22.70000
H  -4.62100 36.62100 22.30200
H  -3.30900 37.29900 21.30400
H  -3.59100 37.64900 23.05700
H  -2.82000 33.64100 20.95800
H  -4.20300 32.76600 21.45900
H  -1.73100 31.58100 21.53800
H  -2.98000 31.07800 22.55900
H  -1.67400 32.20500 23.21200
H  -7.30000 31.13900 26.05800
H  -6.37500 29.83200 26.78600
H  -6.03800 30.27700 25.11500
H  -4.18700 31.51100 30.97900
H  -6.50400 32.93400 34.62900
H  -7.32400 31.68700 33.69300
H  -7.48300 33.44200 33.26300

