158

Mg 47.51700 34.73100 27.15400
C  45.48400 33.46500 29.57500
C  47.99200 37.57300 29.05600
C  48.84400 36.24600 24.56000
C  46.55400 32.10900 25.01000
N  46.91000 35.37200 29.11000
C  46.16400 34.63000 29.98000
C  46.15700 35.24100 31.38400
C  46.65600 36.72800 31.14000
C  47.23800 36.56900 29.73200
C  45.54200 37.82900 31.19900
C  47.16400 34.52100 32.31500
C  46.84300 34.38900 33.81000
H  47.72900 34.96200 34.77200
N  48.49300 36.60600 26.91400
C  48.55200 37.61300 27.76300
C  49.26500 38.77700 27.20700
C  49.66800 38.31500 25.90600
C  49.01100 37.00000 25.75200
C  49.59400 39.96600 27.95000
C  50.48600 39.00900 24.84100
O  50.63800 38.49800 23.76500
C  51.11400 40.39100 25.15600
N  47.74400 34.23900 25.13500
C  48.41400 35.02500 24.30800
C  48.48500 34.32300 22.92100
C  47.72400 33.02800 23.04000
C  47.32100 33.10800 24.49200
C  48.22600 35.21600 21.69400
C  48.49300 31.68300 22.66100
C  47.89300 30.80800 21.55000
N  46.29400 33.07400 27.25300
C  46.07200 32.05600 26.33100
C  45.21100 31.07700 26.97300
C  44.97700 31.60000 28.27100
C  45.60300 32.82000 28.37300
C  44.79800 29.73600 26.44400
C  44.38700 31.26400 29.47000
O  43.82100 30.30100 29.78600
C  44.47000 32.54300 30.35700
C  44.67400 32.26000 31.81000
O  45.53700 31.59800 32.33400
O  43.71500 32.95300 32.56400
C  43.41900 32.54100 33.93700
H  48.22300 38.39300 29.73900
H  49.16000 36.73500 23.63600
H  46.37400 31.26100 24.34600
H  45.15400 35.28900 31.80700
H  47.49400 36.95200 31.80100
H  45.44200 38.29200 30.21700
H  45.69700 38.52100 32.02700
H  44.53900 37.42600 31.33500
H  48.12800 35.03000 32.32600
H  47.31400 33.56300 31.81800
H  46.82000 33.34400 34.12100
H  45.84700 34.65800 34.16200
H  50.67700 40.01200 27.84000
H  49.41900 39.81800 29.01500
H  49.09900 40.80100 27.45400
H  50.32300 40.97800 25.62300
H  51.34400 40.83800 24.18800
H  51.96100 40.17600 25.80800
H  49.53200 34.08900 22.72600
H  46.78600 33.10200 22.49000
H  47.55200 34.72500 20.99100
H  49.08500 35.47000 21.07400
H  47.68100 36.10100 22.02200
H  48.51100 31.07700 23.56800
H  49.49600 31.97100 22.34800
H  48.71000 30.70200 20.83600
H  47.02300 31.32700 21.14800
H  47.60600 29.84000 21.96100
H  45.19000 29.00500 27.15100
H  45.45000 29.67000 25.57400
H  43.73500 29.51900 26.33800
H  43.50500 33.04500 30.28400
H  43.45300 31.45400 34.00700
H  42.39900 32.87700 34.12600
H  44.12900 32.98100 34.63800
Mg 35.72900 49.53600 24.99000
C  35.60600 47.87400 28.08200
C  34.45600 52.38500 26.60300
C  35.09800 50.82600 22.00300
C  37.01500 46.58900 23.60600
N  35.15900 50.03900 27.17100
C  35.25800 49.20900 28.26600
C  34.85900 49.89300 29.54500
C  34.62600 51.40200 29.06100
C  34.85000 51.34900 27.51500
C  33.38500 52.19400 29.56300
C  35.89200 49.76200 30.68300
C  35.43900 49.32400 32.14900
H  34.01000 49.54400 32.63900
N  34.77800 51.34900 24.40400
C  34.34900 52.36200 25.22500
C  33.69400 53.34600 24.46600
C  33.96500 53.05400 23.06900
C  34.65200 51.72200 23.07500
C  33.18600 54.63600 25.07400
C  33.69000 53.79700 21.78600
O  34.13700 53.45300 20.71900
C  32.85100 55.07700 21.88700
N  35.92300 48.76900 23.07100
C  35.60000 49.51500 21.96800
C  36.05300 48.75300 20.74100
C  36.93400 47.56300 21.28700
C  36.59200 47.60700 22.77200
C  34.97600 48.39400 19.69300
C  38.48500 47.61900 21.04300
C  39.17100 46.27600 20.80300
N  36.28700 47.61200 25.60300
C  36.74000 46.47600 24.94000
C  36.73100 45.32700 25.77500
C  36.29500 45.88000 27.03800
C  35.99300 47.21700 26.87200
C  36.98200 43.90900 25.45900
C  36.02300 45.48800 28.46600
O  36.07900 44.43200 29.01700
C  35.66600 46.78600 29.14100
C  34.46600 46.42900 29.90300
O  33.31400 46.41000 29.51800
O  34.86600 46.03600 31.17700
C  33.85800 45.33100 31.94800
H  34.02100 53.29200 27.02600
H  35.10800 51.35600 21.04900
H  37.46700 45.68800 23.18600
H  33.89100 49.54800 29.91000
H  35.49900 51.97400 29.37600
H  33.68300 52.94900 30.29100
H  32.73700 51.46000 30.04100
H  32.84500 52.69000 28.75700
H  36.31600 50.74100 30.90400
H  36.75500 49.11800 30.51300
H  36.13400 49.73300 32.88300
H  35.66500 48.25900 32.09900
H  33.06900 54.68100 26.15700
H  32.20200 54.74200 24.61600
H  33.69400 55.58600 24.91000
H  32.93100 55.67600 20.98000
H  33.42500 55.63400 22.62800
H  31.80700 54.88400 22.13200
H  36.81700 49.40500 20.31700
H  36.47100 46.61100 21.02900
H  34.34600 49.27300 19.55400
H  34.26000 47.66500 20.07200
H  35.44300 48.02200 18.78200
H  38.88200 48.17000 21.89600
H  38.51400 48.16800 20.10200
H  39.54200 46.18800 19.78200
H  38.53700 45.39900 20.93300
H  40.06600 46.21200 21.42200
H  36.34900 43.63800 24.61400
H  36.56800 43.40300 26.33100
H  38.02600 43.74300 25.19500
H  36.39100 47.03800 29.91500
H  32.98300 45.91600 32.23200
H  34.24500 45.09400 32.93900
H  33.54100 44.42000 31.44100

