158

Mg 9.02400 4.42500 28.04100
C  10.35600 2.80000 30.91200
C  7.46000 6.52000 30.22700
C  7.64100 5.76400 25.37800
C  10.52000 1.95000 26.00500
N  8.94200 4.56300 30.36900
C  9.57600 3.85500 31.29800
C  9.31700 4.41600 32.75600
C  8.42800 5.64000 32.40100
C  8.29900 5.60700 30.89100
C  6.98100 5.42200 33.07400
C  10.66000 4.70000 33.59000
C  10.61200 5.65700 34.80000
H  11.12800 5.18900 36.12700
N  7.81300 6.02200 27.77500
C  7.18500 6.71100 28.83000
C  6.34800 7.65800 28.26100
C  6.40600 7.49400 26.85800
C  7.30200 6.35100 26.61100
C  5.57000 8.72400 29.02100
C  5.68000 8.26300 25.79300
O  5.78900 8.02900 24.58300
C  4.56400 9.33000 26.16400
N  9.20500 3.95600 25.88200
C  8.34600 4.64700 25.09500
C  8.64500 4.24900 23.66700
C  9.52200 2.94600 23.80200
C  9.74400 2.93100 25.29600
C  7.31800 4.07200 22.86100
C  10.76200 2.92900 22.90500
C  10.76800 1.82500 21.79200
N  10.25300 2.78900 28.31500
C  10.74800 1.85600 27.38600
C  11.58400 0.89100 28.12100
C  11.42700 1.24700 29.47800
C  10.63700 2.39400 29.52800
C  12.22700 -0.35600 27.60400
C  11.78600 0.84600 30.82900
O  12.50000 -0.08000 31.19700
C  11.22400 1.86700 31.76600
C  10.34100 1.23100 32.75900
O  9.23300 0.86800 32.52900
O  10.96300 1.18900 33.94800
C  10.12900 0.47200 34.95200
H  6.83300 7.18100 30.83000
H  7.29500 6.34400 24.52100
H  11.00800 1.18700 25.39600
H  8.72600 3.75300 33.38700
H  8.95300 6.52500 32.76100
H  6.63600 6.36500 33.49900
H  7.07900 4.64800 33.83400
H  6.28300 5.12500 32.29200
H  11.40400 4.97200 32.84100
H  10.85700 3.80500 34.18000
H  9.60700 5.96900 35.08300
H  11.13200 6.57100 34.51400
H  5.94300 8.84000 30.03900
H  4.52800 8.41500 28.93800
H  5.60200 9.74000 28.62800
H  3.87100 8.95300 26.91500
H  3.96900 9.64400 25.30600
H  5.02200 10.25100 26.52500
H  9.20300 5.01300 23.12500
H  8.95800 2.03100 23.62400
H  7.31400 3.13800 22.29900
H  7.24200 4.94600 22.21500
H  6.47600 4.15600 23.54800
H  11.63700 2.64100 23.48900
H  10.98800 3.88800 22.43900
H  11.40600 1.06900 22.24900
H  11.21700 2.24000 20.89000
H  9.79400 1.37300 21.60300
H  11.47800 -1.08800 27.30400
H  12.96100 -0.69300 28.33600
H  12.70800 -0.00500 26.69100
H  12.06000 2.38100 32.24000
H  9.21500 1.03300 35.14500
H  10.61300 0.44600 35.92800
H  9.90400 -0.54900 34.64600
Mg -5.29000 25.56100 26.96100
C  -3.93700 27.27900 29.65900
C  -7.08900 23.72800 29.15100
C  -6.34700 23.73200 24.35000
C  -3.23600 27.30000 24.85000
N  -5.51100 25.54000 29.19500
C  -4.87800 26.33300 30.08500
C  -5.33200 26.00000 31.53900
C  -6.00600 24.57000 31.29800
C  -6.17600 24.55800 29.76600
C  -5.21200 23.30000 31.90000
C  -6.30000 27.03000 32.06500
C  -6.30500 27.10500 33.60200
H  -5.70000 25.99300 34.42400
N  -6.64200 24.08300 26.82200
C  -7.27600 23.41800 27.77200
C  -8.22700 22.58000 27.23600
C  -8.08400 22.57600 25.80400
C  -7.00800 23.51800 25.61800
C  -9.22900 21.78100 28.12200
C  -8.86100 21.88100 24.76400
O  -8.62400 22.12900 23.59500
C  -9.81300 20.81100 25.14700
N  -4.81100 25.47600 24.91400
C  -5.44800 24.66400 24.02500
C  -5.04600 24.93100 22.57100
C  -4.22100 26.24400 22.76000
C  -4.06500 26.39800 24.24100
C  -4.20100 23.78100 21.88200
C  -4.70000 27.54300 22.05400
C  -4.01700 27.71700 20.67700
N  -3.80400 26.89400 27.17100
C  -3.14600 27.65600 26.21700
C  -2.45100 28.76500 26.82100
C  -2.71700 28.67200 28.17700
C  -3.51400 27.50700 28.33700
C  -1.72200 29.89200 26.17600
C  -2.54800 29.24900 29.53800
O  -1.98300 30.27900 29.93400
C  -3.37600 28.37300 30.47600
C  -2.48900 28.03900 31.64300
O  -1.50300 27.36000 31.60600
O  -3.07000 28.58700 32.80200
C  -2.40100 28.32300 34.09900
H  -7.62600 23.17700 29.92600
H  -6.60000 23.10200 23.49500
H  -2.66600 27.94300 24.17600
H  -4.39300 25.95000 32.09000
H  -6.99800 24.65900 31.74100
H  -4.29400 23.80600 32.19800
H  -4.97400 22.58200 31.11500
H  -5.73000 22.77100 32.70000
H  -7.27200 26.75600 31.65500
H  -5.93300 27.97800 31.67200
H  -7.34500 27.11600 33.92700
H  -5.71600 27.99700 33.81300
H  -10.06100 22.47100 28.26200
H  -8.87400 21.73000 29.15100
H  -9.42100 20.79100 27.70800
H  -9.35200 19.94800 25.62600
H  -10.34200 20.49300 24.24800
H  -10.50400 21.31800 25.82100
H  -5.94200 25.16200 21.99400
H  -3.22100 26.07600 22.36000
H  -4.27800 22.89200 22.50700
H  -3.11900 23.91200 21.89300
H  -4.53100 23.49600 20.88300
H  -4.43400 28.44300 22.60900
H  -5.77500 27.36300 22.07600
H  -3.06200 28.21400 20.85000
H  -4.66900 28.23100 19.97100
H  -3.70800 26.75600 20.26600
H  -0.66000 29.74400 25.98100
H  -1.88600 30.83100 26.70500
H  -2.14300 30.24800 25.23600
H  -4.14100 29.08200 30.79100
H  -3.13000 28.26000 34.90700
H  -1.67100 29.08600 34.37000
H  -1.85800 27.38000 34.04700

