158

Mg 24.88800 -4.68500 46.61600
C  26.67700 -2.18100 44.83900
C  22.23500 -4.14000 44.38100
C  23.37700 -7.62900 47.52200
C  27.68700 -5.29300 48.38000
N  24.51300 -3.45900 44.78400
C  25.36100 -2.44700 44.33900
C  24.81100 -1.86500 43.02100
C  23.27200 -2.24500 43.10200
C  23.32000 -3.31100 44.16900
C  22.26100 -1.04200 43.32000
C  25.53600 -2.43300 41.71400
C  26.37900 -1.43700 40.92000
H  26.28900 -1.60700 39.34100
N  22.97400 -5.72500 46.10900
C  22.04800 -5.33900 45.16900
C  20.96900 -6.29000 45.10000
C  21.39400 -7.35100 45.96800
C  22.58300 -6.94900 46.62900
C  19.76600 -6.16600 44.24900
C  20.61400 -8.59200 46.20800
O  19.45100 -8.67100 45.82900
C  21.20200 -9.86500 46.81500
N  25.43200 -6.24700 47.72400
C  24.66900 -7.32900 48.02400
C  25.47000 -8.32600 48.91300
C  26.77600 -7.51100 49.22200
C  26.62600 -6.24700 48.39700
C  24.83400 -8.77200 50.21200
C  28.09300 -8.34100 48.98400
C  28.99800 -8.63900 50.21500
N  26.78000 -3.89800 46.71200
C  27.81800 -4.17500 47.52300
C  28.91000 -3.30100 47.29300
C  28.51400 -2.49800 46.22200
C  27.21500 -2.90600 45.97200
C  30.25500 -3.50300 47.96400
C  29.05400 -1.56600 45.26000
O  30.20200 -1.18000 44.96600
C  27.78700 -1.15700 44.44300
C  27.43300 0.30600 44.55400
O  27.98800 1.18000 43.91000
O  26.40000 0.37600 45.41000
C  25.74000 1.67900 45.60700
H  21.32600 -3.89000 43.83000
H  22.92100 -8.52200 47.95300
H  28.55500 -5.34600 49.04000
H  24.90700 -0.77900 43.03000
H  22.95900 -2.79700 42.21600
H  21.65900 -1.14400 44.22300
H  21.59500 -0.85400 42.47800
H  22.86500 -0.14000 43.42000
H  24.79500 -2.73900 40.97500
H  26.15900 -3.29400 41.95500
H  27.40900 -1.60500 41.23300
H  26.09300 -0.46000 41.31000
H  19.98800 -6.76400 43.36600
H  19.57300 -5.16100 43.87300
H  18.81700 -6.55300 44.62100
H  22.16000 -10.06400 46.33400
H  20.51000 -10.70200 46.71700
H  21.34600 -9.74500 47.88900
H  25.66400 -9.24500 48.36000
H  26.76200 -7.16900 50.25700
H  24.02400 -8.07400 50.42500
H  25.51100 -8.72400 51.06500
H  24.35800 -9.74800 50.30500
H  28.74700 -7.76600 48.32900
H  27.72700 -9.24100 48.49000
H  28.96200 -9.72400 50.32200
H  28.60000 -8.29100 51.16900
H  30.02400 -8.35300 49.98200
H  30.83300 -2.58300 47.88200
H  30.89500 -4.25000 47.49400
H  30.20000 -3.90500 48.97600
H  28.07500 -1.30200 43.40200
H  24.95700 1.69200 44.84800
H  26.40000 2.50100 45.33100
H  25.20100 1.71800 46.55400
Mg 42.25400 41.42100 26.68700
C  41.44300 43.54400 29.31700
C  43.20800 39.04700 28.97200
C  43.36900 39.46400 24.08700
C  41.51900 43.92500 24.46100
N  42.28300 41.34100 28.93900
C  41.94000 42.35200 29.78800
C  42.17700 41.87900 31.24800
C  42.59600 40.41900 31.15200
C  42.64000 40.14900 29.59500
C  43.96700 40.02300 31.75200
C  41.08600 42.35100 32.24000
C  40.64800 41.38500 33.32400
H  39.96600 41.78100 34.62500
N  43.27300 39.54800 26.53100
C  43.51600 38.76700 27.59200
C  43.99800 37.48900 27.05500
C  44.01000 37.53800 25.62600
C  43.55500 38.90400 25.36400
C  44.46200 36.41700 28.05300
C  44.49700 36.48700 24.67900
O  44.46200 36.63600 23.48100
C  44.83200 35.12300 25.15700
N  42.43100 41.61800 24.57800
C  42.80500 40.65000 23.70000
C  42.68500 41.01600 22.22500
C  41.83000 42.32100 22.38300
C  41.98800 42.73300 23.86800
C  44.07400 41.14900 21.54300
C  40.43800 42.16000 21.79900
C  39.41600 41.61600 22.69700
N  41.70200 43.36900 26.78700
C  41.44900 44.30000 25.86700
C  40.88000 45.48000 26.43700
C  40.86900 45.18900 27.77600
C  41.49100 43.95200 27.97500
C  40.58500 46.68800 25.57900
C  40.48800 45.71000 29.05800
O  39.99700 46.83200 29.25100
C  40.88900 44.74200 30.09700
C  41.76400 45.39800 31.06600
O  43.01200 45.35700 31.07600
O  41.01400 46.14800 31.91300
C  41.68400 46.46400 33.28100
H  43.63800 38.36400 29.70800
H  43.58300 38.87100 23.19600
H  41.10700 44.57700 23.68800
H  43.02100 42.53500 31.46000
H  41.93600 39.71700 31.66200
H  44.76800 40.23100 31.04300
H  43.88500 38.98800 32.08200
H  44.18300 40.76800 32.51700
H  40.19900 42.47800 31.61900
H  41.40300 43.35700 32.51500
H  41.53100 40.80700 33.59700
H  40.01200 40.66200 32.81400
H  45.42800 36.16400 27.61700
H  43.69300 35.64500 28.09700
H  44.64700 36.72800 29.08100
H  45.73400 35.05600 25.76600
H  44.90700 34.49600 24.26900
H  43.96800 34.92400 25.79100
H  42.14800 40.18500 21.76900
H  42.17800 43.13100 21.74100
H  44.82400 40.85400 22.27700
H  44.37400 42.16200 21.27500
H  44.15700 40.44600 20.71400
H  40.54800 41.60400 20.86800
H  40.22600 43.19500 21.52900
H  39.91200 41.18700 23.56800
H  38.87200 40.86000 22.13100
H  38.73200 42.36900 23.08900
H  41.42700 46.89000 24.91700
H  40.27800 47.55300 26.16800
H  39.64500 46.41500 25.10000
H  39.92300 44.62700 30.58900
H  42.07900 45.53500 33.69300
H  41.01500 46.79600 34.07500
H  42.47900 47.19400 33.12700

