158

Mg 37.09700 49.80900 25.05900
C  37.27900 47.95700 28.11400
C  35.49300 52.33700 26.94200
C  36.42800 51.50600 22.32300
C  38.36100 47.21200 23.43500
N  36.51100 50.14700 27.29500
C  36.85100 49.29800 28.29500
C  36.48600 49.91900 29.67300
C  35.67200 51.20300 29.32500
C  35.81200 51.24000 27.74100
C  34.17400 51.28400 29.76900
C  37.68500 50.13900 30.61700
C  37.54400 50.19000 32.13700
H  36.07600 50.03500 32.80400
N  36.23600 51.78800 24.67000
C  35.68100 52.69700 25.57600
C  35.24100 53.87500 24.93500
C  35.29800 53.56900 23.48300
C  36.00100 52.23800 23.40400
C  34.60900 55.06800 25.72400
C  34.91500 54.43500 22.25200
O  35.15300 54.14800 21.07500
C  34.35800 55.78300 22.52200
N  37.34500 49.41100 23.11100
C  37.08400 50.26800 22.13200
C  37.41500 49.62100 20.71800
C  38.11400 48.26200 21.11400
C  37.99200 48.30600 22.63700
C  36.17800 49.54700 19.83700
C  39.53300 48.30800 20.54200
C  40.53700 48.97800 21.55600
N  37.61600 47.95800 25.62600
C  38.22800 46.98700 24.79300
C  38.54700 45.77000 25.58100
C  38.14900 46.13300 26.90300
C  37.65100 47.43700 26.86400
C  39.08500 44.51800 25.01600
C  38.02700 45.66600 28.26100
O  38.27400 44.54900 28.68800
C  37.55500 46.84900 29.09700
C  36.24500 46.41200 29.81900
O  35.18300 46.24400 29.27300
O  36.49200 46.02200 31.09400
C  35.18200 45.62800 31.83600
H  35.10700 53.10600 27.61500
H  36.26300 51.93100 21.33100
H  38.79400 46.41200 22.83100
H  35.92600 49.07900 30.08200
H  36.17300 52.07800 29.74000
H  34.06900 52.07000 30.51700
H  33.98500 50.32900 30.25900
H  33.48400 51.42100 28.93600
H  38.10800 51.06800 30.23400
H  38.50100 49.45500 30.38700
H  37.97600 51.12300 32.50000
H  38.10100 49.33800 32.52700
H  34.44000 54.90400 26.78800
H  33.62500 55.23900 25.28700
H  35.12000 55.99700 25.47100
H  35.14000 56.45900 22.87000
H  33.63500 55.56000 23.30600
H  33.83200 56.34700 21.75100
H  38.21400 50.21100 20.26800
H  37.56600 47.41700 20.69900
H  35.31900 50.17800 20.06400
H  35.90000 48.50200 19.70200
H  36.46200 49.89800 18.84500
H  39.64000 48.77300 19.56200
H  39.81300 47.26700 20.37900
H  40.16200 49.94100 21.90200
H  41.50800 49.08500 21.07200
H  40.67700 48.14000 22.23800
H  38.29600 43.84600 24.67800
H  39.74100 44.05700 25.75500
H  39.64400 44.77600 24.11600
H  38.18500 47.20300 29.91300
H  34.47100 46.44100 31.69100
H  35.47300 45.38800 32.85900
H  34.89700 44.67400 31.39200
Mg 27.89200 51.02000 26.36400
C  25.85100 52.07100 28.94900
C  30.23400 50.04600 28.63600
C  29.78900 49.99700 23.80900
C  25.50300 52.27500 24.16800
N  27.99600 51.11000 28.50100
C  27.04700 51.55000 29.43900
C  27.51500 51.25000 30.86100
C  28.99200 50.88800 30.63900
C  29.04900 50.57500 29.12300
C  30.01400 51.88200 31.25000
C  26.73500 50.13100 31.57900
C  26.14500 50.39000 32.94600
H  25.71900 49.15200 33.80400
N  29.77300 50.11200 26.25600
C  30.57700 49.77700 27.31800
C  31.85500 49.34700 26.76900
C  31.73500 49.42200 25.34500
C  30.42000 49.92600 25.07300
C  32.99400 48.96900 27.63300
C  32.80700 49.13000 24.32600
O  32.55400 49.14000 23.13700
C  34.18200 48.65500 24.78400
N  27.66800 51.12900 24.26100
C  28.51300 50.47400 23.45700
C  27.96800 50.42400 22.03300
C  26.53400 50.99200 22.19000
C  26.54400 51.51800 23.62000
C  28.89900 51.20000 21.04600
C  25.34200 49.98500 21.96900
C  24.22900 50.60100 21.09700
N  26.06800 51.99700 26.46000
C  25.16900 52.41200 25.49000
C  24.01600 53.00300 26.04100
C  24.25200 52.84600 27.40600
C  25.52200 52.23500 27.62500
C  22.82500 53.71900 25.30600
C  23.64300 53.12700 28.68700
O  22.61400 53.71800 29.02900
C  24.69400 52.63200 29.76300
C  24.98300 53.78300 30.67200
O  26.02200 54.41700 30.65200
O  23.96900 53.80200 31.70000
C  24.20000 54.92300 32.61200
H  30.94800 49.67700 29.37500
H  30.28300 49.52200 22.95900
H  24.67600 52.45300 23.47700
H  27.27300 52.09200 31.50900
H  29.20600 49.89100 31.02700
H  30.76000 51.31500 31.80800
H  29.56900 52.53800 31.99800
H  30.44100 52.58900 30.53800
H  27.37400 49.25600 31.70100
H  25.92400 49.74100 30.96400
H  25.16900 50.85800 32.82200
H  26.82300 51.00900 33.53400
H  33.21200 47.92600 27.40100
H  32.62700 49.00300 28.65800
H  33.83200 49.66700 27.61500
H  34.83800 48.73100 23.91700
H  34.00800 47.61600 25.06500
H  34.63000 49.19400 25.61900
H  27.88800 49.38900 21.70200
H  26.51600 51.90800 21.59900
H  28.39300 52.14800 20.86600
H  29.05600 50.69100 20.09500
H  29.81400 51.35700 21.61700
H  24.89800 49.72100 22.92900
H  25.60900 49.02600 21.52400
H  24.51800 50.36000 20.07400
H  24.17300 51.68800 21.16700
H  23.24300 50.24900 21.39900
H  22.32100 54.47500 25.90900
H  22.16500 52.91100 24.98900
H  23.18600 54.25300 24.42700
H  24.29000 51.87000 30.42900
H  23.23900 55.00700 33.11900
H  24.62300 55.80200 32.12500
H  25.02000 54.70100 33.29500

