158

Mg 47.26200 24.66500 27.62600
C  47.77500 26.90900 30.36000
C  46.25200 22.32900 29.81000
C  46.79300 22.82200 25.04300
C  48.28100 27.41000 25.48400
N  46.89600 24.60300 29.86000
C  47.24100 25.61300 30.73800
C  46.92100 25.24900 32.14000
C  46.53600 23.67800 32.00300
C  46.54300 23.48900 30.51300
C  47.39100 22.68300 32.90900
C  45.79200 26.25800 32.69000
C  45.99000 26.84000 34.11700
H  44.91200 26.78200 35.15700
N  46.60900 22.70700 27.40700
C  46.20700 21.92900 28.37700
C  45.63900 20.72900 27.79600
C  45.81200 20.79600 26.41500
C  46.48300 22.12000 26.22100
C  45.14000 19.57400 28.65300
C  45.37700 19.83600 25.30700
O  45.73100 20.10600 24.15100
C  44.66600 18.48000 25.58900
N  47.73500 25.03300 25.54000
C  47.37500 24.07200 24.72000
C  47.46800 24.52200 23.20900
C  47.75300 26.05900 23.30500
C  48.03100 26.17000 24.82400
C  48.44600 23.64700 22.28600
C  46.57600 26.93400 22.88600
C  45.38800 27.10300 23.78700
N  47.89700 26.68500 27.83800
C  48.33800 27.63700 26.89500
C  48.62000 28.94100 27.57400
C  48.49300 28.59300 28.96800
C  48.03200 27.28700 29.03500
C  49.16500 30.20500 27.01300
C  48.58100 29.17100 30.29100
O  48.91100 30.31200 30.61000
C  48.13900 28.04100 31.23600
C  49.26900 27.72100 32.12300
O  50.18200 27.01000 31.77300
O  49.08000 28.11500 33.45600
C  49.97600 27.42500 34.43100
H  45.83100 21.64500 30.54900
H  46.47500 22.29800 24.14000
H  48.61200 28.26500 24.89100
H  47.85200 25.40600 32.68500
H  45.52900 23.68600 32.42100
H  48.42000 23.00500 33.06600
H  47.44400 21.75100 32.34800
H  46.81900 22.57200 33.83000
H  44.86000 25.70400 32.80100
H  45.76500 27.15800 32.07600
H  46.33600 27.87000 34.20500
H  46.86900 26.40900 34.59500
H  45.64400 18.68200 28.27900
H  44.05700 19.53700 28.54000
H  45.35600 19.51100 29.72000
H  45.32600 17.79800 26.12600
H  44.29700 17.99800 24.68400
H  43.76100 18.64700 26.17300
H  46.48000 24.33200 22.78900
H  48.67300 26.25100 22.75300
H  47.82900 23.26500 21.47300
H  48.86100 22.76700 22.77700
H  49.18800 24.23200 21.74300
H  46.22900 26.42800 21.98500
H  46.90000 27.91100 22.52900
H  45.16500 28.12200 24.10000
H  45.59500 26.45100 24.63600
H  44.53200 26.71500 23.23500
H  49.56400 30.94700 27.70500
H  48.30100 30.69800 26.56800
H  49.80200 29.94900 26.16600
H  47.40900 28.59000 31.83200
H  49.94100 26.36100 34.19700
H  49.60600 27.54200 35.45000
H  51.02000 27.70100 34.27900
Mg 46.85200 44.64300 44.01700
C  43.39400 44.22000 43.52600
C  47.22500 41.20300 43.15900
C  50.13900 45.00900 43.53000
C  46.32900 48.10600 43.99400
N  45.50000 42.98500 43.33000
C  44.11000 43.06800 43.27900
C  43.51500 41.71300 43.02300
C  44.69400 40.74300 42.97400
C  45.89200 41.67600 43.19800
C  44.61000 39.54200 43.93400
C  42.54300 41.53800 41.80300
C  43.13200 42.23300 40.57300
H  42.90300 41.54700 39.21000
N  48.51100 43.29300 43.70700
C  48.44800 41.91200 43.42300
C  49.80900 41.38200 43.22800
C  50.70900 42.51700 43.43500
C  49.79400 43.67000 43.67100
C  50.17300 40.02700 42.88700
C  52.20200 42.44300 43.47100
O  52.83000 41.38900 43.33000
C  53.09600 43.58400 43.85100
N  48.04000 46.37900 43.69200
C  49.39200 46.23300 43.49600
C  50.09200 47.57700 43.17000
C  48.83000 48.53400 43.39800
C  47.65500 47.63700 43.66800
C  51.35400 47.68100 44.17800
C  48.55000 49.64300 42.30900
C  48.12100 51.13000 42.71200
N  45.18900 45.92200 43.86100
C  45.12000 47.26800 44.02300
C  43.79500 47.71600 44.22200
C  42.97700 46.50500 43.99800
C  43.95800 45.48500 43.69600
C  43.39500 49.14000 44.49300
C  41.65100 45.88900 43.91200
O  40.54700 46.38700 43.94400
C  41.89000 44.43100 43.59400
C  41.24800 43.59800 44.65600
O  40.31100 42.78100 44.50800
O  41.80700 43.91300 45.89500
C  41.17100 43.22200 47.06000
H  47.27600 40.18100 42.77800
H  51.14600 45.19600 43.15300
H  46.24000 49.18200 44.15800
H  42.91000 41.45600 43.89200
H  44.90200 40.29400 42.00200
H  44.53300 38.70700 43.23700
H  43.68500 39.54500 44.51000
H  45.46600 39.46000 44.60400
H  41.60100 41.97100 42.13800
H  42.52000 40.46200 41.62800
H  44.21100 42.33400 40.68900
H  42.64900 43.18600 40.79100
H  50.18700 39.33400 43.72800
H  51.18800 39.87800 42.51900
H  49.40900 39.66400 42.19900
H  52.72400 44.21000 44.66300
H  53.08900 44.33700 43.06300
H  54.07900 43.25400 44.18600
H  50.48300 47.57500 42.15300
H  49.18500 49.11800 44.24700
H  52.30500 47.73200 43.64700
H  51.38100 46.86700 44.90100
H  51.33800 48.50300 44.89400
H  47.62300 49.35400 41.81600
H  49.33200 49.55000 41.55500
H  48.50900 51.74300 41.89900
H  48.65500 51.45000 43.60700
H  47.05400 51.22700 42.91300
H  42.31300 49.04100 44.57400
H  43.57500 49.82700 43.66600
H  43.91800 49.37200 45.42100
H  41.33500 44.32600 42.66200
H  40.09900 43.36100 47.20200
H  41.69100 43.41500 47.99900
H  41.19900 42.15800 46.82300

