158

Mg 24.09500 -5.40300 45.33400
C  26.19100 -3.09200 43.76800
C  21.42800 -4.16100 43.47900
C  22.45500 -8.39500 45.78100
C  26.88700 -6.85800 46.86900
N  23.81500 -3.72400 43.88800
C  24.83800 -2.94100 43.39500
C  24.22700 -1.86200 42.51500
C  22.67900 -1.99200 42.85100
C  22.58100 -3.33000 43.52900
C  22.12100 -0.84500 43.74300
C  24.67700 -2.01600 40.99900
C  25.52500 -0.81700 40.45200
H  25.11800 -0.53500 39.01800
N  22.20400 -6.22600 44.68700
C  21.30000 -5.51000 43.88200
C  20.17300 -6.38200 43.63400
C  20.49300 -7.69900 44.22900
C  21.74900 -7.49400 44.92400
C  18.95500 -5.99500 42.84100
C  19.65000 -9.00400 43.95600
O  18.46600 -8.98600 43.54000
C  20.35400 -10.33700 44.19800
N  24.65700 -7.41400 46.15200
C  23.67900 -8.34800 46.41300
C  24.20100 -9.56600 47.25200
C  25.71500 -9.11400 47.53300
C  25.75000 -7.67100 46.88300
C  23.39900 -9.79600 48.55100
C  26.76300 -10.10300 47.09600
C  27.93700 -10.35100 47.94400
N  26.14500 -4.95000 45.46400
C  27.13800 -5.62800 46.05900
C  28.39000 -4.88200 45.90600
C  28.05900 -3.99100 44.85400
C  26.68900 -4.01100 44.68800
C  29.72900 -5.19700 46.48200
C  28.58200 -2.95800 43.94400
O  29.74300 -2.66100 43.75100
C  27.38400 -2.28100 43.31000
C  27.31900 -0.85700 43.68500
O  26.56900 -0.35300 44.51200
O  28.16600 -0.18200 42.86500
C  28.43900 1.20500 43.19100
H  20.61900 -3.70900 42.90200
H  21.84400 -9.22300 46.14700
H  27.75800 -7.33600 47.32000
H  24.62900 -0.93700 42.92700
H  22.02900 -2.08400 41.98100
H  21.32700 -0.27400 43.26100
H  22.89600 -0.13000 44.01900
H  21.72900 -1.28800 44.65900
H  23.81200 -2.23400 40.37400
H  25.41500 -2.81500 40.93500
H  26.57700 -1.10200 40.41500
H  25.36800 0.14700 40.93700
H  19.01100 -5.92400 41.75400
H  18.70500 -4.96200 43.08500
H  18.08900 -6.46700 43.30400
H  21.40900 -10.11200 44.04300
H  19.98400 -11.00600 43.42000
H  20.19800 -10.67000 45.22400
H  24.20400 -10.48800 46.67100
H  25.92400 -9.04700 48.60100
H  22.80500 -10.70700 48.48600
H  22.72400 -8.94100 48.52300
H  24.08100 -9.74400 49.40100
H  27.02600 -10.03200 46.04000
H  26.21100 -11.04300 47.04900
H  28.88400 -10.11100 47.46000
H  27.99700 -11.40500 48.21400
H  27.98700 -9.77400 48.86800
H  29.70400 -5.43600 47.54500
H  30.33000 -4.30100 46.33100
H  30.12700 -6.03300 45.90600
H  27.39000 -2.25600 42.22000
H  27.83500 1.70100 43.95100
H  28.41700 1.89300 42.34500
H  29.47600 1.22400 43.52700
Mg 35.56100 2.11000 29.31400
C  33.21900 3.41900 31.61700
C  37.85800 2.03400 31.78700
C  37.92800 1.21000 27.03100
C  33.18400 2.43800 26.87300
N  35.55500 2.70600 31.45700
C  34.45100 3.08300 32.18300
C  34.75500 3.01600 33.65200
C  36.33900 2.94900 33.70800
C  36.62500 2.44500 32.25900
C  37.09600 4.26600 34.07900
C  33.97900 1.84500 34.35900
C  33.87800 1.88200 35.86200
H  34.38100 3.20100 36.51100
N  37.56200 1.59200 29.41500
C  38.33500 1.65500 30.50300
C  39.72100 1.33600 30.23400
C  39.64800 0.89200 28.89200
C  38.26700 1.21300 28.38600
C  40.85800 1.50800 31.21500
C  40.79400 0.31000 28.07300
O  40.75600 -0.06000 26.91900
C  42.03800 0.02500 28.80000
N  35.62300 1.85200 27.20000
C  36.65700 1.49800 26.48800
C  36.30300 1.44400 24.97500
C  34.73100 1.64300 24.99400
C  34.46200 1.93200 26.47900
C  37.17700 2.41500 24.10600
C  33.96400 0.43200 24.32400
C  33.41600 -0.69300 25.16700
N  33.58300 2.79700 29.20500
C  32.76800 2.95300 28.10100
C  31.47400 3.48700 28.49000
C  31.58200 3.70600 29.87600
C  32.89500 3.26400 30.25100
C  30.16900 3.65200 27.72300
C  30.92900 4.17000 31.05900
O  29.86000 4.70500 31.17600
C  31.89800 3.84900 32.27800
C  31.99200 5.08300 33.06900
O  32.50100 6.11500 32.65400
O  31.41200 4.98300 34.33300
C  31.36100 6.18700 35.16000
H  38.61000 2.20200 32.56100
H  38.69600 0.88400 26.32600
H  32.35800 2.38400 26.16000
H  34.42300 3.92700 34.15000
H  36.71000 2.21900 34.42700
H  37.82200 4.05000 34.86200
H  36.38800 4.95700 34.53700
H  37.66600 4.66200 33.23800
H  34.52300 0.92500 34.14600
H  33.00000 1.74200 33.89200
H  34.51200 1.08500 36.25000
H  32.87800 1.55600 36.14600
H  41.02400 0.55300 31.71500
H  40.48500 2.15500 32.00900
H  41.70700 2.07300 30.82900
H  42.69300 0.89500 28.84500
H  42.43100 -0.77300 28.16900
H  41.79400 -0.37100 29.78500
H  36.64600 0.47200 24.62200
H  34.38700 2.52900 24.46000
H  36.60800 3.17200 23.56600
H  37.79400 1.78600 23.46400
H  37.85000 2.97700 24.75300
H  34.53200 0.03500 23.48300
H  33.08000 0.92200 23.91700
H  33.62500 -1.62700 24.64700
H  32.32700 -0.65600 25.16700
H  33.80700 -0.64500 26.18400
H  29.84500 2.66500 27.39500
H  30.21900 4.31100 26.85500
H  29.42300 4.14200 28.35000
H  31.52100 3.00300 32.85300
H  31.96200 7.03800 34.84100
H  31.74100 5.77100 36.09200
H  30.30900 6.44600 35.28600

