158

Mg 53.56500 24.91400 43.92500
C  50.59200 26.82300 43.19500
C  52.16200 22.28100 42.34400
C  56.51800 23.51000 44.03100
C  54.94800 28.03100 45.14700
N  51.74200 24.76800 42.76000
C  50.66400 25.62100 42.55800
C  49.50600 24.85100 41.94400
C  49.87900 23.41700 42.16200
C  51.37600 23.47600 42.39800
C  49.19400 22.61700 43.35000
C  49.04500 25.32600 40.47900
C  47.60700 24.89000 40.08800
H  47.46100 23.47000 39.56500
N  54.28500 23.07300 43.34100
C  53.49600 22.10800 42.72600
C  54.31700 20.85900 42.71300
C  55.65000 21.12900 43.25300
C  55.53600 22.62800 43.53500
C  53.72200 19.73500 42.02400
C  56.73400 20.17400 43.51400
O  56.52300 18.98400 43.25100
C  58.11500 20.51000 44.11400
N  55.48900 25.68500 44.49900
C  56.52200 24.89100 44.39100
C  57.75100 25.51700 45.14000
C  57.34800 27.02900 45.37400
C  55.90800 26.96800 44.93600
C  58.18000 24.75200 46.41400
C  58.17700 28.13900 44.63800
C  58.22300 28.30000 43.10100
N  52.98200 26.98000 44.18800
C  53.55900 28.00800 44.84600
C  52.62200 28.99300 45.19800
C  51.48900 28.63300 44.53000
C  51.69600 27.38300 43.88100
C  52.91700 30.25200 45.97600
C  50.14700 29.00000 44.23300
O  49.49100 29.97700 44.52800
C  49.48500 27.81500 43.44400
C  48.79800 28.26100 42.22400
O  49.35800 28.61900 41.20200
O  47.42000 28.27600 42.38900
C  46.73200 28.60200 41.13900
H  51.66300 21.36300 42.03000
H  57.51800 23.15500 44.28900
H  55.33600 28.97400 45.53700
H  48.57300 24.94900 42.50000
H  49.66700 22.93300 41.20900
H  48.47400 23.27500 43.83700
H  49.94400 22.37600 44.10300
H  48.71600 21.75000 42.89500
H  49.74200 24.84100 39.79500
H  49.16900 26.38000 40.23400
H  47.20600 25.56600 39.33200
H  47.14400 25.03100 41.06500
H  54.35400 18.84700 41.98500
H  53.45600 19.89200 40.97800
H  52.75100 19.52700 42.47300
H  58.74000 21.16000 43.50100
H  58.75200 19.62600 44.10600
H  58.09400 21.09000 45.03600
H  58.60100 25.51200 44.45800
H  57.49700 27.19900 46.44000
H  57.35300 24.27200 46.93800
H  58.71800 25.43000 47.07700
H  58.88100 23.96300 46.14200
H  59.20900 27.96600 44.94300
H  57.86900 29.07800 45.09900
H  57.60100 29.11100 42.72100
H  57.82600 27.41600 42.60200
H  59.24800 28.48900 42.78300
H  52.03900 30.68400 46.45600
H  53.45100 31.07900 45.50800
H  53.59100 30.08900 46.81700
H  48.66900 27.30400 43.95500
H  46.70500 27.68100 40.55600
H  47.15900 29.31000 40.42900
H  45.68800 28.86700 41.30800
Mg 35.74300 49.32100 25.00200
C  36.01100 47.88800 28.23900
C  34.77700 52.22100 26.49500
C  35.66400 50.57900 21.96000
C  36.58800 46.13900 23.68000
N  35.52100 49.93900 27.18000
C  35.64600 49.21100 28.29900
C  35.40600 50.06600 29.58500
C  34.84200 51.38200 28.98100
C  35.03700 51.16800 27.44800
C  33.46700 51.85200 29.51300
C  36.65600 50.17600 30.52200
C  36.49300 49.74100 32.01500
H  35.16100 50.08400 32.66300
N  35.30500 51.14300 24.31200
C  34.85400 52.21700 25.06400
C  34.54600 53.32500 24.19000
C  34.88600 52.87700 22.84400
C  35.36400 51.46100 23.01200
C  34.00500 54.59400 24.61700
C  34.78000 53.64300 21.44500
O  35.20800 53.19400 20.36700
C  34.24600 55.03700 21.47600
N  35.80800 48.46700 23.06100
C  35.91500 49.20300 21.97200
C  36.27000 48.42400 20.63900
C  36.74000 47.03100 21.28300
C  36.25000 47.19300 22.76400
C  34.97500 48.24100 19.75900
C  38.27100 46.72000 21.08600
C  38.63700 45.28500 20.56000
N  36.23500 47.41000 25.72600
C  36.53000 46.24300 25.10000
C  36.64100 45.17800 26.04700
C  36.47200 45.79700 27.25700
C  36.22500 47.11200 27.04700
C  37.02000 43.73300 25.73400
C  36.49300 45.55500 28.68300
O  36.81100 44.60800 29.31700
C  36.06000 46.84100 29.33700
C  34.84000 46.85000 30.14300
O  33.75300 47.25900 29.81300
O  35.02700 46.11600 31.29900
C  33.93000 46.05700 32.23500
H  34.53500 53.15600 27.00500
H  35.73000 51.08700 20.99600
H  37.01400 45.23100 23.25000
H  34.52000 49.64700 30.06100
H  35.53000 52.13600 29.36600
H  32.83300 51.01800 29.81400
H  33.08800 52.41000 28.65700
H  33.72500 52.44400 30.39200
H  36.95500 51.22000 30.61700
H  37.51000 49.61200 30.14800
H  37.35000 50.01300 32.63000
H  36.74200 48.68000 32.03600
H  34.76900 55.33700 24.39100
H  33.80400 54.66800 25.68500
H  33.06500 54.86200 24.13400
H  33.33600 55.04900 22.07600
H  34.08400 55.44300 20.47700
H  35.04400 55.70700 21.79300
H  37.08000 48.99000 20.18000
H  36.16600 46.13200 21.05700
H  34.10800 48.26200 20.41900
H  35.11600 47.26500 19.29600
H  34.91500 49.08900 19.07600
H  38.77700 46.75500 22.05100
H  38.67000 47.43500 20.36600
H  37.74700 44.66300 20.46000
H  39.35500 44.77000 21.19800
H  39.20700 45.26700 19.63100
H  37.78000 43.67100 24.95500
H  36.19100 43.11100 25.39700
H  37.49800 43.19900 26.55500
H  36.88400 47.10000 30.00200
H  33.08200 45.66200 31.67500
H  33.66400 47.02900 32.65100
H  34.03200 45.42800 33.12000

