158

Mg 35.59200 2.57300 30.07400
C  33.14900 3.63200 32.32800
C  37.86400 2.49800 32.70300
C  37.98800 2.11200 27.94000
C  33.40400 3.47800 27.46800
N  35.47200 3.07900 32.27900
C  34.39300 3.47700 32.95200
C  34.65200 3.59200 34.52800
C  36.27300 3.40000 34.64200
C  36.59700 2.89600 33.12600
C  37.22700 4.61400 34.89700
C  33.85000 2.61500 35.34900
C  33.53700 2.88400 36.88700
H  34.36600 4.01600 37.57100
N  37.61500 2.28400 30.35500
C  38.33900 2.21000 31.47000
C  39.71700 1.90200 31.21800
C  39.75400 1.73200 29.77600
C  38.41500 2.03900 29.31900
C  40.76500 1.59400 32.26000
C  40.93500 1.23300 28.92600
O  40.86500 1.09000 27.70600
C  42.31400 0.88900 29.55400
N  35.67900 2.83600 27.94800
C  36.79300 2.45300 27.28800
C  36.59400 2.52900 25.78900
C  35.09600 2.96500 25.60300
C  34.65600 3.05300 27.06700
C  37.66600 3.37600 24.99200
C  34.27100 1.95600 24.73800
C  33.62200 0.73700 25.39200
N  33.62100 3.23400 29.92300
C  32.83300 3.51500 28.77700
C  31.46700 3.76400 29.24200
C  31.50700 3.85500 30.62400
C  32.85800 3.53100 30.98600
C  30.37700 3.95500 28.31300
C  30.74700 4.21000 31.80900
O  29.56100 4.43100 31.95300
C  31.76500 4.02400 32.96600
C  31.78100 5.34600 33.64800
O  32.52300 6.25800 33.31900
O  30.77100 5.40100 34.57400
C  30.78800 6.62400 35.41600
H  38.55800 2.67500 33.52800
H  38.73300 1.82700 27.19300
H  32.60800 3.64600 26.73900
H  34.47600 4.64300 34.75600
H  36.47300 2.59400 35.34800
H  36.60900 5.49700 35.05600
H  37.84400 4.82000 34.02200
H  37.90100 4.36200 35.71600
H  34.29300 1.62700 35.47700
H  32.89200 2.43700 34.86000
H  33.61400 1.96800 37.47300
H  32.51900 3.26500 36.96000
H  41.80500 1.69400 31.95000
H  40.69200 0.61400 32.73200
H  40.69400 2.38200 33.01000
H  42.79100 0.37200 28.72100
H  42.21500 0.18200 30.37800
H  42.90000 1.79900 29.67900
H  36.78500 1.52500 25.40800
H  35.09500 4.02600 25.35300
H  38.35500 3.84800 25.69200
H  37.09300 4.11400 24.43000
H  38.24000 2.77300 24.28900
H  34.99500 1.60900 24.00100
H  33.62800 2.59000 24.12700
H  34.00700 0.71500 26.41200
H  34.00900 -0.13900 24.87200
H  32.53300 0.73300 25.35800
H  29.42400 4.16400 28.79800
H  30.28300 3.10200 27.64200
H  30.44000 4.87400 27.73100
H  31.29400 3.29900 33.63100
H  30.48500 7.51300 34.86300
H  31.71800 6.82300 35.94900
H  29.97100 6.52400 36.13000
Mg -9.98700 39.55200 40.47100
C  -8.54300 36.32900 39.45500
C  -6.92500 40.93900 39.70600
C  -11.38400 42.67200 40.44400
C  -12.94900 38.01100 40.87500
N  -7.97900 38.73200 39.56200
C  -7.57600 37.43100 39.49600
C  -6.09000 37.33300 39.25100
C  -5.59800 38.74900 39.57500
C  -6.94000 39.53300 39.66800
C  -4.65400 38.90000 40.75100
C  -5.80900 36.87000 37.77200
C  -6.53800 37.67600 36.65000
H  -7.27600 36.85700 35.53500
N  -9.29600 41.49600 40.07100
C  -7.95500 41.82700 39.85100
C  -7.86000 43.20500 39.59600
C  -9.09200 43.76600 39.87800
C  -10.05600 42.65200 40.23900
C  -6.51800 43.87400 39.18800
C  -9.43300 45.26400 39.80200
O  -8.61900 46.08900 39.44700
C  -10.71300 45.72700 40.22400
N  -11.93400 40.29300 40.64900
C  -12.35300 41.61800 40.60100
C  -13.82600 41.72800 41.04900
C  -14.24800 40.20300 41.34400
C  -12.97900 39.46000 40.92500
C  -14.14000 42.70300 42.25800
C  -15.59500 39.71800 40.65200
C  -16.77100 39.12000 41.48300
N  -10.66900 37.59400 40.31700
C  -11.94700 37.10100 40.47500
C  -12.02300 35.68700 40.09400
C  -10.68300 35.34300 39.77000
C  -9.91300 36.48300 39.87800
C  -13.18800 34.78300 40.14000
C  -9.86800 34.26200 39.26800
O  -10.14400 33.11000 38.98900
C  -8.37200 34.80000 39.13800
C  -7.56000 34.12700 40.25600
O  -7.96800 33.70900 41.34700
O  -6.17700 34.08100 39.83900
C  -5.31600 33.25200 40.74100
H  -5.91200 41.32700 39.57800
H  -11.91400 43.61500 40.29300
H  -13.93100 37.54300 40.96900
H  -5.73300 36.61500 39.98900
H  -5.10300 39.09800 38.66900
H  -5.29500 39.21200 41.57600
H  -3.93800 39.66200 40.44000
H  -4.23700 37.90800 40.92500
H  -5.89900 35.79700 37.60200
H  -4.74800 37.09200 37.65900
H  -5.78200 38.18900 36.05700
H  -7.03200 38.55200 37.07100
H  -6.75700 44.33800 38.23100
H  -5.64100 43.30400 38.88200
H  -6.20400 44.63500 39.90200
H  -10.99600 45.45500 41.24100
H  -11.46400 45.31800 39.54800
H  -10.85500 46.79400 40.05100
H  -14.27700 42.10200 40.13000
H  -14.28500 40.05100 42.42300
H  -14.87800 43.43700 41.93500
H  -13.29200 43.28100 42.62700
H  -14.67400 42.13300 43.01800
H  -15.32200 39.02600 39.85600
H  -15.97900 40.47500 39.96800
H  -17.65000 39.72700 41.26200
H  -16.45200 39.34300 42.50100
H  -16.91000 38.04200 41.40900
H  -14.06300 35.20800 40.63100
H  -12.90100 33.84300 40.61200
H  -13.52800 34.63900 39.11400
H  -7.79600 34.63700 38.22700
H  -5.79000 32.50400 41.37800
H  -4.83900 33.95500 41.42400
H  -4.54300 32.78600 40.13000

