158

Mg -1.27100 17.32800 25.94800
C  -1.65300 15.19600 28.60400
C  -2.34900 19.95100 27.95300
C  -1.18300 19.45300 23.22700
C  -0.81400 14.43700 23.78800
N  -1.85600 17.59500 28.13100
C  -1.89300 16.52200 29.01000
C  -2.52800 17.03300 30.33400
C  -3.20000 18.35000 29.81600
C  -2.37000 18.72300 28.62000
C  -4.76900 18.34500 29.48000
C  -1.51000 17.27400 31.48000
C  -2.14100 17.14700 32.86400
H  -1.25300 16.41400 33.92000
N  -1.63000 19.32900 25.62800
C  -2.00300 20.24600 26.59500
C  -1.93800 21.58400 26.11100
C  -1.49000 21.47100 24.78900
C  -1.44500 20.03600 24.45300
C  -2.14000 22.82500 26.89900
C  -1.16200 22.56100 23.81000
O  -0.89500 22.41600 22.62800
C  -1.04900 23.99100 24.25300
N  -1.07600 16.97000 23.75500
C  -1.04600 18.04700 22.90400
C  -0.78500 17.48700 21.45800
C  -0.41400 15.96800 21.73300
C  -0.87400 15.71000 23.16100
C  -2.03500 17.71200 20.56800
C  1.04200 15.51600 21.48100
C  2.20400 16.53900 21.78800
N  -1.37300 15.23300 26.09000
C  -1.04700 14.22900 25.17800
C  -1.13100 12.95000 25.95100
C  -1.40300 13.26700 27.25500
C  -1.42500 14.69200 27.30000
C  -1.09800 11.58200 25.40800
C  -1.60800 12.69900 28.52400
O  -1.47700 11.58500 28.85000
C  -1.90500 13.92700 29.44600
C  -1.18600 13.77300 30.76700
O  0.00400 13.89300 30.91400
O  -2.08400 13.42800 31.82000
C  -1.48300 13.01700 33.10600
H  -2.76900 20.74800 28.57100
H  -0.98800 20.02200 22.31600
H  -0.60900 13.50800 23.25100
H  -3.29300 16.31400 30.62700
H  -2.90700 19.18600 30.45100
H  -5.11000 17.41700 29.93800
H  -5.13100 18.53000 28.46800
H  -5.25300 19.22900 29.89600
H  -0.94300 18.19600 31.35300
H  -0.72400 16.53200 31.33800
H  -3.04500 16.55100 32.74100
H  -2.48000 18.10000 33.27100
H  -2.68000 22.50300 27.79000
H  -2.77500 23.57600 26.42900
H  -1.29900 23.49600 27.07700
H  -0.45400 24.09400 25.15900
H  -2.09800 24.23500 24.41900
H  -0.58900 24.64900 23.51600
H  0.00000 18.08400 20.99500
H  -1.07200 15.48700 21.00900
H  -1.78100 17.37800 19.56200
H  -2.33900 18.75900 20.58400
H  -2.82300 17.08500 20.98500
H  1.11300 15.27200 20.42100
H  1.19700 14.52900 21.91700
H  2.71900 16.77100 20.85600
H  2.96300 16.11600 22.44600
H  1.73900 17.46400 22.12900
H  -0.71800 11.04900 26.27900
H  -0.43800 11.54100 24.54100
H  -2.08200 11.23800 25.08800
H  -2.95700 13.95600 29.73000
H  -1.80300 13.60100 33.96900
H  -0.40000 12.89600 33.13000
H  -1.78100 11.97600 33.22800
Mg 53.61600 24.44800 44.96400
C  50.68500 26.15200 44.18800
C  52.16400 21.65300 43.81500
C  56.62700 22.84600 45.04000
C  55.09500 27.37200 46.04300
N  51.68600 24.03700 43.69800
C  50.58000 24.79600 43.75900
C  49.33600 24.02000 43.22300
C  49.77300 22.54400 43.59900
C  51.31500 22.75000 43.72700
C  49.17100 21.94800 44.91200
C  49.19100 24.34700 41.73400
C  47.82000 24.33000 41.09900
H  47.46800 22.96200 40.49900
N  54.28400 22.51600 44.42300
C  53.49300 21.52900 43.98000
C  54.21900 20.28700 43.79800
C  55.56800 20.63000 44.11000
C  55.54100 22.03000 44.57600
C  53.53000 18.99400 43.56900
C  56.77100 19.77400 43.99700
O  56.63700 18.64600 43.67300
C  58.16900 20.14500 44.39100
N  55.71000 25.08800 45.17600
C  56.69300 24.19900 45.41700
C  57.93200 24.91800 45.97000
C  57.46800 26.42500 46.10600
C  55.97500 26.33100 45.73400
C  58.44400 24.30100 47.35800
C  58.35200 27.45400 45.31000
C  57.79100 28.29400 44.13800
N  53.05700 26.36900 45.17500
C  53.73300 27.44000 45.77100
C  52.73700 28.50400 45.94100
C  51.62300 28.09900 45.33300
C  51.85400 26.78200 44.87400
C  52.88600 29.81100 46.68300
C  50.22200 28.45500 44.88800
O  49.51000 29.43300 45.17700
C  49.64200 27.22200 44.18100
C  49.29400 27.74800 42.79200
O  50.06000 27.82300 41.80700
O  48.00800 28.01900 42.79100
C  47.24000 28.39800 41.59200
H  51.55700 20.78100 43.56400
H  57.60700 22.38400 45.17700
H  55.49900 28.27500 46.50600
H  48.42300 24.33600 43.72800
H  49.57000 21.85500 42.78000
H  49.95200 21.55400 45.56200
H  48.37800 21.24900 44.64400
H  48.73600 22.75300 45.50500
H  49.84400 23.57700 41.32500
H  49.57300 25.33900 41.49400
H  47.78200 25.09300 40.32200
H  47.06900 24.57300 41.85100
H  54.09000 18.10800 43.86700
H  53.30400 18.91800 42.50500
H  52.62800 18.96900 44.17900
H  58.57300 21.04300 43.92300
H  58.82000 19.27600 44.29700
H  58.12500 20.32900 45.46500
H  58.70200 24.85800 45.20000
H  57.47300 26.82600 47.11900
H  58.38100 25.09600 48.10100
H  59.42100 23.83100 47.24700
H  57.71400 23.59900 47.76300
H  59.03500 26.79200 44.78000
H  58.83900 28.09500 46.04500
H  56.75300 28.09900 43.86700
H  58.28500 28.00500 43.21000
H  57.73900 29.37200 44.29400
H  53.69600 29.72700 47.40900
H  51.90000 30.02800 47.09300
H  53.02000 30.45700 45.81600
H  48.80400 26.84000 44.76300
H  47.37500 29.47800 41.54000
H  46.18900 28.11500 41.65000
H  47.68900 27.84300 40.76900

