158

Mg 52.69200 23.23700 44.84500
C  49.86500 25.02800 44.00800
C  51.43200 20.53000 43.41000
C  55.84800 21.93100 44.96700
C  54.23100 26.39400 45.81400
N  50.84900 22.85800 43.79100
C  49.75500 23.65800 43.55000
C  48.60900 22.90800 42.91800
C  49.03100 21.48100 43.26200
C  50.54900 21.57700 43.52100
C  48.15500 20.64400 44.33800
C  48.59400 23.28300 41.33200
C  47.33200 22.74300 40.56800
H  47.28800 23.23700 39.07900
N  53.45700 21.43600 44.39400
C  52.79200 20.40600 43.74000
C  53.67800 19.23500 43.66600
C  54.96100 19.62300 44.15000
C  54.79700 21.03900 44.54700
C  53.31800 17.80600 43.13100
C  56.21000 18.72800 44.25700
O  56.19300 17.59000 43.82400
C  57.48600 19.19900 45.00400
N  54.79000 23.98600 45.42100
C  55.80800 23.20900 45.47800
C  57.05100 23.97700 46.04700
C  56.55900 25.37200 46.14700
C  55.08100 25.31400 45.74600
C  57.57100 23.42100 47.36600
C  57.34700 26.39900 45.33700
C  57.59900 27.76500 46.06600
N  52.14100 25.35700 45.06600
C  52.83700 26.42600 45.52700
C  51.95400 27.52800 45.60500
C  50.79600 27.10100 44.97800
C  50.97300 25.72400 44.58100
C  52.17700 28.81400 46.33300
C  49.48700 27.43900 44.55500
O  48.82900 28.48300 44.58800
C  48.80900 26.09800 43.81500
C  48.42900 26.48500 42.41000
O  49.12900 26.63000 41.38900
O  47.14200 26.94800 42.44800
C  46.61900 27.74900 41.30600
H  50.95100 19.65700 42.96300
H  56.86700 21.54500 44.89800
H  54.67300 27.30700 46.22000
H  47.66800 23.15500 43.40900
H  49.02200 20.74000 42.46300
H  47.34000 20.19400 43.77200
H  47.51400 21.27400 44.95500
H  48.72200 19.97600 44.98700
H  49.45100 22.79700 40.86700
H  48.81800 24.31800 41.07700
H  46.43300 23.12700 41.04900
H  47.21900 21.65900 40.60600
H  53.52000 17.10000 43.93700
H  53.97500 17.68900 42.26900
H  52.33500 17.67800 42.67800
H  58.10400 18.32400 45.20800
H  57.25300 19.66700 45.96100
H  58.03000 19.87900 44.34900
H  57.79000 23.82000 45.26100
H  56.66400 25.71300 47.17700
H  56.98000 23.84600 48.17800
H  58.57900 23.77800 47.57400
H  57.52200 22.33900 47.49200
H  56.74500 26.64200 44.46100
H  58.33500 26.01800 45.07900
H  58.65200 27.98300 46.24600
H  57.01700 27.80300 46.98600
H  57.20700 28.55500 45.42500
H  52.47300 29.52900 45.56600
H  53.01500 28.73400 47.02600
H  51.27400 29.08000 46.88300
H  47.99300 25.76300 44.45400
H  46.73300 27.37800 40.28800
H  47.26400 28.61900 41.18700
H  45.64700 28.14200 41.60200
Mg -0.43000 43.35900 25.25800
C  1.69700 42.61300 27.88200
C  -2.99600 42.80400 27.39300
C  -2.52100 43.37800 22.62500
C  2.44500 43.20100 23.12000
N  -0.60200 42.60000 27.41000
C  0.40900 42.64500 28.32500
C  -0.14200 42.64200 29.75300
C  -1.65000 42.31000 29.49900
C  -1.78100 42.59000 28.00400
C  -2.28300 40.94400 29.90000
C  0.07400 44.08900 30.37900
C  0.05100 44.13800 31.94300
H  -0.20900 42.84300 32.76700
N  -2.49000 43.32000 25.04000
C  -3.37100 43.06400 26.06800
C  -4.72400 43.15300 25.53900
C  -4.59800 43.24400 24.14400
C  -3.16000 43.33400 23.84700
C  -5.94800 43.04000 26.44000
C  -5.66800 43.39500 23.04500
O  -5.46000 43.71700 21.90100
C  -7.19600 43.24300 23.49300
N  -0.07800 43.36800 23.20300
C  -1.07500 43.31500 22.28900
C  -0.55000 43.40300 20.82300
C  0.95100 43.75800 21.10800
C  1.16200 43.39600 22.54200
C  -0.77900 41.97800 20.14000
C  1.51100 45.22400 20.78100
C  1.20300 46.42300 21.64800
N  1.64100 43.13700 25.38000
C  2.64100 43.00000 24.50900
C  3.92200 42.73400 25.15000
C  3.61700 42.59800 26.49500
C  2.19500 42.78000 26.55100
C  5.24400 42.57500 24.40400
C  4.18600 42.21300 27.75300
O  5.36700 41.97900 28.03900
C  3.02100 42.49900 28.74400
C  3.14600 41.40300 29.75700
O  2.78200 40.19900 29.72500
O  3.65700 41.92800 30.91100
C  4.13800 41.02300 31.98900
H  -3.82800 42.69400 28.09200
H  -3.12600 43.44100 21.71800
H  3.34000 43.22600 22.49500
H  0.42100 41.94900 30.37800
H  -2.28400 43.03800 30.00500
H  -3.07400 40.75600 29.17400
H  -2.71300 41.08900 30.89100
H  -1.45700 40.23500 29.96000
H  -0.63100 44.80700 29.96000
H  1.01600 44.50200 30.02000
H  -0.63700 44.94700 32.19100
H  0.98200 44.49400 32.38400
H  -6.56000 43.93900 26.37900
H  -5.83100 42.87500 27.51100
H  -6.47400 42.23800 25.92100
H  -7.44500 42.33900 24.04800
H  -7.60500 43.30100 22.48400
H  -7.62800 44.08800 24.02900
H  -0.94300 44.10700 20.08900
H  1.47800 43.07100 20.44700
H  -1.39500 41.30800 20.73900
H  0.18500 41.48700 20.00500
H  -1.32800 42.16700 19.21800
H  1.12000 45.23300 19.76400
H  2.59200 45.09400 20.73500
H  1.07300 47.29900 21.01400
H  2.08500 46.61300 22.26000
H  0.28600 46.30600 22.22600
H  5.96200 42.26200 25.16100
H  5.60600 43.44300 23.85100
H  5.11100 41.72800 23.73100
H  3.19200 43.49600 29.15100
H  5.19900 40.94800 31.75000
H  3.67000 40.03900 32.00800
H  4.05000 41.49000 32.97000

