158

Mg 24.38700 -5.53900 45.77900
C  26.55500 -3.57200 43.87400
C  21.92600 -4.93700 43.40200
C  22.65900 -8.15100 46.92300
C  27.23800 -6.75100 47.52700
N  24.27800 -4.46200 43.80900
C  25.28400 -3.64100 43.31500
C  24.86600 -2.95300 42.06400
C  23.32600 -3.20800 41.96400
C  23.14100 -4.26200 43.10900
C  22.49300 -1.89400 41.91900
C  25.72200 -3.33600 40.77600
C  26.46100 -2.12000 40.24000
H  26.17300 -1.69500 38.85200
N  22.51500 -6.32700 45.33600
C  21.63400 -5.88900 44.36200
C  20.39500 -6.59400 44.42600
C  20.57200 -7.56900 45.50400
C  21.98400 -7.39200 45.97700
C  19.13200 -6.31300 43.63200
C  19.46300 -8.47000 45.97100
O  18.35000 -8.52300 45.47600
C  19.67600 -9.18400 47.31300
N  24.87200 -7.31000 46.91000
C  23.95300 -8.14400 47.36000
C  24.48200 -9.15400 48.35800
C  25.92100 -8.69200 48.63400
C  26.01100 -7.42400 47.63500
C  23.56400 -9.36600 49.57600
C  27.09400 -9.71000 48.23800
C  28.16100 -9.95000 49.40900
N  26.51300 -5.11000 45.85500
C  27.45700 -5.56700 46.70200
C  28.71100 -4.84400 46.41700
C  28.36400 -4.01500 45.29900
C  27.07200 -4.26400 44.96700
C  30.06600 -5.13700 47.07900
C  28.88400 -3.12100 44.39500
O  30.02600 -2.63000 44.27700
C  27.73000 -2.70600 43.45200
C  27.50100 -1.23900 43.67000
O  26.91900 -0.66800 44.60600
O  28.12500 -0.50200 42.64100
C  28.37300 0.96400 42.88400
H  21.08300 -4.69600 42.75100
H  22.04600 -8.95400 47.33700
H  28.03000 -7.16800 48.15300
H  24.82400 -1.88100 42.26000
H  23.05100 -3.81600 41.10200
H  21.65400 -2.05600 42.59600
H  22.12000 -1.85300 40.89500
H  23.03900 -0.96600 42.08300
H  25.05200 -3.78200 40.04200
H  26.42300 -4.13600 41.01300
H  27.52100 -2.34000 40.37200
H  26.25800 -1.21800 40.81700
H  19.44900 -5.85400 42.69600
H  18.43900 -5.62600 44.11900
H  18.52800 -7.20500 43.46900
H  18.72800 -9.56700 47.69300
H  20.14000 -8.47500 47.99900
H  20.36500 -10.02500 47.24400
H  24.52100 -10.15400 47.92400
H  25.95200 -8.25500 49.63200
H  23.25300 -10.40900 49.64900
H  22.78300 -8.60600 49.60200
H  24.19400 -9.30400 50.46300
H  27.54400 -9.48600 47.27100
H  26.50200 -10.62200 48.15300
H  27.84400 -9.45200 50.32500
H  29.09300 -9.50600 49.06000
H  28.22000 -11.02400 49.58700
H  29.92100 -4.93100 48.14000
H  30.87400 -4.49700 46.72600
H  30.36700 -6.18100 46.99100
H  28.00800 -2.97300 42.43300
H  28.70900 1.30900 41.90600
H  29.22100 1.04000 43.56600
H  27.60500 1.63200 43.27500
Mg -9.82400 39.26200 40.70900
C  -8.89300 35.92500 40.59600
C  -6.72800 40.02000 39.11100
C  -10.91300 42.46000 40.03300
C  -13.01800 38.30500 41.62900
N  -8.13600 38.08500 39.77300
C  -7.99000 36.71900 39.93400
C  -6.69200 36.25000 39.23200
C  -5.79700 37.57800 39.15100
C  -6.91200 38.61900 39.32300
C  -4.64300 37.62600 40.14900
C  -7.01600 35.40700 37.92500
C  -6.80300 36.08100 36.64400
H  -7.79700 35.72300 35.45800
N  -8.89800 40.97200 39.75500
C  -7.63200 41.09500 39.31300
C  -7.37600 42.46700 38.93600
C  -8.55500 43.20100 39.09900
C  -9.54100 42.15200 39.61800
C  -6.00200 43.01400 38.64000
C  -8.72000 44.71500 38.74600
O  -7.77700 45.41800 38.29100
C  -10.00300 45.38200 39.08700
N  -11.81100 40.20500 40.62200
C  -11.91000 41.54600 40.45400
C  -13.39000 42.01000 40.65800
C  -14.07600 40.63200 41.00600
C  -12.90900 39.63800 41.22800
C  -13.75100 43.19000 41.57000
C  -15.02900 40.12300 39.87700
C  -16.22800 39.31100 40.46000
N  -10.77600 37.59800 41.21400
C  -12.00400 37.38300 41.68900
C  -12.10700 35.98600 41.99800
C  -10.92700 35.37000 41.57100
C  -10.11500 36.42600 41.16100
C  -13.27500 35.23900 42.58100
C  -10.24600 34.14900 41.42300
O  -10.60800 33.01700 41.67000
C  -8.94200 34.37900 40.73500
C  -7.70200 33.67300 41.35200
O  -7.00300 32.85400 40.72000
O  -7.60400 33.83400 42.75000
C  -6.50200 33.05700 43.39800
H  -5.68800 40.22400 38.84800
H  -11.43800 43.38600 39.79100
H  -14.03100 37.94900 41.83100
H  -6.24800 35.63800 40.01800
H  -5.36300 37.78300 38.17200
H  -4.67800 38.60200 40.63200
H  -3.69700 37.50200 39.62200
H  -4.75800 36.86000 40.91600
H  -8.05600 35.08600 37.98300
H  -6.36900 34.53000 37.94600
H  -5.81000 35.82400 36.27300
H  -6.81200 37.15700 36.82000
H  -5.21400 42.29700 38.87000
H  -5.83400 43.80300 39.37400
H  -5.89400 43.38700 37.62200
H  -10.01900 46.46900 39.17000
H  -10.26800 45.03800 40.08700
H  -10.71300 45.15400 38.29200
H  -13.60200 42.39000 39.65800
H  -14.60900 40.53700 41.95200
H  -12.94100 43.31300 42.28800
H  -14.66000 43.11700 42.16700
H  -13.84200 44.14000 41.04200
H  -14.52000 39.41100 39.22800
H  -15.39200 40.97800 39.30600
H  -17.20100 39.65900 40.11200
H  -16.30700 39.45700 41.53700
H  -16.22600 38.26400 40.15500
H  -12.97700 34.21800 42.81900
H  -14.16000 35.39000 41.96400
H  -13.58100 35.69400 43.52300
H  -8.92600 34.00100 39.71300
H  -6.55300 32.01300 43.08600
H  -6.37000 33.17400 44.47400
H  -5.52000 33.37400 43.04800

