158

Mg 25.01700 1.27900 29.73500
C  27.11100 1.05500 32.54300
C  22.36800 1.31200 31.83600
C  23.07700 1.41300 27.01900
C  27.77700 0.81100 27.69000
N  24.80900 1.17100 31.92300
C  25.74300 1.17300 32.90500
C  25.19000 1.32700 34.30500
C  23.64400 1.24600 34.05900
C  23.56800 1.12500 32.51900
C  22.82000 0.29800 34.90100
C  25.71800 2.56600 35.02300
C  26.51900 2.41900 36.32000
H  26.24100 3.42400 37.47200
N  22.98300 1.25700 29.52100
C  22.04200 1.37800 30.47500
C  20.76500 1.62300 29.85300
C  20.96100 1.75100 28.43100
C  22.38400 1.44200 28.21100
C  19.43200 1.69800 30.55800
C  19.99200 2.15500 27.33900
O  20.39200 2.30300 26.14700
C  18.51200 2.39200 27.66800
N  25.36400 1.04600 27.67100
C  24.35500 1.14800 26.78300
C  24.85600 1.15100 25.29700
C  26.48800 1.10200 25.46600
C  26.56400 0.96700 26.98500
C  24.28400 -0.05300 24.48100
C  27.25800 2.27100 24.84400
C  27.06400 3.73500 25.42700
N  27.05400 0.92400 30.01400
C  28.03700 0.78900 29.07900
C  29.29700 0.59600 29.75500
C  29.06000 0.70600 31.14700
C  27.64500 0.93900 31.26500
C  30.64500 0.31800 29.14500
C  29.59200 0.60100 32.52500
O  30.72000 0.32000 32.92900
C  28.36300 1.01000 33.52200
C  28.24600 -0.11200 34.51500
O  27.75100 -1.21700 34.25400
O  28.76400 0.29700 35.69500
C  28.97400 -0.88300 36.57000
H  21.56400 1.45600 32.56100
H  22.47700 1.62000 26.13000
H  28.63300 0.80700 27.01300
H  25.37500 0.40600 34.85800
H  23.21100 2.22800 34.25100
H  23.43900 -0.27000 35.59500
H  22.36600 -0.42300 34.22200
H  22.02000 0.78700 35.45700
H  24.85700 3.21200 35.19400
H  26.33400 3.13800 34.32900
H  27.55000 2.59100 36.00900
H  26.60400 1.38300 36.64800
H  19.61700 1.15700 31.48600
H  18.63900 1.13500 30.06600
H  19.09600 2.72900 30.65900
H  18.36400 3.13700 28.45000
H  17.96600 1.46900 27.86100
H  18.15300 2.90200 26.77400
H  24.63200 2.14400 24.90700
H  26.87700 0.19700 24.99800
H  24.96900 -0.83500 24.15300
H  23.82800 0.33600 23.57000
H  23.51300 -0.47200 25.12700
H  26.79500 2.30400 23.85800
H  28.32700 2.06600 24.78000
H  26.53400 3.62100 26.37200
H  26.43800 4.22900 24.68400
H  27.93000 4.35500 25.65700
H  30.62900 0.85200 28.19500
H  30.61500 -0.72700 28.83800
H  31.52800 0.47400 29.76500
H  28.45200 1.98100 34.00900
H  28.03400 -1.14400 37.05700
H  29.64900 -0.68200 37.40200
H  29.49800 -1.70700 36.08500
Mg 36.37600 49.31100 24.73200
C  36.52500 47.56000 27.68100
C  34.79800 51.90600 26.29000
C  36.13000 50.91300 21.71200
C  37.60800 46.61100 23.04900
N  35.72800 49.64100 26.78500
C  35.91900 48.81100 27.84300
C  35.55300 49.55600 29.10500
C  34.86600 50.85800 28.60500
C  35.15900 50.81300 27.13900
C  33.35000 50.93100 28.93400
C  36.84500 49.81700 30.04000
C  36.70400 49.69900 31.59000
H  36.51000 51.00800 32.32400
N  35.69800 51.25300 24.11900
C  35.04500 52.15900 24.93700
C  34.63800 53.33600 24.19600
C  35.05800 53.08800 22.79000
C  35.65800 51.68900 22.77500
C  34.01700 54.56700 24.84000
C  34.94000 54.02400 21.60600
O  35.55600 53.87100 20.59400
C  34.09300 55.25400 21.67700
N  36.71100 48.82900 22.62400
C  36.66100 49.64300 21.60500
C  36.93200 49.00100 20.26300
C  37.64500 47.69800 20.67900
C  37.30200 47.69800 22.17200
C  35.57800 48.64700 19.57800
C  39.15100 47.83600 20.23200
C  39.43800 47.23700 18.90900
N  36.93000 47.43900 25.24900
C  37.44700 46.43000 24.43200
C  37.79200 45.34200 25.31800
C  37.43400 45.71800 26.59800
C  36.87200 46.97200 26.47200
C  38.44200 44.09800 24.76200
C  37.41400 45.27800 27.92300
O  37.79300 44.24300 28.46200
C  36.86400 46.53900 28.73000
C  35.67100 46.15500 29.56000
O  34.63300 45.71000 29.09200
O  36.00400 46.01800 30.86900
C  34.85300 45.62700 31.75500
H  34.22600 52.65600 26.84000
H  35.99700 51.41600 20.75200
H  38.04000 45.73800 22.55500
H  34.82400 48.96600 29.66000
H  35.34300 51.76200 28.98200
H  33.02900 51.86500 29.39400
H  33.00400 50.11800 29.57300
H  32.75100 50.92200 28.02400
H  37.04900 50.87400 29.86800
H  37.64800 49.13100 29.77000
H  37.64000 49.27800 31.95700
H  35.85800 49.03500 31.76700
H  32.95300 54.70100 24.64500
H  34.51100 55.43500 24.40400
H  34.27200 54.57400 25.90000
H  33.65800 55.42900 20.69300
H  34.75800 56.05500 21.99900
H  33.24000 55.15200 22.34700
H  37.50700 49.70900 19.66600
H  37.14100 46.82000 20.27600
H  34.80000 49.12000 20.17800
H  35.50200 47.56600 19.45800
H  35.55900 49.14400 18.60800
H  39.88200 47.54200 20.98600
H  39.40000 48.88900 20.10500
H  39.45700 48.06000 18.19500
H  38.73700 46.46000 18.60300
H  40.46200 46.86500 18.90600
H  39.43600 43.82700 25.11800
H  38.44400 44.06400 23.67200
H  37.87000 43.20700 25.02100
H  37.66700 46.86600 29.39100
H  33.96800 46.26100 31.70100
H  35.19400 45.67200 32.79000
H  34.59700 44.57600 31.62000

