158

Mg 17.56300 -1.03200 28.04800
C  16.25500 1.04000 30.54500
C  19.06400 -2.90200 30.50700
C  19.24200 -2.69200 25.66900
C  16.29400 1.22400 25.62100
N  17.66700 -0.87800 30.32300
C  16.91900 -0.04500 31.08200
C  17.01000 -0.43500 32.60200
C  18.16400 -1.52600 32.50100
C  18.28400 -1.85400 31.07100
C  19.52000 -1.10200 33.24000
C  15.58800 -0.88200 33.18800
C  15.39400 -0.58900 34.64700
H  16.47800 -0.03400 35.52800
N  19.00000 -2.58000 28.07000
C  19.37300 -3.28000 29.18100
C  20.31200 -4.31100 28.85200
C  20.46800 -4.23100 27.42500
C  19.57600 -3.09400 26.98200
C  20.94100 -5.15200 29.89400
C  21.38500 -5.07300 26.50100
O  21.36400 -4.85400 25.30400
C  22.23300 -6.15000 27.02900
N  17.84100 -0.65100 25.96100
C  18.43300 -1.62500 25.21300
C  18.35700 -1.24500 23.69200
C  17.37200 -0.02000 23.71400
C  17.13500 0.20200 25.23900
C  19.67700 -0.85500 22.98200
C  16.00800 0.00200 22.90400
C  15.90900 0.88200 21.58600
N  16.37400 0.77400 28.01000
C  15.98400 1.58300 27.00500
C  15.23100 2.65200 27.55500
C  15.35300 2.50400 28.98200
C  16.04200 1.38000 29.17600
C  14.35800 3.63100 26.81200
C  14.97100 3.14300 30.23300
O  14.37900 4.21500 30.46000
C  15.46800 2.17500 31.28400
C  16.35000 2.93000 32.10200
O  17.56400 2.76100 32.18700
O  15.62300 3.66200 33.06800
C  16.30700 4.48900 34.07000
H  19.47700 -3.56700 31.26800
H  19.76400 -3.23700 24.88000
H  15.90400 1.90500 24.86100
H  17.37800 0.47600 33.07400
H  17.70000 -2.38600 32.98400
H  19.44700 -0.04200 33.48600
H  20.39800 -1.27200 32.61600
H  19.51800 -1.57300 34.22200
H  15.51800 -1.94900 32.97900
H  14.75000 -0.42500 32.66200
H  14.92000 -1.45600 35.10600
H  14.73100 0.27600 34.64300
H  20.19300 -5.57600 30.56400
H  21.59700 -4.56000 30.53300
H  21.44000 -6.02200 29.46700
H  22.77300 -5.84700 27.92600
H  23.01300 -6.40700 26.31200
H  21.61200 -7.03700 27.15100
H  17.96100 -2.07500 23.10700
H  17.91900 0.90700 23.54400
H  19.59500 0.12200 22.50600
H  19.76600 -1.48700 22.09900
H  20.52000 -0.91100 23.67200
H  15.16400 0.24000 23.55200
H  15.95100 -1.04100 22.59200
H  15.22600 1.73000 21.53300
H  15.72000 0.19200 20.76400
H  16.89000 1.31400 21.38700
H  13.32300 3.35000 27.01100
H  14.57000 3.52800 25.74700
H  14.65100 4.61900 27.16500
H  14.55800 1.88100 31.80800
H  16.03100 5.54000 33.98400
H  17.38800 4.35500 34.11500
H  15.89600 4.22800 35.04600
Mg 43.91000 4.69800 46.66700
C  42.09800 7.63500 46.24300
C  41.09300 2.87400 45.85200
C  45.93500 2.20000 46.01300
C  46.79000 6.80400 47.20600
N  41.83800 5.23600 46.10500
C  41.36000 6.50000 46.13200
C  39.81600 6.51700 46.02600
C  39.44400 4.97400 45.90600
C  40.81700 4.29100 46.02100
C  38.44200 4.55700 46.97200
C  39.20500 7.35800 44.77900
C  40.06200 7.72900 43.59900
H  39.61600 7.23100 42.27800
N  43.57400 2.80500 46.26800
C  42.34700 2.21300 46.02100
C  42.68100 0.82400 45.73200
C  44.01300 0.55800 45.84200
C  44.58600 1.89200 46.03000
C  41.50000 -0.05600 45.37200
C  44.68600 -0.76200 45.81900
O  43.99300 -1.80500 45.67900
C  46.15600 -0.98700 46.23200
N  46.17600 4.57400 46.41300
C  46.67200 3.35200 46.28100
C  48.18400 3.35000 46.49800
C  48.55200 4.85600 46.89900
C  47.14100 5.44200 46.83800
C  48.69500 2.25400 47.58500
C  49.63500 5.58300 46.02000
C  50.88600 6.12600 46.74800
N  44.40800 6.82300 46.70200
C  45.53800 7.50400 46.91800
C  45.30000 8.98300 46.90400
C  43.92200 9.03100 46.68300
C  43.43600 7.72300 46.59400
C  46.25700 10.10100 47.00400
C  42.79900 9.94000 46.56800
O  42.67800 11.16400 46.55200
C  41.57100 9.04400 46.36400
C  40.76900 9.31600 47.56500
O  40.83800 8.64100 48.51100
O  39.98000 10.41300 47.33300
C  39.19000 10.86600 48.51400
H  40.17100 2.37000 45.55700
H  46.68000 1.42400 45.82600
H  47.53900 7.50200 47.58600
H  39.46200 6.98100 46.94700
H  39.08300 4.76600 44.89900
H  37.58800 4.11500 46.45900
H  38.03900 5.42600 47.49300
H  38.98500 4.04100 47.76400
H  38.99100 8.31200 45.25900
H  38.28000 6.86700 44.47900
H  41.04600 7.26800 43.67400
H  40.22700 8.80500 43.65800
H  41.52100 -1.08200 45.73900
H  41.33300 -0.05200 44.29500
H  40.64600 0.34800 45.91500
H  46.30400 -2.06700 46.23700
H  46.34500 -0.62500 47.24300
H  46.75800 -0.58400 45.41700
H  48.65200 3.12600 45.54000
H  48.81900 5.04800 47.93800
H  48.98400 2.72800 48.52300
H  49.53400 1.64100 47.25700
H  47.91300 1.54800 47.86600
H  49.23500 6.45700 45.50600
H  49.96400 4.88600 45.24900
H  50.85200 5.89800 47.81400
H  50.99600 7.19900 46.59500
H  51.81100 5.67600 46.38600
H  45.82500 11.09600 46.90200
H  46.95000 10.05600 46.16300
H  46.72000 10.12200 47.99000
H  41.03500 9.48600 45.52400
H  39.56100 11.80600 48.92300
H  38.97200 10.12700 49.28500
H  38.18200 11.04900 48.14100

