158

Mg 25.66100 0.56400 28.77700
C  27.53700 0.16400 31.64300
C  22.78600 0.92800 30.77500
C  23.78300 0.70500 26.06700
C  28.44400 -0.42700 26.92000
N  25.21400 0.30600 30.94000
C  26.18500 0.45300 31.91700
C  25.57100 0.82300 33.30500
C  24.05300 0.90100 32.98600
C  23.93700 0.67300 31.45200
C  23.35500 -0.16800 33.84100
C  26.17000 2.06000 33.95500
C  26.31300 1.88400 35.51400
H  25.75500 2.94900 36.49500
N  23.61900 0.89600 28.45900
C  22.63700 1.02800 29.38200
C  21.37000 1.20100 28.73900
C  21.62800 1.17900 27.29800
C  23.07100 0.85100 27.23900
C  20.04900 1.39300 29.44200
C  20.62800 1.37900 26.20200
O  20.85300 1.20200 25.06100
C  19.20700 1.84100 26.53200
N  26.00500 0.08500 26.81300
C  25.14300 0.46300 25.79800
C  25.76100 0.12900 24.37400
C  27.21800 -0.13100 24.71700
C  27.23500 -0.17100 26.18400
C  24.98100 -1.01100 23.69100
C  28.25200 0.96600 24.27600
C  28.47800 1.17000 22.73400
N  27.66900 0.06700 29.19300
C  28.71600 -0.24000 28.33200
C  29.83700 -0.36600 29.13100
C  29.45600 -0.13900 30.47900
C  28.12100 0.06000 30.44500
C  31.30100 -0.71000 28.75400
C  29.97200 -0.12100 31.78700
O  31.08400 -0.44300 32.15700
C  28.68500 0.07600 32.63900
C  28.53400 -0.99300 33.74100
O  27.88500 -1.95100 33.60500
O  29.04500 -0.47400 34.87800
C  28.79600 -1.18500 36.13000
H  21.91400 0.94600 31.43200
H  23.19100 0.67500 25.15000
H  29.30900 -0.65000 26.29200
H  25.80500 0.03400 34.01900
H  23.68900 1.88400 33.28400
H  22.60100 0.42500 34.35800
H  24.00000 -0.64300 34.58000
H  22.85200 -0.91200 33.22400
H  25.56100 2.92000 33.67300
H  27.17500 2.28200 33.59700
H  27.38800 1.86000 35.68900
H  25.82500 0.94800 35.78500
H  20.13100 1.35400 30.52800
H  19.36100 0.56300 29.28200
H  19.75100 2.42300 29.24500
H  19.16400 2.81100 27.02800
H  18.78900 1.08200 27.19300
H  18.56200 1.80600 25.65400
H  25.77500 0.93700 23.64200
H  27.56800 -1.08900 24.33300
H  24.47200 -1.65800 24.40500
H  25.66500 -1.51900 23.01200
H  24.29400 -0.64700 22.92600
H  29.24100 0.57800 24.52000
H  28.20200 1.90000 24.83600
H  28.51700 2.24600 22.56700
H  27.68100 0.70000 22.15800
H  29.39000 0.82700 22.24600
H  31.40200 -0.84200 27.67600
H  31.50700 -1.67200 29.22300
H  31.93000 0.14500 28.99800
H  28.86800 1.03500 33.12200
H  28.38400 -2.17400 35.92700
H  28.04100 -0.58700 36.64200
H  29.69300 -1.23100 36.74700
Mg 6.98100 53.63600 41.58400
C  6.74400 50.14600 41.52900
C  10.26700 53.19500 40.16700
C  7.15700 56.86200 40.61600
C  3.77800 53.85000 42.50100
N  8.32900 51.89100 41.12100
C  7.96500 50.61700 41.08200
C  9.15800 49.70000 40.74300
C  10.39700 50.71700 40.81100
C  9.64100 52.05700 40.73700
C  11.31200 50.44700 42.13400
C  9.17100 48.84700 39.44100
C  8.96500 49.66600 38.20400
H  7.76600 49.27600 37.24000
N  8.49700 54.82200 40.54700
C  9.73000 54.45200 40.02600
C  10.47700 55.65500 39.69400
C  9.66800 56.79600 39.92400
C  8.37500 56.18000 40.37800
C  11.93500 55.63200 39.28100
C  10.09300 58.24600 39.80900
O  11.15600 58.65300 39.36500
C  9.22600 59.33700 40.32900
N  5.64700 55.02900 41.55000
C  5.99000 56.28900 41.13500
C  4.72200 57.13100 41.17300
C  3.65200 56.27800 41.95500
C  4.41300 54.92400 42.03800
C  4.64100 58.56100 41.81200
C  2.30500 56.14800 41.29100
C  1.10800 56.07100 42.28200
N  5.52200 52.31200 42.12400
C  4.26900 52.52800 42.60800
C  3.68300 51.24800 42.93700
C  4.57800 50.25100 42.57100
C  5.68800 51.01100 41.99300
C  2.36000 50.98500 43.55000
C  4.75500 48.87900 42.52400
O  4.03700 47.94500 42.77700
C  6.18000 48.76500 41.68200
C  5.72800 48.14100 40.34300
O  4.97000 48.66500 39.49300
O  6.04800 46.79100 40.36500
C  5.43400 45.94700 39.38200
H  11.29200 52.99100 39.85200
H  7.05400 57.92800 40.40300
H  2.75300 53.85100 42.87800
H  9.19200 48.92000 41.50400
H  11.06800 50.59000 39.96100
H  12.36400 50.57500 41.87900
H  11.18900 49.41800 42.47400
H  11.13600 51.20200 42.90000
H  8.43600 48.04200 39.46400
H  10.18400 48.47500 39.28800
H  9.83800 49.48700 37.57600
H  8.88000 50.73400 38.40100
H  12.13600 54.66700 38.81600
H  12.63500 55.81500 40.09600
H  12.13100 56.39700 38.53000
H  8.45700 59.63200 39.61500
H  9.78800 60.25700 40.48800
H  8.88900 58.99600 41.30800
H  4.49800 57.25600 40.11400
H  3.59000 56.54000 43.01100
H  5.66500 58.81800 42.08700
H  3.96400 58.89200 42.60000
H  4.36900 59.15900 40.94200
H  2.37800 55.21000 40.74100
H  2.14700 56.88900 40.50700
H  0.54600 57.00400 42.26000
H  1.51600 55.95800 43.28700
H  0.40200 55.26500 42.08200
H  1.57200 51.72600 43.41000
H  2.39000 50.69200 44.60000
H  1.99200 50.13600 42.97500
H  6.85100 48.06400 42.18000
H  6.22000 45.54100 38.74500
H  4.66700 46.30700 38.69600
H  4.99300 45.03600 39.78600

