158

Mg 24.51800 -4.77500 46.55600
C  26.43500 -2.49600 44.87900
C  22.19100 -4.42900 44.06400
C  22.84900 -7.48800 47.88300
C  27.49500 -5.85500 48.42400
N  24.24800 -3.49100 44.75900
C  25.16000 -2.53600 44.32500
C  24.69600 -1.86600 43.00600
C  23.17600 -2.36100 42.94900
C  23.17200 -3.49700 43.96200
C  22.12000 -1.25400 43.36300
C  25.54600 -2.32600 41.76200
C  26.24600 -1.17300 41.03100
H  25.74900 -1.07400 39.58000
N  22.73500 -5.71700 46.16300
C  21.92100 -5.44800 45.05500
C  20.81700 -6.31500 45.01200
C  20.87400 -7.01100 46.25900
C  22.20700 -6.75800 46.88300
C  19.68500 -6.16700 43.99100
C  19.71800 -7.92300 46.75700
O  18.69300 -8.02000 46.11500
C  19.79700 -8.62000 47.99700
N  25.04800 -6.44400 47.96900
C  24.14500 -7.35000 48.40300
C  24.87500 -8.33700 49.32200
C  26.40100 -7.96800 49.37200
C  26.30400 -6.65900 48.62400
C  24.26400 -8.49800 50.77500
C  27.39700 -9.02800 48.75700
C  28.51600 -9.44700 49.77200
N  26.53100 -4.15200 46.88300
C  27.61200 -4.72400 47.58100
C  28.79000 -3.98200 47.21100
C  28.40100 -3.12000 46.17400
C  27.04600 -3.33000 45.95500
C  30.10900 -4.14000 47.79400
C  28.86800 -2.10000 45.27600
O  29.91100 -1.40800 45.19900
C  27.66000 -1.64400 44.35200
C  27.49200 -0.15800 44.63600
O  26.86400 0.29800 45.58300
O  28.20100 0.54000 43.76000
C  28.06100 1.97600 43.84900
H  21.43500 -4.23200 43.30100
H  22.30800 -8.35900 48.25700
H  28.38400 -6.25100 48.92100
H  24.65600 -0.78300 43.11400
H  22.81200 -2.77200 42.00700
H  22.60000 -0.41600 43.86700
H  21.41800 -1.55500 44.14100
H  21.47300 -0.98300 42.52800
H  24.97300 -2.89100 41.02700
H  26.39100 -2.89500 42.15100
H  27.31300 -1.39500 41.03100
H  26.04600 -0.19300 41.46600
H  19.99200 -5.78500 43.01800
H  18.81000 -5.70400 44.44800
H  19.34400 -7.14300 43.64500
H  20.17000 -7.91100 48.73500
H  20.29900 -9.58400 47.90900
H  18.79300 -8.78300 48.39000
H  24.84400 -9.33500 48.88300
H  26.50300 -7.83100 50.44900
H  24.77000 -7.91300 51.54400
H  24.29000 -9.56100 51.01300
H  23.21500 -8.27300 50.58600
H  27.91500 -8.62700 47.88600
H  26.96000 -9.91800 48.30400
H  29.46300 -9.84600 49.41000
H  27.99400 -9.96600 50.57500
H  28.76800 -8.48400 50.21600
H  30.01300 -4.28400 48.87000
H  30.75100 -3.26700 47.67800
H  30.61500 -5.01800 47.39200
H  27.82000 -1.82900 43.29000
H  28.23700 2.33900 42.83600
H  28.84800 2.39400 44.47700
H  27.07200 2.30800 44.16700
Mg 16.88900 52.22400 26.74400
C  18.63500 50.81200 29.45900
C  14.37800 53.06200 28.87300
C  15.22000 53.26200 24.11800
C  19.27900 50.73800 24.55100
N  16.43700 51.66800 28.95300
C  17.41600 51.37500 29.92600
C  16.91600 51.60500 31.34800
C  15.41400 52.07600 31.09500
C  15.43600 52.40300 29.58400
C  14.35800 51.01700 31.49600
C  17.99500 52.58100 32.12600
C  18.31000 52.30500 33.59300
H  17.32300 51.61900 34.59800
N  15.00400 53.06300 26.53300
C  14.11300 53.30600 27.54700
C  12.92600 53.84400 27.02600
C  13.14100 53.89300 25.59300
C  14.49500 53.48000 25.37100
C  11.70000 54.25100 27.76700
C  12.32400 54.52600 24.44400
O  12.75500 54.82900 23.32200
C  10.99100 54.97900 24.71100
N  17.02200 51.76200 24.62100
C  16.28400 52.52200 23.74900
C  16.77800 52.40000 22.29800
C  18.25500 51.97700 22.53900
C  18.24800 51.43200 23.96400
C  15.89800 51.33200 21.48400
C  19.19600 53.23700 22.33800
C  20.68000 52.93100 22.16000
N  18.55700 50.93400 26.91200
C  19.45200 50.41800 25.95300
C  20.44600 49.66700 26.61900
C  20.14800 49.88700 27.96500
C  19.02500 50.62800 28.09600
C  21.54300 48.87700 26.03500
C  20.55100 49.50700 29.29800
O  21.44900 48.79800 29.69800
C  19.59800 50.13200 30.30000
C  19.05800 49.03200 31.22500
O  18.18900 48.24800 30.89500
O  19.74800 48.96700 32.38700
C  19.43900 47.90500 33.36400
H  13.59700 53.36800 29.57300
H  14.81300 53.73300 23.22100
H  20.11700 50.45700 23.91000
H  16.98900 50.64100 31.85100
H  15.29600 52.99700 31.66500
H  13.56400 50.85000 30.76700
H  13.79900 51.41800 32.34200
H  14.84400 50.07600 31.75300
H  17.49100 53.54200 32.01700
H  18.97300 52.63900 31.64900
H  18.51500 53.30600 33.97300
H  19.27100 51.81900 33.75600
H  11.69100 54.14500 28.85200
H  10.98400 53.63700 27.22000
H  11.46100 55.29400 27.55700
H  11.06600 55.70600 25.52000
H  10.51000 54.03800 24.97900
H  10.39100 55.32300 23.86800
H  16.64600 53.36000 21.79800
H  18.63800 51.25800 21.81500
H  16.48200 50.41500 21.40300
H  15.70200 51.62200 20.45200
H  14.90200 51.11000 21.86900
H  19.08700 53.84300 23.23800
H  18.83300 53.86000 21.52100
H  20.66700 51.84500 22.24800
H  21.40300 53.30700 22.88400
H  20.94800 53.20700 21.14000
H  22.33600 49.56900 25.75000
H  21.14900 48.43000 25.12200
H  21.87300 48.09200 26.71500
H  20.18900 50.86200 30.85400
H  20.30600 47.59600 33.94800
H  18.97400 47.05000 32.87400
H  18.70100 48.39100 34.00300

