158

Mg 16.13300 -1.93300 27.42800
C  15.50500 0.13000 30.14500
C  18.50400 -3.59600 29.46400
C  17.59200 -3.35900 24.81900
C  14.76500 0.39500 25.32600
N  16.80600 -1.83900 29.66300
C  16.31900 -0.95000 30.58100
C  16.96300 -1.24400 31.95900
C  18.09900 -2.32000 31.61100
C  17.80000 -2.62600 30.14200
C  19.56900 -1.78000 31.84700
C  15.86100 -1.87400 32.86600
C  15.54700 -1.23600 34.23800
H  16.66100 -0.31700 34.90500
N  17.58600 -3.49200 27.15800
C  18.44500 -4.02900 28.13000
C  19.15700 -5.12200 27.49700
C  18.75800 -5.17800 26.13900
C  17.93600 -4.00600 25.95000
C  20.24400 -5.94600 28.17200
C  19.20200 -6.04000 24.96800
O  18.79300 -5.88300 23.84100
C  20.27600 -7.09100 25.21000
N  16.20300 -1.53400 25.39800
C  16.78400 -2.30100 24.48900
C  16.68700 -1.75300 23.09500
C  15.64400 -0.63100 23.30400
C  15.49700 -0.60100 24.76900
C  17.99300 -1.21700 22.52300
C  14.23400 -0.93800 22.69000
C  13.44400 0.28600 22.13000
N  15.19100 -0.12200 27.64400
C  14.59900 0.66500 26.70000
C  13.87900 1.79100 27.41700
C  14.17400 1.52700 28.74800
C  15.04400 0.42700 28.83900
C  13.04100 2.77700 26.72800
C  13.94700 2.02200 30.05400
O  13.26500 2.93600 30.45300
C  14.76200 1.14600 30.98700
C  15.75600 2.03600 31.70500
O  16.95200 2.20000 31.36700
O  15.12800 2.66100 32.72200
C  15.89600 3.72800 33.36100
H  19.30400 -4.11000 30.00000
H  17.87600 -3.81500 23.86800
H  14.32300 1.13200 24.65200
H  17.39300 -0.30000 32.29400
H  18.04500 -3.24900 32.17800
H  19.51700 -0.78600 32.29100
H  20.07000 -1.71400 30.88100
H  20.08900 -2.53600 32.43600
H  16.15100 -2.92200 32.94600
H  14.91800 -1.70100 32.34700
H  15.17200 -2.04400 34.86600
H  14.64900 -0.63000 34.11700
H  21.09800 -5.91700 27.49600
H  19.89200 -6.97700 28.20700
H  20.55200 -5.68000 29.18400
H  19.91700 -7.72800 26.01900
H  21.24200 -6.61900 25.38800
H  20.42000 -7.67700 24.30300
H  16.29500 -2.47500 22.37900
H  15.99400 0.30800 22.87600
H  18.09600 -0.13300 22.54800
H  18.06200 -1.51200 21.47600
H  18.94400 -1.38800 23.02700
H  13.61200 -1.36400 23.47700
H  14.22300 -1.71500 21.92500
H  13.14900 0.24600 21.08100
H  14.07200 1.14500 22.36400
H  12.57300 0.47900 22.75700
H  12.46500 2.15600 26.04200
H  13.66500 3.34400 26.03800
H  12.42500 3.34000 27.42800
H  14.14400 0.80000 31.81500
H  15.94000 4.64700 32.77700
H  16.93300 3.43900 33.53300
H  15.52900 3.90800 34.37200
Mg -4.88600 25.34200 27.57000
C  -3.52000 26.47500 30.50300
C  -6.85400 23.06100 29.49700
C  -5.76600 23.73800 24.80800
C  -2.72900 27.29300 25.78800
N  -5.23400 24.91100 29.72000
C  -4.55300 25.55700 30.70900
C  -5.05300 25.20900 32.10900
C  -5.95200 23.97100 31.91800
C  -6.05900 23.96000 30.31700
C  -5.34600 22.62300 32.48200
C  -5.79200 26.43200 32.77600
C  -5.58600 26.65100 34.25300
H  -5.07400 25.51600 35.12900
N  -6.22400 23.66100 27.14000
C  -6.94000 22.89000 28.05600
C  -7.85700 22.04600 27.28900
C  -7.62900 22.26200 25.92600
C  -6.54200 23.22400 25.88000
C  -8.95000 21.09700 27.98800
C  -8.20900 21.57100 24.68900
O  -7.76600 21.76100 23.57200
C  -9.43300 20.71300 24.75700
N  -4.40600 25.57300 25.54400
C  -4.77300 24.70700 24.60400
C  -4.21100 25.10000 23.24100
C  -3.30900 26.42500 23.56000
C  -3.49800 26.45400 25.02900
C  -3.32400 23.99300 22.56900
C  -3.75500 27.70000 22.82200
C  -2.77200 28.32700 21.87600
N  -3.46900 26.61800 28.00500
C  -2.65000 27.37300 27.18200
C  -1.81700 28.23200 27.94100
C  -2.04400 27.85300 29.21600
C  -3.06200 26.83400 29.22600
C  -0.89000 29.21400 27.38900
C  -1.78200 28.21700 30.66200
O  -0.98000 28.96900 31.19900
C  -2.71600 27.26200 31.44700
C  -1.86300 26.45000 32.33100
O  -0.99500 25.71800 31.95600
O  -2.11500 26.78500 33.61800
C  -1.08900 26.39600 34.57500
H  -7.37400 22.20000 29.92200
H  -5.95500 23.18400 23.88700
H  -1.98100 27.78200 25.16000
H  -4.11700 24.98000 32.61900
H  -6.97900 24.04400 32.27500
H  -4.61800 22.84000 33.26300
H  -4.88900 22.00800 31.70600
H  -6.20500 22.07500 32.87100
H  -6.85000 26.16900 32.78800
H  -5.82100 27.33200 32.16100
H  -6.52400 26.85200 34.77100
H  -4.88900 27.45400 34.49100
H  -9.04000 20.18400 27.40000
H  -9.91600 21.60100 27.97100
H  -8.69600 20.93000 29.03500
H  -10.23600 20.99100 25.43900
H  -8.98800 19.73700 24.95000
H  -9.80300 20.71000 23.73100
H  -5.05800 25.36300 22.60800
H  -2.28400 26.20000 23.26200
H  -2.41900 23.95900 23.17600
H  -3.31200 24.28700 21.52000
H  -3.75000 23.01700 22.80300
H  -4.03400 28.46500 23.54600
H  -4.73800 27.57200 22.36700
H  -1.85700 27.74600 21.76100
H  -2.51000 29.35300 22.13500
H  -3.25800 28.21700 20.90700
H  0.18100 29.05500 27.50900
H  -0.95900 30.13300 27.97100
H  -1.17700 29.56700 26.39800
H  -3.35400 27.90000 32.05800
H  -0.83700 25.33500 34.59500
H  -1.43400 26.79000 35.53100
H  -0.17300 26.96600 34.42000

