158

Mg 54.06900 23.99500 44.06600
C  51.38400 26.18100 43.25600
C  52.15000 21.39500 42.82900
C  56.77000 22.15800 43.90300
C  55.69400 26.71700 45.45400
N  52.17400 23.92400 42.88000
C  51.25900 24.86700 42.69800
C  50.05100 24.31100 41.92300
C  50.08100 22.77500 42.27700
C  51.53400 22.67500 42.75400
C  49.00700 22.07300 43.10000
C  50.01100 24.67800 40.39500
C  51.35300 24.89500 39.57400
H  51.22900 25.85600 38.42500
N  54.35000 21.99100 43.67700
C  53.43000 21.09100 43.20000
C  54.00200 19.76800 43.21500
C  55.36400 19.94400 43.58500
C  55.57900 21.38800 43.69400
C  53.31200 18.59900 42.63500
C  56.37300 18.83400 43.72200
O  56.06000 17.69700 43.44100
C  57.81700 19.08400 44.20100
N  56.00000 24.42700 44.31900
C  57.08000 23.50900 44.26000
C  58.36000 24.05900 44.89200
C  57.91600 25.39500 45.47200
C  56.42300 25.53200 45.16500
C  59.00400 23.20000 46.02800
C  58.65700 26.70400 44.97000
C  58.13600 27.41500 43.72900
N  53.78600 26.12100 44.23900
C  54.43900 27.05700 44.91600
C  53.65400 28.29300 45.05000
C  52.48000 28.01000 44.36100
C  52.54200 26.68400 43.88700
C  54.07400 29.58000 45.68500
C  51.22700 28.58300 43.92300
O  50.74600 29.66400 44.13200
C  50.46000 27.40300 43.32100
C  49.88800 27.82400 42.03000
O  50.47000 27.78800 40.99100
O  48.65200 28.15600 42.17100
C  47.94200 28.34100 40.92000
H  51.42800 20.59800 42.63800
H  57.71500 21.61700 43.97700
H  56.29400 27.45400 45.99200
H  49.25400 24.91900 42.35100
H  50.09100 22.26400 41.31400
H  48.09200 22.40200 42.61000
H  49.03900 22.46800 44.11600
H  48.99900 20.98400 43.14400
H  49.34900 25.53400 40.26300
H  49.48600 23.88800 39.85800
H  51.83300 23.96300 39.27500
H  52.04300 25.41600 40.23800
H  53.99700 18.11000 41.94200
H  52.51300 18.84200 41.93500
H  52.83000 17.92300 43.34100
H  57.67200 19.55000 45.17600
H  58.34900 19.76800 43.54000
H  58.41200 18.17900 44.32400
H  59.13800 24.18900 44.14000
H  58.02200 25.50200 46.55100
H  58.41600 22.32700 46.31100
H  59.24900 23.78900 46.91200
H  59.89100 22.71800 45.61700
H  59.71000 26.51500 44.76500
H  58.69300 27.43600 45.77700
H  57.94600 28.47400 43.90300
H  57.37200 26.88300 43.16200
H  58.89100 27.48900 42.94600
H  55.03800 29.33100 46.12900
H  53.31500 29.82300 46.42800
H  54.27100 30.37800 44.96900
H  49.70400 27.14900 44.06400
H  48.04900 27.53100 40.19900
H  48.21500 29.30500 40.49200
H  46.88700 28.33500 41.19500
Mg -11.77700 38.21300 41.93900
C  -9.58300 35.63500 40.89600
C  -9.50900 40.44100 40.53400
C  -14.13100 40.47100 41.92800
C  -13.94600 35.79200 43.13000
N  -9.68000 38.09200 41.03500
C  -9.01200 36.96600 40.72800
C  -7.79100 37.23400 39.91100
C  -7.59800 38.83400 40.12200
C  -9.00100 39.17200 40.63700
C  -6.51900 39.11700 41.19100
C  -7.95800 36.86200 38.38800
C  -6.91300 35.92500 37.75500
H  -5.99900 36.56000 36.70300
N  -11.82400 40.15700 41.40200
C  -10.78700 40.94600 40.83100
C  -11.19400 42.29700 40.67500
C  -12.58800 42.30700 40.97000
C  -12.88600 40.94400 41.49600
C  -10.34000 43.39200 40.06700
C  -13.44700 43.55800 40.80500
O  -12.99300 44.59400 40.27800
C  -14.93000 43.54400 41.10700
N  -13.79800 38.12000 42.29700
C  -14.45900 39.27500 42.53600
C  -15.87700 39.05000 43.17200
C  -15.97500 37.50400 43.26000
C  -14.48600 37.10100 42.98500
C  -16.08200 39.89600 44.54200
C  -16.86000 36.83400 42.16100
C  -17.33600 35.42200 42.47800
N  -11.90400 36.11000 41.95400
C  -12.74100 35.29100 42.60400
C  -12.28100 33.88900 42.46000
C  -11.06100 33.98400 41.72300
C  -10.84600 35.40000 41.54700
C  -13.08500 32.70300 42.76900
C  -10.04800 33.21000 40.99200
O  -9.94400 31.99000 40.77300
C  -9.19600 34.32400 40.31000
C  -7.69800 33.91900 40.37400
O  -6.89700 34.24700 41.25300
O  -7.36900 33.22400 39.23300
C  -6.06800 32.52500 39.33200
H  -8.81200 41.18900 40.14800
H  -14.97900 41.13900 41.76400
H  -14.62300 35.08100 43.60800
H  -6.97700 36.63900 40.32500
H  -7.34700 39.33600 39.18800
H  -5.74600 38.36100 41.32500
H  -7.00000 39.41200 42.12400
H  -5.99800 39.99000 40.79800
H  -7.92400 37.77500 37.79400
H  -8.95900 36.49400 38.16400
H  -7.31500 35.08800 37.18400
H  -6.28700 35.49600 38.53700
H  -10.80300 43.82500 39.18100
H  -9.38000 43.05000 39.68000
H  -10.14600 44.15500 40.82200
H  -15.47100 42.86400 40.44800
H  -15.28000 44.55400 40.89300
H  -15.09500 43.51100 42.18400
H  -16.71200 39.31000 42.52200
H  -16.32800 37.06100 44.19200
H  -16.68400 39.32400 45.24700
H  -16.65800 40.77700 44.25800
H  -15.11300 40.00700 45.03000
H  -16.24900 36.81500 41.25900
H  -17.73000 37.45300 41.94100
H  -17.73600 35.10800 43.44200
H  -16.66800 34.60300 42.21100
H  -18.18800 35.19200 41.83800
H  -14.14100 32.86400 42.55300
H  -13.04900 32.53400 43.84500
H  -12.88500 31.79200 42.20600
H  -9.51300 34.46100 39.27600
H  -5.52000 32.51200 40.27400
H  -5.37500 32.90300 38.58000
H  -6.28700 31.50500 39.01800

