158

Mg 9.17500 4.26100 27.65100
C  10.62400 2.86800 30.43500
C  7.36400 6.38100 29.72900
C  8.04900 5.68800 25.04000
C  10.68500 1.68100 25.68300
N  8.92700 4.45900 29.84600
C  9.72800 3.93000 30.80600
C  9.57200 4.49400 32.17300
C  8.40300 5.56200 31.94200
C  8.11500 5.43700 30.40200
C  7.19100 5.30000 32.87200
C  10.85500 4.94500 32.96700
C  10.74600 5.86200 34.13900
H  11.68500 5.68100 35.32500
N  7.80900 5.74100 27.41200
C  7.20200 6.54100 28.33200
C  6.43700 7.50300 27.68100
C  6.74100 7.42900 26.31200
C  7.58900 6.23900 26.19600
C  5.52000 8.43100 28.37900
C  6.33900 8.36100 25.13900
O  6.55700 8.09100 23.98900
C  5.66400 9.63900 25.40500
N  9.20200 3.66200 25.63700
C  8.67400 4.47300 24.71600
C  8.98100 3.98400 23.22500
C  9.96100 2.82100 23.57300
C  9.88300 2.64800 25.02900
C  7.67700 3.61000 22.40300
C  11.35500 3.27600 22.91300
C  12.11900 2.22200 22.18600
N  10.40000 2.59600 27.94100
C  10.90200 1.63300 27.10600
C  11.68600 0.64800 27.85500
C  11.66600 1.14200 29.17600
C  10.82700 2.29800 29.17200
C  12.36300 -0.54800 27.34000
C  12.17500 1.00800 30.53400
O  13.01300 0.19600 30.93300
C  11.54300 2.12000 31.38100
C  10.86800 1.38800 32.50700
O  9.77900 0.81400 32.51500
O  11.69400 1.46500 33.64400
C  11.26300 1.18700 35.03700
H  6.78900 7.04200 30.38100
H  7.74800 6.12400 24.08600
H  11.20100 0.93800 25.07100
H  9.18000 3.61300 32.67900
H  8.88500 6.52500 32.10800
H  6.35600 4.95500 32.26100
H  6.83700 6.21000 33.35500
H  7.49400 4.68900 33.72200
H  11.38000 5.50600 32.19400
H  11.39000 4.11000 33.41900
H  9.69700 5.84600 34.43500
H  10.95900 6.84300 33.71300
H  5.95100 9.39800 28.63800
H  5.33400 8.10400 29.40200
H  4.57700 8.46100 27.83300
H  5.73400 10.37100 24.60000
H  6.28400 10.04600 26.20300
H  4.62300 9.33100 25.50300
H  9.56000 4.80900 22.80900
H  9.53100 1.92300 23.13100
H  6.85000 4.08100 22.93400
H  7.52500 2.54900 22.20300
H  7.79000 4.06100 21.41700
H  11.97700 3.71200 23.69500
H  11.23400 3.96700 22.07900
H  11.57100 1.28400 22.26700
H  13.06000 2.06400 22.71300
H  12.33100 2.35800 21.12500
H  12.11300 -1.33400 28.05200
H  13.43000 -0.37600 27.19800
H  12.00900 -0.81700 26.34400
H  12.29000 2.83900 31.71900
H  11.80000 1.78800 35.77100
H  11.27300 0.11700 35.24500
H  10.24500 1.50300 35.26800
Mg 45.21700 5.12100 46.98400
C  42.98200 7.74100 46.71000
C  42.55300 2.89200 46.59600
C  47.41700 2.65400 46.33200
C  47.82400 7.43000 46.48400
N  43.03700 5.36200 46.45300
C  42.32100 6.49100 46.53100
C  40.78600 6.28500 46.46700
C  40.73300 4.76500 46.75000
C  42.20700 4.28000 46.65400
C  39.99600 4.39200 48.07800
C  40.20300 6.83800 45.13300
C  40.49100 6.13000 43.78100
H  41.00600 7.07500 42.69200
N  45.02600 3.02800 46.63500
C  43.84300 2.33300 46.53300
C  44.13100 0.90600 46.49000
C  45.59700 0.86100 46.39300
C  46.08200 2.19200 46.39600
C  43.11200 -0.23800 46.36000
C  46.45000 -0.40000 46.27800
O  45.85700 -1.47800 46.24800
C  47.99100 -0.50800 46.22700
N  47.27000 5.14300 46.19400
C  47.95300 3.90300 46.30100
C  49.52300 4.13600 46.31500
C  49.57400 5.67300 46.11200
C  48.12200 6.13400 46.27200
C  50.17500 3.60700 47.65300
C  50.18100 6.14000 44.77600
C  51.52500 5.75400 44.23200
N  45.49300 7.20500 46.86700
C  46.55100 8.03100 46.70200
C  46.10700 9.37400 46.88200
C  44.71000 9.34300 46.92700
C  44.41000 7.95200 46.77800
C  47.05300 10.56900 47.07100
C  43.51400 10.17500 47.04300
O  43.38100 11.36900 47.19100
C  42.32400 9.08400 47.01200
C  41.42000 9.18000 48.21300
O  41.70300 8.71400 49.28000
O  40.30800 9.90500 47.92100
C  39.46000 10.28500 49.01700
H  41.73000 2.18200 46.49300
H  48.25400 1.95900 46.23100
H  48.69500 8.08900 46.51200
H  40.33200 6.89800 47.24400
H  40.20900 4.30800 45.91000
H  39.04700 3.90500 47.85200
H  39.83300 5.28900 48.67500
H  40.71400 3.82600 48.67100
H  40.41000 7.90700 45.08700
H  39.14300 6.81500 45.38300
H  39.69600 5.58000 43.27800
H  41.30900 5.43200 43.96100
H  43.30500 -0.89700 45.51300
H  42.07500 0.09800 46.34600
H  43.19200 -0.82700 47.27400
H  48.47900 -0.05900 47.09200
H  48.23300 0.07000 45.33500
H  48.27300 -1.55900 46.15100
H  50.07800 3.57400 45.56400
H  50.31400 6.02600 46.83100
H  50.61800 4.36600 48.29800
H  51.00500 2.96300 47.36300
H  49.47100 3.12100 48.32900
H  50.10900 7.22500 44.85700
H  49.44400 5.87100 44.01900
H  51.28300 5.19600 43.32800
H  52.09000 5.14600 44.93900
H  52.16300 6.58300 43.92600
H  46.71600 11.36300 47.73800
H  47.39800 10.90000 46.09100
H  47.95300 10.22700 47.58300
H  41.78700 9.36300 46.10600
H  39.57400 9.63400 49.88400
H  38.40000 10.24400 48.76700
H  39.61800 11.33100 49.27900

