158

Mg 47.33500 25.57500 27.42300
C  48.39900 27.58200 29.79600
C  45.99300 23.40700 29.75400
C  46.46600 23.34600 24.91800
C  49.05400 27.42100 25.03100
N  47.10200 25.58200 29.51200
C  47.52300 26.61900 30.28300
C  47.33900 26.31200 31.79400
C  46.66900 24.88400 31.80500
C  46.55200 24.57900 30.25300
C  47.49800 23.86700 32.61000
C  46.48000 27.42400 32.50400
C  46.99400 27.90700 33.94000
H  46.00100 28.15700 35.00300
N  46.39500 23.57000 27.38400
C  45.88700 22.93400 28.42000
C  45.28100 21.66500 28.01200
C  45.37300 21.66300 26.57200
C  46.09400 22.91000 26.22300
C  44.57400 20.74400 29.02900
C  44.97200 20.62700 25.62300
O  45.13500 20.64800 24.38800
C  44.31300 19.36100 26.16500
N  47.53000 25.48700 25.30800
C  47.22700 24.49000 24.48200
C  47.52600 24.75500 23.02400
C  48.13700 26.12300 23.06500
C  48.35700 26.34700 24.59300
C  48.33300 23.66700 22.26700
C  47.27300 27.18900 22.48800
C  47.86300 27.60100 21.10000
N  48.42200 27.27600 27.42300
C  49.10600 27.92900 26.37500
C  49.78700 29.13000 26.89900
C  49.55900 28.99200 28.30600
C  48.73400 27.82900 28.49700
C  50.45900 30.20900 26.14900
C  49.82800 29.58000 29.60900
O  50.55600 30.51500 29.94900
C  48.99500 28.77100 30.62200
C  49.88800 28.28900 31.70600
O  50.58300 27.26200 31.66100
O  49.84000 29.09000 32.80900
C  50.66900 28.63500 33.94800
H  45.66400 22.78200 30.58700
H  46.29100 22.81800 23.97800
H  49.50000 28.04600 24.25500
H  48.31800 26.16500 32.25200
H  45.72800 24.92300 32.35400
H  46.90200 23.46100 33.42700
H  48.26400 24.36700 33.20300
H  47.80700 23.12800 31.87100
H  45.45400 27.09800 32.67900
H  46.43400 28.29200 31.84700
H  47.70900 28.72400 33.84300
H  47.57700 27.04100 34.25600
H  45.02900 19.75400 29.00600
H  43.53800 20.61800 28.71500
H  44.54800 21.17300 30.03100
H  43.85900 18.72700 25.40300
H  43.42300 19.49800 26.78000
H  45.03400 18.74400 26.70000
H  46.50200 24.82700 22.66000
H  49.17700 26.09800 22.74000
H  47.64600 23.19100 21.56700
H  48.82200 23.08100 23.04500
H  49.18500 24.06300 21.71300
H  47.32600 28.07000 23.12700
H  46.21900 26.95800 22.33300
H  47.37900 27.02200 20.31300
H  48.95200 27.63800 21.07600
H  47.51300 28.62800 20.99500
H  50.60900 31.14000 26.69600
H  49.88200 30.35800 25.23600
H  51.44500 29.88600 25.81500
H  48.24000 29.53700 30.79800
H  50.89000 29.47500 34.60700
H  51.64400 28.30700 33.58600
H  50.23100 27.84400 34.55700
Mg 10.13600 48.59200 26.88400
C  8.43100 48.05400 29.98000
C  12.83100 49.81000 28.59800
C  11.59000 48.98400 24.01300
C  7.20800 47.74300 25.19200
N  10.48000 48.94400 29.09300
C  9.67300 48.67600 30.16600
C  10.36800 48.97500 31.45600
C  11.57200 49.97900 30.93900
C  11.67300 49.56100 29.44300
C  11.24300 51.50400 31.10000
C  10.94900 47.67700 32.21600
C  10.16300 47.39700 33.56100
H  10.82700 48.19000 34.73700
N  11.93700 49.20600 26.36200
C  12.92300 49.69700 27.23900
C  14.07900 49.96200 26.48600
C  13.79800 49.64800 25.13300
C  12.38500 49.24000 25.13700
C  15.39300 50.56600 27.09200
C  14.73700 49.61800 23.96200
O  14.41600 49.23700 22.81200
C  16.23300 49.73000 24.18800
N  9.37900 48.64900 24.86900
C  10.24400 48.68000 23.84000
C  9.60300 48.39600 22.48000
C  8.17100 47.92100 22.91000
C  8.25500 48.09800 24.41400
C  9.57800 49.45200 21.45900
C  7.92500 46.42600 22.66000
C  8.09300 46.08300 21.19000
N  8.19300 48.14800 27.41300
C  7.11500 47.75100 26.57700
C  5.99700 47.46400 27.41200
C  6.44800 47.51800 28.75700
C  7.83200 47.87300 28.69900
C  4.63100 47.27900 26.91500
C  6.07700 47.35700 30.11400
O  5.01200 46.97700 30.54200
C  7.37300 47.64300 30.95900
C  7.61900 46.33200 31.68200
O  8.30700 45.40400 31.25900
O  6.96400 46.32900 32.93700
C  6.94400 45.04900 33.58600
H  13.74200 50.10700 29.12100
H  12.00700 49.01000 23.00400
H  6.28500 47.46200 24.68200
H  9.65700 49.45600 32.12800
H  12.46100 49.72200 31.51600
H  12.17000 52.04600 31.28900
H  10.48800 51.63100 31.87600
H  10.84500 51.90000 30.16600
H  11.97000 47.75000 32.58900
H  11.00600 46.78300 31.59500
H  10.07700 46.32500 33.73700
H  9.17300 47.81500 33.37700
H  15.69000 51.42700 26.49300
H  16.17800 49.81000 27.06300
H  15.27300 50.97500 28.09500
H  16.50600 50.71400 24.56800
H  16.72400 49.67900 23.21600
H  16.52900 48.88600 24.81100
H  10.27200 47.65200 22.04900
H  7.34700 48.53600 22.54700
H  8.64000 49.98100 21.28800
H  10.09900 49.09100 20.57300
H  10.08900 50.30600 21.90500
H  6.90700 46.20800 22.98000
H  8.55700 45.82000 23.31000
H  7.27100 45.61500 20.64900
H  9.00800 45.49400 21.13400
H  8.42800 46.94700 20.61600
H  4.14100 48.20700 26.62100
H  4.05300 46.78400 27.69500
H  4.67500 46.49600 26.15800
H  7.20800 48.45300 31.66900
H  7.89300 44.53100 33.45200
H  6.08200 44.52400 33.17300
H  6.76700 45.09400 34.66100

