158

Mg 9.24200 49.05200 25.96400
C  7.18500 49.37100 28.83000
C  11.75000 50.40600 27.92900
C  11.21500 48.81900 23.31100
C  6.56000 48.00400 24.06500
N  9.43800 49.77700 28.08200
C  8.47900 49.74500 29.09800
C  9.07800 50.31500 30.43500
C  10.48100 50.84000 29.96700
C  10.55900 50.31900 28.56400
C  10.54500 52.35300 29.84300
C  9.07200 49.32200 31.63800
C  8.21800 49.81300 32.80200
H  8.68100 50.83900 33.92800
N  11.25000 49.51500 25.63400
C  12.11500 50.04500 26.56200
C  13.45400 49.99400 25.98600
C  13.35500 49.54600 24.65600
C  11.89300 49.32800 24.41100
C  14.70400 50.39600 26.69100
C  14.35500 49.34000 23.58000
O  14.11100 48.98400 22.38600
C  15.81500 49.46000 23.99900
N  8.87100 48.62400 23.97500
C  9.88500 48.59900 23.05800
C  9.46300 47.99200 21.69100
C  8.00700 47.45100 22.10400
C  7.75500 48.10800 23.45800
C  9.21900 49.05400 20.55500
C  7.95600 45.92600 21.93800
C  8.78600 45.19600 23.04800
N  7.25000 48.78800 26.33100
C  6.28700 48.36800 25.42100
C  5.06000 48.25000 26.17700
C  5.38400 48.59900 27.50600
C  6.72200 48.93900 27.56500
C  3.73300 47.77700 25.71900
C  4.78400 48.75200 28.86800
O  3.70500 48.54600 29.31500
C  5.93800 49.24600 29.71900
C  6.04300 48.30100 30.83900
O  6.67500 47.26100 30.88100
O  5.26500 48.71000 31.89700
C  4.97800 47.61700 32.85200
H  12.56100 50.75000 28.57500
H  11.88900 48.76600 22.45300
H  5.70900 47.57000 23.53600
H  8.37200 51.09700 30.71400
H  11.34800 50.39100 30.45100
H  10.12000 52.56200 28.86100
H  11.56900 52.72500 29.79400
H  10.02400 52.95200 30.58900
H  10.11700 49.35000 31.94300
H  8.83800 48.26100 31.54700
H  7.84300 48.95800 33.36400
H  7.37300 50.34400 32.36400
H  14.28900 50.93800 27.54000
H  15.34000 51.09200 26.14400
H  15.24700 49.49700 26.98300
H  16.05700 50.49200 24.25200
H  16.47900 49.08100 23.22100
H  15.89900 48.88700 24.92300
H  10.09200 47.14000 21.43500
H  7.35400 47.91800 21.36700
H  10.14600 49.60300 20.38600
H  8.49500 49.82800 20.81000
H  8.87800 48.57000 19.64000
H  8.35900 45.54500 20.99900
H  6.93600 45.60000 22.13900
H  9.09700 45.87600 23.84100
H  9.63100 44.71900 22.55200
H  8.25500 44.32900 23.44000
H  2.99700 48.54600 25.95500
H  3.49400 46.81400 26.17000
H  3.76700 47.72200 24.63100
H  5.59300 50.18900 30.14300
H  4.29300 47.95500 33.63000
H  5.86200 47.12400 33.25500
H  4.42500 46.87100 32.28100
Mg -10.30400 16.89100 40.95000
C  -6.84400 16.18400 41.05000
C  -9.49900 20.17300 40.33700
C  -13.56300 17.50000 40.32300
C  -10.90500 13.52500 40.70800
N  -8.40400 17.94000 40.68800
C  -7.09200 17.50100 40.86200
C  -6.06400 18.53600 40.36100
C  -6.86500 19.78000 40.64300
C  -8.34500 19.31300 40.54400
C  -6.65200 20.47700 41.93900
C  -5.61000 18.41700 38.79800
C  -4.08400 18.40400 38.33700
H  -3.57600 17.00100 37.79600
N  -11.44600 18.65700 40.62300
C  -10.88400 19.89000 40.32000
C  -12.00300 20.85500 40.20900
C  -13.09900 20.12700 40.28600
C  -12.83500 18.72100 40.47700
C  -11.84800 22.35200 39.73000
C  -14.57500 20.70500 40.10800
O  -14.77900 21.91000 39.97500
C  -15.74600 19.80000 40.17500
N  -12.00100 15.61800 40.59300
C  -13.20000 16.13100 40.30800
C  -14.22100 14.95300 39.97200
C  -13.36900 13.63600 40.07700
C  -12.04700 14.30300 40.52600
C  -15.40200 14.87200 40.92800
C  -13.18000 12.92900 38.67600
C  -13.19800 11.40000 38.68200
N  -9.15600 15.18200 40.97400
C  -9.55200 13.85700 40.96900
C  -8.41100 12.93500 41.06600
C  -7.35900 13.81900 41.09500
C  -7.84900 15.16500 41.05000
C  -8.37400 11.35900 41.16700
C  -5.82700 13.85500 41.25000
O  -4.98600 12.99400 41.39800
C  -5.48300 15.39000 41.19100
C  -4.72700 15.85000 42.35000
O  -3.79800 16.61000 42.38000
O  -5.30000 15.27200 43.42300
C  -4.63200 15.51400 44.69200
H  -9.22600 21.20700 40.11700
H  -14.62900 17.59800 40.10700
H  -11.03200 12.49800 40.36200
H  -5.20700 18.56500 41.03400
H  -6.59300 20.57600 39.95000
H  -5.93100 19.95100 42.56500
H  -7.60900 20.57100 42.45300
H  -6.19700 21.46000 41.81400
H  -6.10500 19.17900 38.19700
H  -5.99800 17.41600 38.61000
H  -3.37800 18.78400 39.07500
H  -4.00400 19.10100 37.50300
H  -10.81300 22.40400 39.39000
H  -11.85400 23.00000 40.60700
H  -12.44200 22.79900 38.93400
H  -15.80800 19.16800 39.28800
H  -16.65100 20.38000 40.35300
H  -15.62800 19.12100 41.02000
H  -14.58400 15.14200 38.96200
H  -13.72800 12.95800 40.85100
H  -15.39000 15.73600 41.59300
H  -15.48000 13.94600 41.49800
H  -16.33400 14.91900 40.36600
H  -12.25800 13.27900 38.21300
H  -14.01100 13.16700 38.01200
H  -14.12200 11.20600 38.13600
H  -13.27400 10.98200 39.68600
H  -12.42900 10.82800 38.16400
H  -7.36700 11.00100 40.95200
H  -9.14400 10.90500 40.54300
H  -8.43400 11.14600 42.23400
H  -4.74400 15.45000 40.39200
H  -5.08400 16.35200 45.22200
H  -3.55300 15.55300 44.54200
H  -4.86200 14.65800 45.32600

