158

Mg 24.11900 -6.25900 45.27000
C  26.31600 -3.86400 43.93300
C  21.55900 -4.91100 43.49300
C  22.34600 -9.00600 46.04100
C  27.09300 -7.72600 46.71400
N  24.03300 -4.70100 43.88400
C  24.99700 -3.75100 43.44400
C  24.38800 -2.68700 42.51400
C  22.90600 -3.00500 42.62400
C  22.81000 -4.26100 43.39600
C  22.08600 -1.85700 43.35400
C  25.07700 -2.77000 41.06900
C  25.61400 -1.48800 40.30100
H  25.05500 -1.39700 38.86600
N  22.13300 -6.80900 44.98000
C  21.25900 -6.15900 44.17000
C  20.11500 -6.94400 43.99400
C  20.20900 -8.11200 44.79000
C  21.59000 -7.98400 45.29700
C  18.92400 -6.59500 43.21500
C  19.14800 -9.18300 45.05500
O  17.99300 -8.86400 44.67700
C  19.37300 -10.41100 45.77400
N  24.66200 -8.08100 46.06200
C  23.70200 -9.08700 46.25400
C  24.33600 -10.37400 46.78500
C  25.77100 -9.89800 47.17300
C  25.87600 -8.43600 46.63800
C  23.54500 -11.03200 47.89900
C  26.99900 -10.86700 46.82700
C  28.04500 -11.07600 47.88800
N  26.30700 -5.83300 45.38200
C  27.33000 -6.54000 45.97500
C  28.60600 -5.82900 45.84800
C  28.26900 -4.76900 45.03000
C  26.85600 -4.83100 44.80800
C  29.99500 -6.17000 46.30700
C  28.74000 -3.66800 44.17600
O  29.88900 -3.29600 43.98500
C  27.50800 -3.06700 43.47000
C  27.49700 -1.60000 43.86700
O  27.01300 -1.14800 44.93200
O  28.30100 -0.88500 43.00600
C  28.81300 0.38100 43.50000
H  20.76800 -4.25900 43.11700
H  21.79300 -9.94600 46.09600
H  28.00200 -8.19300 47.10000
H  24.63900 -1.76000 43.02800
H  22.40300 -2.97200 41.65800
H  22.50300 -1.80700 44.36000
H  21.05900 -2.21100 43.44200
H  22.11600 -0.87400 42.88500
H  24.34100 -3.27900 40.44800
H  25.98200 -3.36900 41.17600
H  26.69800 -1.57700 40.23200
H  25.27100 -0.66300 40.92600
H  18.72600 -7.32300 42.42800
H  18.95900 -5.56200 42.86900
H  18.02700 -6.60100 43.83400
H  18.51700 -11.02700 45.49800
H  19.30100 -10.17300 46.83500
H  20.25500 -10.99100 45.50500
H  24.37400 -10.97800 45.87800
H  25.76000 -9.65400 48.23500
H  24.23500 -11.19700 48.72700
H  23.12600 -11.99000 47.59000
H  22.70500 -10.45600 48.28600
H  27.38300 -10.67300 45.82500
H  26.48900 -11.83000 46.79100
H  27.86600 -12.03900 48.36600
H  27.85300 -10.37400 48.70000
H  29.04000 -10.97600 47.45400
H  30.04100 -5.96100 47.37600
H  30.80100 -5.66200 45.77800
H  30.15400 -7.24400 46.20300
H  27.72300 -3.21000 42.41100
H  28.81300 0.52400 44.58000
H  28.07200 1.13300 43.22800
H  29.77300 0.64300 43.05600
Mg 41.94400 40.31800 27.58500
C  40.94900 42.76700 29.87300
C  43.20300 38.42600 30.02400
C  42.60600 38.13100 25.15900
C  41.09100 42.77700 24.97500
N  42.01100 40.57200 29.74900
C  41.47700 41.58000 30.51600
C  41.80800 41.37300 32.01200
C  42.52400 39.99600 31.95500
C  42.70300 39.67100 30.42900
C  43.96700 40.06800 32.53500
C  40.57800 41.48900 32.93200
C  40.72000 42.10800 34.30100
H  40.26000 41.34500 35.58500
N  42.84400 38.47400 27.58800
C  43.23700 37.81600 28.70700
C  43.64800 36.44100 28.29700
C  43.47400 36.35200 26.90800
C  42.93500 37.67800 26.50700
C  44.10600 35.45900 29.25200
C  43.62500 35.16300 25.97600
O  43.33500 35.22400 24.77500
C  44.06400 33.89300 26.51100
N  41.92900 40.48900 25.36700
C  42.18600 39.34900 24.72000
C  42.03100 39.57600 23.24100
C  41.57000 41.06200 23.10400
C  41.48800 41.53100 24.56600
C  43.09400 39.23800 22.24400
C  40.22900 41.29700 22.35300
C  38.80600 41.07200 22.94400
N  41.18900 42.32800 27.44100
C  40.99100 43.17200 26.30600
C  40.51400 44.46900 26.68100
C  40.51200 44.43300 28.05700
C  40.90700 43.04300 28.50300
C  40.12100 45.57100 25.70500
C  40.19400 45.05200 29.34200
O  39.72000 46.21000 29.61700
C  40.66400 44.09000 30.51600
C  41.85600 44.59600 31.26800
O  42.95600 44.98800 30.79500
O  41.51600 44.60800 32.61600
C  42.54600 45.05000 33.57200
H  43.40700 37.68000 30.79500
H  42.59600 37.35300 24.39300
H  40.74000 43.35100 24.11500
H  42.61700 42.06900 32.23300
H  41.99300 39.18800 32.45900
H  44.16300 40.90400 33.20700
H  44.71900 39.92000 31.76000
H  44.07700 39.25200 33.24800
H  40.27200 40.45700 33.10200
H  39.76700 42.01600 32.42900
H  40.32500 43.12400 34.30600
H  41.80100 42.12300 34.44700
H  45.00700 35.00800 28.83500
H  43.30100 34.74900 29.44300
H  44.41000 35.98800 30.15500
H  43.46200 33.52900 27.34400
H  45.11100 34.01200 26.79200
H  43.98300 33.14400 25.72400
H  41.17800 38.97700 22.92100
H  42.47100 41.57700 22.77100
H  43.03600 39.62000 21.22500
H  43.17300 38.15300 22.18200
H  44.03000 39.69100 22.57000
H  40.21500 40.55500 21.55400
H  40.34700 42.24500 21.82900
H  38.88300 40.78700 23.99300
H  38.21000 40.27000 22.51100
H  38.28200 42.02800 22.92700
H  39.89500 45.16600 24.71800
H  40.79600 46.42700 25.72500
H  39.20900 45.98300 26.13800
H  39.82200 43.92400 31.18800
H  43.47100 44.53900 33.30700
H  42.08800 44.86800 34.54400
H  42.59500 46.13100 33.44200

