158

Mg -2.28600 17.03300 26.11900
C  -2.73800 15.03000 28.89400
C  -2.19300 19.86100 28.19000
C  -2.30600 18.91600 23.24500
C  -2.72000 14.19300 24.04800
N  -2.50800 17.39200 28.28400
C  -2.56700 16.42600 29.26200
C  -2.78600 17.00900 30.69400
C  -2.89500 18.53500 30.38100
C  -2.53500 18.61700 28.83200
C  -4.22500 19.20800 30.68100
C  -1.59700 16.78300 31.69800
C  -2.21800 16.15100 33.00700
H  -1.27200 15.91900 34.18700
N  -2.08400 19.07000 25.73400
C  -2.06200 20.06500 26.76100
C  -1.89900 21.37600 26.09900
C  -2.11700 21.11200 24.63900
C  -2.17600 19.66200 24.45400
C  -1.72700 22.61000 26.84100
C  -2.06300 22.09300 23.47400
O  -2.18000 21.80500 22.26000
C  -1.84100 23.46900 23.86300
N  -2.43800 16.60600 23.97000
C  -2.38100 17.53800 22.94100
C  -2.70500 17.02200 21.54800
C  -2.55300 15.47800 21.85100
C  -2.55900 15.40300 23.36600
C  -4.12700 17.53900 21.13000
C  -1.27200 14.95300 21.19800
C  0.08800 15.33900 21.84000
N  -2.58900 15.01700 26.38600
C  -2.72500 13.95300 25.45800
C  -2.87000 12.70700 26.21000
C  -2.87100 13.04100 27.53600
C  -2.74400 14.47200 27.58400
C  -3.13400 11.39400 25.54600
C  -2.96000 12.56200 28.90600
O  -3.12800 11.40400 29.28100
C  -2.86900 13.79000 29.84400
C  -1.78100 13.45600 30.83300
O  -0.61200 13.73100 30.67400
O  -2.25700 12.76700 31.94100
C  -1.27600 12.51500 32.98600
H  -1.97600 20.70300 28.85000
H  -2.49300 19.49200 22.33600
H  -2.81900 13.34600 23.36600
H  -3.71200 16.58700 31.08500
H  -2.13400 19.07500 30.94500
H  -3.93600 19.96500 31.41000
H  -4.89600 18.54000 31.22000
H  -4.82700 19.60100 29.86200
H  -1.13700 17.72900 31.98300
H  -0.92000 16.15900 31.11400
H  -2.81000 15.25600 32.81600
H  -2.96300 16.91100 33.24300
H  -2.51600 23.29700 26.53600
H  -0.73600 23.05700 26.75600
H  -1.77200 22.48600 27.92300
H  -1.94600 24.09700 22.97900
H  -0.90300 23.54300 24.41300
H  -2.70600 23.75900 24.46000
H  -1.96800 17.29400 20.79200
H  -3.42900 14.95200 21.47200
H  -4.51400 18.39600 21.68000
H  -4.90000 16.77100 21.15700
H  -4.12600 17.75900 20.06200
H  -1.28500 15.13500 20.12300
H  -1.29500 13.87000 21.32000
H  -0.12300 16.07600 22.61500
H  0.71600 15.78000 21.06700
H  0.43200 14.35600 22.16300
H  -3.57500 11.56900 24.56500
H  -3.79700 10.79300 26.16700
H  -2.17000 10.89100 25.47300
H  -3.86800 13.81300 30.28100
H  -1.64800 12.95400 33.91200
H  -0.27100 12.90400 32.82000
H  -1.16200 11.43700 33.09400
Mg 47.50400 14.71700 27.90300
C  45.37900 15.12500 30.57800
C  49.58900 17.07900 29.23800
C  49.18000 14.75100 25.06000
C  44.90500 12.90200 26.31500
N  47.36100 16.09300 29.67500
C  46.51900 15.92700 30.74800
C  47.09200 16.51300 32.03100
C  48.17100 17.43100 31.43400
C  48.42600 16.92100 29.98500
C  47.85600 18.93100 31.49100
C  47.54100 15.55700 33.09300
C  47.20500 15.98200 34.53500
H  48.40000 16.47000 35.34300
N  49.21600 15.65500 27.30900
C  49.93000 16.54300 28.01200
C  51.33200 16.67500 27.44000
C  51.20100 16.05600 26.10800
C  49.80200 15.45800 26.11000
C  52.54200 17.31200 28.17900
C  52.20600 16.03300 24.94500
O  51.97000 15.52900 23.87700
C  53.46200 16.85000 25.05200
N  47.07900 14.03200 26.05400
C  47.91700 14.18500 25.03500
C  47.45600 13.51100 23.74100
C  46.18900 12.72900 24.20100
C  46.00700 13.28000 25.58800
C  47.10100 14.42100 22.50500
C  46.47100 11.22300 24.14900
C  47.38900 10.53000 25.17400
N  45.50900 14.07200 28.34200
C  44.59200 13.26300 27.67500
C  43.48700 12.96700 28.53600
C  43.82600 13.61300 29.74300
C  45.00700 14.33300 29.53500
C  42.30500 12.11100 28.20700
C  43.29100 13.82600 31.07500
O  42.25000 13.45300 31.61800
C  44.35600 14.86500 31.68400
C  43.59700 16.10300 32.08700
O  43.31100 17.05800 31.38200
O  43.10000 15.93300 33.31000
C  42.47300 17.01300 33.99800
H  50.42900 17.59500 29.70800
H  49.67900 14.76100 24.08900
H  44.17300 12.26400 25.81600
H  46.27500 17.08500 32.47100
H  49.09700 17.29100 31.99000
H  47.68000 19.27500 30.47100
H  48.74800 19.45300 31.83700
H  46.98500 19.14600 32.11100
H  48.62200 15.41400 33.07400
H  47.12600 14.58200 32.83600
H  46.62400 15.23700 35.07800
H  46.63300 16.91000 34.54800
H  53.43800 16.77000 27.87800
H  52.25700 17.02100 29.18900
H  52.56300 18.40200 28.18600
H  54.07400 16.42700 25.84900
H  53.22700 17.89500 25.25500
H  53.93700 16.83900 24.07100
H  48.33300 12.94000 23.43700
H  45.27900 12.92600 23.63400
H  46.22600 13.97100 22.03500
H  47.96800 14.57800 21.86400
H  46.85000 15.32000 23.06800
H  46.82500 10.99700 23.14400
H  45.49300 10.75200 24.24700
H  47.66100 11.03000 26.10400
H  48.31800 10.17200 24.73000
H  46.85900 9.66200 25.56500
H  41.40100 12.65900 27.94100
H  42.03600 11.49200 29.06300
H  42.56100 11.57600 27.29300
H  44.72700 14.30600 32.54300
H  42.84000 17.98700 33.67500
H  42.76000 16.80000 35.02800
H  41.38700 16.92000 34.03000

