158

Mg -2.35800 17.52500 26.40000
C  -2.87800 15.05500 29.03600
C  -2.84800 19.91400 28.74800
C  -2.44500 19.73400 23.90600
C  -2.72400 14.85800 24.02900
N  -2.78200 17.36000 28.68200
C  -2.82600 16.34700 29.59500
C  -2.76500 16.87600 30.99900
C  -2.85000 18.42800 30.84800
C  -2.86900 18.59700 29.31800
C  -3.94900 19.21400 31.63900
C  -1.57800 16.18700 31.84000
C  -0.79500 17.01100 32.91000
H  -0.53400 16.37100 34.25300
N  -2.50200 19.52900 26.35200
C  -2.66100 20.41500 27.41400
C  -2.56300 21.78000 26.96800
C  -2.31900 21.69800 25.52200
C  -2.43100 20.28700 25.20800
C  -2.69200 22.98900 27.83400
C  -2.03700 22.74800 24.58800
O  -1.99400 22.68900 23.35200
C  -1.62700 24.10700 25.13000
N  -2.60400 17.34800 24.32300
C  -2.49800 18.37200 23.47600
C  -2.41400 17.98900 22.00100
C  -2.75700 16.48400 22.09200
C  -2.62900 16.18000 23.55700
C  -3.33900 18.69000 20.90400
C  -1.86900 15.54800 21.19600
C  -2.73100 14.34400 20.67700
N  -2.68800 15.44900 26.47200
C  -2.79800 14.53900 25.42000
C  -3.02200 13.24800 25.95900
C  -2.98100 13.36200 27.37600
C  -2.80400 14.76100 27.62400
C  -3.28900 11.97100 25.08600
C  -3.08100 12.62300 28.58300
O  -3.25900 11.43500 28.75200
C  -2.98700 13.68100 29.77300
C  -1.65700 13.35300 30.47000
O  -0.51300 13.52300 29.93900
O  -1.83000 12.78800 31.68000
C  -0.70800 12.37600 32.42700
H  -3.04600 20.76400 29.40400
H  -2.53400 20.46700 23.10100
H  -2.69400 13.99700 23.35800
H  -3.68900 16.51600 31.45300
H  -1.90500 18.84200 31.19900
H  -4.47900 19.93600 31.01800
H  -3.53300 19.76000 32.48500
H  -4.54400 18.49300 32.20000
H  -0.80400 16.03600 31.08800
H  -1.96800 15.26100 32.26400
H  -1.25500 17.99700 32.97700
H  0.20300 17.18600 32.50800
H  -3.11700 22.77200 28.81400
H  -3.41500 23.65100 27.35700
H  -1.80600 23.62300 27.79800
H  -2.53700 24.61900 25.44300
H  -1.26800 24.69100 24.28200
H  -0.90800 24.06300 25.94800
H  -1.36400 18.05300 21.71500
H  -3.84500 16.47400 22.01900
H  -4.09200 18.01200 20.50300
H  -2.67800 19.02200 20.10400
H  -3.83600 19.48000 21.46800
H  -0.99800 15.14300 21.71000
H  -1.54700 16.18000 20.36800
H  -2.62100 14.22400 19.60000
H  -3.78900 14.42400 20.92800
H  -2.40300 13.37900 21.06200
H  -4.08900 12.19200 24.37900
H  -3.50000 11.02300 25.58100
H  -2.40500 11.82900 24.46400
H  -3.72900 13.68000 30.57200
H  -1.13700 11.80800 33.25300
H  -0.21500 13.29900 32.73300
H  -0.03200 11.82000 31.77800
Mg 16.37000 -2.00400 28.44100
C  15.33300 0.25100 30.97700
C  18.09400 -3.71700 30.70600
C  17.81500 -3.73600 25.83600
C  14.74800 0.02800 26.05700
N  16.76300 -1.69500 30.56900
C  16.20700 -0.72800 31.42800
C  16.48200 -1.10600 32.84500
C  17.43300 -2.34900 32.71700
C  17.46900 -2.59900 31.25200
C  18.91800 -2.24200 33.29000
C  15.21600 -1.25900 33.80100
C  15.15700 -0.39500 35.10600
H  16.47500 0.21800 35.65300
N  17.75000 -3.53500 28.30600
C  18.31500 -4.13600 29.36800
C  19.06000 -5.31400 28.97200
C  19.07200 -5.25000 27.57400
C  18.14100 -4.17000 27.14500
C  19.76900 -6.26700 29.90600
C  19.85100 -6.16900 26.48300
O  19.92000 -5.80200 25.33000
C  20.62700 -7.40500 26.88900
N  16.30000 -1.85100 26.27700
C  16.95100 -2.72600 25.44400
C  16.86100 -2.30900 24.00500
C  15.81200 -1.17000 24.02400
C  15.60300 -0.92600 25.52400
C  18.24000 -1.93000 23.37200
C  14.44200 -1.39600 23.33900
C  13.36500 -2.26000 24.12900
N  15.17800 -0.28300 28.40100
C  14.55700 0.37200 27.37900
C  13.65000 1.40800 27.93000
C  13.97800 1.45800 29.35500
C  14.87100 0.41100 29.58700
C  12.77000 2.32300 27.10500
C  13.74800 2.15500 30.65000
O  13.07600 3.11600 31.00500
C  14.56200 1.40700 31.76900
C  15.42300 2.42700 32.32500
O  16.38600 2.84200 31.72300
O  14.86700 2.92200 33.49900
C  15.56700 4.03700 34.13700
H  18.57800 -4.34600 31.45600
H  18.23200 -4.26100 24.97500
H  14.19500 0.57400 25.29000
H  17.15600 -0.28400 33.08600
H  16.88500 -3.19800 33.12500
H  19.10800 -1.32800 33.85300
H  19.67000 -2.25200 32.50100
H  19.06400 -3.07400 33.97800
H  15.20900 -2.28300 34.17400
H  14.30100 -0.93600 33.30500
H  14.65100 -0.99200 35.86500
H  14.54200 0.49500 34.96700
H  19.19700 -7.19500 29.91500
H  19.90100 -5.94700 30.94000
H  20.77100 -6.50900 29.55100
H  19.99400 -7.98800 27.55900
H  21.54700 -7.10300 27.39000
H  20.84100 -8.08900 26.06900
H  16.43700 -3.14300 23.44600
H  16.21200 -0.28000 23.53800
H  19.18300 -2.22400 23.83400
H  18.33100 -0.85200 23.23700
H  18.12800 -2.42100 22.40500
H  14.61700 -1.96000 22.42300
H  14.01900 -0.40400 23.18300
H  12.62900 -1.52100 24.44400
H  13.72500 -2.64600 25.08300
H  12.76600 -2.92300 23.50500
H  13.15100 2.66400 26.14200
H  12.53800 3.22800 27.66700
H  11.80700 1.83900 26.94900
H  13.84800 1.09500 32.53100
H  15.71900 4.01800 35.21600
H  15.10200 4.99200 33.89000
H  16.58500 3.95700 33.75500

