158

Mg 44.58400 5.45300 47.88300
C  42.35700 8.06600 47.38400
C  42.12200 3.27000 46.91900
C  46.92400 2.87000 47.57400
C  47.25600 7.70600 47.75500
N  42.52500 5.67500 47.07500
C  41.77600 6.81000 47.08000
C  40.35300 6.54300 46.67900
C  40.18300 5.04300 46.62100
C  41.67500 4.61100 46.78000
C  39.13300 4.53200 47.71700
C  39.90100 7.23500 45.33000
C  38.45600 7.50900 45.27200
H  37.75400 6.97500 43.99800
N  44.51300 3.25800 47.52800
C  43.36100 2.65500 47.17400
C  43.71100 1.18300 47.08400
C  45.11700 1.08500 47.09200
C  45.57500 2.44600 47.40200
C  42.73900 0.08500 46.95400
C  45.95400 -0.25400 46.96500
O  45.35400 -1.31100 46.91600
C  47.50000 -0.30400 46.91600
N  46.78200 5.28900 47.64400
C  47.47000 4.10400 47.81100
C  49.00800 4.34600 48.11100
C  48.98800 5.89300 48.32000
C  47.59500 6.33200 47.83400
C  49.57300 3.53800 49.40000
C  50.12500 6.70000 47.67800
C  50.99800 7.51700 48.62400
N  44.80000 7.53800 47.75000
C  45.95200 8.33700 47.77900
C  45.52900 9.77000 47.68100
C  44.13500 9.65800 47.65900
C  43.74700 8.31700 47.63700
C  46.50600 10.84100 47.66200
C  42.89500 10.44600 47.72100
O  42.67500 11.62700 47.77500
C  41.65600 9.36900 47.54300
C  40.84200 9.51600 48.72200
O  41.24500 9.09300 49.80700
O  39.71900 10.13700 48.49700
C  38.91000 10.45100 49.73100
H  41.32000 2.57000 46.67300
H  47.78100 2.25600 47.28900
H  48.04800 8.45800 47.77100
H  39.77900 6.96100 47.50600
H  39.73900 4.58000 45.74000
H  38.30000 5.21700 47.87600
H  39.55800 4.38800 48.71100
H  38.58200 3.64500 47.40700
H  40.18500 6.50400 44.57400
H  40.44500 8.15400 45.11000
H  38.18400 8.55600 45.40500
H  37.92400 6.98600 46.06700
H  42.90900 -0.53100 47.83700
H  42.98000 -0.65600 46.19300
H  41.74900 0.52900 46.84400
H  47.66400 -1.36600 46.73100
H  47.89900 -0.06500 47.90200
H  47.74300 0.28900 46.03500
H  49.61000 4.07800 47.24400
H  48.83700 5.94300 49.39900
H  48.81700 2.92600 49.89100
H  50.11700 4.14600 50.12300
H  50.39100 2.96500 48.96200
H  49.71200 7.23700 46.82300
H  50.88500 6.11700 47.15800
H  50.59000 7.49800 49.63500
H  50.99100 8.58700 48.41600
H  51.99200 7.07800 48.70100
H  47.14200 10.62500 48.52000
H  46.02400 11.81100 47.78000
H  46.97900 10.71500 46.68800
H  41.00800 9.60800 46.70000
H  39.01500 9.76000 50.56800
H  37.85700 10.54900 49.46700
H  39.13500 11.46300 50.06700
Mg 41.34500 41.28500 26.55400
C  40.76600 43.43800 29.38300
C  43.03500 39.11600 28.74500
C  42.31700 39.52700 23.94500
C  40.41800 44.07000 24.49200
N  41.90300 41.31000 28.78200
C  41.39900 42.22100 29.68100
C  41.94400 41.83900 31.07700
C  42.98000 40.66800 30.75700
C  42.52500 40.25000 29.36200
C  44.44500 41.02600 30.82600
C  40.91400 41.46000 32.18100
C  41.09200 42.05500 33.62000
H  39.78900 42.27400 34.35300
N  42.37900 39.48000 26.36900
C  42.96700 38.77300 27.40600
C  43.26900 37.47600 26.82400
C  43.19600 37.61500 25.40500
C  42.67200 38.96500 25.17100
C  43.62100 36.30000 27.65200
C  43.54400 36.61300 24.30100
O  43.29100 36.83800 23.12900
C  44.10700 35.23900 24.63900
N  41.41100 41.78500 24.57900
C  41.70200 40.79400 23.65500
C  41.48400 41.21800 22.21600
C  40.67600 42.50300 22.42500
C  40.87600 42.80700 23.93400
C  42.73800 41.48800 21.33000
C  39.14300 42.39600 22.07100
C  38.40500 41.05700 22.36100
N  40.81600 43.30300 26.80000
C  40.45700 44.30700 25.84300
C  39.91800 45.42200 26.52100
C  40.05500 45.15700 27.92300
C  40.51100 43.81100 28.00700
C  39.29400 46.72900 25.87000
C  39.85200 45.71300 29.27900
O  39.49600 46.82500 29.58200
C  40.26100 44.58000 30.27500
C  41.20800 45.20000 31.24800
O  42.40300 45.41500 30.98600
O  40.58400 45.61700 32.35900
C  41.45700 46.33400 33.25600
H  43.54200 38.39100 29.38400
H  42.62300 38.99800 23.04000
H  39.89200 44.80600 23.88000
H  42.42200 42.75900 31.41600
H  42.78700 39.84100 31.44100
H  44.54800 42.10800 30.90200
H  45.00100 40.91300 29.89500
H  44.91000 40.44900 31.62600
H  40.79800 40.37900 32.11200
H  39.99200 41.91900 31.82200
H  41.73700 42.93100 33.54900
H  41.66600 41.33500 34.20300
H  43.45700 36.34200 28.72900
H  44.69100 36.16000 27.50300
H  42.93200 35.49000 27.41200
H  43.23900 34.72600 25.05500
H  44.87500 35.34700 25.40400
H  44.56600 34.85100 23.73000
H  40.92500 40.43500 21.70400
H  41.16000 43.33600 21.91600
H  43.16300 42.49200 21.36600
H  42.46100 41.35400 20.28500
H  43.55800 40.78400 21.47300
H  39.20700 42.50200 20.98800
H  38.57900 43.25300 22.43800
H  38.07400 40.57500 21.44100
H  37.51100 41.28900 22.94000
H  39.03500 40.36100 22.91500
H  38.75500 46.42900 24.97200
H  40.05100 47.49300 25.69400
H  38.53300 47.06800 26.57300
H  39.36400 44.21100 30.77200
H  41.93400 47.16500 32.73500
H  42.27100 45.71500 33.63300
H  40.89500 46.70900 34.11100

