158

Mg 34.92500 3.19700 29.95300
C  32.78100 4.29800 32.51100
C  37.58400 3.45000 32.04700
C  36.91100 2.52900 27.32400
C  32.19900 3.45800 27.72400
N  35.17000 4.05300 31.92700
C  34.14500 4.21400 32.85000
C  34.66900 4.12600 34.28200
C  36.24400 4.17600 34.02700
C  36.35000 3.83800 32.58400
C  37.00000 5.46800 34.30700
C  34.19000 2.92200 35.10600
C  33.95200 3.04000 36.64100
H  34.66300 4.23500 37.28600
N  36.94400 2.92400 29.70400
C  37.88000 3.05100 30.70600
C  39.22600 2.62500 30.22100
C  39.03800 2.47300 28.80800
C  37.60400 2.69900 28.57300
C  40.44800 2.57400 31.15300
C  40.09900 2.08600 27.73700
O  39.83200 2.01300 26.51800
C  41.51500 1.81200 28.19300
N  34.61300 2.96300 27.85300
C  35.58000 2.58600 27.04600
C  35.09700 2.58800 25.57500
C  33.55100 2.52800 25.75100
C  33.43500 3.11800 27.21000
C  35.67800 3.94000 24.88600
C  32.86600 1.13800 25.50700
C  31.45100 1.10900 24.88300
N  32.83400 3.76400 30.03900
C  31.88700 3.75800 29.06400
C  30.57100 4.10300 29.68000
C  30.87600 4.28700 31.04600
C  32.31700 4.13900 31.20700
C  29.27500 4.15600 28.96300
C  30.31700 4.50600 32.34100
O  29.17200 4.69900 32.62500
C  31.51900 4.54900 33.38600
C  31.46700 5.85600 34.10000
O  31.22900 6.98200 33.57400
O  31.65500 5.65900 35.45100
C  31.40800 6.88900 36.24600
H  38.40800 3.46800 32.76400
H  37.57400 2.32500 26.48200
H  31.52100 3.52100 26.87100
H  34.38800 5.04600 34.79500
H  36.75300 3.35100 34.52600
H  37.58500 5.78300 33.44300
H  37.75700 5.45000 35.09100
H  36.20200 6.17100 34.54600
H  35.00400 2.21400 34.95500
H  33.27100 2.70800 34.56100
H  34.22000 2.13100 37.17900
H  32.90300 3.15400 36.91400
H  40.90000 1.58800 31.04800
H  40.14700 2.63600 32.19900
H  41.07000 3.37800 30.75800
H  42.06800 2.63800 28.64000
H  42.07600 1.44800 27.33200
H  41.45500 0.98400 28.89900
H  35.45400 1.72400 25.01400
H  33.07500 3.21100 25.04800
H  34.81400 4.53500 24.58800
H  36.22300 3.63400 23.99400
H  36.38600 4.46200 25.53000
H  33.01100 0.49400 26.37400
H  33.48100 0.67300 24.73700
H  31.60500 0.88800 23.82600
H  31.10300 2.14200 24.85800
H  30.72100 0.46000 25.36700
H  28.55200 4.58700 29.65500
H  28.92000 3.14500 28.76000
H  29.43700 4.75600 28.06700
H  31.41200 3.73600 34.10500
H  30.40200 7.22900 35.99700
H  32.27000 7.53300 36.07000
H  31.49100 6.72800 37.32100
Mg 54.99600 24.91700 44.12400
C  51.93200 26.88700 43.36200
C  53.13400 22.23000 43.03600
C  57.86100 23.43600 43.89100
C  56.48900 27.93200 44.77600
N  52.84000 24.73100 43.06900
C  51.82100 25.59900 42.89800
C  50.60300 24.86200 42.29900
C  50.91000 23.41700 42.90900
C  52.37500 23.44000 43.12700
C  50.13500 23.07600 44.30100
C  50.48600 24.90600 40.71800
C  49.06900 24.49000 40.29000
H  48.65300 24.64300 38.80100
N  55.42700 23.05900 43.63300
C  54.51800 22.05200 43.18100
C  55.24800 20.79800 43.08800
C  56.61400 21.06700 43.38400
C  56.67800 22.53200 43.60900
C  54.59000 19.45700 42.66500
C  57.66400 20.03400 43.48900
O  57.39900 18.88100 43.41200
C  59.06700 20.40800 43.83200
N  56.93600 25.62400 44.12100
C  57.96400 24.76600 44.15100
C  59.22200 25.41100 44.65900
C  58.79300 26.95800 44.67300
C  57.23600 26.88400 44.52800
C  59.70900 24.90400 46.06000
C  59.43100 27.74300 43.46100
C  60.15800 29.07200 43.86400
N  54.35300 26.95700 44.21300
C  55.13200 28.02800 44.55900
C  54.31400 29.23000 44.62500
C  53.05800 28.77200 44.18200
C  53.11500 27.39500 43.91100
C  54.72800 30.64100 44.98300
C  51.75800 29.29700 43.86100
O  51.33500 30.45800 43.93200
C  50.91300 28.02000 43.36100
C  50.42000 28.27100 41.99800
O  51.16700 28.68000 41.12200
O  49.10000 27.90200 41.82400
C  48.71200 27.97400 40.42400
H  52.44500 21.39300 42.90800
H  58.78800 22.93000 44.16900
H  57.03300 28.87100 44.89800
H  49.74200 25.26800 42.83100
H  50.74400 22.68400 42.12000
H  49.37600 23.82500 44.52800
H  50.86900 23.02100 45.10500
H  49.65200 22.10400 44.20600
H  51.05000 24.02500 40.41100
H  50.85800 25.81800 40.25300
H  48.26900 24.88800 40.91500
H  48.91400 23.41600 40.38800
H  53.70700 19.70800 42.07700
H  54.19900 18.99000 43.56900
H  55.19600 18.73700 42.11600
H  59.45000 21.11300 43.09400
H  59.70000 19.53700 44.00400
H  58.89600 20.95400 44.75900
H  59.88100 25.07800 43.85600
H  59.10000 27.42500 45.60900
H  60.14800 23.90600 46.06500
H  58.93100 25.06700 46.80500
H  60.52200 25.48100 46.50100
H  58.68600 27.93400 42.68900
H  60.18100 27.08000 43.03000
H  59.82200 29.77600 43.10400
H  61.21500 28.93400 44.09100
H  59.62400 29.38400 44.76200
H  53.94400 31.28100 44.57900
H  55.71300 30.87200 44.57600
H  54.83200 30.72900 46.06400
H  50.19900 27.83200 44.16300
H  47.86200 27.33400 40.19100
H  49.51300 27.69000 39.74200
H  48.41500 28.99300 40.17300

