158

Mg 0.55700 43.44100 26.47200
C  2.94100 43.31800 29.06800
C  -1.91500 42.68000 28.70600
C  -1.47100 43.04600 23.85300
C  3.37800 43.89400 24.21500
N  0.58800 43.14500 28.61100
C  1.66600 43.14500 29.49100
C  1.09900 43.35200 30.92700
C  -0.34700 42.73600 30.83100
C  -0.64500 42.82400 29.28900
C  -0.40700 41.28000 31.30900
C  1.08900 44.82600 31.45300
C  1.08900 44.95900 32.99200
H  0.73300 43.75100 33.81300
N  -1.49200 43.02700 26.33900
C  -2.37800 42.81700 27.36000
C  -3.68500 42.69800 26.87000
C  -3.59900 42.64700 25.42200
C  -2.16000 42.97800 25.10100
C  -4.94100 42.49600 27.77400
C  -4.68500 42.49300 24.35000
O  -4.37600 42.63000 23.16600
C  -6.13000 42.26000 24.69200
N  0.85000 43.68700 24.33100
C  -0.17000 43.34600 23.47800
C  0.33000 43.31400 22.03700
C  1.77300 43.80700 22.15100
C  2.05100 43.76500 23.66800
C  0.15800 41.92800 21.26400
C  2.10600 45.12900 21.39000
C  2.08800 46.44700 22.19600
N  2.73000 43.56400 26.51000
C  3.74900 43.78000 25.54000
C  5.01700 43.67800 26.15500
C  4.76000 43.52400 27.52500
C  3.37300 43.42200 27.68200
C  6.33100 43.82700 25.30900
C  5.41600 43.33700 28.85000
O  6.54800 43.15000 29.11400
C  4.22800 43.39300 29.90800
C  4.25900 42.36900 30.96300
O  4.31500 41.13500 30.76000
O  4.37800 42.92900 32.23600
C  4.55500 42.08300 33.38700
H  -2.74600 42.42100 29.36500
H  -2.00000 42.56300 23.02800
H  4.15600 43.93500 23.45000
H  1.74700 42.70000 31.51300
H  -1.09300 43.33800 31.35000
H  0.43700 41.04500 31.95700
H  -0.47200 40.62300 30.44100
H  -1.31300 41.10800 31.88900
H  0.18300 45.24000 31.01100
H  1.86900 45.49000 31.08100
H  0.31000 45.70500 33.15300
H  2.06100 45.32600 33.32000
H  -4.95100 41.48800 28.19000
H  -5.82400 42.71700 27.17500
H  -4.82000 43.24300 28.55900
H  -6.06900 41.41900 25.38400
H  -6.64500 42.05100 23.75500
H  -6.50300 43.15200 25.19600
H  -0.20300 44.11400 21.52300
H  2.46200 43.05400 21.77000
H  1.11100 41.40400 21.18900
H  -0.18700 42.15700 20.25600
H  -0.52200 41.23800 21.76300
H  1.35400 45.26200 20.61200
H  3.09500 44.96900 20.95900
H  3.06600 46.91500 22.31000
H  1.48600 46.37000 23.10100
H  1.65300 47.15000 21.48600
H  6.48200 44.90200 25.41100
H  6.21000 43.47800 24.28400
H  7.20300 43.43300 25.83100
H  4.21700 44.37900 30.37400
H  4.40200 42.63000 34.31700
H  5.52400 41.59100 33.30300
H  3.82900 41.27000 33.42600
Mg -11.59400 16.96700 41.69600
C  -8.38100 15.58500 41.22300
C  -10.43500 19.94300 40.67600
C  -14.72100 17.92400 41.86000
C  -12.73100 13.50100 41.93800
N  -9.64300 17.67000 41.01800
C  -8.49100 16.93500 40.85100
C  -7.27600 17.86600 40.42700
C  -7.88500 19.32400 40.41100
C  -9.40500 18.97900 40.62100
C  -7.31200 20.33400 41.43300
C  -6.82500 17.36400 39.06600
C  -5.37100 17.72400 38.65000
H  -5.20000 18.34900 37.28800
N  -12.48000 18.76400 41.39400
C  -11.83000 19.88100 40.96200
C  -12.81400 20.94100 40.85400
C  -14.04600 20.46100 41.25700
C  -13.76900 19.03200 41.62300
C  -12.40800 22.38400 40.33400
C  -15.28300 21.23200 41.49400
O  -15.45300 22.40400 41.05900
C  -16.46500 20.55300 42.18700
N  -13.51300 15.84600 41.47900
C  -14.62100 16.56000 41.77000
C  -15.67500 15.63200 42.31600
C  -15.15000 14.19400 42.02100
C  -13.71600 14.50600 41.76200
C  -16.01700 15.78600 43.80300
C  -15.65000 13.58700 40.77800
C  -16.56700 12.33800 40.95500
N  -10.80800 15.00100 41.65900
C  -11.37200 13.75100 41.83900
C  -10.32700 12.75000 41.92000
C  -9.15800 13.45500 41.83600
C  -9.48100 14.78200 41.55700
C  -10.56100 11.27100 42.12500
C  -7.71000 13.22700 41.81100
O  -7.08600 12.20500 41.97100
C  -7.16300 14.68400 41.55000
C  -6.50500 15.07300 42.82700
O  -7.08500 15.47900 43.83600
O  -5.14400 14.94900 42.78500
C  -4.39400 15.67000 43.77800
H  -10.19000 20.96400 40.37600
H  -15.73700 18.17200 42.17600
H  -12.97600 12.43700 41.94900
H  -6.53400 17.65100 41.19600
H  -7.74200 19.77900 39.43000
H  -6.54200 19.73000 41.91300
H  -8.06700 20.72300 42.11600
H  -6.95100 21.22200 40.91500
H  -7.54100 17.74400 38.33700
H  -7.04400 16.29700 39.10300
H  -4.72500 16.84700 38.71400
H  -4.89700 18.55500 39.17100
H  -12.84700 22.45200 39.33800
H  -11.35600 22.46100 40.05900
H  -12.81200 23.22500 40.89700
H  -17.13500 21.37400 42.44300
H  -16.18400 20.10500 43.14000
H  -16.93200 19.79600 41.55700
H  -16.61300 15.83000 41.79900
H  -15.22000 13.63600 42.95500
H  -17.06300 15.53300 43.97500
H  -15.88700 16.80000 44.18000
H  -15.38800 15.14900 44.42500
H  -14.78000 13.33200 40.17400
H  -16.15900 14.31600 40.14800
H  -17.02700 12.21200 41.93500
H  -16.00700 11.42100 40.77400
H  -17.32400 12.43700 40.17700
H  -9.66200 10.81300 42.53900
H  -10.71000 10.90600 41.10900
H  -11.37600 11.02200 42.80400
H  -6.40900 14.53000 40.77700
H  -3.71100 16.19600 43.11100
H  -3.99300 14.85700 44.38300
H  -4.88100 16.42200 44.39900

