158

Mg -1.71800 16.74300 26.01100
C  -2.02100 14.57000 28.64400
C  -2.32500 19.48600 28.38900
C  -2.13500 18.88000 23.54000
C  -2.02500 14.02800 23.79200
N  -2.21900 16.94700 28.17700
C  -2.10600 15.89900 29.07900
C  -2.49500 16.38800 30.52200
C  -2.79400 17.84600 30.23200
C  -2.37000 18.13300 28.83600
C  -4.33600 18.17400 30.48200
C  -1.44900 16.07700 31.59100
C  -1.69400 16.90400 32.94200
H  -1.53300 16.33900 34.33800
N  -1.98100 18.86900 25.91600
C  -2.12800 19.83800 26.96100
C  -2.01100 21.11700 26.39900
C  -1.97300 20.97000 25.00400
C  -2.07200 19.50600 24.76800
C  -2.06400 22.37500 27.27700
C  -1.88100 22.07000 23.93300
O  -2.01700 21.83700 22.73700
C  -1.70200 23.45700 24.35400
N  -2.22500 16.47700 23.94900
C  -2.22400 17.53500 23.11100
C  -2.34900 17.05800 21.64000
C  -2.12400 15.56000 21.76400
C  -2.10600 15.36100 23.26800
C  -3.77500 17.39000 21.12800
C  -0.79600 15.10600 21.10000
C  0.47100 15.40400 21.91200
N  -1.89800 14.68800 26.09700
C  -1.98400 13.69800 25.13400
C  -1.87700 12.41900 25.75000
C  -1.83800 12.66800 27.12300
C  -1.87800 14.07700 27.28400
C  -1.76700 11.19800 25.05000
C  -1.79700 12.12700 28.44200
O  -1.59400 10.99100 28.80900
C  -1.98600 13.26500 29.48900
C  -0.89800 13.26000 30.42700
O  0.17400 13.77500 30.21300
O  -1.21500 12.55800 31.55500
C  -0.16200 12.50400 32.61600
H  -2.24000 20.33500 29.07000
H  -2.08700 19.55300 22.68100
H  -1.91800 13.18100 23.11200
H  -3.41000 15.85600 30.78300
H  -2.28600 18.54400 30.89800
H  -4.44900 19.00600 31.17700
H  -4.87700 17.49000 31.13500
H  -4.79800 18.35500 29.51100
H  -0.45200 16.26900 31.19300
H  -1.53600 15.06800 31.99300
H  -2.70800 17.29300 32.84600
H  -0.98100 17.72700 32.89200
H  -2.86600 23.06400 27.01300
H  -1.14100 22.94300 27.15600
H  -2.16900 22.17200 28.34200
H  -2.67900 23.88500 24.57700
H  -1.29400 23.96300 23.47900
H  -1.13000 23.66200 25.25900
H  -1.75600 17.63300 20.92800
H  -2.99200 15.00100 21.41600
H  -3.93600 18.34500 21.62800
H  -4.52500 16.73400 21.56900
H  -3.82200 17.44400 20.04100
H  -0.67700 15.38900 20.05400
H  -0.83200 14.01700 21.06400
H  0.22800 16.08700 22.72600
H  1.18800 15.94000 21.29100
H  0.94000 14.56000 22.41800
H  -0.81300 11.02100 24.55300
H  -2.60600 11.04200 24.37100
H  -1.77800 10.49400 25.88200
H  -2.95200 13.09800 29.96600
H  -0.42000 13.16100 33.44700
H  0.82100 12.71600 32.19600
H  -0.24900 11.47900 32.97600
Mg 1.73300 7.52600 25.58900
C  2.21100 9.59800 28.33700
C  2.22300 4.84700 27.77200
C  1.16700 5.56900 23.00400
C  1.71400 10.43000 23.55300
N  2.07500 7.25600 27.82400
C  2.19900 8.26200 28.77300
C  2.22400 7.74600 30.19600
C  2.75500 6.22400 29.96000
C  2.47200 6.09000 28.42000
C  4.22700 5.86200 30.33500
C  0.85300 7.86800 30.98500
C  0.84300 7.70000 32.52700
H  2.08800 7.02200 33.15400
N  1.68300 5.48400 25.42900
C  1.76300 4.54700 26.45100
C  1.58600 3.18100 25.89500
C  1.21900 3.41400 24.49800
C  1.37800 4.88400 24.24500
C  1.59400 1.87100 26.78900
C  0.85300 2.35400 23.34900
O  0.59800 2.66300 22.16700
C  0.71800 0.96900 23.74600
N  1.78900 7.90600 23.46300
C  1.35500 6.92900 22.65000
C  0.92500 7.44400 21.26900
C  0.80200 8.98100 21.56500
C  1.46200 9.14200 22.95200
C  1.95800 7.06300 20.08200
C  -0.65600 9.59600 21.52400
C  -0.92300 10.41100 20.22500
N  1.99100 9.55600 25.82500
C  2.02500 10.56400 24.89900
C  2.31300 11.82400 25.58100
C  2.47800 11.51200 26.93100
C  2.19000 10.07600 27.03200
C  2.30300 13.20700 25.04000
C  2.60600 12.02700 28.28700
O  2.84300 13.15600 28.73700
C  2.41400 10.83800 29.21300
C  3.67800 10.74200 30.03800
O  4.72100 10.13700 29.74500
O  3.35000 11.20800 31.28900
C  4.53500 11.15800 32.17200
H  2.50200 3.99400 28.39400
H  0.93100 4.97100 22.12200
H  1.63500 11.36900 23.00100
H  2.99100 8.26500 30.77100
H  1.95300 5.64900 30.42500
H  4.79500 6.72100 30.69300
H  4.73600 5.47500 29.45200
H  4.32300 5.16400 31.16700
H  0.18600 7.23700 30.39800
H  0.54400 8.87800 30.71700
H  -0.05800 7.18600 32.86300
H  0.89900 8.70100 32.95500
H  0.65800 1.37100 26.53800
H  1.58200 1.92500 27.87700
H  2.40700 1.20500 26.50200
H  0.24700 0.39100 22.95000
H  -0.01600 1.04300 24.54800
H  1.64000 0.58500 24.18300
H  -0.07300 7.11000 20.98600
H  1.39700 9.49100 20.80700
H  2.46000 7.97300 19.75300
H  1.49000 6.49900 19.27500
H  2.73400 6.42100 20.49900
H  -0.75200 10.25700 22.38500
H  -1.37800 8.78700 21.63400
H  -1.91600 10.23700 19.81000
H  -0.30100 10.04000 19.41100
H  -0.74500 11.45800 20.47100
H  2.33700 13.22400 23.95000
H  3.21000 13.66800 25.43100
H  1.46100 13.76600 25.44800
H  1.44500 10.98600 29.69100
H  4.89500 10.13400 32.27500
H  4.29300 11.61300 33.13200
H  5.34400 11.76400 31.76500

