158

Mg 8.52900 3.28200 27.98700
C  9.93300 1.57300 30.71900
C  6.34300 4.74100 30.02300
C  7.31800 4.55500 25.17400
C  10.74200 1.18200 25.96700
N  8.11600 3.05200 30.08100
C  8.83100 2.44900 31.02500
C  8.45900 2.85100 32.45400
C  7.09100 3.63800 32.21100
C  7.17300 3.82000 30.65400
C  5.75300 2.81800 32.56900
C  9.57800 3.64100 33.23600
C  9.24700 4.71400 34.29200
H  9.99700 4.46000 35.64200
N  6.99400 4.44900 27.63100
C  6.27600 5.11900 28.63200
C  5.48500 6.10900 28.03500
C  5.75000 6.11400 26.65300
C  6.66300 4.94500 26.40100
C  4.54000 7.09700 28.81300
C  5.25700 7.02200 25.50700
O  5.61800 6.86300 24.32200
C  4.34300 8.16200 25.80600
N  8.89800 2.77200 25.87700
C  8.26800 3.57500 24.92000
C  8.91800 3.35400 23.51000
C  9.94100 2.33700 23.81400
C  9.86000 2.08000 25.30400
C  7.85100 2.95100 22.45700
C  11.26300 2.69200 23.23900
C  12.33300 3.41100 24.09300
N  9.93200 1.58400 28.21100
C  10.74400 0.85500 27.34900
C  11.55600 -0.10600 27.96500
C  11.36000 0.23600 29.31800
C  10.33300 1.19900 29.42200
C  12.50100 -1.12300 27.44000
C  11.79200 -0.11200 30.60300
O  12.64000 -0.88800 31.00400
C  10.92000 0.90200 31.60800
C  10.27200 0.10000 32.71900
O  9.23400 -0.57700 32.56600
O  10.95600 0.23300 33.95700
C  10.27800 -0.44500 35.14300
H  5.76700 5.30600 30.75900
H  7.06200 5.22200 24.34800
H  11.61700 0.74600 25.48100
H  8.24900 1.94100 33.01700
H  7.19600 4.66900 32.54900
H  5.21900 2.60000 31.64500
H  5.08400 3.40700 33.19700
H  6.01000 1.91800 33.12900
H  10.36400 4.01800 32.58000
H  10.23000 2.95300 33.77400
H  8.16500 4.68900 34.42700
H  9.57200 5.66000 33.85800
H  5.07700 8.04100 28.91300
H  4.24400 6.52700 29.69300
H  3.56400 7.27100 28.35900
H  3.37300 7.74600 26.08100
H  4.05300 8.81500 24.98300
H  4.77100 8.80100 26.57800
H  9.29000 4.33500 23.21500
H  9.68400 1.40200 23.31600
H  6.84500 3.30700 22.68300
H  7.68700 1.90300 22.20700
H  8.12000 3.50800 21.56000
H  11.09400 3.33400 22.37400
H  11.74000 1.76600 22.91700
H  11.99700 3.66600 25.09800
H  12.55200 4.37600 23.63400
H  13.25800 2.86200 24.27000
H  13.32400 -0.62800 26.92400
H  12.04100 -1.76300 26.68700
H  12.94300 -1.75300 28.21200
H  11.61200 1.54900 32.14700
H  10.17600 -1.53000 35.17100
H  9.24800 -0.13600 35.31900
H  10.84000 -0.23300 36.05300
Mg 1.10700 43.60400 25.17700
C  2.85000 43.34600 28.26600
C  -1.58900 42.31700 26.71000
C  -0.14500 43.38600 22.17500
C  4.42700 44.21700 23.65000
N  0.65800 43.00800 27.28600
C  1.45000 43.16900 28.34500
C  0.62400 42.94600 29.62000
C  -0.80000 42.42400 29.11400
C  -0.62000 42.59500 27.64300
C  -1.40200 41.09100 29.58700
C  0.57200 44.16800 30.53700
C  0.90800 43.98400 32.02600
H  0.51300 42.61400 32.68100
N  -0.70600 43.05100 24.56600
C  -1.67100 42.39600 25.31200
C  -2.74200 42.05300 24.48600
C  -2.41400 42.42800 23.18800
C  -1.06500 43.05100 23.24300
C  -3.96600 41.22300 25.05200
C  -3.14700 42.06700 21.88900
O  -2.69900 42.26100 20.76100
C  -4.43300 41.43800 21.95400
N  2.00700 43.83900 23.28500
C  1.19900 43.59500 22.14700
C  1.97000 43.65000 20.86600
C  3.19500 44.43800 21.36300
C  3.27300 44.11500 22.85700
C  2.20700 42.19800 20.42600
C  3.03100 45.95400 21.19200
C  4.19800 46.72200 20.58700
N  3.26600 43.85500 25.77200
C  4.44000 44.08500 25.04400
C  5.53100 44.15400 25.98600
C  4.97300 43.70400 27.20000
C  3.59500 43.70500 27.04300
C  6.96900 44.29500 25.68100
C  5.27400 43.47300 28.56800
O  6.37300 43.49500 29.06400
C  3.97700 43.29900 29.31100
C  4.03100 42.07700 30.18200
O  4.01600 40.90300 29.80200
O  4.13700 42.40700 31.46400
C  4.14400 41.36300 32.50100
H  -2.39600 41.82400 27.25700
H  -0.59200 43.41100 21.17900
H  5.42800 44.43000 23.27000
H  1.13700 42.13500 30.13700
H  -1.61100 43.13400 29.27500
H  -0.79100 40.22900 29.31700
H  -2.44100 40.97600 29.28100
H  -1.55600 41.16500 30.66400
H  -0.46500 44.43100 30.74300
H  1.13600 45.03100 30.18200
H  0.60900 44.70500 32.78800
H  1.96000 44.26700 32.05800
H  -4.86400 41.83400 24.96000
H  -3.84700 40.91600 26.09100
H  -4.03600 40.30200 24.47300
H  -5.03100 41.71500 22.82200
H  -4.35800 40.35000 21.94700
H  -5.04000 41.57200 21.05900
H  1.34200 44.13900 20.12100
H  4.10100 44.05200 20.89600
H  2.70900 41.63600 21.21300
H  2.85400 42.14300 19.55000
H  1.29300 41.63900 20.22200
H  2.86000 46.38200 22.18000
H  2.09400 46.15000 20.67000
H  4.97800 45.98600 20.39300
H  4.48000 47.45400 21.34400
H  3.92800 47.17200 19.63100
H  7.56100 43.84500 26.47800
H  7.17300 45.36500 25.70100
H  7.12600 43.82000 24.71200
H  3.91800 44.12800 30.01700
H  3.36300 40.60800 32.40700
H  4.05200 41.98400 33.39200
H  5.12200 40.88200 32.52500

