158

Mg 44.45200 4.07100 48.31600
C  41.94000 6.34800 47.42300
C  42.10800 1.61000 48.03000
C  46.90700 1.97900 48.40000
C  46.80700 6.79500 47.96500
N  42.28000 3.98500 47.61000
C  41.41100 5.06900 47.55200
C  39.99000 4.67700 47.19000
C  40.01600 3.10100 47.50300
C  41.57400 2.85500 47.68800
C  39.08600 2.69300 48.62100
C  39.60500 4.98600 45.72300
C  38.24700 5.60200 45.48500
H  37.79700 5.92300 44.01800
N  44.50300 2.03200 48.30200
C  43.49300 1.16200 48.25000
C  44.00100 -0.17900 48.38700
C  45.42400 -0.13600 48.55700
C  45.63300 1.38700 48.42100
C  43.05200 -1.35000 48.29400
C  46.30300 -1.37100 48.80300
O  45.83400 -2.52800 48.93900
C  47.84000 -1.23700 48.96200
N  46.63700 4.36900 48.20000
C  47.38600 3.29700 48.33900
C  48.88400 3.72600 48.44800
C  48.89400 5.26400 48.07800
C  47.39600 5.52600 48.14200
C  49.59600 3.39400 49.78100
C  49.52800 5.62600 46.72600
C  51.11700 5.61100 46.65500
N  44.42000 6.18800 47.98500
C  45.48700 7.06900 47.79000
C  44.89700 8.36700 47.47900
C  43.53300 8.10300 47.36800
C  43.21400 6.76900 47.57500
C  45.64200 9.70000 47.19700
C  42.28100 8.81300 47.12500
O  42.04700 10.02300 46.97500
C  41.18300 7.71000 47.28800
C  40.34900 8.10500 48.41400
O  40.41200 7.57100 49.48900
O  39.46700 9.19400 48.12200
C  38.67000 9.72800 49.21200
H  41.38800 0.79400 47.94600
H  47.76100 1.29900 48.38600
H  47.40800 7.70000 47.85400
H  39.25500 5.16600 47.83000
H  39.78500 2.50100 46.62300
H  39.66400 2.24900 49.43100
H  38.44100 1.98900 48.09600
H  38.47900 3.49100 49.04800
H  39.76600 4.17600 45.01100
H  40.24000 5.79600 45.36400
H  38.43700 6.59700 45.88500
H  37.52300 5.08600 46.11600
H  42.89500 -1.86300 49.24300
H  43.52500 -2.01100 47.56800
H  42.19100 -1.14400 47.65800
H  48.22400 -0.71300 48.08700
H  48.22900 -2.24300 48.81000
H  48.10500 -0.73100 49.89000
H  49.38400 3.16200 47.66200
H  49.54100 5.81900 48.75800
H  48.86900 2.91500 50.43600
H  50.17600 4.15900 50.29700
H  50.32400 2.60300 49.60000
H  49.13700 6.60400 46.44500
H  49.14400 4.97700 45.93900
H  51.39700 5.09600 45.73600
H  51.53200 5.16400 47.55800
H  51.37100 6.66600 46.54700
H  46.27500 9.66100 46.31000
H  46.19500 10.03200 48.07600
H  44.82700 10.39300 46.99100
H  40.50800 7.68400 46.43300
H  38.77900 9.21600 50.16800
H  37.61400 9.86500 48.98000
H  39.03400 10.74500 49.35100
Mg 8.33500 48.17100 28.00400
C  6.54500 47.69900 30.97600
C  11.16000 48.44000 29.80600
C  9.88800 48.99600 25.16800
C  5.20500 48.81700 26.31200
N  8.77400 47.99700 30.19900
C  7.92500 47.76100 31.28700
C  8.66400 47.70200 32.66400
C  10.13900 48.14400 32.22200
C  10.05800 48.27200 30.64000
C  10.68800 49.50900 32.76400
C  8.59100 46.40100 33.51300
C  8.54700 46.64300 35.09900
H  9.18000 45.52600 35.92900
N  10.22700 48.53000 27.58700
C  11.30600 48.54100 28.46800
C  12.57600 48.58000 27.76800
C  12.21700 48.76000 26.40600
C  10.73600 48.74700 26.29300
C  13.91600 48.41800 28.46600
C  13.10900 48.96500 25.16000
O  12.69400 49.20200 24.03900
C  14.53400 48.93600 25.17000
N  7.65100 48.73100 26.05600
C  8.48800 48.92900 25.04400
C  7.74000 49.24800 23.72500
C  6.27200 49.07600 24.07000
C  6.38500 48.83400 25.51000
C  8.11100 50.62000 22.95400
C  5.55000 47.94600 23.32800
C  5.67000 47.91000 21.81200
N  6.29000 48.16200 28.42700
C  5.17300 48.52700 27.66000
C  4.04000 48.35200 28.49800
C  4.52700 48.08800 29.80200
C  5.91400 47.98300 29.73300
C  2.60300 48.28300 27.95300
C  4.09400 47.85200 31.16200
O  2.97600 47.79700 31.68400
C  5.38500 47.52800 31.94200
C  5.35000 46.22400 32.54700
O  5.55700 45.16300 31.95500
O  5.07400 46.29500 33.89700
C  4.83600 45.05400 34.57000
H  12.07500 48.24900 30.37100
H  10.32300 49.31900 24.21900
H  4.26700 49.04000 25.79900
H  8.19900 48.42100 33.33800
H  10.78300 47.31500 32.51500
H  11.43000 49.28600 33.53000
H  9.96300 50.12400 33.29700
H  11.26100 50.10000 32.05000
H  9.38400 45.66600 33.37500
H  7.69400 45.85300 33.22100
H  7.50600 46.67300 35.42200
H  8.99900 47.61300 35.31000
H  14.35400 47.51000 28.05100
H  13.90500 48.35500 29.55400
H  14.52700 49.29100 28.23600
H  14.90000 49.63800 25.91800
H  15.01900 49.26500 24.25200
H  14.82000 47.90900 25.39800
H  7.95700 48.44700 23.01800
H  5.91300 50.06600 23.78900
H  8.47900 50.33900 21.96800
H  8.84800 51.23600 23.46900
H  7.24500 51.27900 22.88800
H  4.47300 48.03800 23.46700
H  5.74200 46.95000 23.72700
H  6.03800 46.94200 21.47400
H  6.41900 48.67400 21.60300
H  4.70500 48.15200 21.36600
H  2.07300 49.23500 27.95300
H  1.95700 47.60600 28.51200
H  2.58600 48.05300 26.88800
H  5.55300 48.24700 32.74400
H  4.76300 45.36200 35.61300
H  5.64600 44.32600 34.52500
H  3.90300 44.61200 34.22000

