158

Mg -2.75500 16.70700 26.59500
C  -3.03500 14.61800 29.39700
C  -2.80800 19.40800 28.78000
C  -2.82900 18.70700 23.96800
C  -3.50200 14.01400 24.53700
N  -2.90800 17.00300 28.83400
C  -2.91600 15.98400 29.79600
C  -3.07500 16.53400 31.19300
C  -3.31300 18.03600 31.00900
C  -3.01800 18.19900 29.47800
C  -4.62200 18.66800 31.49100
C  -1.89800 16.03800 32.20000
C  -1.39700 17.01300 33.33300
H  -0.72100 16.39800 34.54400
N  -2.68600 18.74100 26.39700
C  -2.72400 19.67300 27.37300
C  -2.67100 21.02300 26.80400
C  -2.61800 20.88000 25.35100
C  -2.77100 19.37700 25.19700
C  -2.87900 22.28700 27.68300
C  -2.37600 21.82100 24.25300
O  -2.20400 21.58700 23.09600
C  -2.23300 23.26400 24.57100
N  -2.91700 16.31500 24.44300
C  -2.97400 17.36300 23.62100
C  -3.35500 16.87000 22.27200
C  -3.67400 15.35300 22.43300
C  -3.27300 15.17600 23.86300
C  -4.45700 17.71900 21.48700
C  -2.97400 14.43100 21.45500
C  -1.50800 13.98800 21.69800
N  -3.05200 14.73300 26.79000
C  -3.38800 13.73900 25.89800
C  -3.66800 12.50800 26.64800
C  -3.44400 12.74400 28.00300
C  -3.16100 14.13300 28.08200
C  -4.19600 11.22100 26.06200
C  -3.40000 12.18700 29.29700
O  -3.53600 11.01400 29.67400
C  -3.24300 13.38600 30.25200
C  -2.07600 13.16500 31.17300
O  -0.93300 13.49200 30.86100
O  -2.48600 12.57000 32.32400
C  -1.33400 12.31600 33.24200
H  -2.78100 20.25900 29.46500
H  -2.92300 19.32500 23.07200
H  -3.86000 13.29600 23.79600
H  -3.96000 16.13100 31.68600
H  -2.57800 18.64400 31.53800
H  -5.19000 18.84600 30.57800
H  -4.49200 19.59600 32.04700
H  -5.27100 17.99000 32.04600
H  -1.11100 15.69600 31.52800
H  -2.36800 15.21100 32.73100
H  -2.14700 17.69600 33.73000
H  -0.56000 17.56700 32.90700
H  -3.42800 22.09900 28.60500
H  -3.38500 22.99600 27.02600
H  -1.91000 22.67400 27.99600
H  -1.28200 23.42700 25.07800
H  -3.09900 23.66600 25.09600
H  -2.25100 23.90900 23.69200
H  -2.45600 17.01300 21.67300
H  -4.73100 15.27200 22.18000
H  -4.85400 18.45200 22.18900
H  -5.35100 17.12100 21.30800
H  -4.05700 18.26400 20.63200
H  -2.98800 14.99200 20.52100
H  -3.48500 13.49600 21.22400
H  -1.37900 12.91800 21.86300
H  -1.08300 14.64600 22.45700
H  -0.89400 14.35700 20.87600
H  -3.28500 10.66700 25.83600
H  -4.64400 11.52200 25.11400
H  -4.92800 10.82700 26.76700
H  -3.97800 13.39700 31.05700
H  -1.48400 12.96300 34.10700
H  -0.32600 12.33200 32.82700
H  -1.28200 11.28800 33.59900
Mg 48.00400 25.21100 30.31600
C  49.20900 27.62400 32.67400
C  46.90900 23.48600 32.88500
C  47.22700 23.04000 28.04800
C  49.69500 27.18100 27.83700
N  47.89100 25.65600 32.51400
C  48.46600 26.62800 33.29800
C  48.06600 26.43500 34.80900
C  47.44500 25.00600 34.79600
C  47.37500 24.71400 33.27500
C  48.17100 23.94400 35.78800
C  47.12900 27.55600 35.36600
C  47.66000 28.18900 36.66500
H  46.64900 28.53200 37.82600
N  47.15500 23.34700 30.49100
C  46.74400 22.77900 31.62700
C  46.12500 21.49300 31.30800
C  46.21900 21.33500 29.83300
C  46.89600 22.56900 29.35900
C  45.34700 20.62800 32.26300
C  45.74200 20.29200 28.93700
O  46.22000 20.28700 27.76300
C  44.92900 19.13900 29.36000
N  48.50800 25.13600 28.32800
C  47.97900 24.13100 27.61600
C  48.31400 24.20400 26.11100
C  49.20500 25.46800 26.07400
C  49.10900 26.01700 27.49600
C  48.93500 22.92300 25.47400
C  48.77000 26.43000 25.04600
C  47.39000 27.12400 25.36000
N  49.23400 26.95700 30.17200
C  49.78600 27.69400 29.14100
C  50.47100 28.87100 29.57000
C  50.22300 28.88700 30.93400
C  49.53800 27.70400 31.27400
C  51.20000 29.85000 28.70500
C  50.45400 29.63600 32.18100
O  50.89800 30.78100 32.37600
C  49.85400 28.82300 33.32800
C  51.02500 28.44000 34.28100
O  51.98300 27.78700 34.03600
O  50.76600 29.02900 35.50500
C  51.62000 28.79500 36.66400
H  46.48300 22.87900 33.68700
H  46.84100 22.46500 27.20400
H  50.27500 27.69200 27.06500
H  48.97200 26.43000 35.41500
H  46.39200 25.04200 35.07400
H  48.54000 23.08300 35.23100
H  47.44000 23.70800 36.56200
H  49.00500 24.39700 36.32400
H  46.07800 27.28900 35.47100
H  47.06800 28.28100 34.55400
H  48.23300 29.09200 36.45200
H  48.42600 27.73200 37.29000
H  44.29900 20.57500 31.96600
H  45.44000 20.75400 33.34200
H  45.68800 19.59800 32.15700
H  44.00700 19.50700 29.81000
H  45.49400 18.50200 30.04100
H  44.69800 18.56800 28.46100
H  47.38500 24.35800 25.56200
H  50.26600 25.27400 25.91900
H  48.95800 22.13300 26.22400
H  49.89300 23.17600 25.02100
H  48.19100 22.63700 24.73100
H  48.80600 25.83200 24.13500
H  49.46200 27.27100 24.99600
H  47.60700 28.19200 25.38200
H  46.92000 26.71200 26.25300
H  46.78400 26.87700 24.48800
H  50.90900 29.83300 27.65500
H  52.26500 29.61800 28.72900
H  51.07900 30.82900 29.16900
H  49.09800 29.37000 33.89200
H  52.58300 28.37000 36.37800
H  51.14900 28.09400 37.35300
H  51.82800 29.71900 37.20400

