158

Mg 30.18700 58.15900 39.55700
C  27.29100 56.38900 38.44500
C  32.07300 55.64100 38.25400
C  33.02800 60.17300 39.35100
C  28.23400 60.90600 40.13200
N  29.63700 56.22600 38.48200
C  28.45100 55.66500 38.22200
C  28.53700 54.24700 37.72500
C  30.09000 54.00700 37.88900
C  30.66600 55.41900 38.19900
C  30.57900 52.96300 38.96300
C  28.02900 54.15900 36.22700
C  28.32900 55.35800 35.24300
H  28.12900 55.16100 33.75200
N  32.25700 57.89300 39.03600
C  32.81400 56.77300 38.53800
C  34.24100 56.85400 38.52100
C  34.52000 58.23400 38.88400
C  33.21300 58.84900 39.09200
C  35.21200 55.72600 38.14400
C  35.90500 58.80900 38.94400
O  36.89000 58.09400 38.67200
C  36.23600 60.22400 39.21500
N  30.55600 60.26700 39.44200
C  31.77900 60.90400 39.50800
C  31.71500 62.38000 39.78600
C  30.20100 62.49500 40.32500
C  29.63800 61.13000 39.95900
C  32.79800 63.05700 40.80700
C  29.38300 63.66800 39.70600
C  28.71500 64.68600 40.50000
N  28.19400 58.62500 39.41400
C  27.49600 59.74900 39.69300
C  26.06900 59.54500 39.63400
C  25.90100 58.23300 39.10100
C  27.26100 57.73100 38.90300
C  25.04800 60.50500 40.11300
C  24.97000 57.24000 38.73100
O  23.73400 57.37100 38.78500
C  25.86800 55.96500 38.24800
C  25.51500 54.79300 39.08400
O  25.59700 54.78200 40.28900
O  24.90000 53.83600 38.26300
C  24.27800 52.76600 39.09800
H  32.57900 54.72500 37.94300
H  33.85600 60.85000 39.57200
H  27.56600 61.69600 40.48200
H  27.94200 53.61100 38.38000
H  30.47400 53.70400 36.91500
H  30.98800 52.06200 38.50500
H  29.64700 52.60800 39.40300
H  31.26600 53.43900 39.66200
H  26.97400 53.94000 36.06000
H  28.62900 53.30900 35.90100
H  29.40200 55.27400 35.41800
H  27.95500 56.25800 35.73000
H  35.93300 55.94100 37.35600
H  34.75500 54.80200 37.79000
H  35.70700 55.44500 39.07300
H  37.31200 60.32100 39.07600
H  35.91700 60.50900 40.21800
H  35.87300 60.97800 38.51700
H  31.74200 62.93500 38.84800
H  30.26200 62.69000 41.39500
H  32.30600 63.52600 41.65900
H  33.44800 63.77000 40.30000
H  33.38500 62.27700 41.29100
H  28.50500 63.29800 39.17600
H  30.00700 64.30100 39.07500
H  29.25200 65.63100 40.58900
H  28.64100 64.24000 41.49200
H  27.70500 64.79500 40.10600
H  24.18900 59.86700 40.32300
H  24.73900 61.35100 39.50000
H  25.57300 60.95100 40.95900
H  25.87200 55.80800 37.16900
H  24.98900 52.33000 39.79900
H  23.96400 51.96700 38.42700
H  23.50600 53.10400 39.78900
Mg -5.57600 25.08400 25.92100
C  -4.04000 26.41800 28.81800
C  -7.52000 23.03200 27.98300
C  -6.81300 23.67100 23.23700
C  -3.46200 27.09400 24.03900
N  -5.91900 24.96000 28.11300
C  -5.11100 25.57500 29.11600
C  -5.53000 25.00200 30.47500
C  -6.35500 23.73200 30.09100
C  -6.69400 23.94400 28.64600
C  -5.48000 22.38300 30.14600
C  -6.44600 26.04100 31.20900
C  -6.45900 26.11100 32.73100
H  -5.48500 25.17900 33.50200
N  -7.05400 23.65600 25.62200
C  -7.77100 22.91700 26.58100
C  -8.67500 22.04700 25.97400
C  -8.40200 22.06900 24.60300
C  -7.43600 23.12900 24.45600
C  -9.58000 21.14000 26.81100
C  -9.00200 21.20000 23.55000
O  -8.56800 21.29800 22.37100
C  -10.15600 20.33100 23.78600
N  -5.16000 25.34700 23.96500
C  -5.86400 24.63400 23.02200
C  -5.35200 24.98300 21.59700
C  -4.48900 26.26400 21.89800
C  -4.35300 26.26200 23.38900
C  -4.53200 23.84100 20.98900
C  -5.27200 27.50600 21.33600
C  -4.38400 28.24200 20.30400
N  -3.99800 26.42800 26.30200
C  -3.23500 27.23100 25.41400
C  -2.34500 28.06700 26.16400
C  -2.59400 27.79000 27.50600
C  -3.62900 26.77500 27.52900
C  -1.28700 29.02200 25.63500
C  -2.26700 28.10800 28.80300
O  -1.53500 28.95800 29.30300
C  -3.14200 27.13100 29.74800
C  -2.35700 26.27900 30.66100
O  -2.03400 25.15300 30.38700
O  -1.88900 27.02000 31.76900
C  -0.85900 26.42100 32.56300
H  -8.09500 22.45300 28.70900
H  -7.29200 23.30600 22.32600
H  -2.72600 27.49000 23.33600
H  -4.60800 24.82700 31.02900
H  -7.27800 23.67400 30.66800
H  -4.49700 22.57400 30.57600
H  -5.23600 21.97700 29.16400
H  -5.97000 21.60300 30.72900
H  -7.46600 25.80700 30.90500
H  -6.12200 27.02600 30.87100
H  -7.50200 25.86500 32.92800
H  -6.27300 27.14100 33.03400
H  -10.63500 21.28200 26.57800
H  -9.43500 21.27600 27.88300
H  -9.36900 20.08500 26.63800
H  -9.90500 19.43300 24.35100
H  -10.58600 20.02600 22.83200
H  -10.93300 20.90000 24.29600
H  -6.13400 25.13500 20.85300
H  -3.44200 26.25100 21.59300
H  -3.53900 23.92400 21.43100
H  -4.41900 23.84900 19.90500
H  -5.01000 22.90300 21.27100
H  -5.51900 28.30000 22.04100
H  -6.19500 27.11700 20.90800
H  -3.89800 29.14800 20.66600
H  -5.01300 28.62100 19.49900
H  -3.66000 27.60900 19.79100
H  -1.16100 28.80800 24.57400
H  -0.31600 28.92700 26.12200
H  -1.66200 29.97500 26.00800
H  -3.69700 27.84200 30.36000
H  -0.28000 27.25900 32.95200
H  -0.16800 25.83500 31.95800
H  -1.30600 25.91400 33.41800

