158

Mg 36.19600 2.32500 29.93100
C  33.83500 3.76500 32.05800
C  38.24700 2.09600 32.65800
C  38.54600 1.34000 27.82700
C  33.95400 2.87600 27.30800
N  36.09300 3.17500 31.99800
C  35.01100 3.51200 32.68900
C  35.25400 3.56300 34.18000
C  36.78300 3.29800 34.30400
C  37.07400 2.84700 32.88300
C  37.43300 4.49700 34.87900
C  34.52000 2.47700 34.99200
C  33.80800 3.08100 36.31100
H  34.55200 4.10300 37.11000
N  38.15200 1.70600 30.23400
C  38.80400 1.62700 31.42700
C  40.07800 0.92300 31.25400
C  40.17600 0.84800 29.83200
C  38.93100 1.31800 29.20800
C  41.07400 0.74700 32.41200
C  41.32500 0.38700 28.95300
O  41.38400 0.33800 27.73900
C  42.62100 -0.11800 29.61200
N  36.23900 2.18900 27.92600
C  37.38400 1.89800 27.27600
C  37.22600 2.05300 25.67000
C  35.72100 2.25500 25.49400
C  35.25700 2.41000 27.04600
C  38.12400 3.18900 25.17400
C  35.08200 1.02200 24.89000
C  33.76900 1.22700 24.08600
N  34.18500 3.02000 29.63300
C  33.44500 3.19900 28.57600
C  32.14400 3.70600 28.94600
C  32.24800 3.92300 30.30200
C  33.55800 3.56600 30.67900
C  31.05800 4.04100 27.97800
C  31.53700 4.51800 31.42100
O  30.43900 5.04000 31.49500
C  32.52400 4.21600 32.65200
C  32.63700 5.52300 33.35000
O  33.27500 6.49900 33.00100
O  31.84400 5.45600 34.51400
C  31.88700 6.64400 35.40000
H  38.92200 2.10800 33.51600
H  39.29700 0.96400 27.13000
H  33.27600 3.17000 26.50400
H  34.93600 4.56500 34.46800
H  36.95700 2.38300 34.87000
H  37.61300 4.24700 35.92400
H  36.86000 5.42100 34.80100
H  38.43800 4.66600 34.49200
H  35.10000 1.63600 35.37000
H  33.72900 2.04800 34.37600
H  33.56500 2.25700 36.98200
H  32.89900 3.46400 35.84800
H  41.70300 -0.12300 32.21900
H  40.43200 0.62600 33.28400
H  41.61900 1.67000 32.61400
H  43.08100 0.72500 30.12700
H  43.36300 -0.42200 28.87300
H  42.44200 -0.93700 30.30900
H  37.51600 1.10000 25.22600
H  35.38800 3.17600 25.01600
H  38.94100 2.82000 24.55400
H  38.53100 3.68500 26.05600
H  37.50300 3.92000 24.65800
H  34.82500 0.38300 25.73500
H  35.79700 0.66900 24.14700
H  33.68100 0.34100 23.45700
H  33.87700 2.06500 23.39700
H  32.92300 1.40700 24.74800
H  31.03800 5.08300 27.65900
H  30.09500 3.72700 28.38300
H  31.12600 3.37500 27.11700
H  32.10400 3.49300 33.35100
H  31.27300 7.27500 34.75800
H  32.88000 7.05600 35.57900
H  31.34700 6.40100 36.31500
Mg 42.03100 40.92100 26.76100
C  40.85600 43.10700 29.14200
C  43.33400 38.97500 29.26600
C  42.85600 38.59100 24.43800
C  41.37300 43.25900 24.36500
N  41.84400 40.95300 28.95400
C  41.36000 41.89600 29.71700
C  41.56900 41.60400 31.22500
C  42.57100 40.38600 31.25500
C  42.56700 40.10600 29.70300
C  43.99100 40.70400 31.80900
C  40.27100 41.26800 31.93000
C  39.80000 42.22700 33.00600
H  39.43200 41.69600 34.38600
N  42.91200 38.99300 26.91700
C  43.33500 38.40000 28.03300
C  43.86400 37.08800 27.67700
C  43.65600 36.84500 26.26500
C  43.11200 38.16300 25.73700
C  44.49000 36.21400 28.70000
C  43.86900 35.62900 25.46500
O  43.61300 35.58200 24.29000
C  44.34400 34.36600 26.17500
N  42.27000 40.99700 24.74900
C  42.50500 39.86300 24.00900
C  42.48300 40.18700 22.52500
C  41.89500 41.62700 22.41500
C  41.75100 42.02900 23.92200
C  43.84900 39.99800 21.86400
C  40.53400 41.82800 21.71900
C  40.50300 43.05100 20.78100
N  41.23300 42.83200 26.67900
C  41.12100 43.67100 25.67800
C  40.51500 44.91100 26.14100
C  40.38000 44.75600 27.52000
C  40.82600 43.46400 27.75700
C  40.13900 46.06300 25.29800
C  40.01700 45.33000 28.74300
O  39.37600 46.32800 28.98800
C  40.30800 44.32500 29.87200
C  41.27000 45.06400 30.73000
O  42.46400 45.31800 30.44000
O  40.63100 45.46000 31.84100
C  41.48200 46.16400 32.82200
H  43.84000 38.43000 30.06600
H  43.10100 37.92700 23.60700
H  41.09900 44.10000 23.72500
H  41.99200 42.47100 31.73200
H  42.22200 39.48600 31.76200
H  44.68800 40.48800 31.00000
H  44.15500 40.01300 32.63500
H  44.02000 41.74500 32.13200
H  40.34600 40.25600 32.32600
H  39.46900 41.32200 31.19400
H  38.82700 42.54900 32.63400
H  40.39400 43.13200 33.12700
H  44.02600 35.23100 28.77600
H  44.45700 36.56100 29.73300
H  45.54200 36.06800 28.45200
H  44.40600 33.52600 25.48300
H  43.63200 34.08100 26.95000
H  45.33000 34.52000 26.61300
H  41.79100 39.53800 21.98800
H  42.67600 42.19100 21.90400
H  44.15300 40.79200 21.18200
H  43.64600 39.08800 21.30000
H  44.58700 39.69700 22.60800
H  39.74500 41.83500 22.47100
H  40.28300 40.95700 21.11500
H  41.43400 43.13700 20.22200
H  40.28200 44.03700 21.19200
H  39.70600 42.82400 20.07300
H  39.08300 45.95500 25.05100
H  40.86500 46.13400 24.48700
H  40.37400 46.90400 25.95100
H  39.38900 44.13500 30.42600
H  41.75800 45.39700 33.54500
H  40.83800 46.90800 33.29200
H  42.40900 46.53200 32.38400

