158

Mg 47.67000 34.79400 26.81200
C  45.97800 33.15000 29.22100
C  47.93000 37.64000 28.71600
C  49.22300 36.52600 24.12400
C  47.07000 32.12300 24.59700
N  46.89900 35.36400 28.69900
C  46.51300 34.43000 29.63500
C  46.63500 35.02500 31.00300
C  46.74000 36.62200 30.69500
C  47.29300 36.51100 29.30900
C  45.36000 37.34500 30.68300
C  47.74400 34.49100 31.85500
C  47.77900 34.85000 33.37100
H  46.66700 35.57900 34.07200
N  48.21400 36.86700 26.41700
C  48.44800 37.79100 27.36100
C  49.01300 39.02400 26.89300
C  49.48200 38.66500 25.56800
C  48.97600 37.31800 25.25700
C  49.15700 40.31500 27.61900
C  50.29900 39.56300 24.56800
O  50.54900 39.24100 23.39200
C  50.84500 40.95300 25.04500
N  48.02400 34.36600 24.61400
C  48.68200 35.21100 23.77800
C  48.97000 34.50200 22.41900
C  48.42300 33.01500 22.63700
C  47.84600 33.11300 24.07400
C  48.35800 35.21900 21.14400
C  49.57000 31.95300 22.60600
C  49.82800 31.14100 21.28500
N  46.79100 32.89300 26.82600
C  46.47000 31.98200 25.89300
C  45.58400 30.96900 26.45100
C  45.38100 31.32300 27.76200
C  46.14000 32.51000 27.96700
C  45.05200 29.76800 25.85500
C  44.75100 31.01300 29.07100
O  44.10900 30.04200 29.50300
C  44.91500 32.31100 29.90100
C  45.36200 31.96300 31.30300
O  46.45500 31.48700 31.56300
O  44.27100 32.18400 32.17200
C  44.53900 31.53500 33.50500
H  48.14400 38.38000 29.49100
H  50.01000 36.90700 23.46900
H  46.86800 31.28700 23.92400
H  45.72000 34.88400 31.57800
H  47.38900 37.21400 31.34100
H  44.88300 37.25800 29.70700
H  45.56000 38.40600 30.83200
H  44.61700 36.99700 31.40100
H  48.58700 34.96900 31.35600
H  47.98600 33.45200 31.63400
H  48.66400 35.46900 33.52000
H  47.86900 33.95300 33.98300
H  48.43100 40.24500 28.42900
H  48.90700 41.13300 26.94400
H  50.12800 40.46700 28.09100
H  49.95200 41.57500 25.10200
H  51.52000 41.44100 24.34100
H  51.41400 40.76700 25.95600
H  50.05200 34.41900 22.31100
H  47.54400 32.81700 22.02400
H  47.42700 34.70900 20.89800
H  48.94600 34.99100 20.25500
H  48.05000 36.21100 21.47600
H  49.31600 31.17900 23.33000
H  50.45600 32.45900 22.98900
H  49.27400 31.44700 20.39700
H  49.57400 30.10700 21.51900
H  50.89100 31.30900 21.11200
H  44.70200 30.06300 24.86600
H  44.17700 29.42800 26.40700
H  45.77900 28.96100 25.94100
H  43.96300 32.82800 30.02800
H  43.56000 31.35600 33.95000
H  45.17600 32.24500 34.03200
H  45.01900 30.57600 33.31200
Mg 9.29200 48.78900 26.00100
C  7.31000 49.00500 28.97400
C  12.07300 49.54600 27.99200
C  11.23300 48.55200 23.36700
C  6.45100 48.17200 24.22800
N  9.57600 49.29900 28.18800
C  8.66000 49.21200 29.21800
C  9.30800 49.55700 30.50700
C  10.65100 50.20900 30.01600
C  10.83500 49.64300 28.61600
C  10.74300 51.79800 29.96900
C  9.53800 48.38000 31.40400
C  8.98200 48.60000 32.84200
H  8.89900 47.44500 33.83500
N  11.41000 49.00400 25.74800
C  12.41200 49.34700 26.65200
C  13.71500 49.21100 26.08100
C  13.45900 48.77200 24.71100
C  11.98700 48.73800 24.54400
C  15.05500 49.48000 26.82600
C  14.50400 48.36900 23.56200
O  14.07100 47.93900 22.46900
C  15.97900 48.44500 23.84600
N  8.91700 48.47100 24.08300
C  9.85900 48.39100 23.10400
C  9.27500 48.03600 21.73600
C  7.76700 47.76500 22.03400
C  7.68700 48.20100 23.54000
C  9.47500 48.97300 20.60700
C  7.25400 46.29700 21.79500
C  8.11600 45.19100 22.41200
N  7.31600 48.53800 26.47200
C  6.25300 48.28700 25.59900
C  5.04200 48.21300 26.38100
C  5.40800 48.53400 27.65800
C  6.80600 48.71400 27.68600
C  3.56300 47.97000 25.85600
C  4.86500 48.72200 28.98000
O  3.72500 48.69100 29.34200
C  6.09200 49.12800 29.89900
C  5.91600 48.14100 31.01300
O  6.36500 47.03700 31.04000
O  5.03800 48.66900 31.98700
C  4.56400 47.67800 32.96900
H  12.86300 49.86200 28.67700
H  11.85700 48.47300 22.47400
H  5.58500 47.91000 23.61700
H  8.69100 50.30400 31.00500
H  11.53400 49.99700 30.61900
H  9.75500 52.25800 29.97700
H  11.17200 52.06800 29.00400
H  11.22800 52.20500 30.85600
H  10.60200 48.14300 31.42000
H  9.16200 47.45200 30.97200
H  8.00200 49.07600 32.80700
H  9.54700 49.39300 33.33200
H  15.57500 48.52500 26.91000
H  14.92700 49.76700 27.87000
H  15.61400 50.24400 26.28600
H  16.26100 47.84200 24.70900
H  16.11900 49.50500 24.05600
H  16.48100 48.12700 22.93200
H  9.73600 47.07400 21.50900
H  7.19100 48.43900 21.40000
H  9.13600 49.98300 20.83800
H  9.09500 48.49200 19.70600
H  10.55100 48.91100 20.44600
H  7.23700 46.24300 20.70700
H  6.20100 46.21100 22.06300
H  7.56800 44.36500 22.86500
H  8.78900 45.60200 23.16500
H  8.76200 44.79400 21.62900
H  3.40300 48.25800 24.81700
H  2.84100 48.49400 26.48100
H  3.32000 46.91900 26.01200
H  5.91900 50.14500 30.25100
H  5.41200 47.11200 33.35300
H  3.92100 46.96100 32.45800
H  3.96000 48.13400 33.75400

