158

Mg 23.14600 -7.70500 45.87600
C  25.67200 -5.37200 44.74800
C  21.10100 -6.20500 43.54100
C  20.94900 -10.21500 46.41600
C  25.67000 -9.67000 47.35100
N  23.43900 -6.07200 44.25900
C  24.46900 -5.15900 44.07600
C  24.06900 -4.05400 43.05000
C  22.58100 -4.29300 42.84700
C  22.33900 -5.59700 43.55200
C  21.74900 -3.06600 43.31900
C  24.92300 -4.12400 41.66200
C  25.76000 -2.85400 41.31600
H  26.38000 -2.80300 39.94200
N  21.19800 -8.13400 45.15400
C  20.56200 -7.36000 44.24500
C  19.30000 -7.98800 44.00900
C  19.26300 -9.10700 44.82900
C  20.46300 -9.18500 45.60900
C  18.29100 -7.38800 43.04800
C  18.12700 -10.04100 44.90700
O  17.16200 -9.83500 44.13200
C  17.97000 -11.04600 46.04300
N  23.24200 -9.57500 47.05700
C  22.19400 -10.43700 47.01400
C  22.61300 -11.81000 47.59000
C  24.06800 -11.54200 48.09300
C  24.36900 -10.24300 47.43200
C  21.63700 -12.51000 48.54700
C  25.10000 -12.68800 47.87400
C  25.16600 -13.63900 48.98000
N  25.16800 -7.58800 46.12800
C  26.06900 -8.46200 46.70000
C  27.38200 -7.88900 46.65400
C  27.29300 -6.69800 45.93500
C  25.94400 -6.55500 45.56700
C  28.66500 -8.58200 47.14700
C  28.01400 -5.56500 45.57600
O  29.17400 -5.26500 45.81100
C  27.02100 -4.58900 44.74600
C  26.95300 -3.28200 45.42300
O  26.77000 -3.15700 46.58000
O  27.25300 -2.25300 44.52800
C  27.48000 -0.89300 45.10300
H  20.49300 -5.69100 42.79500
H  20.37400 -11.14200 46.46500
H  26.46100 -10.21600 47.87100
H  24.20800 -3.04700 43.44500
H  22.44000 -4.38500 41.77100
H  22.33800 -2.29400 43.81600
H  21.04600 -3.40500 44.08000
H  21.22200 -2.65600 42.45800
H  24.35600 -4.42400 40.78100
H  25.69300 -4.89200 41.74000
H  26.50300 -2.71200 42.10000
H  24.98800 -2.08700 41.38200
H  18.02200 -8.14500 42.31100
H  18.64100 -6.54200 42.45700
H  17.41100 -7.07000 43.60600
H  18.17000 -10.61700 47.02500
H  18.44500 -11.97000 45.71300
H  16.90600 -11.25300 46.15800
H  22.77100 -12.43000 46.70800
H  24.15400 -11.33600 49.16000
H  21.68700 -13.58400 48.36700
H  20.65400 -12.08000 48.35400
H  21.94700 -12.42700 49.58800
H  26.07300 -12.24200 47.67100
H  24.88000 -13.26900 46.97900
H  24.13900 -13.88200 49.25200
H  25.73500 -13.31500 49.85200
H  25.64300 -14.56800 48.66700
H  28.61900 -9.04700 48.13200
H  29.47400 -7.85300 47.11500
H  28.98900 -9.32100 46.41500
H  27.56100 -4.46200 43.80700
H  26.62000 -0.46600 45.62000
H  27.45900 -0.21400 44.25100
H  28.44700 -0.77200 45.59200
Mg -1.01400 34.93200 26.77000
C  -2.53900 32.88700 29.32900
C  -0.09500 37.01700 29.19300
C  -0.16700 37.01900 24.35700
C  -2.52300 32.89700 24.42900
N  -1.36000 34.91200 29.04700
C  -1.79700 33.92200 29.84600
C  -1.41400 34.14800 31.37100
C  -0.63700 35.59000 31.25000
C  -0.69200 35.89000 29.75300
C  -1.24900 36.76900 32.11100
C  -0.65800 33.00200 32.08000
C  -1.43200 32.30300 33.21600
H  -0.74800 31.84400 34.53800
N  -0.17700 36.67700 26.80500
C  0.16600 37.43400 27.89600
C  0.87100 38.63200 27.43800
C  0.82700 38.69900 26.06000
C  0.06400 37.45500 25.65500
C  1.28600 39.70400 28.43700
C  1.34400 39.76400 25.15300
O  1.21200 39.75500 23.93500
C  2.23500 40.83900 25.72200
N  -1.45500 35.00500 24.71200
C  -0.92500 35.97000 23.93800
C  -1.04400 35.60500 22.43600
C  -1.58400 34.14700 22.46900
C  -1.91900 34.02800 23.98000
C  -1.86300 36.61200 21.61700
C  -0.57800 33.05000 22.04400
C  0.86400 32.99900 22.61300
N  -2.22600 33.20300 26.76900
C  -2.77400 32.51500 25.75000
C  -3.60400 31.48100 26.26900
C  -3.57800 31.62800 27.67200
C  -2.66500 32.64200 27.93100
C  -4.34300 30.55600 25.43500
C  -4.14500 31.05700 28.83300
O  -4.97300 30.19000 29.07600
C  -3.47700 31.84300 30.01300
C  -4.45000 32.57600 30.83500
O  -4.79100 33.79300 30.71700
O  -4.74300 31.80900 32.01000
C  -5.44400 32.68200 32.98400
H  0.23600 37.80500 29.87300
H  0.31000 37.58200 23.55200
H  -2.81000 32.20300 23.63500
H  -2.42200 34.32300 31.74500
H  0.39700 35.45800 31.57000
H  -0.54100 37.57900 32.28800
H  -1.64300 36.41200 33.06300
H  -2.13800 37.13400 31.59800
H  0.29100 33.39500 32.44400
H  -0.38700 32.31800 31.27500
H  -1.74700 31.33500 32.82700
H  -2.32700 32.91200 33.34400
H  2.32900 39.44200 28.61700
H  0.64500 39.65600 29.31800
H  1.22700 40.71100 28.02600
H  2.93900 40.34700 26.39300
H  1.61100 41.53000 26.28900
H  2.84900 41.31800 24.96000
H  -0.03600 35.68100 22.02800
H  -2.50300 34.04200 21.89200
H  -2.57500 37.25400 22.13600
H  -2.52600 36.05900 20.95200
H  -1.29400 37.26000 20.95000
H  -0.62100 33.31700 20.98900
H  -1.00400 32.05200 22.14800
H  1.03500 32.02600 23.07400
H  1.10000 33.86800 23.22700
H  1.54200 33.13700 21.77000
H  -3.69800 29.77900 25.02600
H  -4.89700 31.11800 24.68300
H  -5.09600 30.13000 26.09800
H  -3.00000 31.08200 30.63100
H  -6.41400 33.09800 32.71000
H  -4.77600 33.38500 33.48200
H  -5.79200 31.96200 33.72400

