158

Mg 2.87800 -0.98800 44.00200
C  6.28700 -0.46100 43.72400
C  2.34400 1.78200 42.00900
C  -0.29800 -1.99300 43.58900
C  3.57800 -4.22900 45.25300
N  4.17000 0.46900 43.01600
C  5.55400 0.48500 42.98500
C  6.05700 1.65000 42.15400
C  4.76100 2.54600 41.94100
C  3.68300 1.57000 42.38000
C  4.59600 3.96900 42.60200
C  6.75800 1.12700 40.83800
C  7.75500 2.14500 40.21600
H  7.43500 2.71900 38.78700
N  1.28000 -0.10700 43.17300
C  1.19500 1.00800 42.37800
C  -0.22300 1.29800 42.00000
C  -1.03500 0.22700 42.52700
C  -0.02000 -0.71400 43.15200
C  -0.62800 2.58700 41.31500
C  -2.56900 0.04000 42.38700
O  -3.28600 0.73900 41.67300
C  -3.19300 -0.99900 43.22500
N  1.78900 -2.88800 44.29800
C  0.49300 -3.06100 43.99600
C  -0.03900 -4.48700 44.45200
C  1.25700 -5.14600 45.02900
C  2.29100 -4.02800 44.83900
C  -1.17400 -4.30100 45.40900
C  1.71000 -6.45400 44.33400
C  1.87100 -7.74100 45.20100
N  4.52000 -2.11600 44.45800
C  4.67600 -3.34300 45.04500
C  6.08100 -3.62300 45.40800
C  6.74900 -2.53200 44.86500
C  5.79100 -1.64400 44.35600
C  6.71000 -4.96200 46.00200
C  8.08800 -1.87200 44.76800
O  9.18800 -2.17800 45.16600
C  7.74700 -0.57800 43.93400
C  8.37600 0.53000 44.60100
O  8.22300 0.79400 45.78800
O  9.24300 1.15500 43.73400
C  10.09000 2.11900 44.39800
H  2.20600 2.63000 41.33600
H  -1.28900 -2.38900 43.36000
H  3.89400 -5.12900 45.78500
H  6.77100 2.13700 42.81900
H  4.65300 2.69200 40.86600
H  5.58500 4.42500 42.57400
H  4.19100 3.88000 43.61000
H  3.92800 4.60600 42.02100
H  5.91700 0.92400 40.17500
H  7.30900 0.21000 41.04600
H  8.71500 1.64500 40.33900
H  7.68300 3.02700 40.85400
H  -0.77300 2.47900 40.24000
H  0.27900 3.19100 41.27800
H  -1.49400 3.10700 41.72500
H  -4.19700 -0.61500 43.40800
H  -2.72800 -1.09700 44.20600
H  -3.34600 -1.89900 42.63000
H  -0.41900 -5.02300 43.58200
H  1.25000 -5.35500 46.09900
H  -2.11500 -4.39700 44.86700
H  -1.09800 -3.31600 45.87000
H  -1.15200 -5.12200 46.12500
H  2.64700 -6.31500 43.79300
H  1.03900 -6.70300 43.51200
H  2.95400 -7.79800 45.31100
H  1.45100 -8.61500 44.70300
H  1.57500 -7.64300 46.24500
H  6.82800 -5.67100 45.18300
H  5.95700 -5.41200 46.64900
H  7.65500 -4.73400 46.49400
H  8.26500 -0.72700 42.98700
H  9.46000 2.99600 44.54400
H  11.05000 2.44900 44.00000
H  10.38800 1.69300 45.35600
Mg 35.98700 49.98300 25.25800
C  35.91000 48.08800 28.21700
C  34.89600 52.61700 27.03800
C  35.72100 51.55100 22.31300
C  37.00100 47.01200 23.68400
N  35.29700 50.23800 27.37000
C  35.36400 49.35700 28.38600
C  34.91600 50.04500 29.72100
C  34.38000 51.43700 29.19500
C  35.04200 51.43100 27.75700
C  32.85700 51.61900 29.27300
C  36.17000 50.23300 30.69300
C  36.11200 49.56700 32.07500
H  34.82400 49.31400 32.80700
N  35.31800 51.81800 24.75300
C  34.95300 52.79400 25.60000
C  34.58800 54.03300 24.92400
C  34.95600 53.74500 23.57200
C  35.33600 52.29600 23.43900
C  34.12600 55.28700 25.57800
C  34.93100 54.69700 22.40100
O  35.40200 54.39900 21.30000
C  34.39100 56.07000 22.65900
N  36.28100 49.35600 23.28200
C  36.07700 50.26300 22.22500
C  36.45400 49.59000 20.95700
C  36.74700 48.14600 21.32700
C  36.73400 48.14900 22.87200
C  35.56700 49.74400 19.75300
C  38.12400 47.50400 20.81300
C  39.36700 47.95200 21.70700
N  36.38600 47.94600 25.80100
C  36.81300 46.88100 25.03200
C  36.97500 45.73900 25.85500
C  36.64400 46.19500 27.08100
C  36.37100 47.56800 27.01400
C  37.27500 44.36700 25.44800
C  36.44600 45.73900 28.44300
O  36.65500 44.66100 28.93100
C  36.02400 46.96100 29.25000
C  34.65000 46.50100 29.89300
O  33.51100 46.74300 29.51000
O  34.92000 45.77200 31.01200
C  33.67900 45.36600 31.79700
H  34.51100 53.39200 27.70400
H  35.67000 51.97300 21.30700
H  37.35200 46.10900 23.18100
H  34.13800 49.42800 30.17200
H  34.87500 52.24900 29.72700
H  32.32800 50.74100 29.64500
H  32.53300 51.89200 28.26900
H  32.53200 52.39200 29.96900
H  36.52300 51.26100 30.77000
H  36.97000 49.60800 30.29600
H  36.74000 50.10500 32.78500
H  36.57300 48.59600 31.89300
H  33.36000 55.82800 25.02200
H  35.00300 55.92500 25.68600
H  33.69800 55.11100 26.56500
H  34.90600 56.73100 23.35700
H  33.35100 55.85900 22.91200
H  34.38900 56.53700 21.67500
H  37.41500 50.08500 20.81900
H  35.91000 47.49700 21.06900
H  34.62400 50.16900 20.09700
H  35.36400 48.77700 19.29300
H  36.02600 50.48100 19.09400
H  38.32500 47.75200 19.77100
H  37.89100 46.44200 20.89100
H  39.76800 47.01600 22.09600
H  39.22400 48.57300 22.59200
H  40.08800 48.45300 21.06100
H  37.62300 44.21800 24.42500
H  36.47500 43.65500 25.65100
H  38.07300 43.93300 26.05000
H  36.82400 47.10500 29.97700
H  34.07400 44.84100 32.66700
H  33.05300 44.69600 31.20800
H  33.04100 46.20000 32.09000

