158

Mg 47.37400 25.58900 28.21900
C  48.02900 27.82900 30.69900
C  46.79800 23.11900 30.63500
C  46.60700 23.53300 25.70400
C  48.55400 27.87500 25.87800
N  47.31500 25.52900 30.37900
C  47.62100 26.56200 31.16700
C  47.49700 26.25000 32.68000
C  47.12200 24.73000 32.62500
C  47.21500 24.39200 31.10400
C  48.00000 23.73200 33.47100
C  46.55100 27.21800 33.47100
C  45.80600 26.72800 34.77600
H  46.13100 27.44000 36.11000
N  46.60100 23.62200 28.21000
C  46.49400 22.74700 29.25100
C  46.08800 21.42200 28.71800
C  45.95400 21.55600 27.30100
C  46.41800 22.95900 26.99400
C  45.83700 20.20800 29.53200
C  45.50000 20.47900 26.30900
O  45.56200 20.66800 25.12500
C  45.10200 19.13500 26.72300
N  47.59900 25.65800 26.09400
C  47.25700 24.63700 25.28600
C  47.65900 24.98200 23.89700
C  47.96000 26.51100 23.92600
C  48.00800 26.72200 25.43300
C  48.79600 24.04200 23.28800
C  46.82900 27.32100 23.30800
C  47.04300 27.73400 21.87000
N  48.32800 27.44200 28.28900
C  48.68300 28.27800 27.29000
C  49.23100 29.54500 27.82500
C  48.91800 29.38700 29.21700
C  48.47100 28.09800 29.44000
C  49.72700 30.76900 27.14100
C  48.91300 30.12200 30.50500
O  49.25100 31.24400 30.82200
C  48.34700 29.12700 31.53300
C  49.40000 28.95200 32.58100
O  50.32600 28.21500 32.49400
O  49.01300 29.59700 33.70800
C  49.86300 29.34600 34.88500
H  46.47900 22.38800 31.38100
H  46.51100 22.77200 24.92700
H  48.88600 28.56300 25.09800
H  48.49400 26.43100 33.08200
H  46.08800 24.42900 32.79300
H  47.39100 23.12100 34.13700
H  48.75000 24.33000 33.98900
H  48.59300 23.08800 32.82300
H  45.68000 27.33800 32.82600
H  46.83800 28.26100 33.60100
H  45.97000 25.66900 34.97600
H  44.72000 26.78000 34.71300
H  46.03500 20.39400 30.58700
H  46.45100 19.35500 29.24300
H  44.78300 19.96200 29.39700
H  44.34700 19.14700 27.50900
H  46.01600 18.63700 27.04600
H  44.67200 18.67300 25.83400
H  46.77800 24.91000 23.25800
H  48.94800 26.83900 23.60400
H  48.52900 23.71300 22.28400
H  48.97800 23.19100 23.94400
H  49.73500 24.59600 23.26000
H  46.65300 28.25400 23.84500
H  45.85500 26.83200 23.30000
H  46.55400 27.10600 21.12500
H  48.08400 27.51100 21.63300
H  46.87900 28.80000 21.71600
H  49.66200 30.81100 26.05400
H  50.74300 30.91400 27.50800
H  49.30200 31.70500 27.50400
H  47.43700 29.57800 31.92800
H  49.56000 30.05200 35.65900
H  50.91700 29.43300 34.62200
H  49.66200 28.30300 35.12600
Mg 29.82100 58.09900 40.15500
C  27.18200 56.29700 38.94300
C  32.00800 56.09800 38.38600
C  32.46100 60.20900 40.94700
C  27.62800 60.65700 41.04800
N  29.64000 56.49300 38.77200
C  28.41400 55.89500 38.45300
C  28.65000 54.56900 37.71100
C  30.15700 54.46400 37.52800
C  30.63600 55.77500 38.26400
C  30.93000 53.27100 38.27800
C  27.87700 54.32000 36.38900
C  27.65300 55.52200 35.45900
H  28.09800 55.42700 34.03000
N  32.00600 57.97800 39.90100
C  32.62200 57.10800 39.09500
C  34.05000 57.32800 39.14000
C  34.26000 58.52000 39.95200
C  32.86000 58.97600 40.27600
C  35.15100 56.48000 38.51300
C  35.54300 59.06900 40.44100
O  36.60300 58.43200 40.25200
C  35.62600 60.29700 41.29100
N  30.03000 60.20400 40.80200
C  31.22100 60.79200 41.12700
C  30.98700 62.10200 41.84100
C  29.43900 62.19000 42.07900
C  28.95700 60.98700 41.25800
C  31.92600 62.47600 43.03500
C  28.83000 63.50100 41.49700
C  27.54600 63.89100 42.16600
N  27.78800 58.49400 39.94600
C  27.02800 59.51100 40.53200
C  25.62800 59.20400 40.25800
C  25.65400 57.92700 39.72100
C  27.01100 57.53000 39.54900
C  24.43200 59.96600 40.56000
C  24.87200 56.75200 39.32900
O  23.68700 56.48900 39.37500
C  25.80500 55.70100 38.64500
C  25.63200 54.33300 39.18800
O  26.23500 53.78700 40.12400
O  24.67300 53.70800 38.45700
C  24.24000 52.38500 39.02400
H  32.71300 55.42800 37.88900
H  33.28200 60.83000 41.31100
H  26.80600 61.34700 41.25200
H  28.33000 53.73500 38.33500
H  30.51600 54.47100 36.49900
H  31.39900 52.59800 37.56100
H  30.17100 52.69500 38.80800
H  31.76800 53.57000 38.90800
H  26.91500 53.92300 36.71300
H  28.44200 53.57800 35.82600
H  28.06900 56.43600 35.88100
H  26.58000 55.68100 35.34400
H  36.09200 57.01100 38.37200
H  34.82900 56.28100 37.49000
H  35.35100 55.60500 39.13100
H  36.67900 60.22600 41.56600
H  34.97000 60.27800 42.16200
H  35.49500 61.14000 40.61300
H  31.19100 62.87600 41.10000
H  29.20800 61.92300 43.11000
H  32.56000 61.64400 43.34400
H  31.29000 62.83900 43.84300
H  32.59700 63.23500 42.63400
H  28.72900 63.32800 40.42500
H  29.52800 64.32800 41.62700
H  27.52000 64.95800 42.38300
H  27.46400 63.64100 43.22400
H  26.68200 63.70900 41.52800
H  24.45900 60.52600 41.49500
H  23.56800 59.30400 40.61800
H  24.22500 60.64900 39.73600
H  25.54200 55.68800 37.58700
H  23.69000 51.98400 38.17300
H  23.71900 52.31900 39.97900
H  25.15100 51.80300 39.16300

