158

Mg 25.75000 0.43700 29.15800
C  27.64000 -0.17200 32.04800
C  23.04400 1.11600 31.19500
C  24.03800 0.83200 26.39900
C  28.41500 -0.90100 27.25000
N  25.46600 0.74900 31.39300
C  26.39500 0.48600 32.36200
C  25.77200 0.54500 33.80100
C  24.25800 0.66600 33.45900
C  24.22100 0.98000 31.91000
C  23.38100 -0.51200 33.92500
C  26.32500 1.59500 34.79700
C  26.87100 1.00300 36.11100
H  26.74000 1.91400 37.30500
N  23.80700 0.91900 28.82100
C  22.81800 1.10000 29.81600
C  21.52500 1.23200 29.07700
C  21.81000 1.30000 27.65500
C  23.27800 1.06100 27.53900
C  20.21200 1.27300 29.75900
C  20.88900 1.41000 26.39700
O  21.24400 1.18800 25.21900
C  19.46300 1.79700 26.58400
N  26.22400 0.08900 27.12800
C  25.36400 0.38400 26.16000
C  26.01900 0.52300 24.78800
C  27.34800 -0.33600 24.93300
C  27.41700 -0.31200 26.55100
C  25.10500 0.03000 23.66500
C  28.54900 0.31500 24.27500
C  29.40300 1.47200 24.95200
N  27.64900 -0.19300 29.49500
C  28.61900 -0.78400 28.64900
C  29.69500 -1.29100 29.40100
C  29.33700 -1.01200 30.69700
C  28.09800 -0.43800 30.73700
C  30.95000 -1.99700 28.78500
C  29.86700 -1.12600 32.02700
O  30.97300 -1.63600 32.37000
C  28.75000 -0.62600 32.98700
C  28.43000 -1.65100 33.98600
O  27.54100 -2.41700 33.87700
O  29.26200 -1.61400 35.05100
C  29.01900 -2.45700 36.17500
H  22.12100 1.30300 31.74800
H  23.61500 0.99400 25.40500
H  29.27200 -1.22600 26.65600
H  25.95200 -0.44400 34.22300
H  23.81200 1.54800 33.91900
H  23.32600 -1.26200 33.13700
H  22.40700 -0.11500 34.21000
H  23.73400 -1.11900 34.75900
H  25.70900 2.45600 35.05500
H  27.18000 1.98400 34.24500
H  27.86700 0.62100 35.88600
H  26.37400 0.08200 36.41800
H  19.51200 0.48400 29.48500
H  19.75800 2.18700 29.37600
H  20.23400 1.17000 30.84400
H  18.86200 2.04500 25.70900
H  19.23800 2.63200 27.24700
H  18.95300 0.91300 26.96800
H  26.36700 1.54600 24.63800
H  27.17800 -1.37900 24.66700
H  24.33900 -0.61300 24.09800
H  25.66300 -0.39600 22.83100
H  24.40300 0.76400 23.27100
H  28.25400 0.62900 23.27300
H  29.23400 -0.52200 24.13200
H  28.94600 1.90700 25.84100
H  29.44500 2.27100 24.21200
H  30.43900 1.16000 25.09000
H  31.56700 -1.26400 28.26700
H  30.52000 -2.61200 27.99400
H  31.52000 -2.57400 29.51300
H  29.20600 0.19900 33.53400
H  28.88500 -3.44900 35.74500
H  28.09100 -2.15600 36.66200
H  29.85600 -2.51300 36.87100
Mg 43.41000 3.84900 47.23000
C  41.35400 6.62900 46.73300
C  40.82100 1.79900 46.62200
C  45.48400 1.23100 47.26700
C  46.06300 5.95200 47.65000
N  41.28100 4.21500 46.68700
C  40.64800 5.40800 46.57500
C  39.18800 5.19300 46.29500
C  39.07600 3.62100 46.42000
C  40.44700 3.17100 46.60900
C  38.17400 3.04700 47.57300
C  38.72900 5.84500 44.93600
C  37.35900 5.28300 44.52100
H  37.52200 4.62300 43.19900
N  43.17900 1.77000 46.82200
C  41.98700 1.08900 46.61100
C  42.21900 -0.33600 46.41900
C  43.63800 -0.52000 46.61100
C  44.17500 0.83800 46.93900
C  41.09600 -1.32000 45.99400
C  44.27900 -1.84100 46.56900
O  43.62800 -2.84800 46.35400
C  45.77500 -2.06200 46.75500
N  45.50800 3.59900 47.20700
C  46.05300 2.43000 47.41500
C  47.59300 2.58100 47.54100
C  47.79400 4.09900 47.56100
C  46.34300 4.57700 47.49600
C  48.28800 1.72800 48.65900
C  48.69600 4.60900 46.40300
C  50.17900 4.44500 46.61900
N  43.64100 5.87600 47.30000
C  44.82000 6.61300 47.38100
C  44.58000 8.03100 47.40200
C  43.21300 8.07600 47.21000
C  42.69900 6.73200 47.02700
C  45.53100 9.14900 47.66500
C  42.07000 9.01200 46.98400
O  42.08000 10.23800 47.06100
C  40.75300 8.07500 46.86700
C  39.98300 8.34900 48.09500
O  39.83100 7.60000 49.06900
O  39.24700 9.45700 47.76500
C  38.05900 9.60000 48.58000
H  39.97900 1.10700 46.55600
H  46.17700 0.40500 47.44200
H  46.98700 6.50400 47.83400
H  38.65800 5.68100 47.11300
H  38.71600 3.13000 45.51700
H  38.70200 2.78700 48.49000
H  37.79100 2.05000 47.36000
H  37.34600 3.73200 47.75900
H  39.53700 5.64500 44.23200
H  38.50900 6.90700 45.04100
H  36.63600 6.09700 44.45700
H  36.97200 4.55000 45.22900
H  40.86900 -2.11800 46.70100
H  41.34400 -1.93700 45.13000
H  40.09600 -0.91200 45.84400
H  46.19900 -1.31800 46.07900
H  46.10800 -3.08600 46.58600
H  45.99400 -1.70500 47.76100
H  47.92800 2.15900 46.59400
H  48.22300 4.31200 48.54100
H  47.62100 1.23300 49.36400
H  49.07500 2.32000 49.12600
H  48.85600 0.93800 48.16600
H  48.54800 5.68800 46.44500
H  48.51500 4.25800 45.38700
H  50.67300 5.38800 46.38600
H  50.66700 3.62500 46.09200
H  50.37700 4.17300 47.65500
H  46.44400 8.90500 47.12200
H  45.60900 9.22400 48.74900
H  45.04100 10.00100 47.19200
H  40.12600 8.38100 46.02900
H  38.17300 10.45100 49.25100
H  37.78500 8.71500 49.15300
H  37.21600 9.82900 47.92800

