158

Mg 24.57800 1.90900 29.24200
C  26.86900 1.52600 31.82900
C  22.16000 1.95900 31.55100
C  22.50900 1.95000 26.70000
C  27.30000 1.08200 26.97800
N  24.51300 1.76600 31.52700
C  25.55800 1.83300 32.33700
C  25.18600 2.22200 33.73700
C  23.60000 1.94300 33.70900
C  23.40300 1.91700 32.19300
C  23.11600 0.62100 34.35300
C  25.67300 3.64900 34.35100
C  26.36500 3.68700 35.71600
H  25.85700 4.63700 36.84100
N  22.60800 1.91700 29.15000
C  21.75000 1.99400 30.21500
C  20.38100 1.88400 29.73400
C  20.43100 1.85600 28.28000
C  21.91000 1.89700 27.97000
C  19.17400 1.88300 30.72600
C  19.30900 1.80200 27.22000
O  19.48800 2.01600 26.02500
C  17.91900 1.55900 27.70200
N  24.90500 1.52000 27.07800
C  23.86200 1.93200 26.31300
C  24.37100 1.96000 24.83300
C  25.89100 1.80800 24.94700
C  26.05500 1.46000 26.41600
C  23.71300 0.83500 24.00800
C  26.85300 2.97200 24.37000
C  26.38800 4.38100 24.65400
N  26.69600 1.40300 29.37100
C  27.63300 1.03600 28.36600
C  28.90100 0.82600 28.98400
C  28.68300 1.03200 30.38400
C  27.32100 1.32500 30.53800
C  30.23000 0.73200 28.24000
C  29.34700 1.10300 31.65800
O  30.49300 0.89100 32.04800
C  28.22200 1.50400 32.63400
C  28.16000 0.39800 33.73900
O  27.50200 -0.62700 33.63800
O  28.81300 0.77900 34.87400
C  28.67400 -0.16000 36.00800
H  21.34000 1.99400 32.27100
H  21.87400 2.25100 25.86500
H  28.16900 0.91800 26.33800
H  25.57800 1.41600 34.35700
H  22.88600 2.62200 34.17600
H  22.16300 0.44400 33.85500
H  22.90300 0.74600 35.41400
H  23.73900 -0.22300 34.05500
H  24.73000 4.18000 34.47900
H  26.28800 4.13500 33.59400
H  27.36000 4.06500 35.48100
H  26.50000 2.65400 36.03700
H  18.38800 1.17700 30.45600
H  18.66200 2.84500 30.69600
H  19.49500 1.60700 31.73000
H  17.15200 1.70200 26.94100
H  17.61600 2.16200 28.55800
H  17.80200 0.49500 27.90700
H  23.98900 2.87500 24.38100
H  26.11400 0.83600 24.50800
H  22.76500 0.50300 24.43300
H  24.31500 -0.03700 23.75500
H  23.38500 1.35100 23.10600
H  26.97800 2.82900 23.29700
H  27.76600 2.75500 24.92600
H  25.46600 4.38100 25.23500
H  26.08900 4.73900 23.66900
H  27.15500 4.97100 25.15600
H  30.09600 1.13100 27.23400
H  30.32500 -0.34700 28.12100
H  31.07900 1.11300 28.80700
H  28.44700 2.48300 33.05800
H  27.75800 0.20000 36.47700
H  29.52000 0.14300 36.62400
H  28.61200 -1.23000 35.80800
Mg 16.78800 52.38700 26.67700
C  19.14400 50.59700 28.48400
C  14.90000 52.76900 29.44000
C  14.68200 53.99800 24.73800
C  18.60800 51.32000 23.69000
N  17.05000 51.89700 28.69800
C  18.08700 51.17000 29.27600
C  18.04600 51.20200 30.81000
C  16.55100 51.56300 31.01200
C  16.14400 52.10700 29.60300
C  15.60800 50.41400 31.31400
C  19.11200 52.21400 31.46700
C  19.20700 52.39200 32.96800
H  18.11500 51.77900 33.87600
N  15.02600 53.21500 27.00200
C  14.37400 53.30000 28.26800
C  13.13500 54.06900 28.17300
C  13.08000 54.52800 26.81600
C  14.29600 53.95800 26.09500
C  12.13900 54.24200 29.25100
C  12.11700 55.47700 26.13700
O  12.02800 55.57400 24.91700
C  11.19000 56.29800 26.98200
N  16.67200 52.63700 24.58600
C  15.74300 53.44100 24.00100
C  15.81400 53.55700 22.42200
C  17.10700 52.71400 22.22700
C  17.51200 52.21500 23.60300
C  14.69200 52.99100 21.55300
C  18.26400 53.45200 21.51000
C  19.17300 54.27400 22.48700
N  18.54000 51.21400 26.13800
C  19.15600 50.90300 24.92700
C  20.37100 50.07200 25.24000
C  20.38700 49.96400 26.65200
C  19.24600 50.67000 27.10500
C  21.39400 49.59500 24.18100
C  21.05100 49.36300 27.80000
O  21.99200 48.59700 27.83700
C  20.40300 49.96200 29.01000
C  20.19700 48.81000 29.96900
O  19.40900 47.88600 29.85500
O  20.76800 49.13700 31.19200
C  20.40700 48.37400 32.36400
H  14.30600 52.99000 30.32900
H  14.04000 54.60400 24.09500
H  19.23400 51.00300 22.85300
H  18.12700 50.21700 31.27000
H  16.39500 52.36300 31.73600
H  14.90200 50.89000 31.99500
H  16.12900 49.60100 31.82000
H  15.08300 50.09600 30.41300
H  18.90900 53.22700 31.12100
H  20.13200 51.95700 31.17700
H  19.26500 53.47700 33.05900
H  20.19500 52.02000 33.24000
H  11.47800 55.10800 29.25700
H  12.68100 54.30600 30.19500
H  11.45000 53.39800 29.29500
H  11.71900 56.71900 27.83700
H  10.34600 55.72400 27.36300
H  10.86300 57.15900 26.39900
H  16.02300 54.56500 22.06500
H  16.92300 51.74700 21.76000
H  13.96600 52.37500 22.08300
H  15.11300 52.38200 20.75300
H  14.12500 53.77200 21.04500
H  17.89800 54.12100 20.73100
H  18.74100 52.70100 20.88100
H  19.46000 55.26600 22.13600
H  20.05800 53.64300 22.56700
H  18.75400 54.43000 23.48100
H  22.21800 49.10800 24.70200
H  21.74800 50.37900 23.51300
H  20.86600 48.94200 23.48600
H  21.11300 50.72600 29.32600
H  21.35700 48.34000 32.89800
H  20.03700 47.37800 32.12300
H  19.72700 48.98700 32.95600

