158

Mg 0.46000 7.55900 25.32500
C  1.07200 9.48800 28.12400
C  0.93300 4.83600 27.31700
C  0.09300 5.63600 22.59900
C  0.10400 10.35800 23.41900
N  1.01300 7.23800 27.50700
C  1.09200 8.14800 28.49100
C  1.30700 7.42400 29.89000
C  1.36900 5.93900 29.52800
C  1.07600 5.99700 28.04800
C  2.79600 5.36100 29.77400
C  0.22600 7.75100 30.93100
C  0.83300 8.16000 32.31100
H  2.01300 7.33600 32.78900
N  0.52800 5.48000 25.00800
C  0.68400 4.52000 25.98800
C  0.50600 3.25700 25.37500
C  0.35200 3.47700 23.97700
C  0.29500 4.90500 23.80900
C  0.78500 1.99100 25.99900
C  0.26600 2.49300 22.85600
O  0.04600 2.91200 21.71500
C  0.49400 1.05200 23.11700
N  0.11400 7.98300 23.31000
C  -0.05700 7.02000 22.36000
C  -0.53900 7.62300 21.02100
C  -0.61600 9.11600 21.38300
C  -0.10400 9.14900 22.82100
C  0.50600 7.28100 19.89300
C  -2.03500 9.73400 21.17600
C  -2.09200 11.02400 20.34200
N  0.74400 9.46800 25.58900
C  0.62900 10.50500 24.73500
C  0.72600 11.74800 25.41700
C  1.01300 11.40600 26.74800
C  0.94100 10.00800 26.81000
C  0.64300 13.11400 24.79100
C  1.09400 11.94200 28.12700
O  1.09900 13.09400 28.50800
C  1.03200 10.71700 29.00600
C  2.09200 10.91100 29.92500
O  3.17500 10.37300 29.87800
O  1.59300 11.70300 30.98000
C  2.60500 12.10400 32.01400
H  1.05100 3.95200 27.94700
H  -0.09900 5.05300 21.69600
H  -0.21300 11.32200 23.01500
H  2.26200 7.87200 30.16200
H  0.59200 5.26700 29.89300
H  2.95800 4.28300 29.78000
H  3.21400 5.68800 30.72600
H  3.46300 5.60700 28.94800
H  -0.44900 6.91400 31.11000
H  -0.37200 8.55800 30.50800
H  -0.00700 8.07400 32.99900
H  1.14500 9.19600 32.17600
H  1.75000 1.64400 25.62900
H  0.08500 1.18200 25.79200
H  0.69300 2.08800 27.08100
H  1.35400 0.77200 23.72500
H  0.63700 0.47000 22.20600
H  -0.43300 0.71600 23.58100
H  -1.51500 7.22700 20.73800
H  0.11700 9.58900 20.73000
H  1.33200 6.67000 20.25700
H  0.98600 8.09200 19.34400
H  -0.09200 6.67700 19.21100
H  -2.44700 9.90300 22.17100
H  -2.67000 9.01400 20.66100
H  -2.79100 10.92400 19.51200
H  -1.13300 11.41100 19.99800
H  -2.57400 11.78200 20.95900
H  -0.41400 13.14900 24.53000
H  1.23800 13.21700 23.88400
H  0.85200 13.95000 25.46000
H  0.07700 10.72500 29.53200
H  2.14200 12.38400 32.96000
H  3.37000 12.80600 31.68000
H  3.07300 11.21000 32.42600
Mg 44.38600 3.42900 47.24800
C  42.28300 6.23300 47.45900
C  41.42600 1.47600 47.53600
C  46.23200 0.83100 46.76400
C  47.12300 5.59700 47.29900
N  42.11600 3.80200 47.33500
C  41.51700 5.08500 47.47200
C  40.01900 4.94600 47.19100
C  39.71500 3.47300 47.62900
C  41.15900 2.83400 47.46600
C  38.95800 3.36500 48.93000
C  39.79800 5.29100 45.69800
C  38.78000 6.39200 45.36700
H  38.02200 6.47000 44.04000
N  43.90600 1.41700 46.98700
C  42.73000 0.82200 47.35000
C  42.92900 -0.62800 47.32600
C  44.25200 -0.87400 46.89100
C  44.87300 0.48000 46.83900
C  41.86700 -1.64300 47.61800
C  44.87100 -2.32600 46.64000
O  44.12300 -3.29300 46.73300
C  46.35300 -2.60600 46.32800
N  46.43400 3.32300 46.93600
C  46.95300 2.06300 46.74500
C  48.48200 2.18900 46.87100
C  48.75800 3.68800 47.09500
C  47.38400 4.22100 47.07200
C  49.17100 1.41400 48.07300
C  49.58300 4.38600 45.93200
C  50.82900 5.07800 46.53400
N  44.72000 5.51100 47.32300
C  45.85600 6.20900 47.37400
C  45.51900 7.58800 47.48500
C  44.17000 7.75000 47.42400
C  43.69200 6.39500 47.37600
C  46.59000 8.75500 47.52500
C  42.99800 8.63000 47.48900
O  42.89700 9.80400 47.58400
C  41.73800 7.67700 47.34700
C  40.64000 7.95200 48.38100
O  40.58600 7.35700 49.44300
O  39.81800 8.97300 48.01800
C  38.73100 9.38500 48.91500
H  40.61300 0.82000 47.85300
H  46.82800 -0.07500 46.63600
H  47.95500 6.30100 47.36800
H  39.51400 5.56200 47.93600
H  39.14700 2.88100 46.91100
H  38.69700 4.32300 49.37800
H  39.60200 2.83200 49.63000
H  37.98900 2.88700 48.78700
H  39.46400 4.40100 45.16600
H  40.71900 5.57100 45.18600
H  39.33300 7.32900 45.42800
H  38.11800 6.40000 46.23200
H  42.15200 -2.40000 48.34800
H  41.65900 -2.09900 46.65000
H  41.01700 -1.13700 48.07700
H  47.10400 -2.31300 47.06200
H  46.49000 -1.99000 45.43900
H  46.49600 -3.65200 46.05600
H  48.98400 1.79100 45.98900
H  49.23100 3.93700 48.04500
H  49.31400 0.35100 47.87500
H  48.48400 1.46800 48.91800
H  50.08700 1.92100 48.37400
H  49.05000 5.14700 45.36100
H  49.84400 3.70100 45.12500
H  50.73500 5.27300 47.60200
H  51.07500 5.97300 45.96300
H  51.67500 4.39200 46.49900
H  46.21000 9.53100 48.19000
H  46.77900 9.15000 46.52700
H  47.44300 8.30900 48.03700
H  41.40900 7.89000 46.33000
H  37.89700 8.68400 48.87700
H  38.48500 10.37000 48.51900
H  38.99300 9.52900 49.96300

