158

Mg 36.15400 3.11400 29.84600
C  33.45600 3.83500 32.04000
C  38.18500 3.11600 32.56000
C  38.47000 2.88600 27.59000
C  33.71800 3.20400 27.18500
N  35.87100 3.40100 32.05300
C  34.65600 3.61800 32.73200
C  34.85000 3.69200 34.23400
C  36.41800 3.64300 34.34300
C  36.87100 3.38500 32.91400
C  37.11300 4.91100 34.90200
C  34.09700 2.51300 34.93300
C  33.71700 2.89500 36.41500
H  34.38000 3.98700 37.36000
N  38.09200 2.91000 30.06500
C  38.79800 2.93300 31.28000
C  40.15800 2.62100 30.96000
C  40.28100 2.54100 29.50900
C  38.90900 2.82500 28.97300
C  41.24100 2.36100 31.95600
C  41.50300 2.24100 28.54300
O  41.39400 2.08200 27.33900
C  42.93000 2.12600 29.15800
N  36.14300 2.88600 27.68800
C  37.24400 2.75100 26.98200
C  36.89400 2.62200 25.41200
C  35.35200 2.32000 25.43100
C  35.03000 2.75500 26.90200
C  37.20100 3.93800 24.64900
C  35.04500 0.82200 25.06300
C  34.04200 0.51600 23.92400
N  34.05300 3.60500 29.58500
C  33.23400 3.58900 28.47400
C  31.83100 3.92300 28.87900
C  31.90800 4.10000 30.30900
C  33.23800 3.83700 30.62800
C  30.65900 4.24900 27.95900
C  31.14500 4.41400 31.48000
O  29.95600 4.69000 31.59300
C  32.12000 4.13400 32.63100
C  32.01200 5.40400 33.38200
O  32.30500 6.50500 32.90600
O  31.45600 5.18000 34.62600
C  31.29900 6.36800 35.41600
H  38.81700 2.93900 33.43300
H  39.22800 2.85300 26.80500
H  33.03900 3.18400 26.33000
H  34.49600 4.68300 34.51900
H  36.78800 2.78000 34.89700
H  37.78700 5.28400 34.13200
H  37.78900 4.49300 35.64800
H  36.42800 5.69800 35.21900
H  34.59900 1.54600 34.89800
H  33.18200 2.33100 34.37000
H  33.75400 1.95100 36.95800
H  32.69800 3.28200 36.45000
H  42.04200 3.09200 31.84400
H  41.74300 1.43100 31.68900
H  40.79900 2.23600 32.94500
H  43.01500 2.80500 30.00700
H  43.61000 2.48200 28.38500
H  43.22700 1.10200 29.38200
H  37.48500 1.77200 25.07200
H  34.88000 2.95100 24.67800
H  36.29100 4.47000 24.37000
H  37.81500 3.73000 23.77300
H  37.79900 4.60000 25.27600
H  34.68000 0.51700 26.04400
H  35.87400 0.15000 24.84000
H  33.55600 1.37300 23.45900
H  33.23300 -0.15500 24.21500
H  34.63700 0.01400 23.16100
H  29.67500 4.23700 28.42700
H  30.55300 3.57700 27.10800
H  30.73700 5.29600 27.66500
H  31.60900 3.36400 33.21000
H  30.90200 7.21900 34.86200
H  32.14100 6.49000 36.09800
H  30.50400 6.13400 36.12400
Mg -5.15900 25.23100 26.87500
C  -4.15300 26.88000 29.87900
C  -7.05900 23.06300 28.89900
C  -5.58100 23.32600 24.11600
C  -2.92400 27.24800 25.19200
N  -5.64700 25.14400 29.08500
C  -5.07900 25.83200 30.13200
C  -5.54300 25.38300 31.53600
C  -6.24900 24.03200 31.16800
C  -6.44900 24.11600 29.63600
C  -5.44700 22.75200 31.55800
C  -6.51200 26.33800 32.17600
C  -6.55500 26.32500 33.71400
H  -5.84500 25.17700 34.53700
N  -6.31300 23.68800 26.59400
C  -7.06200 22.93600 27.45900
C  -7.98500 22.07500 26.66000
C  -7.52500 22.08300 25.32300
C  -6.30900 22.96900 25.32300
C  -9.15500 21.29100 27.26200
C  -8.17200 21.46700 24.09300
O  -7.72200 21.57200 22.91700
C  -9.44400 20.58500 24.18100
N  -4.36900 25.28500 24.95300
C  -4.63700 24.34200 23.99100
C  -4.08800 24.80500 22.60400
C  -3.39000 26.15100 22.94300
C  -3.62000 26.28700 24.42600
C  -3.14800 23.75100 21.98500
C  -3.75400 27.38800 22.02200
C  -2.79600 27.61100 20.77700
N  -3.83300 26.77900 27.37200
C  -3.06600 27.56400 26.54700
C  -2.45000 28.63000 27.31800
C  -2.82800 28.40600 28.67800
C  -3.62200 27.27900 28.65900
C  -1.65200 29.70500 26.78300
C  -2.71100 28.80700 30.10100
O  -2.07900 29.74300 30.58900
C  -3.52000 27.77900 30.89600
C  -2.53000 27.03500 31.71100
O  -1.62400 26.29500 31.34500
O  -2.72000 27.40900 33.01300
C  -1.89000 26.74300 33.95100
H  -7.69700 22.37700 29.46000
H  -5.73700 22.70400 23.23200
H  -2.32900 28.05200 24.75400
H  -4.70900 25.10400 32.18000
H  -7.25400 23.86700 31.55800
H  -5.97900 22.17800 32.31700
H  -4.43000 23.08800 31.76100
H  -5.39300 22.05100 30.72500
H  -7.46200 25.91900 31.84200
H  -6.35600 27.30300 31.69200
H  -7.56200 26.28600 34.12800
H  -6.23000 27.25900 34.17300
H  -8.99600 20.21300 27.26600
H  -10.07200 21.33400 26.67400
H  -9.32000 21.65900 28.27500
H  -9.51100 19.85700 24.99000
H  -9.52400 19.96400 23.28900
H  -10.33800 21.19600 24.30200
H  -4.98000 25.01200 22.01200
H  -2.30500 26.04500 22.94900
H  -2.10300 23.92700 21.73300
H  -3.55300 23.54100 20.99500
H  -3.20700 22.88600 22.64600
H  -3.82300 28.21700 22.72600
H  -4.77400 27.39500 21.63900
H  -2.31500 26.69400 20.43800
H  -2.04100 28.34100 21.06800
H  -3.29700 28.18300 19.99500
H  -1.90800 30.21200 25.85300
H  -0.64000 29.32000 26.65300
H  -1.79100 30.36800 27.63700
H  -4.30400 28.21700 31.51400
H  -0.82500 26.97000 33.89100
H  -2.07000 25.67000 33.89400
H  -2.18900 26.89000 34.98800

