158

Mg -1.23700 17.61700 27.05800
C  -1.47800 15.23700 29.65100
C  -2.04400 20.08700 29.17200
C  -1.35800 19.64900 24.24600
C  -1.55300 14.80200 24.78300
N  -1.52700 17.59200 29.09100
C  -1.67600 16.54800 30.01700
C  -2.09800 17.07700 31.37800
C  -2.32500 18.62400 31.20000
C  -1.94100 18.79000 29.66200
C  -3.70700 19.19100 31.54500
C  -1.10200 16.59300 32.44000
C  -0.76900 17.43700 33.65100
H  -0.44900 16.81200 35.06900
N  -1.57800 19.53900 26.79400
C  -1.88500 20.42800 27.80900
C  -1.79400 21.74900 27.30100
C  -1.62000 21.62200 25.79900
C  -1.52800 20.20200 25.50400
C  -1.98600 22.90700 28.12000
C  -1.37900 22.74600 24.81400
O  -1.36100 22.60800 23.61700
C  -1.01200 24.16800 25.33600
N  -1.41900 17.29800 24.84900
C  -1.36900 18.30200 23.93500
C  -1.26300 17.82300 22.52700
C  -1.22700 16.26600 22.67100
C  -1.42100 16.08100 24.18900
C  -2.40400 18.41400 21.56000
C  0.15500 15.68600 22.17900
C  1.52600 16.10700 22.83000
N  -1.30300 15.38200 27.18300
C  -1.47400 14.48200 26.18100
C  -1.66700 13.13000 26.75500
C  -1.57800 13.39800 28.09800
C  -1.39500 14.80300 28.32300
C  -2.16600 11.88900 25.98300
C  -1.73000 12.77100 29.35700
O  -1.90600 11.64600 29.76200
C  -1.78200 13.99700 30.42700
C  -0.76400 13.65100 31.44000
O  0.42700 14.12000 31.46400
O  -1.32000 12.80300 32.39500
C  -0.40300 12.30100 33.41100
H  -2.16000 20.92100 29.86700
H  -1.29400 20.31300 23.38200
H  -1.64100 13.93100 24.13100
H  -3.04500 16.59200 31.61300
H  -1.64600 19.22700 31.80200
H  -4.23600 18.48500 32.18400
H  -4.25100 19.38900 30.62100
H  -3.47100 20.16900 31.96300
H  -0.13200 16.39400 31.98500
H  -1.54200 15.72900 32.93800
H  -1.61500 18.11700 33.75200
H  0.03800 18.02300 33.21000
H  -2.82100 23.41500 27.63700
H  -1.04700 23.45900 28.15400
H  -2.17500 22.70500 29.17400
H  -0.00700 24.03800 25.73800
H  -1.70300 24.56800 26.07800
H  -0.94500 24.80200 24.45200
H  -0.31700 18.13200 22.08200
H  -2.09300 15.85900 22.14800
H  -1.89900 19.07600 20.85700
H  -3.01400 19.04000 22.21100
H  -3.02600 17.70700 21.01100
H  0.29800 15.93600 21.12700
H  0.15000 14.59900 22.26600
H  1.36600 17.02000 23.40400
H  2.17500 16.56800 22.08600
H  2.00600 15.25800 23.31800
H  -1.48400 11.56800 25.19500
H  -3.11300 12.09400 25.48400
H  -2.39700 11.03000 26.61300
H  -2.79600 13.89900 30.81500
H  -0.92300 11.69700 34.15500
H  0.01900 13.15500 33.94100
H  0.33900 11.61800 32.99700
Mg 47.95000 16.41100 28.97500
C  45.82900 15.98200 31.68500
C  50.04400 18.17700 30.76800
C  49.71800 16.92400 26.12700
C  45.33100 15.00300 26.90400
N  47.84700 17.18000 30.98100
C  47.00100 16.76500 31.96200
C  47.61000 17.03300 33.41700
C  48.69200 18.05800 33.01600
C  48.85100 17.85300 31.47900
C  48.40300 19.54000 33.26800
C  48.07300 15.69200 34.11900
C  47.58700 15.49700 35.59500
H  47.26700 16.71000 36.44400
N  49.72700 17.28800 28.55100
C  50.49500 17.92700 29.45400
C  51.75200 18.28900 28.83500
C  51.67500 17.91100 27.45900
C  50.37700 17.31500 27.29300
C  52.90700 18.90600 29.69600
C  52.77600 18.16700 26.37700
O  52.69300 17.75400 25.26300
C  53.94700 18.88100 26.78500
N  47.53600 15.98000 26.86400
C  48.45600 16.41400 25.87800
C  47.89100 16.17900 24.44300
C  46.55500 15.45500 24.70300
C  46.44300 15.49100 26.26500
C  47.89900 17.41100 23.59700
C  46.46300 14.04500 24.09600
C  45.59800 13.78000 22.85400
N  46.03500 15.61300 29.18500
C  45.12500 15.08100 28.30900
C  43.99700 14.58800 29.02000
C  44.17800 14.92100 30.40000
C  45.44200 15.57000 30.42700
C  42.80100 13.94500 28.43600
C  43.64100 14.86600 31.72200
O  42.61200 14.31100 32.11900
C  44.71400 15.54000 32.66200
C  44.09300 16.66800 33.49800
O  43.71300 17.75200 33.04600
O  43.91900 16.32800 34.81500
C  43.32500 17.47600 35.58900
H  50.71800 18.74400 31.41400
H  50.32500 17.20700 25.26400
H  44.47300 14.61500 26.35200
H  46.83700 17.51500 34.01600
H  49.61200 17.82300 33.55100
H  49.17600 19.97900 33.89800
H  47.44100 19.72500 33.74600
H  48.47100 20.06100 32.31300
H  49.14900 15.56200 33.99600
H  47.54900 14.88200 33.61200
H  48.34500 15.00100 36.20000
H  46.76200 14.78500 35.63800
H  53.78600 18.26200 29.68000
H  52.52100 18.91500 30.71500
H  53.17500 19.92600 29.41800
H  53.83000 19.80900 27.34600
H  54.60100 19.02000 25.92500
H  54.54300 18.25200 27.44600
H  48.55600 15.53900 23.86200
H  45.69200 16.01600 24.34700
H  48.52100 18.25300 23.90000
H  46.89000 17.61700 23.23900
H  48.43400 17.16500 22.68000
H  46.17600 13.37200 24.90300
H  47.40600 13.58400 23.80200
H  44.91600 14.61100 22.67200
H  45.05100 12.84400 22.96800
H  46.24800 13.67200 21.98600
H  42.61400 14.33700 27.43600
H  41.95400 14.03200 29.11600
H  43.02400 12.88200 28.34400
H  44.92300 14.76200 33.39800
H  43.74400 18.41900 35.23700
H  43.59000 17.35400 36.63900
H  42.24000 17.54700 35.51100

