158

Mg 1.91200 8.08600 26.36200
C  2.18000 10.16400 29.28800
C  2.37800 5.36300 28.63800
C  2.36900 5.98100 23.74500
C  2.10300 10.73000 24.29700
N  2.17600 7.85100 28.78900
C  2.12800 8.81100 29.69600
C  2.11000 8.21600 31.11300
C  2.46200 6.66100 30.84600
C  2.36400 6.58000 29.33800
C  3.80300 6.04800 31.53800
C  0.85900 8.41600 31.86000
C  0.67500 7.53400 33.12700
H  1.87500 7.30400 34.08700
N  2.17700 5.95500 26.24400
C  2.45300 5.06700 27.23700
C  2.77800 3.71000 26.72500
C  2.60900 3.80300 25.31400
C  2.34000 5.24700 25.02900
C  3.07800 2.56700 27.69400
C  2.71500 2.71000 24.27300
O  2.43600 2.94800 23.10100
C  3.19300 1.28600 24.64900
N  2.00300 8.27600 24.35600
C  2.09000 7.32200 23.38500
C  1.82600 7.87700 21.91000
C  1.59400 9.39800 22.20200
C  1.89200 9.44700 23.68200
C  3.00900 7.52000 21.00100
C  0.13900 9.92100 21.88000
C  0.17300 10.87800 20.67500
N  2.06500 10.01200 26.66200
C  2.14000 11.02100 25.71600
C  2.20700 12.36600 26.41100
C  2.28100 12.09500 27.75500
C  2.08400 10.62500 27.87700
C  2.08600 13.68400 25.83400
C  2.35500 12.67400 29.06800
O  2.51300 13.87600 29.41100
C  2.24400 11.43600 30.10400
C  3.40200 11.45900 31.09500
O  4.60700 11.23200 30.85400
O  2.99300 11.97000 32.24600
C  3.91700 11.92500 33.39800
H  2.62300 4.65600 29.43400
H  2.49900 5.32700 22.87900
H  2.15400 11.60300 23.64300
H  2.85800 8.63400 31.78700
H  1.57500 6.10000 31.14000
H  4.06900 6.71000 32.36200
H  4.59100 5.87400 30.80500
H  3.57100 5.07100 31.96100
H  0.01500 8.10800 31.24300
H  0.72200 9.45300 32.16800
H  0.24900 6.55300 32.91600
H  -0.01800 8.12600 33.72500
H  2.11400 2.07600 27.83100
H  3.54600 2.90100 28.62000
H  3.69500 1.83400 27.17400
H  2.77700 0.94000 25.59500
H  4.26900 1.45900 24.66600
H  3.00500 0.56500 23.85300
H  0.88300 7.40800 21.62900
H  2.40800 9.91400 21.69200
H  3.77200 7.07100 21.63600
H  3.41800 8.38300 20.47600
H  2.80100 6.69300 20.32100
H  -0.23100 10.45500 22.75500
H  -0.46100 9.02200 21.74200
H  1.19100 11.05700 20.32800
H  -0.23900 11.84400 20.96500
H  -0.33200 10.44200 19.81200
H  1.49400 13.41100 24.96000
H  3.03800 14.14700 25.57500
H  1.37500 14.31700 26.36400
H  1.32300 11.40600 30.68600
H  4.51000 11.01100 33.43000
H  3.30500 11.82200 34.29300
H  4.54300 12.81000 33.50600
Mg 9.44300 3.86600 28.15700
C  10.64100 2.44000 31.14500
C  7.85100 6.22800 30.04200
C  7.88800 4.74600 25.39100
C  10.66600 1.01700 26.46600
N  8.97600 4.08600 30.49700
C  9.82000 3.61700 31.44900
C  9.64800 4.41100 32.76700
C  8.62000 5.55100 32.35200
C  8.50500 5.29600 30.83300
C  7.26900 5.47400 33.09500
C  10.99000 4.82500 33.43500
C  10.83000 5.73400 34.63900
H  11.31400 5.07800 35.96400
N  8.07900 5.37400 27.76100
C  7.56000 6.26500 28.62600
C  6.80900 7.28000 27.86100
C  6.77600 6.86800 26.47900
C  7.59500 5.57500 26.53300
C  6.10300 8.42000 28.67300
C  6.13600 7.52700 25.24200
O  6.14900 7.07700 24.09900
C  5.51000 8.90300 25.36700
N  9.42700 3.05700 26.21400
C  8.74800 3.65500 25.30000
C  8.60400 2.74900 24.08400
C  9.72100 1.73300 24.28800
C  9.97400 1.93000 25.70900
C  7.18200 2.05600 23.91900
C  11.07100 1.85600 23.52800
C  11.42000 0.67700 22.65400
N  10.37500 2.16100 28.65200
C  10.93800 1.21700 27.86200
C  11.69900 0.31100 28.62500
C  11.68800 0.84000 29.90500
C  10.79600 1.91600 29.86800
C  12.37400 -0.87200 28.08100
C  12.14900 0.61000 31.18600
O  12.97100 -0.17800 31.60200
C  11.57200 1.74900 32.07800
C  10.91500 1.07600 33.28000
O  9.89100 0.41100 33.27200
O  11.67400 1.18300 34.41000
C  11.03300 0.63000 35.60200
H  7.39900 7.03000 30.62900
H  7.37800 5.03400 24.46800
H  10.99500 0.19200 25.83000
H  9.11200 3.71500 33.41200
H  9.11100 6.52300 32.39500
H  7.60400 5.83500 34.06700
H  6.88100 4.45500 33.09000
H  6.54400 6.16600 32.66500
H  11.60000 5.32500 32.68300
H  11.55700 3.92500 33.67200
H  9.75100 5.85700 34.73600
H  11.31300 6.67300 34.36700
H  5.82300 8.27800 29.71700
H  5.06900 8.52500 28.34500
H  6.68900 9.33900 28.66300
H  5.03500 9.36500 24.50200
H  6.20800 9.60600 25.82200
H  4.65100 8.86900 26.03700
H  8.76200 3.38700 23.21400
H  9.35300 0.72000 24.12600
H  7.35200 0.99400 23.73700
H  6.57600 2.52100 23.14200
H  6.63700 2.08400 24.86200
H  11.87700 2.02100 24.24300
H  11.16900 2.72300 22.87400
H  11.59800 1.06900 21.65300
H  10.63500 -0.07700 22.70200
H  12.30700 0.19800 23.07100
H  12.58800 -0.80700 27.01400
H  11.73300 -1.71500 28.33800
H  13.35900 -1.06500 28.50500
H  12.36200 2.43700 32.37800
H  11.57000 0.99000 36.47900
H  11.06900 -0.45600 35.52200
H  10.00300 0.96600 35.72300

