158

Mg 8.04900 2.92700 27.68900
C  9.48200 1.30400 30.54600
C  6.42100 4.92800 29.85200
C  6.73300 4.28100 25.04800
C  9.86000 0.59300 25.73000
N  7.88700 3.04800 30.00200
C  8.67600 2.36200 30.94600
C  8.46300 2.93200 32.34800
C  7.37400 4.03100 32.11000
C  7.14000 3.94500 30.55900
C  6.07400 3.78600 32.85600
C  9.81900 3.35300 33.09300
C  9.59900 4.35400 34.28900
H  10.49100 4.38600 35.51800
N  6.66700 4.34700 27.48300
C  6.11300 5.06800 28.45300
C  5.35400 6.20600 27.88400
C  5.46100 6.00500 26.48000
C  6.25800 4.78200 26.24400
C  4.62500 7.26800 28.68200
C  4.92100 6.98900 25.44100
O  5.13000 6.83000 24.23500
C  3.97000 8.23800 25.76800
N  8.10200 2.29300 25.69800
C  7.60200 3.14300 24.79000
C  7.98000 2.85000 23.38000
C  8.99200 1.72400 23.55800
C  9.01200 1.53200 25.06500
C  6.71900 2.44500 22.61900
C  10.36900 1.93900 22.94000
C  10.99700 0.68300 22.24200
N  9.27900 1.19500 28.04400
C  10.01100 0.37200 27.14900
C  10.90700 -0.50400 27.81600
C  10.63100 -0.15300 29.15200
C  9.69500 0.88900 29.24400
C  11.97800 -1.34100 27.21600
C  11.04900 -0.55100 30.45900
O  11.84300 -1.39400 30.91100
C  10.29100 0.46200 31.37000
C  9.58300 -0.32400 32.43100
O  8.49500 -0.85800 32.24300
O  10.41000 -0.45300 33.55000
C  9.72700 -1.07800 34.68400
H  6.00600 5.76600 30.41600
H  6.46100 4.87100 24.17100
H  10.50200 0.11600 24.98600
H  7.97700 2.18700 32.97900
H  7.80000 5.03200 32.17900
H  5.45500 3.03000 32.37400
H  5.49700 4.71000 32.81900
H  6.22300 3.36800 33.85200
H  10.42000 3.83400 32.32100
H  10.43400 2.59200 33.57400
H  8.54600 4.31600 34.56600
H  9.71100 5.32400 33.80500
H  5.08300 8.24700 28.54500
H  4.46900 7.15700 29.75500
H  3.62500 7.23400 28.24800
H  4.46500 8.92200 26.45700
H  3.03500 7.86600 26.18600
H  3.80100 8.82900 24.86800
H  8.44100 3.72200 22.91600
H  8.53700 0.76700 23.30400
H  5.79000 2.71400 23.12200
H  6.70100 1.42800 22.22500
H  6.63600 3.06100 21.72400
H  11.05300 2.27400 23.72100
H  10.41700 2.75200 22.21500
H  11.15800 0.82000 21.17300
H  10.34900 -0.16400 22.46900
H  12.00400 0.49700 22.61500
H  12.81400 -1.23200 27.90700
H  12.23200 -1.01800 26.20700
H  11.59200 -2.36000 27.19600
H  11.00900 1.08800 31.89900
H  9.08100 -1.91400 34.41300
H  9.14700 -0.31800 35.20700
H  10.53800 -1.54000 35.24700
Mg 54.52400 24.10300 45.33900
C  52.21700 26.37100 43.96300
C  52.94800 21.68400 43.32300
C  57.24500 22.23600 45.52300
C  56.20200 26.87600 46.67100
N  52.87800 24.10300 43.62800
C  52.03300 25.10000 43.34200
C  50.86000 24.62100 42.43400
C  50.93200 23.10400 42.64100
C  52.36500 22.93800 43.29900
C  49.84900 22.52100 43.61400
C  51.24100 25.04300 40.95700
C  50.12300 24.83600 39.95400
H  50.35000 25.21300 38.47600
N  54.99900 22.13600 44.61100
C  54.17200 21.28700 43.93200
C  54.82900 19.99200 43.75600
C  56.12600 20.12500 44.39500
C  56.14600 21.54600 44.92300
C  54.18800 18.88000 42.97300
C  57.19700 19.09800 44.48500
O  57.06800 18.07700 43.78500
C  58.38000 19.14400 45.29200
N  56.52900 24.52500 45.82400
C  57.45400 23.56000 45.91100
C  58.79800 24.17400 46.40900
C  58.39200 25.63000 46.81700
C  56.93400 25.76300 46.44500
C  59.33700 23.34600 47.60400
C  59.29900 26.84600 46.40500
C  60.70200 26.61600 45.91600
N  54.20500 26.17600 45.50200
C  54.94900 27.16200 46.16100
C  54.17500 28.33800 46.29600
C  53.11600 28.04900 45.41600
C  53.18700 26.76600 44.90200
C  54.63500 29.52700 47.00500
C  51.95800 28.60700 44.95300
O  51.37600 29.64400 45.30000
C  51.28100 27.54900 43.93200
C  50.83400 28.13300 42.70300
O  51.60400 28.62200 41.84500
O  49.49600 27.93100 42.56600
C  48.89200 28.42800 41.32400
H  52.35900 20.85500 42.92400
H  58.07900 21.53100 45.53400
H  56.61400 27.62800 47.34700
H  49.88700 25.06200 42.65400
H  50.86300 22.54400 41.70800
H  50.36900 21.93700 44.37400
H  49.15400 21.96600 42.98400
H  49.25600 23.27900 44.12700
H  52.16000 24.51900 40.69400
H  51.50600 26.10000 40.94400
H  49.21600 25.32500 40.30900
H  49.93800 23.76200 39.93700
H  54.49800 18.92100 41.92800
H  53.13500 19.12900 43.10900
H  54.36600 17.91700 43.45100
H  58.85100 18.16300 45.36300
H  58.00700 19.41400 46.28000
H  59.00500 19.92600 44.86100
H  59.51400 24.13500 45.58800
H  58.36100 25.64000 47.90700
H  59.70300 23.97700 48.41400
H  60.16600 22.73100 47.25400
H  58.51600 22.74300 47.99100
H  59.30200 27.66100 47.12900
H  58.80100 27.25800 45.52700
H  61.25500 27.36000 46.48900
H  60.81500 26.80300 44.84800
H  61.05800 25.62100 46.18300
H  55.17100 30.26600 46.40900
H  55.20400 29.27700 47.90000
H  53.76400 30.08200 47.35200
H  50.38400 27.19400 44.44100
H  48.79600 29.51200 41.37600
H  47.90800 27.96900 41.22800
H  49.59900 28.16400 40.53700

