158

Mg -1.30900 17.67800 27.20900
C  -2.04200 15.44800 29.91400
C  -2.08800 20.30700 29.23400
C  -1.20000 19.68200 24.52100
C  -1.12200 14.80200 25.18300
N  -1.99000 17.84300 29.35300
C  -2.09000 16.83400 30.28300
C  -2.30300 17.43400 31.63000
C  -2.54800 18.96100 31.44300
C  -2.17100 19.06700 29.86700
C  -3.94300 19.54100 31.78300
C  -1.17700 17.11400 32.67100
C  -1.55800 16.60500 34.07600
H  -0.39200 16.74200 35.09200
N  -1.53600 19.73000 26.91900
C  -1.74800 20.62100 27.89500
C  -1.79900 21.97900 27.33500
C  -1.44200 21.84800 25.98300
C  -1.41300 20.34300 25.73800
C  -2.17200 23.23900 28.05800
C  -1.32200 22.85500 24.82700
O  -1.01100 22.62000 23.64200
C  -1.46400 24.31100 25.19800
N  -1.09600 17.33700 25.17000
C  -1.06500 18.29400 24.26600
C  -0.81400 17.77900 22.83600
C  -0.47800 16.28200 23.15000
C  -0.87500 16.10800 24.59100
C  -2.02400 18.01200 21.90500
C  1.01900 15.85600 22.84200
C  1.98900 16.55800 23.75800
N  -1.52900 15.60500 27.45100
C  -1.50800 14.55700 26.52900
C  -1.77000 13.28100 27.16200
C  -2.01200 13.61100 28.47500
C  -1.89100 15.04600 28.59300
C  -1.78700 11.96200 26.42300
C  -2.33600 13.05600 29.71700
O  -2.46300 11.82000 29.98800
C  -2.52700 14.25400 30.68200
C  -1.61100 13.88500 31.86600
O  -0.35500 13.86700 31.88500
O  -2.36200 13.37600 32.83900
C  -1.61300 12.39300 33.71500
H  -2.17400 21.13300 29.94300
H  -1.19200 20.36100 23.66500
H  -1.06500 13.97600 24.47100
H  -3.21400 17.04400 32.08400
H  -1.86100 19.52500 32.07400
H  -4.70900 18.82300 32.07500
H  -4.27400 19.96100 30.83300
H  -3.79300 20.28200 32.56800
H  -0.48500 17.93600 32.85500
H  -0.55000 16.41700 32.11500
H  -1.82700 15.54900 34.04700
H  -2.37500 17.29400 34.28600
H  -1.18900 23.66100 28.26400
H  -2.80500 23.04500 28.92400
H  -2.73100 23.95700 27.45700
H  -2.51100 24.60800 25.26000
H  -1.08500 24.95300 24.40300
H  -0.85900 24.32100 26.10500
H  -0.04900 18.47400 22.48800
H  -1.11300 15.57100 22.62200
H  -1.65800 17.95900 20.87900
H  -2.44200 18.98400 22.16300
H  -2.70800 17.16300 21.90600
H  1.15100 16.16900 21.80700
H  1.15200 14.78000 22.95500
H  1.53800 17.06200 24.61300
H  2.49300 17.29300 23.13100
H  2.76000 15.90400 24.16400
H  -0.86500 11.41500 26.61800
H  -1.93400 12.25300 25.38300
H  -2.67400 11.37500 26.65900
H  -3.60400 14.31700 30.83600
H  -1.28600 11.49200 33.19600
H  -2.26500 11.94300 34.46400
H  -0.75400 12.84700 34.20800
Mg 45.10500 4.11000 48.78700
C  43.54700 7.05200 47.89900
C  42.32000 2.36500 48.13500
C  46.97500 1.40900 48.65500
C  48.25400 6.10400 48.97400
N  43.11900 4.71400 48.26800
C  42.68600 5.96200 47.88000
C  41.18300 5.96200 47.69600
C  40.78400 4.48300 47.71800
C  42.13100 3.79600 48.07200
C  39.56700 4.07800 48.59500
C  40.61000 6.84000 46.59300
C  39.23700 6.59500 46.01400
H  38.97200 6.49900 44.45300
N  44.71200 2.10100 48.62400
C  43.44500 1.57100 48.29400
C  43.56800 0.15700 48.02300
C  44.94700 -0.19300 48.07300
C  45.59600 1.15300 48.44300
C  42.32700 -0.65300 47.69300
C  45.52200 -1.51800 47.84300
O  44.82300 -2.45900 47.53500
C  46.93800 -1.84000 48.05300
N  47.28300 3.87000 48.94500
C  47.76200 2.53400 48.89800
C  49.28200 2.48300 49.10900
C  49.68300 4.02200 49.26300
C  48.33300 4.73000 49.02700
C  49.75400 1.45400 50.21100
C  50.99700 4.52100 48.54900
C  51.93400 5.39200 49.45800
N  45.77400 6.18400 48.59000
C  47.06500 6.82200 48.69300
C  46.88100 8.22400 48.46200
C  45.53800 8.36500 48.19400
C  44.90300 7.04300 48.22900
C  48.00200 9.25700 48.50900
C  44.54200 9.25800 47.85500
O  44.53800 10.47700 47.72400
C  43.25000 8.46300 47.71000
C  42.17900 8.96100 48.71400
O  41.76100 8.34600 49.70100
O  41.59800 10.04400 48.12500
C  40.30600 10.40100 48.74300
H  41.39000 1.87400 47.84300
H  47.58600 0.50400 48.67500
H  49.17900 6.67400 48.86200
H  40.73800 6.31600 48.62500
H  40.53000 4.09700 46.73100
H  38.79000 3.58800 48.00900
H  38.95800 4.93500 48.88100
H  39.92300 3.59600 49.50600
H  41.33900 6.65700 45.80400
H  40.61300 7.91600 46.76400
H  38.70800 7.50400 46.29900
H  38.82700 5.75000 46.56900
H  42.54200 -1.23800 46.79800
H  41.38200 -0.13200 47.54000
H  42.14200 -1.40000 48.46500
H  47.22000 -1.65200 49.08900
H  47.51100 -1.45500 47.20900
H  46.99800 -2.91900 47.91300
H  49.77300 2.14000 48.19800
H  49.77800 4.24200 50.32600
H  50.17500 2.02200 51.04100
H  50.66800 0.92500 49.94300
H  48.89900 0.92400 50.63100
H  50.68000 5.21800 47.77300
H  51.55400 3.68700 48.12200
H  51.98400 6.36000 48.95700
H  52.89800 4.88900 49.53400
H  51.56300 5.58400 50.46500
H  48.38400 9.51100 47.52100
H  48.73900 8.82200 49.18400
H  47.55700 10.08800 49.05700
H  42.91500 8.72600 46.70700
H  39.79700 10.96300 47.96000
H  40.36000 10.94400 49.68700
H  39.68500 9.52400 48.92300

