158

Mg 17.56300 -1.15000 28.12200
C  15.88700 0.73200 30.72700
C  19.28600 -2.71200 30.63000
C  19.08000 -2.80900 25.69300
C  15.65600 0.68200 25.86500
N  17.54500 -0.99500 30.43600
C  16.87300 -0.14000 31.26400
C  17.19600 -0.33000 32.75600
C  18.39500 -1.36100 32.66200
C  18.50800 -1.69900 31.15800
C  19.71700 -0.88100 33.37300
C  15.93400 -0.85000 33.57100
C  16.00400 -0.60800 35.05200
H  17.35700 -0.21000 35.76300
N  19.01500 -2.56100 28.16200
C  19.48500 -3.14000 29.26300
C  20.28300 -4.29500 28.85300
C  20.28800 -4.31400 27.43900
C  19.45800 -3.17800 27.01000
C  20.90200 -5.31200 29.85600
C  20.99700 -5.23200 26.48200
O  20.74700 -5.12500 25.28700
C  21.95900 -6.21800 27.04600
N  17.55200 -0.97100 26.11800
C  18.18500 -1.80600 25.25900
C  17.83500 -1.48100 23.78600
C  16.71100 -0.45300 23.95200
C  16.56100 -0.26000 25.47100
C  19.01500 -0.98700 22.95400
C  15.40600 -0.97600 23.17200
C  14.34000 -1.81000 23.96700
N  16.00600 0.42200 28.20400
C  15.29400 1.02100 27.19700
C  14.37400 2.01700 27.65200
C  14.54800 1.96000 29.06300
C  15.52500 0.93600 29.34900
C  13.58800 2.93900 26.71400
C  14.17700 2.48500 30.32700
O  13.37300 3.36300 30.51000
C  15.03200 1.83200 31.46500
C  15.78200 2.94100 32.23300
O  16.82700 3.48500 31.92000
O  15.12700 3.04400 33.50300
C  15.69500 4.07500 34.40400
H  19.80600 -3.27000 31.41100
H  19.43900 -3.27800 24.77400
H  15.09300 1.24000 25.11400
H  17.56700 0.63000 33.11400
H  18.03200 -2.28200 33.11700
H  19.69200 -1.15600 34.42700
H  19.78300 0.20500 33.43700
H  20.62900 -1.25800 32.91000
H  15.76100 -1.92400 33.50200
H  15.07400 -0.27800 33.22200
H  15.64800 -1.45800 35.63400
H  15.35500 0.24600 35.24900
H  20.35400 -5.17600 30.78800
H  21.92100 -4.97200 30.04400
H  20.84600 -6.36200 29.56900
H  22.54000 -6.58200 26.19800
H  21.40100 -7.10200 27.35500
H  22.68600 -5.83700 27.76200
H  17.44500 -2.40800 23.36400
H  16.92300 0.55300 23.59000
H  19.44100 -0.08300 23.38800
H  18.61300 -0.79400 21.95900
H  19.82000 -1.72100 22.91400
H  15.59700 -1.50400 22.23700
H  14.88200 -0.09600 22.79900
H  13.92900 -2.66300 23.42700
H  13.51700 -1.20300 24.34400
H  14.82100 -2.34000 24.78900
H  14.20200 3.67400 26.19400
H  12.83100 3.38600 27.35800
H  13.15800 2.19700 26.04100
H  14.22100 1.33100 31.99400
H  14.87000 4.74900 34.63600
H  16.44000 4.71900 33.93700
H  16.03200 3.59000 35.32000
Mg -5.68600 24.26200 25.54900
C  -4.23000 26.03800 28.18700
C  -7.54600 22.47300 27.83700
C  -6.79700 22.39000 22.97200
C  -3.85400 26.24900 23.28600
N  -5.78100 24.26900 27.70300
C  -5.15700 25.08800 28.59900
C  -5.64400 24.79900 30.12900
C  -6.20500 23.31000 29.94600
C  -6.56100 23.35300 28.40000
C  -5.25900 22.14100 30.33000
C  -6.71300 25.83700 30.58500
C  -6.58400 26.41500 31.95300
H  -5.92800 25.50400 32.98600
N  -7.05400 22.66300 25.43000
C  -7.78600 22.08200 26.48500
C  -8.63800 21.02200 25.96500
C  -8.54800 21.11500 24.52900
C  -7.45300 22.05900 24.25100
C  -9.44800 20.24800 26.87600
C  -9.32200 20.42800 23.39100
O  -9.14700 20.64400 22.20400
C  -10.46400 19.43300 23.72900
N  -5.42300 24.33900 23.49200
C  -5.99700 23.39700 22.66000
C  -5.55200 23.68300 21.14100
C  -5.10800 25.09300 21.29700
C  -4.70800 25.22100 22.75700
C  -4.43500 22.71000 20.68000
C  -6.07600 26.23700 20.92300
C  -5.50000 27.16400 19.87100
N  -4.30000 25.87200 25.64100
C  -3.67900 26.56900 24.66800
C  -2.70100 27.47300 25.31300
C  -2.91300 27.33700 26.65800
C  -3.88500 26.31400 26.85400
C  -1.68900 28.25300 24.53000
C  -2.53700 27.90900 28.00900
O  -1.90400 28.86600 28.37200
C  -3.42400 27.01500 29.06500
C  -2.46900 26.32900 29.95900
O  -1.88700 25.27400 29.69200
O  -2.30500 27.08300 31.13300
C  -1.36900 26.56100 32.16300
H  -8.10500 21.91900 28.59400
H  -7.08500 21.85400 22.06500
H  -3.25600 26.82400 22.57600
H  -4.82800 24.75200 30.85000
H  -7.18200 23.13300 30.39600
H  -4.30000 22.48900 30.71500
H  -5.04200 21.61800 29.39900
H  -5.82300 21.52300 31.02900
H  -7.74200 25.49700 30.47300
H  -6.60900 26.69300 29.91800
H  -7.63700 26.50200 32.22200
H  -6.02000 27.34700 31.90400
H  -9.11700 19.23300 27.09700
H  -10.49600 20.16900 26.59000
H  -9.46300 20.70100 27.86700
H  -11.28300 20.01500 24.15000
H  -9.95700 18.72100 24.38000
H  -10.81300 18.92900 22.82800
H  -6.47800 23.56400 20.58000
H  -4.19700 25.30400 20.73600
H  -4.88900 22.33600 19.76200
H  -4.21400 21.94900 21.42800
H  -3.48200 23.18100 20.43700
H  -6.35500 26.81800 21.80200
H  -7.02600 25.78200 20.64300
H  -4.70900 27.75600 20.33300
H  -6.25000 27.88600 19.54900
H  -5.07400 26.76900 18.94900
H  -0.93400 27.62800 24.05300
H  -1.20000 28.88600 25.27100
H  -2.12000 28.92800 23.79000
H  -4.00800 27.61000 29.76700
H  -1.78000 26.81700 33.13900
H  -0.40900 27.05700 32.02100
H  -1.19300 25.49800 31.99700

