158

Mg 36.50300 49.48900 25.05200
C  36.73500 47.73000 28.20000
C  35.63100 52.35600 26.83100
C  36.41000 51.16300 22.20200
C  37.24700 46.45900 23.49900
N  36.20100 49.88700 27.21400
C  36.52100 49.10900 28.31100
C  36.41100 49.90500 29.63200
C  35.85000 51.29500 29.19600
C  35.81100 51.19500 27.60900
C  34.51000 51.74000 29.89700
C  37.81400 50.05400 30.25300
C  38.04300 50.17800 31.83700
H  36.76300 50.40100 32.67100
N  36.02900 51.52500 24.58500
C  35.63700 52.50800 25.41100
C  35.49200 53.75400 24.66800
C  35.67400 53.41600 23.23800
C  35.98900 51.97800 23.31400
C  34.99200 55.01200 25.27400
C  35.56200 54.26900 22.01300
O  35.69000 53.83400 20.82800
C  35.38500 55.67900 22.27600
N  36.60800 48.87400 23.10700
C  36.65200 49.81000 22.07700
C  37.11600 49.13500 20.75200
C  37.60000 47.64700 21.24300
C  37.14300 47.62700 22.70700
C  36.04400 49.13500 19.57200
C  39.14300 47.48000 21.09000
C  39.55700 46.04100 20.69100
N  36.75600 47.50900 25.62400
C  37.06900 46.40200 24.86000
C  37.14500 45.26400 25.70600
C  37.01500 45.78600 27.01000
C  36.76900 47.13900 26.93500
C  37.60200 43.96700 25.35200
C  37.12100 45.37200 28.39200
O  37.46500 44.36300 28.94000
C  36.84700 46.65900 29.23400
C  35.63500 46.37300 30.11300
O  34.65900 45.85200 29.62500
O  35.94200 46.69300 31.40500
C  34.78000 46.39500 32.29400
H  35.48900 53.24100 27.45400
H  36.33600 51.65600 21.23000
H  37.51100 45.55200 22.95100
H  35.68300 49.47800 30.32300
H  36.50700 52.15000 29.35400
H  34.67400 52.61600 30.52500
H  34.13200 51.05600 30.65600
H  33.66500 51.94400 29.23900
H  38.34300 50.86600 29.75400
H  38.37500 49.17100 29.94600
H  38.70600 51.04200 31.88000
H  38.56000 49.31500 32.25700
H  35.67900 55.82400 25.03300
H  35.13200 55.09300 26.35300
H  33.96900 55.35800 25.13000
H  36.13300 56.06100 22.97100
H  34.35100 55.95700 22.47800
H  35.63500 56.14800 21.32500
H  37.96800 49.73600 20.43500
H  36.95100 46.95900 20.70000
H  35.07800 49.12900 20.07600
H  36.09700 48.32400 18.84600
H  36.22500 50.08800 19.07500
H  39.71300 47.44600 22.01900
H  39.63800 48.21900 20.46000
H  38.68100 45.39300 20.71800
H  40.28200 45.61200 21.38300
H  40.05500 46.09500 19.72300
H  38.42200 43.65200 25.99600
H  37.80600 43.81400 24.29300
H  36.72000 43.34700 25.51200
H  37.70900 46.90400 29.85500
H  34.55800 45.33300 32.19400
H  33.94700 47.06900 32.09400
H  34.99600 46.46800 33.36000
Mg -9.66500 18.14900 42.74100
C  -6.25200 17.28000 42.69400
C  -8.81100 21.33900 41.85200
C  -12.92800 18.78600 42.52200
C  -10.26700 14.66600 43.05400
N  -7.62900 19.15400 42.25700
C  -6.39000 18.63100 42.48600
C  -5.38700 19.70600 42.29000
C  -6.25700 20.99900 42.10000
C  -7.69000 20.51700 42.09900
C  -6.01200 22.22700 42.99700
C  -4.24200 19.44700 41.24400
C  -4.69100 18.69000 39.95100
H  -4.10000 19.16400 38.60400
N  -10.73000 19.89800 42.27400
C  -10.20000 21.09500 41.96000
C  -11.27000 22.04900 41.74700
C  -12.50300 21.33600 41.91500
C  -12.08200 19.93600 42.25600
C  -11.05700 23.40000 41.21100
C  -13.89600 21.84100 41.68100
O  -14.11800 23.06000 41.56100
C  -15.02600 20.94000 41.55600
N  -11.33000 16.89000 42.37900
C  -12.55900 17.40200 42.61000
C  -13.64600 16.31000 42.95200
C  -12.72200 15.02000 42.92500
C  -11.33900 15.52000 42.74800
C  -14.32500 16.54100 44.33200
C  -12.99000 14.03400 41.72500
C  -13.80100 12.72900 42.12500
N  -8.51200 16.23900 42.96600
C  -8.90700 14.98600 43.03000
C  -7.83300 14.08300 43.19800
C  -6.72600 14.95400 43.13300
C  -7.18800 16.25400 42.85500
C  -7.90100 12.55500 43.29300
C  -5.29600 15.00200 43.14200
O  -4.44600 14.13900 43.17800
C  -4.90900 16.47000 42.88200
C  -4.07900 16.95600 43.95000
O  -2.91700 17.19800 43.88300
O  -4.85500 17.26900 45.05800
C  -4.20500 18.04600 46.11000
H  -8.48200 22.33600 41.55200
H  -14.00200 18.81200 42.71800
H  -10.58900 13.65400 43.30500
H  -4.95500 19.79400 43.28700
H  -6.06200 21.29300 41.06900
H  -6.94000 22.67200 43.35700
H  -5.74500 23.01700 42.29600
H  -5.31000 22.08400 43.81800
H  -3.42200 18.88600 41.69400
H  -3.73800 20.38500 41.01200
H  -5.76400 18.87400 39.91800
H  -4.51400 17.61700 40.02400
H  -10.99300 24.09200 42.05000
H  -11.87700 23.75400 40.58600
H  -10.19300 23.53900 40.56100
H  -14.86400 20.09100 40.89200
H  -15.89600 21.42700 41.11700
H  -15.27900 20.70700 42.59100
H  -14.48400 16.35000 42.25600
H  -12.84500 14.45700 43.85100
H  -14.04700 15.81300 45.09300
H  -15.41200 16.54800 44.25600
H  -14.21600 17.53100 44.77600
H  -12.10400 13.78700 41.13900
H  -13.70800 14.60100 41.13200
H  -14.73500 12.79100 41.56700
H  -14.12100 12.72700 43.16700
H  -13.15900 11.85800 41.99500
H  -7.37900 12.14200 42.43000
H  -8.94000 12.22900 43.34900
H  -7.49400 12.23200 44.25100
H  -4.39200 16.53100 41.92400
H  -3.19400 18.32400 45.81100
H  -4.09400 17.51300 47.05400
H  -4.68700 19.00900 46.28200

