158

Mg 1.64800 -1.99300 45.28200
C  5.12200 -1.02100 45.22600
C  1.01600 0.84100 43.41500
C  -1.50700 -2.95200 45.19100
C  2.63800 -4.98000 46.51900
N  2.97400 -0.23700 44.51300
C  4.31400 -0.12300 44.52200
C  4.79100 1.10300 43.69200
C  3.44600 1.94500 43.55200
C  2.41200 0.80400 43.78000
C  3.23100 3.25800 44.42600
C  5.41900 0.71200 42.34800
C  6.38300 1.74600 41.80200
H  6.24500 2.04800 40.32500
N  -0.04800 -1.13400 44.40400
C  -0.06800 -0.00400 43.60200
C  -1.38300 0.22000 43.18400
C  -2.19500 -0.76400 43.84600
C  -1.24100 -1.68300 44.58400
C  -1.80100 1.34900 42.27300
C  -3.72000 -0.90300 43.70200
O  -4.31100 -0.13600 42.95700
C  -4.62000 -1.82400 44.57900
N  0.73400 -3.76000 45.80800
C  -0.63200 -3.91300 45.67500
C  -1.05700 -5.34400 46.09900
C  0.27300 -5.93500 46.58900
C  1.27800 -4.83700 46.27200
C  -2.30900 -5.40400 47.06500
C  0.66200 -7.35300 45.93300
C  0.93100 -8.50700 46.93800
N  3.51200 -2.92500 45.79900
C  3.72200 -4.08300 46.40100
C  5.16300 -4.21100 46.65700
C  5.80600 -3.05300 46.24300
C  4.69000 -2.27700 45.66800
C  5.81600 -5.41800 47.30000
C  7.02600 -2.28100 46.06400
O  8.18700 -2.57300 46.30100
C  6.63600 -0.95900 45.44200
C  6.93400 0.08800 46.49300
O  6.80300 -0.04700 47.69800
O  7.31200 1.25100 45.90100
C  7.80600 2.29000 46.80700
H  0.79900 1.79000 42.91900
H  -2.54300 -3.23400 45.38800
H  2.95000 -5.96000 46.88400
H  5.50400 1.64900 44.31000
H  3.30200 2.31700 42.53800
H  4.20200 3.56500 44.81500
H  2.46900 3.13700 45.19600
H  2.98200 4.11500 43.80100
H  4.55900 0.38700 41.76200
H  5.96200 -0.22100 42.49600
H  7.42800 1.59100 42.07300
H  6.14500 2.66300 42.34100
H  -0.98100 2.02500 42.03100
H  -2.53900 1.89900 42.85800
H  -2.36300 1.00600 41.40400
H  -4.14800 -1.87500 45.56000
H  -4.72000 -2.74400 44.00200
H  -5.67400 -1.55200 44.52900
H  -1.40500 -5.85000 45.19800
H  0.27300 -6.08000 47.66900
H  -1.99000 -5.83100 48.01600
H  -3.02600 -6.12200 46.66500
H  -2.88700 -4.49800 47.24900
H  1.50700 -7.23200 45.25400
H  -0.31500 -7.62800 45.53500
H  0.61000 -8.26800 47.95200
H  1.99200 -8.74000 47.02400
H  0.31800 -9.38300 46.72300
H  5.32700 -6.35900 47.04600
H  6.08700 -5.30500 48.35000
H  6.70400 -5.49400 46.67400
H  7.20400 -0.97500 44.51100
H  8.85800 2.55200 46.69700
H  7.65700 2.22400 47.88500
H  7.33900 3.20600 46.44500
Mg 54.32500 25.33700 44.10200
C  51.57200 27.63800 43.61700
C  52.45600 22.85300 42.96400
C  57.17700 23.57900 43.81200
C  56.28400 28.30600 44.74200
N  52.29400 25.33300 43.05000
C  51.28500 26.29300 43.16100
C  49.89900 25.69100 42.78100
C  50.26600 24.12600 42.93400
C  51.73600 24.06900 42.98300
C  49.65600 23.43200 44.09200
C  49.44600 26.07900 41.37300
C  50.59100 26.38200 40.28400
H  50.14500 26.58400 38.87700
N  54.81100 23.43800 43.64700
C  53.87800 22.58500 43.16100
C  54.57300 21.32500 42.87200
C  55.91000 21.47200 43.33400
C  56.01300 22.85900 43.54400
C  53.85100 20.08700 42.33000
C  56.95200 20.38100 43.40200
O  56.55200 19.20600 43.24700
C  58.39800 20.60400 43.77800
N  56.42700 25.89400 44.20300
C  57.41700 24.90800 44.14700
C  58.82900 25.55800 44.39500
C  58.52600 27.03100 44.75100
C  56.99800 27.12900 44.66500
C  59.67900 24.77300 45.46200
C  59.19100 27.92100 43.68000
C  59.95800 29.13300 44.22500
N  54.06200 27.52200 44.28500
C  54.90300 28.52700 44.67200
C  54.22100 29.77600 44.87600
C  52.98200 29.43000 44.43200
C  52.87100 28.06100 44.09100
C  54.69800 31.11000 45.21800
C  51.68800 30.05500 44.24700
O  51.33700 31.22600 44.36700
C  50.81700 28.94200 43.54200
C  50.58400 29.43600 42.19000
O  51.45100 29.95800 41.51500
O  49.24500 29.51300 42.00400
C  48.79700 29.97800 40.69400
H  51.86500 21.98300 42.67000
H  58.15500 23.09500 43.76100
H  56.93400 29.09300 45.13000
H  49.16300 26.10400 43.47100
H  50.03800 23.46800 42.09500
H  49.79300 22.35300 44.15900
H  48.58200 23.57500 44.21000
H  50.05600 23.79300 45.04000
H  49.07200 27.08700 41.55000
H  48.73300 25.33600 41.01400
H  51.27600 25.53800 40.36500
H  51.08600 27.29500 40.61500
H  53.60100 19.39300 43.13200
H  54.55800 19.57900 41.67400
H  53.00800 20.29200 41.67000
H  58.90400 19.63900 43.73500
H  58.44900 20.94900 44.81100
H  58.80500 21.17200 42.94200
H  59.27100 25.42400 43.40800
H  58.75700 27.22800 45.79700
H  60.47900 24.17900 45.02000
H  59.18000 23.90100 45.88700
H  60.12500 25.53800 46.09600
H  58.60200 28.41700 42.90900
H  59.86400 27.30200 43.08700
H  59.76700 30.02700 43.63200
H  61.03600 28.96800 44.20900
H  59.74900 29.15800 45.29400
H  55.77000 31.29200 45.14800
H  54.32200 31.47000 46.17500
H  54.24800 31.79300 44.49800
H  49.90400 28.85900 44.13000
H  49.65300 30.14100 40.03900
H  48.13600 30.84400 40.67500
H  48.27000 29.13900 40.24000

