158

Mg -2.21000 17.01200 26.14300
C  -2.65000 14.91200 28.88600
C  -2.60200 19.72400 28.24200
C  -1.90100 19.08000 23.55800
C  -2.03500 14.23400 24.01700
N  -2.59900 17.27400 28.35200
C  -2.69500 16.24300 29.27700
C  -2.87700 16.79700 30.69000
C  -3.02100 18.30000 30.41500
C  -2.70500 18.45900 28.90700
C  -4.43200 18.84600 30.74000
C  -1.68700 16.56800 31.69300
C  -1.63800 17.27900 33.00700
H  -1.06100 16.44200 34.12500
N  -2.41000 19.08900 25.91100
C  -2.38600 20.00500 26.90800
C  -2.35600 21.29900 26.27400
C  -2.25700 21.18400 24.90100
C  -2.14200 19.73100 24.75900
C  -2.44400 22.60800 27.03900
C  -2.15900 22.15300 23.76400
O  -2.08600 21.71500 22.65300
C  -2.12700 23.70900 23.96500
N  -2.06100 16.73800 24.02500
C  -1.84900 17.73900 23.21200
C  -1.48700 17.21600 21.74700
C  -1.30400 15.64600 22.01400
C  -1.83600 15.52000 23.46400
C  -2.57500 17.48200 20.65400
C  0.11900 15.18300 22.03900
C  0.74100 15.39500 20.63400
N  -2.26000 14.96100 26.34400
C  -2.29400 13.97700 25.39500
C  -2.48900 12.71700 26.05000
C  -2.59300 13.07200 27.41000
C  -2.48900 14.42700 27.53900
C  -2.56200 11.41000 25.40800
C  -2.68000 12.50600 28.68700
O  -2.72100 11.31600 29.08200
C  -2.82800 13.68000 29.70900
C  -1.79700 13.43300 30.73100
O  -0.57900 13.58500 30.60500
O  -2.39800 12.86300 31.82400
C  -1.45200 12.28900 32.85400
H  -2.68100 20.54800 28.95300
H  -1.83500 19.61300 22.60800
H  -2.00000 13.43400 23.27400
H  -3.79600 16.44000 31.15500
H  -2.29100 18.90500 30.95300
H  -4.34900 19.45500 31.64000
H  -5.20600 18.09400 30.89100
H  -4.86800 19.34200 29.87300
H  -0.80600 16.74400 31.07600
H  -1.77600 15.49300 31.84900
H  -2.66500 17.58300 33.21100
H  -0.94200 18.11600 32.95400
H  -3.06700 23.26600 26.43300
H  -1.45600 23.06700 27.07700
H  -2.76100 22.65300 28.08000
H  -1.43800 24.01200 24.75300
H  -3.08400 24.17700 24.19600
H  -1.74500 23.99900 22.98600
H  -0.54400 17.60700 21.36500
H  -1.86000 15.03400 21.30400
H  -2.31200 18.16200 19.84400
H  -3.41200 17.89100 21.22000
H  -2.84900 16.52000 20.22100
H  0.13100 14.12900 22.32000
H  0.70200 15.64200 22.83700
H  0.59600 16.35200 20.13200
H  0.29400 14.69400 19.92900
H  1.80700 15.17900 20.69800
H  -3.07100 11.52900 24.45200
H  -3.07900 10.67600 26.02600
H  -1.59100 10.95200 25.22300
H  -3.80100 13.59100 30.19100
H  -0.84600 11.42800 32.57000
H  -2.08100 12.09100 33.72200
H  -0.74600 13.06800 33.14100
Mg 43.83600 3.71700 47.75100
C  41.54900 6.40200 47.12300
C  41.14200 1.49300 47.15700
C  46.00700 1.13000 47.47400
C  46.37700 6.13100 47.32000
N  41.68000 3.93500 47.11000
C  40.96700 5.05600 46.99500
C  39.54500 4.81100 46.81500
C  39.38200 3.27900 46.99000
C  40.83800 2.84600 47.21500
C  38.43100 2.84600 48.19900
C  39.02200 5.26400 45.41200
C  37.67800 5.97300 45.26000
H  37.01800 5.86100 43.93300
N  43.62500 1.58900 47.53100
C  42.47200 0.93500 47.28800
C  42.74300 -0.48000 47.31500
C  44.17700 -0.63700 47.32100
C  44.67800 0.72800 47.51000
C  41.71200 -1.56200 47.24300
C  44.92700 -2.00500 47.14200
O  44.40100 -2.99100 46.70800
C  46.41700 -2.14100 47.50300
N  45.92300 3.66000 47.43000
C  46.60200 2.46000 47.51500
C  48.12300 2.66400 47.36800
C  48.26500 4.23500 47.38400
C  46.80100 4.73800 47.32000
C  48.96000 1.95300 48.46000
C  49.06700 4.87000 46.23400
C  50.63300 4.65800 46.23300
N  43.98800 5.85700 47.43700
C  45.05300 6.61300 47.30800
C  44.70500 7.94400 47.06700
C  43.29100 7.96000 47.06900
C  42.92400 6.61900 47.22400
C  45.71000 9.06000 46.85000
C  42.03600 8.77500 46.96300
O  41.92000 9.96500 46.78100
C  40.82500 7.71000 47.00100
C  39.84300 7.91000 48.06100
O  39.98300 7.63600 49.27900
O  38.62800 8.29800 47.48900
C  37.49200 7.87800 48.35900
H  40.34100 0.79200 46.91500
H  46.73100 0.32100 47.35200
H  47.24900 6.77600 47.44300
H  38.98000 5.34900 47.57600
H  39.13100 2.65100 46.13500
H  38.04200 3.75600 48.65500
H  38.96800 2.36100 49.01400
H  37.76800 2.16300 47.66800
H  39.03300 4.40600 44.74000
H  39.77400 5.94200 45.00700
H  37.80800 7.04500 45.40600
H  36.96400 5.64500 46.01500
H  42.01100 -2.50000 47.71200
H  41.71700 -1.76000 46.17100
H  40.72200 -1.29100 47.61000
H  46.82500 -1.48000 48.26800
H  46.93000 -2.09600 46.54300
H  46.61800 -3.11300 47.95200
H  48.42600 2.38100 46.36000
H  48.74300 4.66100 48.26600
H  48.26200 1.77100 49.27700
H  49.58200 2.72400 48.91600
H  49.45300 1.06100 48.07400
H  48.82300 5.92700 46.12300
H  48.63800 4.32800 45.39200
H  50.97200 4.18700 47.15500
H  51.03800 5.66900 46.19200
H  51.01300 4.08800 45.38500
H  46.53800 9.06500 47.55900
H  45.26800 10.05100 46.95100
H  46.16200 8.94200 45.86500
H  40.36600 7.81800 46.01900
H  37.29300 8.70100 49.04600
H  37.61100 6.89200 48.80800
H  36.58600 7.64100 47.80200

