158

Mg 54.21000 23.46200 44.82000
C  51.71900 25.66600 43.80600
C  52.48600 20.94200 43.40500
C  56.81200 21.39600 45.61200
C  56.12800 26.23800 45.82000
N  52.41300 23.42000 43.58600
C  51.44200 24.32800 43.39200
C  50.35200 23.79500 42.43500
C  50.36200 22.32200 42.90200
C  51.86000 22.16500 43.23400
C  49.28100 21.96700 43.99700
C  50.67700 23.90600 40.89000
C  49.72400 24.60400 39.88200
H  50.42600 25.28600 38.68000
N  54.59300 21.43900 44.46200
C  53.70400 20.59900 43.92200
C  54.23800 19.22000 43.95700
C  55.40200 19.24900 44.77500
C  55.70600 20.74000 44.96800
C  53.52500 17.98800 43.25100
C  56.23000 17.98700 45.20900
O  55.91400 16.91300 44.77900
C  57.55800 18.10200 45.89600
N  56.18300 23.79300 45.49500
C  56.96800 22.74600 45.86400
C  58.22600 23.23000 46.58800
C  58.25700 24.79000 46.34100
C  56.74100 24.98900 45.85300
C  58.25600 22.65800 48.06400
C  59.20600 25.23900 45.17400
C  59.73200 26.65100 45.38700
N  53.98500 25.50500 44.93600
C  54.80900 26.48000 45.44200
C  54.08200 27.71200 45.47100
C  52.92800 27.49800 44.75500
C  52.86000 26.09800 44.50300
C  54.59100 28.90600 46.23300
C  51.62700 27.99800 44.26400
O  51.24300 29.13600 44.27200
C  50.86300 26.88400 43.67200
C  50.40400 27.18200 42.30000
O  51.02700 27.55900 41.37800
O  49.07000 27.02300 42.22600
C  48.45600 28.02700 41.32900
H  52.00100 20.07700 42.94800
H  57.59500 20.72300 45.97100
H  56.65500 27.05500 46.31700
H  49.43700 24.34700 42.64800
H  50.00700 21.70300 42.07800
H  48.51400 22.73200 44.11900
H  49.71300 21.69000 44.95800
H  48.80800 21.04400 43.65900
H  50.92400 22.90900 40.52500
H  51.61500 24.44500 40.76100
H  49.15400 25.32600 40.46700
H  49.04600 23.86800 39.45100
H  52.97800 17.35700 43.95100
H  54.41800 17.47300 42.89600
H  52.98700 18.22400 42.33300
H  57.98100 17.09900 45.96500
H  57.31700 18.44900 46.90100
H  58.24500 18.72700 45.32500
H  59.06300 22.79000 46.04700
H  58.34600 25.28300 47.30800
H  58.65600 21.64400 48.08300
H  57.26200 22.64700 48.51200
H  58.93600 23.30200 48.62200
H  58.59300 25.27700 44.27400
H  60.02700 24.55200 44.96900
H  59.68100 26.93700 46.43800
H  59.23300 27.36500 44.73000
H  60.77500 26.68400 45.07100
H  54.75900 28.62600 47.27300
H  53.87700 29.72400 46.14700
H  55.45800 29.26000 45.67400
H  49.95200 26.72400 44.24700
H  48.86400 29.03000 41.45500
H  47.36900 27.97100 41.38300
H  48.60300 27.69200 40.30200
Mg 7.22400 53.59000 41.47500
C  7.00800 50.02100 40.89600
C  10.50500 53.44700 40.33700
C  7.01500 56.86700 40.86100
C  3.71900 53.52500 41.76400
N  8.51500 51.90100 40.54800
C  8.30000 50.57600 40.60300
C  9.56800 49.76000 40.29800
C  10.64500 50.91000 40.55200
C  9.89000 52.19900 40.45400
C  11.41700 50.73300 41.83700
C  9.55700 49.11300 38.89000
C  9.46400 50.00900 37.64500
H  8.05700 50.05400 37.03800
N  8.61200 54.98700 40.84600
C  9.89000 54.72000 40.49400
C  10.56300 56.05200 40.45300
C  9.54600 57.10200 40.54700
C  8.29200 56.35000 40.73400
C  12.04000 56.17100 40.37500
C  9.84100 58.52300 40.60600
O  10.98300 58.94700 40.41200
C  8.82700 59.60200 40.72200
N  5.48700 55.03900 41.19200
C  5.77200 56.32500 41.08100
C  4.62400 57.13300 41.60600
C  3.48700 56.12000 41.50300
C  4.22900 54.78300 41.51000
C  4.84600 57.75800 43.01800
C  2.56300 56.28400 40.17200
C  1.06400 55.87300 40.34300
N  5.72500 52.07200 41.61100
C  4.32800 52.25300 41.66500
C  3.76700 51.05000 41.69200
C  4.80400 50.10900 41.42100
C  5.96400 50.79000 41.39300
C  2.35800 50.67800 41.90000
C  5.06900 48.70500 41.27700
O  4.28500 47.71000 41.37500
C  6.51400 48.59300 40.91000
C  6.41000 48.06100 39.52500
O  6.13900 48.76100 38.59100
O  6.54300 46.74800 39.50500
C  6.46100 46.06100 38.14200
H  11.58200 53.33100 40.20600
H  7.03500 57.95800 40.89500
H  2.64500 53.36300 41.87400
H  9.53000 49.00700 41.08600
H  11.42300 50.80000 39.79600
H  12.41200 51.17900 41.83800
H  11.48900 49.72000 42.23200
H  10.95800 51.34900 42.61000
H  8.79900 48.33400 38.81800
H  10.53100 48.62400 38.86800
H  10.13400 49.56800 36.90700
H  9.89500 50.97000 37.92600
H  12.30700 55.42600 39.62600
H  12.47500 55.87500 41.33000
H  12.36900 57.15000 40.02600
H  8.11100 59.44400 39.91600
H  9.22300 60.60600 40.56600
H  8.34800 59.61100 41.70100
H  4.49000 57.99700 40.95500
H  2.85300 56.22100 42.38400
H  5.45400 57.05000 43.58100
H  3.89100 57.79100 43.54200
H  5.24500 58.77100 43.06100
H  2.94600 55.52100 39.49500
H  2.76800 57.25800 39.72800
H  0.95200 55.72700 41.41800
H  0.74200 55.01700 39.75100
H  0.42700 56.71800 40.08400
H  2.03400 50.95100 42.90500
H  2.07900 49.72400 41.45500
H  1.75000 51.38500 41.33600
H  7.14100 47.97500 41.55100
H  7.04400 45.15500 38.30600
H  7.05800 46.61400 37.41600
H  5.46200 46.00100 37.71100

