158

Mg 48.72600 44.99500 42.27400
C  45.67400 45.46400 40.82000
C  48.55100 41.68000 41.35700
C  52.02300 44.75000 42.98400
C  48.99700 48.60500 42.53500
N  47.24600 43.72300 41.31900
C  46.05000 44.12000 40.82200
C  45.34600 42.99400 40.11000
C  46.21700 41.73200 40.42100
C  47.37800 42.42100 41.14500
C  45.52300 40.81300 41.45100
C  45.04100 43.09600 38.56700
C  43.70000 42.48900 37.99300
H  43.54900 41.96300 36.56900
N  50.11300 43.42700 42.22600
C  49.81100 42.14400 41.86500
C  51.06400 41.40300 41.94900
C  52.09100 42.22700 42.49200
C  51.46800 43.51600 42.63600
C  51.14000 39.99500 41.47900
C  53.51800 41.82300 42.76200
O  53.90600 40.66700 42.54800
C  54.48300 42.78900 43.32100
N  50.29500 46.52400 42.72000
C  51.55700 46.09500 42.94000
C  52.48300 47.32200 43.28900
C  51.40200 48.45300 43.30900
C  50.16700 47.83500 42.80700
C  53.30900 47.23500 44.61000
C  51.89000 49.75500 42.71100
C  51.62600 50.99100 43.54400
N  47.58100 46.73000 41.82900
C  47.74800 48.08200 42.11400
C  46.46400 48.72800 41.95000
C  45.69200 47.73800 41.31800
C  46.34900 46.53600 41.36300
C  46.09100 50.10200 42.12700
C  44.42800 47.47800 40.60400
O  43.50500 48.25100 40.46700
C  44.41500 45.97300 40.20900
C  43.17200 45.46300 40.77400
O  42.18600 45.09900 40.17000
O  43.17400 45.55500 42.14500
C  41.92300 45.79600 42.87100
H  48.45200 40.62500 41.09400
H  53.09100 44.78600 43.21100
H  49.01000 49.68400 42.70600
H  44.45100 42.87600 40.72100
H  46.46800 41.17500 39.51900
H  46.02500 39.87100 41.67300
H  44.61400 40.46700 40.95900
H  45.24800 41.29900 42.38700
H  45.78300 42.55900 37.97700
H  45.06400 44.09100 38.12300
H  42.91400 43.22400 38.17200
H  43.45500 41.65300 38.64800
H  52.07800 39.65500 41.04000
H  50.37400 39.63800 40.79200
H  50.90200 39.45000 42.39300
H  54.74600 43.67200 42.73900
H  55.45900 42.30900 43.39800
H  54.19100 43.04300 44.34000
H  53.13800 47.48400 42.43200
H  51.03800 48.67800 44.31100
H  54.19700 47.84900 44.45800
H  53.65500 46.25300 44.93300
H  52.84900 47.79000 45.42700
H  51.56400 49.97300 41.69400
H  52.97500 49.70300 42.61500
H  52.02300 50.94100 44.55800
H  50.59700 51.34100 43.62000
H  52.16200 51.80300 43.05400
H  45.58800 50.23900 43.08400
H  45.45700 50.33100 41.27000
H  46.99400 50.71100 42.09100
H  44.29800 45.94500 39.12600
H  42.13500 45.85000 43.93900
H  41.08200 45.11900 42.72300
H  41.68800 46.84800 42.70800
Mg -2.17500 35.35400 26.69500
C  -3.53000 33.73200 29.64000
C  -1.08600 37.80500 28.84500
C  -1.24000 36.89000 24.08100
C  -3.90400 32.94600 24.88800
N  -2.42200 35.72300 28.99200
C  -2.81600 34.89600 30.00600
C  -2.44900 35.35600 31.35500
C  -1.63100 36.68400 31.07600
C  -1.70200 36.81500 29.54200
C  -2.18200 37.92800 31.76600
C  -1.60800 34.23700 32.05200
C  -2.09000 33.72900 33.36900
H  -1.14300 33.57400 34.59200
N  -1.10700 37.03400 26.45700
C  -0.71000 37.90100 27.49700
C  0.10300 38.96900 26.86500
C  0.19800 38.61000 25.46700
C  -0.76200 37.51500 25.26800
C  0.83300 40.02600 27.67100
C  0.99200 39.16800 24.34100
O  1.20000 38.57300 23.31000
C  1.77200 40.34200 24.56000
N  -2.71700 35.04700 24.77000
C  -2.10800 35.87400 23.80900
C  -2.56400 35.44300 22.37800
C  -3.33600 34.08400 22.63700
C  -3.30700 33.95600 24.14400
C  -3.48500 36.43000 21.62900
C  -2.63500 32.74300 21.96900
C  -1.16000 32.43000 22.31700
N  -3.39000 33.66100 27.10200
C  -3.99600 32.84100 26.29300
C  -4.69200 31.71500 26.94000
C  -4.47600 32.01500 28.22000
C  -3.71000 33.20000 28.26500
C  -5.47900 30.52900 26.39600
C  -4.77800 31.56500 29.56100
O  -5.41500 30.59700 29.94500
C  -4.15700 32.63000 30.52200
C  -5.37000 33.17900 31.22600
O  -6.20200 33.95100 30.72600
O  -5.52700 32.61600 32.44700
C  -6.69100 32.99100 33.23200
H  -0.54100 38.46900 29.51900
H  -1.06700 37.50000 23.19200
H  -4.43700 32.22900 24.26000
H  -3.44300 35.52600 31.76800
H  -0.57900 36.59700 31.35000
H  -2.77900 38.48600 31.04500
H  -1.30800 38.54500 31.97500
H  -2.74800 37.54900 32.61700
H  -0.58200 34.59200 32.15500
H  -1.47700 33.48800 31.27000
H  -2.49000 32.72600 33.21900
H  -2.84100 34.42300 33.74800
H  0.72700 39.91100 28.75000
H  0.43400 40.98400 27.33800
H  1.90200 39.95300 27.47100
H  2.04000 40.80600 23.61100
H  2.69700 39.98500 25.01300
H  1.20700 41.02800 25.19200
H  -1.76500 35.21600 21.67200
H  -4.41000 34.24100 22.53800
H  -3.80700 37.27500 22.23700
H  -4.39400 35.90900 21.32600
H  -3.02100 36.78300 20.70900
H  -2.68800 32.91100 20.89400
H  -3.15100 31.78600 22.05100
H  -1.15100 31.37200 22.57900
H  -0.88700 33.07700 23.15100
H  -0.45400 32.47200 21.48700
H  -6.48000 30.96100 26.43200
H  -5.37500 29.66800 27.05600
H  -5.28000 30.21900 25.37000
H  -3.51000 32.12800 31.24100
H  -7.61500 32.78800 32.69000
H  -6.54200 34.04200 33.48000
H  -6.71600 32.48600 34.19700

