158

Mg 30.82400 58.14700 40.92400
C  28.10800 56.45400 39.25100
C  32.88600 55.79700 39.51200
C  33.43600 60.13400 41.54200
C  28.56700 60.81700 41.42700
N  30.50700 56.38500 39.62200
C  29.36800 55.86500 39.07100
C  29.61000 54.55400 38.31600
C  31.10100 54.22600 38.74300
C  31.54900 55.57400 39.31200
C  31.40100 52.97400 39.71800
C  29.28100 54.72900 36.83800
C  28.40700 53.58700 36.20900
H  27.76600 53.93000 34.82900
N  32.85200 57.96700 40.61500
C  33.52500 56.93000 40.05500
C  34.98000 57.14400 40.11400
C  35.12200 58.38000 40.77100
C  33.76800 58.89100 41.02000
C  36.04300 56.26500 39.54700
C  36.42700 59.12400 41.15100
O  37.48800 58.76000 40.64200
C  36.48300 60.42700 42.10600
N  30.99300 60.25000 41.26300
C  32.16100 60.76800 41.71800
C  32.06400 62.26300 42.03700
C  30.50300 62.39300 42.29700
C  29.97400 61.06000 41.64000
C  32.96700 62.83100 43.17100
C  29.87300 63.68700 41.72800
C  28.86700 64.40400 42.65700
N  28.75700 58.55600 40.55400
C  27.97200 59.61700 40.96400
C  26.65300 59.44000 40.43900
C  26.61900 58.21300 39.80300
C  27.92700 57.67400 39.91600
C  25.48700 60.39200 40.63700
C  25.87000 57.29900 39.03600
O  24.71500 57.26900 38.69000
C  26.77300 55.97200 38.77900
C  26.34100 54.78600 39.65200
O  26.10000 54.88000 40.84400
O  26.29000 53.65300 38.94700
C  26.21800 52.33500 39.67300
H  33.58400 55.02800 39.17300
H  34.19400 60.88300 41.78200
H  27.87200 61.62700 41.65700
H  28.98400 53.81700 38.81900
H  31.80400 54.12300 37.91700
H  30.61900 52.21500 39.70600
H  31.51300 53.44300 40.69600
H  32.35900 52.55200 39.41500
H  30.27200 54.76100 36.38500
H  28.88300 55.73800 36.73300
H  27.62100 53.25500 36.88700
H  29.09800 52.75000 36.10500
H  36.73200 55.97700 40.34100
H  36.57800 56.79700 38.76000
H  35.68400 55.32700 39.12200
H  36.14900 61.33400 41.60200
H  37.52800 60.64300 42.32700
H  35.97800 60.29300 43.06300
H  32.38300 62.71300 41.09700
H  30.38000 62.30800 43.37700
H  33.76800 63.40400 42.70200
H  33.28800 61.97000 43.75800
H  32.38300 63.51300 43.78900
H  29.31000 63.34600 40.86000
H  30.58300 64.42400 41.35400
H  28.66100 63.74000 43.49700
H  27.93500 64.50900 42.10300
H  29.25300 65.40800 42.83600
H  25.65400 61.38700 40.22400
H  25.42800 60.48200 41.72200
H  24.58800 59.92800 40.23200
H  26.68600 55.61700 37.75200
H  25.66000 51.58000 39.11900
H  25.98400 52.42800 40.73400
H  27.14500 51.76100 39.66600
Mg -9.99100 39.80400 41.43100
C  -8.81300 36.46700 40.74000
C  -7.03700 40.91800 40.17100
C  -11.27100 42.77100 41.71800
C  -13.19000 38.26800 41.96700
N  -8.20800 38.72500 40.36900
C  -7.92800 37.42600 40.28600
C  -6.53600 37.25500 39.60200
C  -5.91900 38.71000 39.40800
C  -7.08400 39.51100 40.14900
C  -4.53300 38.90700 40.12500
C  -6.74200 36.60800 38.18400
C  -5.99300 35.26100 37.89900
H  -5.18500 35.25800 36.59400
N  -9.30700 41.67300 41.04400
C  -8.02900 41.92600 40.54900
C  -7.80900 43.35700 40.42400
C  -8.97600 44.00600 40.91000
C  -9.95700 42.80400 41.27700
C  -6.50500 44.02200 39.86100
C  -9.27000 45.48300 41.11100
O  -8.48000 46.32000 40.75400
C  -10.50500 45.95700 41.69000
N  -11.94400 40.42500 41.65200
C  -12.19000 41.76000 41.88600
C  -13.65000 42.00700 42.24300
C  -14.35900 40.59900 42.26400
C  -13.10200 39.68800 41.90800
C  -13.91500 42.69800 43.55700
C  -15.58800 40.40000 41.38500
C  -16.79300 39.51300 41.89200
N  -10.80000 37.69700 41.62900
C  -12.10900 37.29300 41.85800
C  -12.20200 35.81500 41.88300
C  -10.85200 35.44800 41.49600
C  -10.12100 36.65700 41.27300
C  -13.42700 35.07500 42.24800
C  -9.91900 34.36700 41.24900
O  -10.02800 33.16500 41.52100
C  -8.64600 34.98000 40.65300
C  -7.43700 34.47600 41.42100
O  -7.09100 34.88400 42.55000
O  -6.79200 33.47200 40.71300
C  -5.58400 32.87500 41.41800
H  -6.07000 41.31600 39.85600
H  -11.76600 43.72900 41.89100
H  -14.16500 37.90000 42.29300
H  -5.99700 36.65500 40.33500
H  -5.93800 39.02300 38.36400
H  -4.16000 37.94700 40.48100
H  -4.68400 39.52300 41.01100
H  -3.72700 39.32900 39.52500
H  -6.58300 37.36300 37.41400
H  -7.78300 36.28800 38.14400
H  -6.74200 34.47500 37.79600
H  -5.35900 34.95200 38.72900
H  -6.58400 44.18600 38.78600
H  -5.64000 43.36100 39.90600
H  -6.32700 45.04800 40.18300
H  -11.24200 45.72500 40.92100
H  -10.55700 47.03500 41.84000
H  -10.66800 45.45000 42.64100
H  -14.17700 42.55400 41.46100
H  -14.74800 40.22400 43.21000
H  -13.88700 43.78400 43.46400
H  -13.27900 42.27500 44.33400
H  -14.91900 42.48300 43.92400
H  -15.30000 39.78800 40.53000
H  -16.02400 41.36500 41.12800
H  -17.76900 39.97400 41.73800
H  -16.63700 39.06800 42.87500
H  -16.79300 38.65600 41.21900
H  -14.13700 35.74700 42.73000
H  -13.00200 34.37500 42.96700
H  -13.84100 34.65600 41.33100
H  -8.54200 34.73500 39.59600
H  -4.87500 33.46700 41.99700
H  -4.96700 32.34600 40.69100
H  -6.07100 32.24600 42.16400

