158

Mg 17.50000 -0.69600 27.71000
C  16.49100 1.45700 30.26500
C  19.66600 -2.21000 29.75800
C  18.84400 -2.00100 24.92500
C  15.46200 1.41600 25.48700
N  18.02500 -0.31200 29.70300
C  17.45900 0.53400 30.63400
C  17.91000 0.17200 32.06600
C  19.10600 -0.73200 31.84500
C  18.89700 -1.10000 30.37600
C  20.49000 -0.03100 32.16200
C  16.76700 -0.33600 32.98700
C  16.71000 0.30800 34.36500
H  17.85400 1.02600 35.05600
N  19.01800 -1.91000 27.39700
C  19.72200 -2.51400 28.37800
C  20.62700 -3.43800 27.76400
C  20.35200 -3.56100 26.36400
C  19.34100 -2.48600 26.14800
C  21.63700 -4.14700 28.61200
C  20.88500 -4.60800 25.38000
O  20.61200 -4.61900 24.22100
C  21.72100 -5.85100 25.79400
N  17.06500 -0.39900 25.53800
C  17.94400 -0.98600 24.62200
C  17.61400 -0.58600 23.20000
C  16.41800 0.38000 23.36000
C  16.21500 0.42000 24.89200
C  18.76900 0.11000 22.51100
C  15.23000 -0.06600 22.58900
C  14.22700 -1.06700 23.15600
N  16.03600 0.95200 27.88100
C  15.42700 1.71100 26.92000
C  14.74800 2.85600 27.52700
C  15.10200 2.77200 28.89800
C  15.88800 1.63300 29.05100
C  13.90700 3.91500 26.78700
C  14.98200 3.42200 30.18100
O  14.41300 4.46000 30.47700
C  15.74000 2.39800 31.16500
C  16.48900 3.24600 31.99200
O  17.63200 3.68200 31.74300
O  15.91700 3.40900 33.15600
C  16.42600 4.54100 33.92300
H  20.35100 -2.74300 30.42100
H  19.34300 -2.32300 24.00800
H  15.00600 2.19800 24.87800
H  18.33100 1.03800 32.57700
H  19.02400 -1.55500 32.55600
H  20.98400 -0.70200 32.86500
H  20.40500 0.91300 32.69900
H  21.13000 0.06600 31.28500
H  17.04200 -1.37300 33.18400
H  15.75100 -0.30100 32.59300
H  16.32900 -0.53300 34.94300
H  15.86500 0.99300 34.29500
H  21.26000 -5.08000 29.03100
H  22.00300 -3.57600 29.46500
H  22.54400 -4.28600 28.02400
H  22.76500 -5.56600 25.93100
H  21.64400 -6.45000 24.88600
H  21.29000 -6.29800 26.68900
H  17.23700 -1.44200 22.63900
H  16.65100 1.42300 23.14400
H  19.58700 0.15800 23.22900
H  18.56600 1.13000 22.18400
H  19.08400 -0.46700 21.64100
H  15.49700 -0.41400 21.59100
H  14.71300 0.86800 22.36700
H  13.24000 -0.62400 23.28700
H  14.50700 -1.49700 24.11800
H  14.02800 -1.88600 22.46500
H  13.00100 3.89600 27.39200
H  13.70700 3.65100 25.74800
H  14.39000 4.89000 26.85100
H  14.99100 1.84600 31.73300
H  16.63500 5.40300 33.28900
H  17.33900 4.13600 34.35900
H  15.63000 4.67700 34.65500
Mg 41.41800 40.63300 27.58400
C  40.64200 43.08700 29.91800
C  42.62900 38.70700 30.16300
C  42.64500 38.65000 25.35000
C  40.81200 42.97800 25.09700
N  41.47100 40.77300 29.74700
C  41.00600 41.86900 30.49600
C  40.89800 41.47500 32.03000
C  41.82200 40.15600 32.09200
C  42.12100 39.85200 30.57800
C  43.23100 40.35300 32.85400
C  39.42600 41.23400 32.45300
C  38.79800 41.92000 33.76000
H  38.54200 41.00800 35.04000
N  42.43700 38.90100 27.75200
C  42.86500 38.17300 28.88200
C  43.27600 36.84900 28.53900
C  43.40300 36.89200 27.17000
C  42.89600 38.20500 26.70300
C  43.78300 35.80900 29.53000
C  44.03800 35.82600 26.19700
O  43.99100 35.95600 24.98600
C  44.64400 34.58500 26.67400
N  41.59300 40.81200 25.51600
C  42.07700 39.82800 24.76200
C  42.07600 40.08000 23.27500
C  41.74100 41.62000 23.26300
C  41.26300 41.78100 24.68400
C  43.30900 39.78200 22.35500
C  40.70800 41.95500 22.19900
C  39.25200 41.65900 22.50500
N  40.75300 42.64900 27.49700
C  40.59000 43.45700 26.41200
C  40.11100 44.79800 26.90600
C  40.01100 44.68000 28.25700
C  40.52000 43.36700 28.56800
C  39.92200 46.03900 25.92700
C  39.55800 45.29800 29.46300
O  38.86600 46.30700 29.63500
C  39.97300 44.30100 30.60800
C  40.84900 44.97300 31.59500
O  42.06300 45.19700 31.42700
O  40.25600 45.19700 32.80000
C  41.07900 46.02300 33.68200
H  43.01800 38.01500 30.91300
H  43.05600 37.99500 24.57900
H  40.78800 43.75900 24.33400
H  41.34200 42.22600 32.68300
H  41.30100 39.22500 32.31400
H  43.92000 40.53200 32.02800
H  43.24400 39.42600 33.42700
H  43.20000 41.26900 33.44400
H  39.33900 40.17300 32.68300
H  38.84300 41.39300 31.54600
H  37.91800 42.44500 33.38800
H  39.50500 42.66900 34.11700
H  43.26300 34.86200 29.67700
H  43.67300 36.16100 30.55500
H  44.79200 35.46600 29.30000
H  45.45400 34.91200 27.32500
H  45.01600 33.98300 25.84600
H  43.88600 34.14600 27.32300
H  41.21700 39.56300 22.84900
H  42.67600 42.17300 23.17400
H  43.10200 38.81500 21.89600
H  44.15900 39.73600 23.03500
H  43.53500 40.62000 21.69600
H  41.07800 41.28600 21.42200
H  40.96700 42.95200 21.84400
H  38.97100 41.30300 23.49600
H  38.90100 40.88200 21.82500
H  38.63600 42.53000 22.28300
H  38.99400 46.50900 26.25200
H  39.78700 45.68200 24.90600
H  40.71800 46.76700 26.08300
H  39.07600 44.02600 31.16400
H  41.69100 46.74800 33.14600
H  41.74600 45.38700 34.26500
H  40.40100 46.52200 34.37500

