158

Mg -11.65100 38.36400 42.46800
C  -9.03500 35.91300 41.90100
C  -9.32600 40.63800 41.56800
C  -14.14500 40.53900 42.32200
C  -13.89000 35.71600 43.02300
N  -9.46600 38.18100 41.73000
C  -8.56600 37.21800 41.56300
C  -7.22300 37.65500 41.06500
C  -7.33400 39.20700 41.44600
C  -8.83800 39.36100 41.56400
C  -6.52300 39.66300 42.71800
C  -6.97400 37.30600 39.52000
C  -5.87500 36.29800 39.28300
H  -5.92400 35.30900 38.06900
N  -11.76200 40.34800 41.97400
C  -10.61100 41.13600 41.74400
C  -11.12400 42.51300 41.70000
C  -12.53800 42.52500 42.05500
C  -12.87100 41.12100 42.08800
C  -10.14800 43.65400 41.67400
C  -13.39200 43.82700 42.20900
O  -12.81500 44.95000 42.09200
C  -14.93400 43.87000 42.47300
N  -13.77300 38.10000 42.40900
C  -14.58500 39.22300 42.45400
C  -16.01100 38.76900 42.72000
C  -15.93800 37.24500 43.02600
C  -14.45700 36.96000 42.73200
C  -16.69300 39.57500 43.91300
C  -16.94100 36.40500 42.30700
C  -16.67300 35.98800 40.82900
N  -11.50000 36.30100 42.51000
C  -12.54800 35.38900 42.85700
C  -12.06600 34.04300 42.80700
C  -10.63300 34.23700 42.52600
C  -10.39200 35.60300 42.25600
C  -12.89000 32.76200 43.05900
C  -9.36100 33.56400 42.35200
O  -9.14000 32.33700 42.39500
C  -8.25600 34.64100 41.95700
C  -7.21700 34.71100 43.05200
O  -7.30500 35.26000 44.12700
O  -6.09800 34.07600 42.60600
C  -5.10700 33.93300 43.67900
H  -8.46300 41.30400 41.50300
H  -14.95700 41.26900 42.33300
H  -14.59100 34.89100 43.16500
H  -6.39400 37.25500 41.64800
H  -7.05000 39.87000 40.62900
H  -5.77000 38.92300 42.98800
H  -7.21400 39.86100 43.53800
H  -5.96500 40.59000 42.58700
H  -6.64900 38.25600 39.09700
H  -7.90400 37.00700 39.03500
H  -5.80600 35.58900 40.10900
H  -4.91000 36.78800 39.15300
H  -10.12800 43.94100 40.62300
H  -9.14800 43.41800 42.03900
H  -10.50000 44.49200 42.27500
H  -15.46400 43.45900 41.61400
H  -15.23900 44.90600 42.62300
H  -15.23100 43.34900 43.38400
H  -16.61300 38.84300 41.81500
H  -16.17000 37.10200 44.08100
H  -16.16000 40.45500 44.27100
H  -16.92500 38.92200 44.75400
H  -17.59200 39.85400 43.36200
H  -17.93000 36.83000 42.47500
H  -16.99500 35.44700 42.82500
H  -17.56000 36.11300 40.20800
H  -16.40400 34.93300 40.87800
H  -15.97000 36.59800 40.26200
H  -12.19700 31.95800 43.30700
H  -13.44800 32.47800 42.16700
H  -13.59600 32.90900 43.87700
H  -7.72100 34.42400 41.03300
H  -5.53900 33.54900 44.60300
H  -4.76200 34.95300 43.84300
H  -4.39800 33.15700 43.38800
Mg -1.17800 33.95800 26.32200
C  -2.91800 32.41800 28.82800
C  0.34700 36.03200 28.72500
C  0.42800 35.43600 23.89800
C  -2.84100 31.88700 23.97500
N  -1.19700 34.17400 28.53700
C  -1.99800 33.37600 29.28600
C  -1.77200 33.79200 30.76700
C  -0.91500 35.07100 30.75500
C  -0.55000 35.14100 29.25300
C  -1.64800 36.35100 31.28000
C  -1.15000 32.58300 31.61000
C  -1.97800 32.18200 32.83300
H  -1.16600 31.93700 34.10900
N  0.24700 35.49200 26.26000
C  0.71200 36.26300 27.33000
C  1.77600 37.17200 26.84400
C  1.98100 36.83400 25.44200
C  0.90800 35.87000 25.16500
C  2.56000 38.10000 27.75000
C  2.99600 37.15700 24.38000
O  3.00300 36.72800 23.24600
C  4.11100 38.01300 24.72600
N  -1.37400 33.79700 24.22000
C  -0.61500 34.53300 23.43800
C  -0.86600 34.20400 21.94400
C  -1.76000 32.98200 21.96500
C  -1.99900 32.84700 23.48300
C  -1.36600 35.42100 21.11300
C  -1.20500 31.81300 21.23800
C  -0.53600 30.70900 22.09800
N  -2.71300 32.62900 26.32100
C  -3.24900 31.79600 25.31300
C  -4.16300 30.80300 25.84100
C  -4.04800 31.04800 27.24900
C  -3.19100 32.14100 27.47500
C  -4.93500 29.77600 25.02900
C  -4.64800 30.59500 28.49600
O  -5.51700 29.77800 28.65800
C  -3.85000 31.45100 29.61300
C  -4.82400 32.26000 30.37100
O  -5.46900 33.18300 29.87800
O  -4.97800 31.74200 31.70300
C  -6.12100 32.37700 32.36500
H  0.92700 36.53900 29.49900
H  0.91700 35.76600 22.97900
H  -3.30500 31.27700 23.19700
H  -2.80600 33.99100 31.05000
H  -0.03400 34.92100 31.38000
H  -1.81000 37.07400 30.48000
H  -0.99700 36.78600 32.03800
H  -2.60800 36.14600 31.75400
H  -0.07700 32.60400 31.79800
H  -1.16200 31.72600 30.93600
H  -2.43100 31.23000 32.55600
H  -2.70900 32.95900 33.05700
H  2.13600 38.20100 28.74900
H  2.54600 39.10800 27.33500
H  3.60200 37.79600 27.85100
H  3.86900 38.62700 25.59300
H  4.37200 38.63500 23.86900
H  5.02200 37.45900 24.94800
H  0.11800 33.94800 21.54900
H  -2.70500 33.02600 21.42500
H  -1.30600 36.35400 21.67200
H  -2.42500 35.18600 21.00200
H  -0.82600 35.43700 20.16600
H  -0.54900 32.15000 20.43500
H  -1.98800 31.27500 20.70400
H  -1.19200 29.85000 22.23900
H  -0.27400 31.11100 23.07600
H  0.34400 30.39600 21.53500
H  -4.30900 29.31000 24.26900
H  -5.64700 30.41200 24.50200
H  -5.49900 29.02800 25.58500
H  -3.39200 30.86000 30.40600
H  -5.65800 33.25400 32.81700
H  -6.61800 31.81500 33.15600
H  -6.84500 32.80200 31.66900

