158

Mg 25.19500 -7.38300 47.49800
C  27.08200 -4.74900 46.24500
C  22.76600 -6.73200 45.20500
C  23.44700 -10.08300 48.57300
C  27.85800 -8.30000 49.47800
N  25.10000 -5.98800 45.69200
C  25.91500 -4.95300 45.40800
C  25.47900 -4.18100 44.19600
C  23.94600 -4.65600 44.10100
C  23.90700 -5.87900 45.07200
C  22.93800 -3.56200 44.53500
C  26.31300 -4.34400 42.90100
C  26.81700 -3.16300 41.97900
H  26.07500 -3.06900 40.63000
N  23.34500 -8.38000 46.81500
C  22.48200 -7.86100 45.95100
C  21.29000 -8.64400 45.88500
C  21.49100 -9.73000 46.77700
C  22.81900 -9.36400 47.51200
C  20.14400 -8.28300 44.93900
C  20.59800 -10.91700 46.92500
O  19.68600 -11.01600 46.14100
C  20.84300 -12.00300 47.89300
N  25.65000 -9.11600 48.62200
C  24.74300 -9.96700 49.08200
C  25.30800 -10.96900 50.12500
C  26.73600 -10.48200 50.13800
C  26.78600 -9.21600 49.36600
C  24.62000 -10.90700 51.53700
C  27.87800 -11.59100 49.77900
C  29.11200 -11.65100 50.75400
N  27.12500 -6.76300 47.82400
C  28.11800 -7.17900 48.72600
C  29.30900 -6.31700 48.60100
C  28.89000 -5.38300 47.64900
C  27.58500 -5.63400 47.28200
C  30.65300 -6.58800 49.18300
C  29.35900 -4.13700 47.00900
O  30.49800 -3.61200 47.04600
C  28.23100 -3.71200 46.03800
C  27.92400 -2.29000 46.43400
O  28.08400 -1.35400 45.68900
O  27.52000 -2.09100 47.75200
C  26.95500 -0.74600 48.00700
H  21.94700 -6.41900 44.55500
H  22.81400 -10.79300 49.10900
H  28.70400 -8.52500 50.13000
H  25.54600 -3.13000 44.48000
H  23.69400 -5.00600 43.10000
H  22.10300 -4.05800 45.03000
H  22.41100 -3.20600 43.65000
H  23.32300 -2.72500 45.11700
H  25.77500 -5.10300 42.33300
H  27.17300 -4.97600 43.12500
H  27.89400 -3.21900 41.82200
H  26.68100 -2.21400 42.49800
H  20.15000 -9.08600 44.20200
H  20.22200 -7.27700 44.52600
H  19.22600 -8.39500 45.51500
H  21.88400 -12.31200 47.98000
H  20.26300 -12.89900 47.67400
H  20.52000 -11.66800 48.87900
H  25.20500 -11.99100 49.75900
H  27.02000 -10.23100 51.16000
H  23.96000 -10.04100 51.57000
H  25.36600 -10.76000 52.31900
H  24.02300 -11.78500 51.78500
H  28.19900 -11.44800 48.74700
H  27.38600 -12.55900 49.88600
H  30.03400 -11.55200 50.18100
H  29.03400 -12.63700 51.21100
H  29.00600 -10.89800 51.53600
H  30.61900 -7.04100 50.17300
H  31.16800 -5.63200 49.28200
H  31.16000 -7.25600 48.48600
H  28.59000 -3.67600 45.01000
H  27.79100 -0.09700 48.26800
H  26.28100 -0.82400 48.85900
H  26.50000 -0.32900 47.10800
Mg 46.55800 23.98300 28.22800
C  47.28200 26.24600 30.93400
C  45.90200 21.63600 30.72200
C  46.20000 21.82900 25.90700
C  48.16900 26.18200 26.17700
N  46.52800 23.92100 30.59700
C  46.83200 25.00800 31.39900
C  46.56100 24.65600 32.85900
C  46.49700 23.11300 32.85800
C  46.30200 22.81700 31.34000
C  47.70600 22.33400 33.40600
C  45.34000 25.45000 33.34900
C  45.37100 26.06900 34.74500
H  46.11900 25.28500 35.88700
N  46.04000 22.06800 28.28800
C  45.77200 21.28000 29.37100
C  45.25100 20.04600 28.90500
C  45.26900 20.11000 27.44300
C  45.91600 21.28200 27.14700
C  44.96500 18.90700 29.83000
C  44.66200 19.10800 26.42600
O  44.55000 19.37500 25.23800
C  43.86500 17.93000 26.90400
N  47.19300 24.01400 26.32500
C  46.78800 23.06500 25.50600
C  47.18600 23.25900 24.00400
C  47.78400 24.73400 24.15000
C  47.80000 24.96000 25.67900
C  48.23300 22.20500 23.51000
C  47.09500 25.91000 23.35900
C  45.89800 26.54500 24.04600
N  47.47800 25.92400 28.47200
C  48.03800 26.69100 27.49600
C  48.33700 27.92200 28.07400
C  48.04600 27.88200 29.44100
C  47.52800 26.57300 29.65900
C  48.99900 29.09200 27.31500
C  48.10500 28.59100 30.70900
O  48.52800 29.66000 30.99200
C  47.49100 27.61200 31.69600
C  48.30300 27.53400 32.98000
O  49.22800 26.74500 33.23300
O  47.80200 28.49200 33.82600
C  48.15500 28.29200 35.27400
H  45.63500 20.87700 31.46000
H  45.96400 21.31100 24.97400
H  48.70300 26.79300 25.44500
H  47.37500 24.99900 33.49700
H  45.62100 22.82500 33.43900
H  48.42200 23.05400 33.80300
H  48.18300 21.73000 32.63300
H  47.39600 21.69200 34.23000
H  44.41000 24.88400 33.30000
H  45.16000 26.23200 32.61200
H  44.31500 26.10700 35.01200
H  45.68000 27.10700 34.61500
H  45.12100 17.94300 29.34400
H  43.90400 18.96300 30.07600
H  45.58400 18.90000 30.72800
H  44.53800 17.20300 27.36000
H  43.31700 17.53000 26.05200
H  43.11600 18.32100 27.59200
H  46.29100 23.33900 23.38700
H  48.84100 24.76100 23.88700
H  48.96300 21.91600 24.26600
H  48.78300 22.57600 22.64500
H  47.55000 21.39500 23.25500
H  46.80100 25.58500 22.36100
H  47.88600 26.65500 23.27400
H  45.40200 25.92700 24.79500
H  45.11000 26.86300 23.36300
H  46.22900 27.49800 24.45900
H  48.36200 29.40600 26.48800
H  50.00300 28.86400 26.95700
H  48.97500 29.94300 27.99500
H  46.47400 27.97400 31.85300
H  48.42900 27.25900 35.49000
H  47.29300 28.62000 35.85400
H  48.92700 29.03400 35.47800

