158

Mg -1.41700 17.21800 27.28900
C  -1.97600 14.90500 29.85800
C  -2.14900 19.71300 29.51400
C  -1.13100 19.39000 24.67300
C  -1.46300 14.58900 24.99700
N  -1.98200 17.26800 29.46300
C  -1.99400 16.23500 30.37300
C  -2.30200 16.74900 31.81500
C  -2.47900 18.30200 31.59700
C  -2.21600 18.49500 30.10400
C  -3.88900 18.86800 32.15500
C  -1.27700 16.30800 32.88900
C  -1.01400 17.27600 34.06000
H  -0.36200 16.72100 35.32900
N  -1.55100 19.26600 27.15100
C  -1.83700 20.11300 28.17300
C  -1.94500 21.51900 27.63400
C  -1.53700 21.41400 26.27600
C  -1.36000 19.97500 25.95100
C  -2.15900 22.71900 28.47900
C  -1.44000 22.47700 25.27200
O  -0.97800 22.34200 24.13700
C  -1.94700 23.79900 25.58800
N  -1.27100 16.99500 25.11100
C  -1.09300 18.06000 24.31400
C  -0.76800 17.58000 22.83000
C  -0.70200 16.05900 22.97700
C  -1.13800 15.83900 24.43400
C  -1.90900 17.96000 21.80800
C  0.67600 15.46600 22.51500
C  1.93200 15.96400 23.32400
N  -1.68700 15.20800 27.31500
C  -1.63600 14.26400 26.36300
C  -1.84800 12.98800 26.92400
C  -1.91800 13.23100 28.29500
C  -1.79600 14.55000 28.49900
C  -2.06000 11.62800 26.23400
C  -2.13600 12.47000 29.52100
O  -2.33300 11.28600 29.76600
C  -2.14000 13.58300 30.64300
C  -1.04600 13.26300 31.53900
O  0.14500 13.37300 31.28800
O  -1.58200 12.92300 32.74000
C  -0.61600 12.75900 33.81400
H  -2.36200 20.53800 30.19700
H  -1.03800 20.06600 23.82000
H  -1.33200 13.74900 24.31100
H  -3.27400 16.37500 32.13800
H  -1.67600 18.84200 32.10000
H  -4.27700 18.23300 32.95200
H  -4.53100 18.97200 31.28000
H  -3.82100 19.88700 32.53600
H  -0.30300 16.11500 32.43900
H  -1.72600 15.49200 33.45600
H  -1.96400 17.76400 34.27500
H  -0.32200 18.00300 33.63500
H  -3.23600 22.72800 28.64400
H  -1.79500 23.65100 28.04500
H  -1.74800 22.48200 29.46000
H  -2.23000 24.24100 24.63200
H  -1.13400 24.38600 26.01400
H  -2.81100 23.58400 26.21700
H  0.25800 17.81700 22.54900
H  -1.44700 15.63500 22.30400
H  -1.71900 17.65000 20.78000
H  -2.16100 19.01700 21.89800
H  -2.74700 17.40500 22.22900
H  0.72900 15.49500 21.42600
H  0.55000 14.39900 22.69500
H  1.62800 16.71900 24.04900
H  2.55300 16.44300 22.56700
H  2.43500 15.11000 23.77800
H  -1.26800 11.51300 25.49400
H  -3.04600 11.63400 25.76900
H  -1.95300 10.84300 26.98200
H  -3.10100 13.70600 31.14200
H  -1.29800 12.32900 34.54700
H  -0.21000 13.73100 34.09400
H  0.16000 12.00800 33.66000
Mg -10.76500 17.01400 40.43700
C  -7.32900 16.07900 40.61200
C  -9.90800 20.25400 39.75000
C  -14.03600 17.59700 39.48800
C  -11.55400 13.52000 40.79300
N  -8.84100 17.96200 40.18000
C  -7.55000 17.43000 40.35900
C  -6.45700 18.53800 40.10300
C  -7.31600 19.88600 40.20200
C  -8.82200 19.32400 40.04400
C  -7.13200 20.85900 41.45900
C  -5.82800 18.31800 38.71700
C  -4.48500 17.59900 38.79000
H  -4.12800 16.37900 37.92300
N  -11.82800 18.70100 39.72400
C  -11.25000 19.98400 39.58200
C  -12.31700 20.89600 39.45900
C  -13.54900 20.17200 39.41900
C  -13.23100 18.76800 39.52700
C  -12.08600 22.42000 39.26600
C  -14.93500 20.88900 39.26100
O  -15.10700 22.09600 39.07600
C  -16.11800 20.04400 39.27500
N  -12.53200 15.77200 40.31400
C  -13.75200 16.30500 39.90200
C  -14.82400 15.25300 39.84900
C  -13.97100 13.92800 40.06400
C  -12.63700 14.39000 40.47400
C  -16.06800 15.43100 40.72700
C  -14.03900 12.85600 38.95200
C  -14.10600 11.36200 39.34000
N  -9.74100 15.17500 40.77900
C  -10.15400 13.86200 40.83400
C  -9.01700 12.99800 41.23000
C  -7.93000 13.79600 41.02800
C  -8.35900 15.12600 40.81900
C  -8.96200 11.53900 41.48400
C  -6.45700 13.77400 40.97500
O  -5.62400 12.89400 41.00100
C  -6.05800 15.31300 40.98800
C  -5.44700 15.56000 42.26600
O  -4.24600 15.75400 42.36900
O  -6.29800 15.56000 43.42200
C  -5.58800 15.66000 44.67400
H  -9.51100 21.26900 39.82700
H  -15.06100 17.71600 39.12900
H  -11.97400 12.51700 40.89200
H  -5.70400 18.46700 40.88700
H  -7.12900 20.49100 39.31600
H  -6.38400 20.30600 42.02800
H  -8.10400 20.94700 41.94300
H  -6.62200 21.73700 41.06100
H  -5.63800 19.14600 38.03400
H  -6.43900 17.65300 38.10800
H  -4.18400 17.40400 39.81900
H  -3.72500 18.33600 38.53100
H  -12.48300 22.79900 38.32400
H  -11.03000 22.68400 39.22100
H  -12.40800 22.99400 40.13500
H  -17.00700 20.63800 39.05900
H  -16.12500 19.50400 40.22100
H  -16.05500 19.42500 38.38000
H  -15.17500 15.22700 38.81700
H  -14.41900 13.40500 40.90900
H  -16.15100 16.46800 41.05400
H  -16.10700 14.71200 41.54600
H  -16.84600 15.26300 39.98300
H  -13.13300 12.89900 38.34800
H  -14.90800 13.08900 38.33700
H  -15.08000 10.93500 39.09800
H  -14.00300 11.28700 40.42200
H  -13.31600 10.82600 38.81400
H  -8.07500 11.24200 42.04500
H  -8.87100 11.04400 40.51800
H  -9.85700 11.32900 42.07000
H  -5.27100 15.34800 40.23400
H  -5.92500 16.47100 45.31900
H  -4.50600 15.53400 44.69800
H  -5.97900 14.86700 45.31300

