158

Mg 26.02200 1.23200 29.24100
C  28.10400 1.30700 32.10600
C  23.41900 1.62400 31.42900
C  24.04500 1.13700 26.53800
C  28.74800 0.62300 27.22600
N  25.84900 1.40300 31.53100
C  26.75700 1.35400 32.54800
C  26.20800 1.60200 33.96900
C  24.71400 1.49000 33.59500
C  24.62400 1.52900 32.07400
C  23.98400 0.29700 34.27600
C  26.74200 2.86500 34.68200
C  27.12500 2.48100 36.13100
H  26.36300 3.25900 37.21700
N  23.92400 1.25800 28.99600
C  23.04500 1.56200 30.01800
C  21.71900 1.70800 29.40000
C  21.80500 1.36900 27.99500
C  23.30000 1.27700 27.76900
C  20.45000 1.91800 30.32700
C  20.76600 1.25500 26.86400
O  21.06100 0.82100 25.78300
C  19.29500 1.63900 27.17600
N  26.36200 1.07000 27.12700
C  25.39000 0.95900 26.19800
C  25.93800 0.78100 24.73200
C  27.49500 0.60600 25.07500
C  27.58000 0.78200 26.54800
C  25.38000 -0.22400 23.73000
C  28.32000 1.63600 24.40300
C  28.68800 1.35300 22.93900
N  28.03100 1.17900 29.49800
C  29.01200 0.75400 28.56000
C  30.21000 0.74300 29.25900
C  29.86500 0.94000 30.59600
C  28.55200 1.19700 30.74900
C  31.63800 0.60000 28.73000
C  30.48400 0.97500 31.94700
O  31.68400 0.84100 32.26800
C  29.35500 1.23400 32.97200
C  29.39900 0.12500 34.03500
O  28.96300 -1.00300 33.93700
O  29.82800 0.68500 35.22500
C  29.66000 -0.17500 36.45000
H  22.57200 1.83100 32.08500
H  23.36800 1.32800 25.70300
H  29.63100 0.41700 26.61700
H  26.51500 0.70400 34.50500
H  24.25900 2.37200 34.04600
H  23.86900 -0.61200 33.68500
H  22.97800 0.62600 34.53600
H  24.41200 0.05400 35.24900
H  26.03800 3.69600 34.63900
H  27.65500 3.25700 34.23300
H  28.19300 2.59700 36.31500
H  26.74400 1.47500 36.30900
H  19.65600 1.23200 30.03100
H  20.11400 2.95200 30.25300
H  20.69500 1.77300 31.37900
H  19.39200 2.67900 27.48800
H  19.02900 0.86500 27.89500
H  18.64800 1.60000 26.29900
H  25.77000 1.76100 24.28500
H  27.76800 -0.39900 24.75300
H  24.71700 -0.80900 24.36800
H  26.15200 -0.88100 23.32900
H  24.85000 0.20200 22.87900
H  29.17500 1.92000 25.01500
H  27.76100 2.54600 24.18600
H  28.27300 0.35700 22.78500
H  29.77100 1.28600 22.84000
H  28.30000 2.03000 22.17800
H  32.22900 0.02200 29.44100
H  31.96100 1.64100 28.76700
H  31.55300 0.32100 27.68000
H  29.49100 2.22300 33.40900
H  29.54000 -1.24400 36.27200
H  28.78600 0.17500 37.00000
H  30.48700 -0.09900 37.15600
Mg 16.92400 52.70500 26.80900
C  18.84600 51.09300 29.09000
C  14.47400 53.16800 29.11500
C  14.60300 53.49000 24.30500
C  19.12700 51.56600 24.26400
N  16.70100 52.25900 28.86100
C  17.73100 51.66700 29.61800
C  17.46000 51.86700 31.11400
C  15.90200 52.26900 31.03000
C  15.63700 52.59100 29.58100
C  15.01000 51.04300 31.44600
C  18.27100 52.91200 31.93800
C  18.44800 52.68500 33.42100
H  17.39700 51.86800 34.08800
N  14.92100 53.40300 26.74500
C  14.06000 53.53000 27.82800
C  12.87500 54.24900 27.44800
C  12.93900 54.40500 26.08100
C  14.19800 53.73600 25.66300
C  11.96700 54.78800 28.51800
C  11.99000 55.13500 25.12900
O  12.41500 55.36400 24.03600
C  10.74500 55.71400 25.58300
N  16.88200 52.53800 24.61200
C  15.86400 52.99100 23.84400
C  16.20700 52.80500 22.32600
C  17.76000 52.62400 22.36400
C  17.97400 52.21500 23.84600
C  15.34800 51.69300 21.56400
C  18.61000 53.92000 21.95600
C  19.28900 53.95200 20.51600
N  18.60000 51.59000 26.67000
C  19.38800 51.21500 25.61900
C  20.51200 50.51000 26.12100
C  20.28200 50.35800 27.49400
C  19.09800 51.06900 27.75800
C  21.75400 50.11700 25.23100
C  20.88300 49.87200 28.77300
O  21.84300 49.09900 28.99100
C  19.86200 50.24400 29.83900
C  19.26800 49.01500 30.43300
O  18.72500 48.09500 29.82300
O  19.37400 49.04600 31.75600
C  18.74300 48.08700 32.66000
H  13.69700 53.22900 29.88000
H  13.90500 53.64500 23.47900
H  19.87000 51.17400 23.56700
H  17.63900 50.82200 31.36900
H  15.72400 53.16400 31.62700
H  15.58000 50.12100 31.33600
H  14.15900 51.05500 30.76500
H  14.64700 51.14600 32.46800
H  17.83100 53.90700 31.87600
H  19.27800 52.98700 31.52700
H  18.59000 53.65700 33.89400
H  19.33000 52.04900 33.50100
H  11.11400 54.14500 28.73900
H  11.59600 55.78500 28.28100
H  12.61100 55.00200 29.37100
H  11.03800 56.64700 26.06500
H  10.22100 55.00700 26.22600
H  10.19000 56.00600 24.69100
H  16.07000 53.73400 21.77100
H  18.05700 51.71400 21.84400
H  14.54600 51.37700 22.23000
H  15.95200 50.83500 21.26800
H  14.93700 52.19400 20.68700
H  19.47100 53.95200 22.62400
H  17.97200 54.79300 22.09700
H  18.80600 53.21100 19.87900
H  20.36200 53.76000 20.48100
H  19.09100 54.91500 20.04500
H  22.71800 50.07100 25.73700
H  21.96200 50.88000 24.48000
H  21.58700 49.12100 24.82000
H  20.45500 50.73100 30.61300
H  19.33100 47.17200 32.72700
H  17.79100 47.80700 32.20900
H  18.65400 48.58000 33.62800

