158

Mg 53.97500 24.21200 45.40400
C  51.36500 26.46500 44.38800
C  51.96600 21.69500 44.05400
C  56.74100 22.42800 45.01300
C  55.77600 26.97000 46.45900
N  51.81500 24.14000 44.43800
C  51.04500 25.14000 44.06900
C  49.68300 24.55100 43.46500
C  49.77500 23.10300 44.03600
C  51.30600 22.96200 44.13300
C  49.07100 22.94800 45.45600
C  49.62000 24.68300 41.90800
C  51.00900 24.60600 41.15900
H  51.80600 23.27200 41.06500
N  54.34700 22.24400 44.65600
C  53.33000 21.40300 44.26500
C  53.99800 20.22300 43.98900
C  55.40800 20.36600 44.14900
C  55.56600 21.68700 44.60000
C  53.32000 19.00400 43.45900
C  56.41900 19.28200 43.97100
O  56.02800 18.18000 43.72400
C  57.91500 19.49900 44.08100
N  56.01500 24.77300 45.36100
C  56.97600 23.80300 45.39100
C  58.30700 24.22900 45.88800
C  57.98900 25.66300 46.34200
C  56.51500 25.78200 46.05900
C  58.83800 23.26700 46.99200
C  58.85300 26.79500 45.79800
C  59.91500 27.40900 46.77300
N  53.57200 26.31000 45.60300
C  54.40700 27.25800 46.13900
C  53.72200 28.52900 46.17300
C  52.53400 28.27400 45.42900
C  52.54300 26.90200 45.00700
C  54.19500 29.87600 46.66400
C  51.32400 28.84600 44.88700
O  50.85400 29.92500 44.98000
C  50.64300 27.73700 44.06100
C  50.62400 28.06200 42.55700
O  51.64300 28.20300 41.91000
O  49.38700 28.33900 42.10500
C  49.18700 28.48700 40.61300
H  51.37100 20.90900 43.58400
H  57.64900 21.82200 44.99400
H  56.34400 27.83100 46.81900
H  49.08400 25.33300 43.93200
H  49.40000 22.35100 43.34100
H  49.77600 22.45000 46.12100
H  48.23800 22.27100 45.26500
H  48.63600 23.81700 45.95000
H  49.15900 25.64300 41.67200
H  48.99900 23.82800 41.64200
H  51.56600 25.49000 41.47000
H  50.71700 24.78400 40.12400
H  53.43800 18.95700 42.37700
H  52.28000 19.08600 43.77600
H  53.58700 18.07400 43.96200
H  58.35200 18.64100 43.57200
H  58.31300 19.61800 45.08900
H  58.15200 20.33400 43.42200
H  59.00100 24.18700 45.04800
H  58.06700 25.64700 47.42900
H  57.97300 23.05700 47.62100
H  59.57800 23.61300 47.71400
H  59.14600 22.24900 46.75400
H  58.27500 27.66400 45.48300
H  59.45000 26.45000 44.95400
H  60.85100 27.60800 46.25100
H  60.18800 26.73200 47.58300
H  59.44400 28.29000 47.20900
H  55.20900 29.85900 47.06300
H  53.48800 30.17500 47.43700
H  54.18300 30.63300 45.88000
H  49.61600 27.61200 44.40300
H  49.00500 27.49400 40.20200
H  50.13700 28.78800 40.17300
H  48.38400 29.20900 40.46800
Mg 46.98100 25.69100 28.85000
C  47.94300 27.82500 31.60500
C  45.66500 23.51800 31.12300
C  46.64700 23.42900 26.33100
C  48.64200 27.75600 26.74200
N  46.78600 25.74600 31.10200
C  47.23100 26.69300 32.03200
C  46.88400 26.25200 33.44700
C  46.17400 24.89700 33.30400
C  46.21600 24.69400 31.75700
C  46.82600 23.76500 34.13300
C  46.01900 27.32700 34.19100
C  46.51900 27.76800 35.58100
H  45.48000 27.58300 36.69600
N  46.18800 23.78000 28.76600
C  45.70200 23.05400 29.80700
C  45.15800 21.81800 29.27600
C  45.44400 21.75800 27.87700
C  46.20300 22.99900 27.59300
C  44.37600 20.70100 30.11300
C  44.83500 20.72300 26.87000
O  45.20800 20.67900 25.67200
C  43.78900 19.70300 27.27400
N  47.38700 25.64700 26.80100
C  47.23500 24.61100 25.93700
C  47.78300 24.91800 24.53800
C  48.11000 26.38000 24.62000
C  48.10500 26.59500 26.16000
C  49.01500 23.97300 24.31700
C  47.10600 27.32500 23.82500
C  47.61300 28.02600 22.55600
N  48.01200 27.52500 29.05500
C  48.70200 28.15700 28.08500
C  49.44100 29.30200 28.70800
C  49.08700 29.26600 30.07400
C  48.29400 28.10100 30.25800
C  50.20600 30.37000 28.01200
C  49.26700 29.94400 31.36900
O  49.86000 30.96600 31.61700
C  48.48900 29.00300 32.45000
C  49.57800 28.64200 33.49300
O  50.58400 28.04200 33.24400
O  49.20600 29.11100 34.72300
C  50.11100 29.04800 35.84500
H  45.12600 22.79000 31.73300
H  46.65900 22.58400 25.63900
H  49.11500 28.40100 25.99900
H  47.88200 26.14600 33.87200
H  45.15600 24.98000 33.68700
H  46.05200 23.32000 34.75900
H  47.55000 24.08400 34.88400
H  47.27600 23.04400 33.45200
H  44.96800 27.03700 34.21100
H  46.04000 28.16800 33.49900
H  46.74400 28.82900 35.46900
H  47.44400 27.28100 35.89000
H  43.31800 20.64400 29.85400
H  44.37300 20.93600 31.17700
H  44.87400 19.75400 29.90400
H  44.29900 18.85500 27.73100
H  43.36200 19.30500 26.35300
H  42.90600 20.09100 27.78200
H  47.10900 24.68200 23.71400
H  49.10500 26.60900 24.23600
H  48.83400 22.97100 24.70700
H  49.86600 24.32700 24.89800
H  49.31100 23.90400 23.27000
H  46.92300 28.06800 24.60100
H  46.22000 26.71700 23.64400
H  48.69200 27.96000 22.41500
H  47.46100 29.08700 22.75400
H  47.14500 27.71600 21.62200
H  49.61200 30.64400 27.14000
H  51.17600 29.97200 27.71300
H  50.37400 31.14200 28.76300
H  47.64400 29.58000 32.82600
H  49.93600 29.95000 36.43100
H  51.16000 29.15500 35.57000
H  50.02300 28.10700 36.38900

