158

Mg 47.58300 16.38900 28.39600
C  45.90300 16.17800 31.55100
C  50.00800 18.15800 30.03800
C  48.93200 16.97300 25.40900
C  44.93400 14.68900 26.99100
N  47.73400 17.33200 30.52700
C  47.01200 17.02300 31.63000
C  47.58700 17.70300 32.90500
C  48.88500 18.44100 32.34600
C  48.89000 17.97500 30.86200
C  48.79100 20.03800 32.30500
C  47.92900 16.68300 33.98600
C  47.63900 17.00100 35.51100
H  47.53800 18.45900 35.89400
N  49.32900 17.33200 27.87800
C  50.24500 17.85200 28.70300
C  51.41600 18.19900 27.93500
C  51.19900 17.86900 26.56500
C  49.76100 17.40800 26.54600
C  52.63000 18.85100 28.63800
C  52.01600 18.05800 25.30600
O  51.57700 17.74900 24.20300
C  53.49800 18.53900 25.46900
N  46.94900 15.94200 26.47500
C  47.65000 16.34400 25.38900
C  46.97700 15.79900 24.12400
C  45.83100 14.83800 24.56100
C  45.90200 15.17700 26.13000
C  46.54600 16.98600 23.24000
C  46.11600 13.34800 24.19200
C  45.50900 12.78000 22.91400
N  45.69800 15.61200 29.09900
C  44.80600 14.93000 28.33100
C  43.83400 14.44700 29.21500
C  44.11900 14.97200 30.48600
C  45.35900 15.57200 30.38500
C  42.72300 13.66400 28.91500
C  43.63400 15.13900 31.80000
O  42.65600 14.77700 32.43600
C  44.87700 15.81900 32.58900
C  44.17000 17.01700 33.31200
O  43.88600 18.12200 32.79900
O  43.86900 16.65200 34.56200
C  43.02300 17.59600 35.21700
H  50.82300 18.68600 30.53900
H  49.40100 17.00500 24.42400
H  44.15200 14.14800 26.45400
H  46.88900 18.38900 33.38400
H  49.82400 18.08000 32.76600
H  49.59500 20.53300 32.85000
H  47.92100 20.40600 32.84900
H  48.70900 20.29600 31.24900
H  48.99500 16.45400 33.96100
H  47.54600 15.68000 33.79800
H  48.33000 16.46200 36.15900
H  46.67900 16.51400 35.68600
H  53.55000 18.46800 28.19500
H  52.74200 18.70300 29.71200
H  52.61900 19.89200 28.31500
H  53.52000 19.55500 25.86500
H  54.10000 18.56600 24.56100
H  54.00900 17.76900 26.04700
H  47.62700 15.18100 23.50400
H  44.85700 15.09400 24.14400
H  47.00400 16.87200 22.25700
H  46.77200 17.98700 23.60600
H  45.46200 17.01200 23.13300
H  45.79600 12.82100 25.09000
H  47.19300 13.28400 24.03300
H  46.27100 12.59500 22.15700
H  44.77700 13.45200 22.46500
H  45.03500 11.82000 23.11700
H  42.89800 12.75100 28.34600
H  41.96900 14.26700 28.41000
H  42.34900 13.29400 29.86900
H  45.35300 15.15700 33.31200
H  43.55400 18.45300 35.63200
H  42.57900 17.00800 36.02100
H  42.25100 17.85900 34.49400
Mg 42.86100 41.27700 26.14200
C  42.08400 43.47400 28.66100
C  44.44500 39.26600 28.58500
C  43.85400 39.11300 23.68900
C  42.14500 43.70100 23.74100
N  43.25600 41.40800 28.38900
C  42.63200 42.31000 29.14900
C  42.75500 41.99200 30.65400
C  43.73800 40.72600 30.61800
C  43.79100 40.39700 29.12500
C  45.07900 40.99400 31.21800
C  41.41800 41.87700 31.37000
C  41.54300 42.00500 32.85500
H  40.47500 42.68400 33.62900
N  43.73300 39.32600 26.18200
C  44.38600 38.71600 27.22600
C  44.79500 37.38600 26.79000
C  44.50700 37.30100 25.34400
C  44.06100 38.65700 24.99200
C  45.33800 36.33800 27.74200
C  44.76200 36.18600 24.42500
O  44.48400 36.21200 23.25600
C  45.36600 34.82800 24.97100
N  43.03200 41.43300 23.89700
C  43.37400 40.36800 23.11300
C  43.04400 40.64200 21.67400
C  42.63100 42.16800 21.65800
C  42.60000 42.50200 23.19300
C  44.13800 40.25600 20.64800
C  41.26900 42.49300 20.96900
C  41.35800 43.60600 19.90100
N  42.28900 43.23500 26.08300
C  42.02200 44.08000 25.06900
C  41.49400 45.30900 25.66100
C  41.53800 45.14100 27.04000
C  42.04500 43.88600 27.29200
C  41.08800 46.50600 24.81900
C  41.24100 45.76000 28.35300
O  40.82700 46.86400 28.58500
C  41.63600 44.75500 29.42400
C  42.76800 45.37400 30.28900
O  43.80200 45.95000 29.85400
O  42.29600 45.35600 31.63200
C  43.18000 45.87900 32.62300
H  45.00000 38.57500 29.22300
H  43.89100 38.30900 22.95200
H  41.89600 44.42100 22.95800
H  43.22200 42.84900 31.13900
H  43.17400 39.91100 31.07200
H  45.81800 40.94800 30.41900
H  45.18300 40.20900 31.96700
H  45.14100 41.96600 31.70700
H  41.14600 40.89400 30.98700
H  40.61900 42.56900 31.10100
H  42.50000 42.33300 33.26100
H  41.48500 40.95300 33.13800
H  45.05400 36.58700 28.76500
H  46.42600 36.31200 27.79700
H  44.91700 35.39400 27.39500
H  45.86600 34.28600 24.16800
H  44.55400 34.20600 25.34800
H  46.21500 35.11000 25.59400
H  42.09100 40.14400 21.49300
H  43.40900 42.81700 21.25600
H  44.35100 41.02400 19.90500
H  43.73500 39.51000 19.96300
H  45.02600 39.80800 21.09500
H  40.47300 42.75600 21.66500
H  40.85200 41.57900 20.54500
H  42.04300 43.39100 19.08100
H  41.63600 44.56900 20.33100
H  40.36300 43.75500 19.48400
H  41.96600 46.87800 24.29100
H  40.71100 47.20900 25.56100
H  40.27900 46.30500 24.11600
H  40.77700 44.55300 30.06400
H  44.13000 45.34800 32.68700
H  42.68200 45.78600 33.58800
H  43.53200 46.88900 32.41300

