158

Mg 48.50800 16.67200 29.61500
C  46.19000 16.07000 32.17200
C  50.33800 18.64400 31.89100
C  50.64400 17.39500 27.18100
C  46.25300 15.25900 27.37000
N  48.18800 17.39700 31.69600
C  47.32400 16.74200 32.54900
C  47.78700 17.03300 33.99800
C  48.72900 18.27700 33.89600
C  49.13500 18.08600 32.39500
C  47.95200 19.68300 34.09700
C  48.41600 15.72700 34.63100
C  48.12400 15.36900 36.07800
H  48.11800 16.54600 37.05300
N  50.27400 17.68500 29.57700
C  50.90100 18.47900 30.63000
C  52.21200 18.96100 30.18300
C  52.39200 18.48200 28.85600
C  51.03700 17.88200 28.44500
C  53.05600 19.80300 31.13600
C  53.57800 18.72200 27.88400
O  53.55300 18.39000 26.70000
C  54.84000 19.28000 28.40700
N  48.48100 16.47000 27.59700
C  49.48000 16.74300 26.73000
C  49.28400 16.18800 25.31500
C  47.97800 15.41000 25.47500
C  47.54200 15.66900 26.91300
C  49.20300 17.34500 24.20600
C  48.09900 13.82800 25.19200
C  47.03300 13.19300 24.26500
N  46.49800 15.87600 29.72900
C  45.76100 15.31000 28.69100
C  44.54500 14.78700 29.24500
C  44.67000 15.07500 30.63400
C  45.84400 15.70200 30.82100
C  43.46800 14.08500 28.51300
C  44.09500 14.84800 31.95600
O  43.05200 14.33300 32.35300
C  45.03900 15.56300 33.00100
C  44.38100 16.64900 33.73600
O  43.99200 17.71600 33.22900
O  44.31900 16.31800 35.06200
C  43.71000 17.27100 35.95700
H  50.89900 19.22600 32.62500
H  51.33400 17.43000 26.33500
H  45.55000 14.71500 26.73600
H  46.87300 17.28900 34.53300
H  49.56500 18.19000 34.59100
H  47.94500 20.22200 33.15000
H  48.44500 20.29100 34.85600
H  46.96400 19.42300 34.47800
H  49.49100 15.90200 34.59000
H  48.24300 14.87500 33.97400
H  48.99400 14.77500 36.35700
H  47.20100 14.79700 36.17600
H  54.02500 19.99100 30.67300
H  53.28100 19.27700 32.06400
H  52.51000 20.69900 31.43200
H  54.56400 20.32200 28.57200
H  55.60200 19.24300 27.62900
H  55.03700 18.60500 29.24000
H  50.14400 15.56300 25.07400
H  47.14900 15.85300 24.92300
H  49.29400 18.36400 24.58100
H  48.32300 17.15500 23.59300
H  50.00400 17.24600 23.47300
H  48.06900 13.27800 26.13300
H  49.09100 13.70900 24.75700
H  47.50500 12.84700 23.34600
H  46.31400 13.96400 23.98700
H  46.54400 12.29500 24.64200
H  43.83800 13.41700 27.73500
H  42.67300 14.65800 28.03700
H  42.99100 13.47200 29.27800
H  45.31300 14.82000 33.75100
H  43.62900 18.33500 35.73400
H  44.19500 17.18600 36.92900
H  42.68600 16.95300 36.15300
Mg -10.16900 17.63100 40.72700
C  -6.62200 17.23900 40.54400
C  -9.72400 20.99200 39.83100
C  -13.43900 17.88900 40.05000
C  -10.35200 14.12000 40.65800
N  -8.38600 18.85700 40.11600
C  -7.03600 18.53200 40.24900
C  -6.19100 19.74200 39.90600
C  -7.14900 20.89900 40.09900
C  -8.49500 20.25800 40.02200
C  -6.83300 21.91800 41.27200
C  -5.87300 19.59500 38.36200
C  -4.45400 19.52200 37.91100
H  -4.23500 18.57900 36.79300
N  -11.42700 19.23500 40.10400
C  -10.99900 20.53400 39.81800
C  -12.14100 21.28700 39.52400
C  -13.26500 20.43100 39.91100
C  -12.74500 19.11500 40.07600
C  -12.24700 22.80900 39.13100
C  -14.76200 20.93000 39.94500
O  -15.03500 22.10700 39.69000
C  -15.96600 20.09300 40.40400
N  -11.57200 16.17800 40.10400
C  -12.92800 16.56800 40.04500
C  -13.85600 15.40300 40.06700
C  -12.89800 14.17900 40.12300
C  -11.50400 14.83200 40.29900
C  -14.97000 15.52500 41.14800
C  -12.98700 13.13900 39.00200
C  -13.58300 11.80400 39.42500
N  -8.85300 16.01200 40.90100
C  -9.04200 14.64300 40.82900
C  -7.80600 13.94800 40.91700
C  -6.79500 14.93000 40.84400
C  -7.50800 16.17700 40.79900
C  -7.52100 12.50500 40.99100
C  -5.40400 15.16000 40.62700
O  -4.42500 14.40600 40.53200
C  -5.26100 16.68900 40.63400
C  -4.37200 17.12900 41.68300
O  -3.49300 17.96300 41.56600
O  -4.61600 16.48000 42.84100
C  -3.54300 16.62300 43.88200
H  -9.55600 22.07000 39.76700
H  -14.52200 17.94400 39.92200
H  -10.49900 13.03900 40.71300
H  -5.26700 19.70100 40.48300
H  -7.19700 21.51000 39.19700
H  -6.36200 22.82800 40.90200
H  -6.17300 21.37800 41.95100
H  -7.74300 22.10000 41.84300
H  -6.29700 20.38700 37.74400
H  -6.28100 18.69700 37.89800
H  -3.83400 19.06600 38.68200
H  -4.07000 20.50200 37.62600
H  -11.35900 23.11900 38.58200
H  -12.42100 23.34700 40.06300
H  -13.01500 23.09600 38.41300
H  -16.43600 19.49800 39.62100
H  -16.66700 20.64700 41.02900
H  -15.64300 19.31400 41.09500
H  -14.35800 15.40500 39.09900
H  -13.01700 13.71300 41.10100
H  -14.80700 16.41200 41.76000
H  -14.78500 14.78400 41.92600
H  -15.98000 15.51500 40.73800
H  -11.98900 12.97100 38.59700
H  -13.70500 13.44700 38.24200
H  -13.74900 11.70100 40.49700
H  -12.92400 11.06800 38.96300
H  -14.58100 11.79500 38.98700
H  -6.73100 12.26100 40.28100
H  -8.35700 11.88200 40.67400
H  -7.29200 12.15300 41.99700
H  -4.67400 16.84100 39.72800
H  -3.78400 15.85000 44.61200
H  -3.55000 17.62400 44.31300
H  -2.59400 16.46200 43.37000

