158

Mg 47.57300 24.96100 27.94200
C  48.64500 27.50600 30.11100
C  46.42800 23.11800 30.60300
C  46.82400 22.44900 25.89900
C  49.50200 26.51700 25.47100
N  47.38100 25.37700 30.15000
C  47.98700 26.43200 30.82100
C  47.78000 26.25000 32.30100
C  47.08500 24.81100 32.46100
C  46.96900 24.37000 31.00900
C  47.86100 23.83000 33.29300
C  46.92400 27.35500 32.93900
C  47.32300 27.92800 34.32600
H  46.22100 27.85800 35.37600
N  46.67500 23.08900 28.18800
C  46.34400 22.46400 29.38600
C  45.81600 21.11000 29.10500
C  45.84200 20.94600 27.70100
C  46.44000 22.18700 27.19000
C  45.51500 20.13100 30.22100
C  45.40100 19.74500 26.94700
O  45.66100 19.69400 25.72900
C  44.65100 18.65200 27.62800
N  48.09500 24.51400 25.93900
C  47.49800 23.50900 25.24800
C  47.90800 23.44200 23.78400
C  48.64800 24.81400 23.63300
C  48.78300 25.33400 25.09200
C  48.72400 22.19900 23.47000
C  47.88900 25.96000 22.89700
C  48.90900 26.89500 22.16600
N  48.80900 26.71900 27.69600
C  49.45900 27.26700 26.65200
C  50.15300 28.49300 26.95300
C  49.77200 28.67400 28.33700
C  49.01900 27.56700 28.75800
C  50.98900 29.42000 26.20200
C  49.90100 29.52300 29.52700
O  50.48600 30.60800 29.62500
C  49.20400 28.75000 30.70900
C  50.22400 28.57000 31.77600
O  51.26400 27.93300 31.68900
O  49.72900 29.21200 32.84400
C  50.61400 29.09700 34.03500
H  46.03400 22.56100 31.45500
H  46.58600 21.71800 25.12300
H  50.00200 27.01500 24.63900
H  48.79600 26.23500 32.69500
H  46.12300 24.90300 32.96700
H  48.50600 24.36300 33.99200
H  48.45900 23.11700 32.72600
H  47.05800 23.33600 33.84000
H  45.86100 27.11600 32.94500
H  46.93000 28.26800 32.34500
H  47.60300 28.96700 34.14800
H  48.17200 27.38700 34.74400
H  44.53700 19.71400 29.98000
H  45.64000 20.48800 31.24400
H  46.22100 19.30400 30.28600
H  44.09700 18.06500 26.89600
H  43.85000 19.09700 28.21800
H  45.36100 18.11100 28.25400
H  47.10500 23.45400 23.04700
H  49.63800 24.78400 23.18000
H  49.70100 22.37000 23.01900
H  48.21700 21.48800 22.81800
H  49.02200 21.72100 24.40300
H  47.31900 26.57700 23.59200
H  47.32800 25.51600 22.07400
H  49.92400 26.67700 22.49800
H  48.69400 27.94300 22.37500
H  48.81600 26.77200 21.08700
H  51.88200 28.88100 25.88900
H  51.39600 30.27400 26.74300
H  50.40300 29.71900 25.33300
H  48.42600 29.44100 31.03200
H  50.36600 30.01700 34.56400
H  51.69700 29.18600 33.95700
H  50.46200 28.23100 34.68000
Mg -11.22500 37.86400 42.43000
C  -9.01200 35.30400 41.43800
C  -9.29100 40.18500 40.66700
C  -13.57300 40.13100 42.87800
C  -13.27100 35.38600 43.69300
N  -9.30500 37.77300 41.19400
C  -8.70700 36.56200 40.79100
C  -7.55600 36.75800 39.78400
C  -7.50900 38.35900 39.75300
C  -8.75600 38.79000 40.61000
C  -6.21000 39.07200 40.34600
C  -7.85000 36.02700 38.45600
C  -6.69900 35.31400 37.85900
H  -5.74000 36.10700 36.87400
N  -11.30500 39.95500 41.98200
C  -10.45700 40.69500 41.24900
C  -10.96000 42.05400 41.15700
C  -12.20400 42.07500 41.76200
C  -12.48000 40.68500 42.21500
C  -10.16500 43.21700 40.60600
C  -13.09500 43.33200 41.96900
O  -12.63000 44.34400 41.47400
C  -14.41700 43.29200 42.74600
N  -13.40600 37.74300 42.82200
C  -13.92100 38.84800 43.26100
C  -15.16100 38.51900 44.11000
C  -15.10400 37.04600 44.35500
C  -13.89400 36.65700 43.53800
C  -15.26500 39.43900 45.38300
C  -16.36800 36.17300 44.08200
C  -17.08700 35.59800 45.36400
N  -11.24600 35.75000 42.52800
C  -12.11200 34.89300 43.18100
C  -11.62000 33.57800 43.15600
C  -10.37800 33.63900 42.52500
C  -10.21100 35.01000 42.14600
C  -12.16700 32.43300 43.91500
C  -9.20800 32.93200 41.99100
O  -9.04200 31.71800 42.01400
C  -8.32300 33.95900 41.21200
C  -6.97200 33.89300 41.72700
O  -5.98600 33.23000 41.34100
O  -6.84300 34.88300 42.66900
C  -5.54800 35.02800 43.26300
H  -8.66400 40.83900 40.05700
H  -14.37400 40.79900 43.20200
H  -13.95500 34.70300 44.20200
H  -6.64800 36.37300 40.24900
H  -7.64900 38.70200 38.72700
H  -6.52500 39.88600 40.99900
H  -5.47200 39.38100 39.60700
H  -5.67800 38.39400 41.01300
H  -8.25700 36.79900 37.80300
H  -8.73600 35.40000 38.56200
H  -7.18800 34.50900 37.31200
H  -6.14700 34.80400 38.64800
H  -10.72400 43.72800 39.82200
H  -9.26500 42.84900 40.11500
H  -9.83200 43.94000 41.35000
H  -14.29800 42.77500 43.69800
H  -15.18800 42.97800 42.04200
H  -14.68100 44.32300 42.97800
H  -16.04700 38.72500 43.50900
H  -14.75000 36.91900 45.37800
H  -14.55500 40.26600 45.35400
H  -15.18100 38.78400 46.25100
H  -16.18600 40.01200 45.48900
H  -16.10900 35.34400 43.42300
H  -16.99900 36.89100 43.55900
H  -16.98200 36.22100 46.25300
H  -16.66300 34.59900 45.46700
H  -18.15800 35.48200 45.19600
H  -13.23500 32.63300 43.83300
H  -11.90900 32.52000 44.97000
H  -11.86200 31.44200 43.57900
H  -8.35200 33.59800 40.18400
H  -4.96500 35.71900 42.65300
H  -4.99400 34.09600 43.38000
H  -5.72400 35.47300 44.24200

