158

Mg 1.80500 -1.17600 45.01300
C  5.22100 -0.51300 44.61100
C  0.98500 1.31600 42.93200
C  -1.47300 -2.26600 45.06400
C  2.78100 -4.26400 46.42800
N  2.97800 0.07900 43.84000
C  4.33400 0.25700 43.80700
C  4.78200 1.41700 42.88800
C  3.39000 2.02400 42.47600
C  2.40300 1.07100 43.13600
C  3.16100 3.56800 42.91700
C  5.80800 1.00800 41.64600
C  7.11200 1.81100 41.43400
H  7.69400 2.22600 40.09200
N  -0.06200 -0.47000 44.22100
C  -0.16100 0.62100 43.40800
C  -1.52100 0.88500 43.16800
C  -2.29600 -0.17300 43.73000
C  -1.28800 -1.03100 44.38800
C  -2.10100 2.06700 42.29600
C  -3.76200 -0.40100 43.54300
O  -4.44200 0.42100 42.94300
C  -4.61100 -1.54100 44.13400
N  0.86900 -3.02100 45.47700
C  -0.53900 -3.16000 45.55100
C  -0.90500 -4.40400 46.34200
C  0.42300 -5.11600 46.63400
C  1.41000 -4.02400 46.28500
C  -1.84700 -4.38100 47.55200
C  0.68400 -6.41900 45.74300
C  1.29500 -7.70600 46.38100
N  3.67600 -2.23100 45.53100
C  3.88500 -3.46100 46.14000
C  5.36000 -3.55200 46.42100
C  5.90000 -2.38700 45.97100
C  4.84700 -1.65300 45.36700
C  5.95400 -4.67100 47.18500
C  7.16100 -1.58100 45.87200
O  8.27900 -1.75100 46.25500
C  6.72600 -0.36500 44.88100
C  7.11300 1.00600 45.39900
O  6.52100 1.53800 46.30300
O  8.09100 1.51600 44.60800
C  8.16700 2.97700 44.73700
H  0.67500 2.09600 42.23400
H  -2.48000 -2.68700 45.09600
H  3.04600 -5.08800 47.09400
H  5.26100 2.24100 43.41800
H  3.15700 1.90300 41.41800
H  2.73300 4.13400 42.08900
H  4.05200 4.10600 43.24300
H  2.44900 3.54000 43.74100
H  5.20900 0.95300 40.73700
H  6.12900 -0.03300 41.68300
H  7.80500 1.13200 41.93100
H  7.02600 2.70300 42.05400
H  -2.75500 1.74900 41.48500
H  -1.36900 2.70700 41.80200
H  -2.74300 2.65700 42.95000
H  -4.38300 -1.64200 45.19500
H  -4.62400 -2.45200 43.53600
H  -5.62000 -1.12800 44.13100
H  -1.47600 -5.10000 45.72800
H  0.45800 -5.30900 47.70700
H  -2.73200 -4.98300 47.34900
H  -2.01200 -3.31900 47.73600
H  -1.40000 -4.88300 48.41000
H  1.39800 -6.15900 44.96200
H  -0.25200 -6.64400 45.23200
H  0.50800 -8.45800 46.33400
H  1.47900 -7.57000 47.44700
H  2.27900 -7.89000 45.95000
H  5.88400 -5.51600 46.50000
H  5.35500 -4.85200 48.07800
H  6.94600 -4.47400 47.59100
H  7.41000 -0.42500 44.03500
H  8.93700 3.17300 45.48300
H  7.28700 3.57200 44.97800
H  8.63400 3.38000 43.83800
Mg 7.96200 3.05100 27.75900
C  9.60000 2.09300 30.79800
C  5.97600 5.14800 29.65000
C  6.32500 3.77300 24.98800
C  9.69500 0.42600 26.20100
N  7.66000 3.34400 30.04800
C  8.44800 2.95900 31.03500
C  8.06500 3.73000 32.36000
C  6.83900 4.63600 32.00100
C  6.76300 4.32300 30.48600
C  5.47400 4.44600 32.80100
C  9.18800 4.45100 33.14900
C  8.67400 5.00900 34.48900
H  9.50800 4.66500 35.71000
N  6.46300 4.32200 27.34800
C  5.82100 5.15600 28.21900
C  5.01600 6.03500 27.43400
C  5.19600 5.78900 26.05500
C  5.90400 4.54300 26.08100
C  4.23200 7.13200 28.01700
C  4.82300 6.58500 24.85200
O  5.13900 6.21900 23.74300
C  4.07000 7.85700 24.99500
N  7.93100 2.12300 26.00200
C  7.20800 2.66500 24.92500
C  7.40900 1.87400 23.62000
C  8.54500 0.91800 24.06200
C  8.75900 1.14300 25.49900
C  6.20900 1.27200 22.90900
C  9.79200 1.03900 23.14400
C  10.71400 2.22800 23.35500
N  9.40100 1.49300 28.29300
C  10.01500 0.52900 27.56200
C  10.97000 -0.17900 28.39600
C  10.78000 0.41200 29.65100
C  9.81200 1.45900 29.52700
C  11.81700 -1.23900 27.94400
C  11.23000 0.40100 31.03800
O  12.06800 -0.32500 31.53900
C  10.37700 1.41700 31.88800
C  9.48600 0.64700 32.85000
O  8.55000 -0.11700 32.56500
O  9.97300 0.91700 34.06700
C  9.42700 0.21900 35.22600
H  5.44500 5.92100 30.20800
H  5.87700 4.01500 24.02200
H  10.20400 -0.39200 25.68600
H  7.69600 3.01300 33.09300
H  7.17200 5.66800 32.11700
H  5.57300 3.93800 33.76000
H  4.87800 3.84900 32.11100
H  4.96100 5.38800 32.99500
H  9.57800 5.29800 32.58300
H  9.98500 3.76800 33.44300
H  7.66200 4.63700 34.65000
H  8.67300 6.08200 34.30000
H  4.01800 7.04900 29.08300
H  3.22400 7.10500 27.60400
H  4.69900 8.09000 27.79100
H  3.04800 7.62000 25.29000
H  4.03200 8.20500 23.96300
H  4.54400 8.58300 25.65600
H  7.95900 2.59000 23.00900
H  8.18600 -0.09400 23.87600
H  6.36100 0.22900 22.63000
H  6.03700 1.81400 21.98000
H  5.29200 1.40900 23.48200
H  9.65600 1.26400 22.08600
H  10.39800 0.14700 23.30200
H  11.68200 1.82300 23.64900
H  10.30100 2.95200 24.05700
H  10.90800 2.72300 22.40400
H  11.45200 -2.13000 28.45400
H  12.87000 -1.06400 28.16400
H  11.59200 -1.37000 26.88500
H  10.97500 2.12700 32.46000
H  9.81100 0.50800 36.20500
H  9.76200 -0.79500 35.01100
H  8.33800 0.18700 35.25100

