158

Mg 2.35300 -1.07200 43.88500
C  5.77600 -0.39200 43.33000
C  1.51800 1.51400 41.97600
C  -0.78400 -2.27200 43.99400
C  3.38300 -4.00500 45.68900
N  3.55900 0.26500 42.58500
C  4.91400 0.50300 42.65200
C  5.31000 1.67000 41.70700
C  3.94600 2.39900 41.47400
C  2.91200 1.40100 42.08000
C  3.83500 3.79000 42.25300
C  5.96100 1.22100 40.40400
C  7.32700 1.75400 40.12800
H  7.43500 2.23300 38.67200
N  0.58200 -0.40200 43.18500
C  0.43700 0.71000 42.41600
C  -0.96200 0.95500 42.14300
C  -1.69000 -0.10700 42.70300
C  -0.65500 -0.96000 43.35700
C  -1.41700 2.09700 41.35500
C  -3.25200 -0.26000 42.75800
O  -3.97500 0.61800 42.32600
C  -3.79700 -1.48400 43.45600
N  1.40400 -2.82700 45.04400
C  0.11200 -3.11800 44.66300
C  -0.29100 -4.48500 45.14100
C  1.00800 -5.11000 45.66300
C  1.99100 -3.93500 45.49000
C  -1.51300 -4.48200 46.10500
C  1.55800 -6.43500 44.97700
C  1.90900 -7.56100 45.90700
N  4.24200 -2.02900 44.46100
C  4.46200 -3.16000 45.24300
C  5.94900 -3.34400 45.36700
C  6.49300 -2.23900 44.71200
C  5.42000 -1.48000 44.16800
C  6.62700 -4.51700 46.03400
C  7.73700 -1.53100 44.40300
O  8.91500 -1.90800 44.63800
C  7.28600 -0.23100 43.56800
C  7.68900 0.92300 44.31400
O  6.98800 1.65800 45.03500
O  9.09600 1.04000 44.23600
C  9.71800 2.03800 45.15200
H  1.26100 2.42700 41.43600
H  -1.72700 -2.81700 43.90900
H  3.58500 -4.90600 46.27100
H  5.98100 2.35800 42.22100
H  3.80600 2.57500 40.40800
H  3.12300 3.66800 43.06900
H  3.42400 4.49500 41.53100
H  4.80100 4.18100 42.57100
H  5.35800 1.38900 39.51100
H  6.02900 0.13300 40.40300
H  8.02700 0.92200 40.19800
H  7.56900 2.55100 40.83100
H  -2.46200 2.13100 41.04700
H  -0.71500 2.38100 40.57100
H  -1.31300 2.93900 42.04000
H  -4.85000 -1.31900 43.68300
H  -3.31900 -1.70000 44.41200
H  -3.61100 -2.41100 42.91400
H  -0.61300 -5.00100 44.23600
H  0.92700 -5.31700 46.73000
H  -1.31900 -4.81200 47.12600
H  -2.38500 -4.97400 45.67500
H  -1.79200 -3.45600 46.34900
H  2.44200 -6.13800 44.41400
H  0.82500 -6.74700 44.23300
H  2.98800 -7.70700 45.85100
H  1.48600 -8.52600 45.62700
H  1.72100 -7.44700 46.97400
H  7.39100 -3.96000 46.57600
H  7.09700 -5.25700 45.38600
H  5.99900 -5.03400 46.75900
H  7.85900 -0.31300 42.64400
H  9.58300 1.69500 46.17700
H  9.35100 3.06400 45.11000
H  10.78900 2.03200 44.95200
Mg -4.35600 24.88200 26.06100
C  -2.80500 26.49800 28.81900
C  -5.34200 22.42700 28.36000
C  -5.47100 23.25500 23.47400
C  -2.86300 27.32100 23.98400
N  -4.04100 24.52800 28.32100
C  -3.59600 25.45900 29.20600
C  -3.94700 25.03200 30.68600
C  -4.41200 23.51100 30.51000
C  -4.58400 23.44900 28.93800
C  -3.44200 22.40900 31.02700
C  -5.20900 26.00700 31.00900
C  -5.44200 26.37500 32.52500
H  -5.26400 25.24700 33.56900
N  -5.24400 23.16800 25.92700
C  -5.67600 22.32800 27.01400
C  -6.32900 21.24300 26.38900
C  -6.41300 21.35300 24.99200
C  -5.72100 22.68200 24.74800
C  -6.77400 20.00800 27.15300
C  -7.06200 20.46100 23.99200
O  -6.97100 20.78700 22.78000
C  -7.90100 19.29700 24.42200
N  -4.34700 25.33700 24.03600
C  -4.83500 24.45900 23.15800
C  -4.48900 24.90700 21.67900
C  -3.90500 26.32700 21.90800
C  -3.65800 26.37500 23.41300
C  -3.53300 23.87300 20.97400
C  -4.66900 27.55100 21.30900
C  -4.97400 27.58500 19.76700
N  -3.08200 26.52400 26.24400
C  -2.51400 27.36000 25.33400
C  -1.52100 28.16600 25.98400
C  -1.64100 27.92500 27.39600
C  -2.58500 26.86300 27.47900
C  -0.72900 29.15800 25.23200
C  -1.13400 28.29200 28.67100
O  -0.28000 29.08600 28.99000
C  -1.93800 27.44400 29.65400
C  -1.10100 26.70300 30.70500
O  -0.46700 25.66600 30.51100
O  -1.22900 27.37900 31.89500
C  -0.40600 26.81200 32.96900
H  -5.82100 21.78300 29.10000
H  -5.78700 22.74900 22.55900
H  -2.58300 28.09700 23.26900
H  -3.10400 25.05800 31.37600
H  -5.29200 23.41000 31.14600
H  -2.76600 22.86700 31.74900
H  -2.75900 21.97700 30.29600
H  -3.99000 21.62600 31.55100
H  -6.14900 25.60300 30.63400
H  -5.12600 27.00100 30.56900
H  -6.52100 26.52900 32.54100
H  -4.83100 27.22500 32.83000
H  -7.83400 19.89000 26.93000
H  -6.57400 20.21000 28.20600
H  -6.24800 19.11900 26.80400
H  -7.38400 18.48000 24.92500
H  -8.54600 18.91000 23.63300
H  -8.70000 19.58800 25.10400
H  -5.34900 24.98500 21.01400
H  -2.89600 26.39400 21.49900
H  -3.18800 23.04100 21.58700
H  -2.61100 24.34000 20.62900
H  -4.13800 23.38100 20.21200
H  -4.09000 28.44500 21.54100
H  -5.66300 27.69600 21.73300
H  -4.11100 27.07500 19.33900
H  -4.93800 28.66500 19.62000
H  -5.95100 27.21600 19.45700
H  -1.33800 29.72400 24.52700
H  0.02800 28.58300 24.69900
H  -0.27700 29.88100 25.91100
H  -2.54500 28.11800 30.25800
H  0.66800 26.97500 32.87000
H  -0.54000 25.73800 33.10100
H  -0.43900 27.35300 33.91400

