158

Mg 52.71800 23.78800 44.17900
C  50.15900 26.08800 43.47200
C  50.80700 21.32500 42.68900
C  55.45800 21.87200 43.99900
C  54.53400 26.42600 45.49700
N  50.75100 23.77900 43.05700
C  49.95000 24.84900 42.89500
C  48.84800 24.36000 41.93100
C  48.80300 22.83500 42.08200
C  50.22700 22.61900 42.64400
C  47.67500 22.29800 43.07400
C  48.94000 24.77300 40.39800
C  50.33900 25.11900 39.87900
H  50.44300 25.95400 38.64600
N  53.07800 21.77200 43.46000
C  52.18400 20.90600 43.01300
C  52.81300 19.58600 42.98400
C  54.18200 19.78900 43.13600
C  54.30500 21.18000 43.60300
C  52.23600 18.22200 42.61000
C  55.28300 18.72700 42.96900
O  54.99000 17.65700 42.55600
C  56.64500 19.11600 43.01800
N  54.74600 24.22500 44.40800
C  55.68500 23.25900 44.30700
C  57.05400 23.70700 44.79700
C  56.73500 25.07800 45.41300
C  55.26900 25.32300 45.12500
C  57.80100 22.76900 45.81400
C  57.40300 26.32900 44.81100
C  57.86500 27.38400 45.78000
N  52.40800 25.85700 44.48400
C  53.21000 26.72600 45.13400
C  52.56400 27.99600 45.22800
C  51.27800 27.79200 44.70900
C  51.26900 26.48300 44.20700
C  53.11100 29.25300 45.82500
C  49.97600 28.37500 44.47000
O  49.59900 29.48300 44.79900
C  49.24300 27.29000 43.54900
C  48.98000 27.87100 42.18500
O  49.85700 28.00600 41.32100
O  47.72100 28.27200 42.09000
C  47.34800 29.12500 40.98600
H  50.20700 20.51900 42.26300
H  56.42300 21.36400 43.92900
H  55.05800 27.16800 46.10300
H  47.85000 24.68900 42.22000
H  48.67300 22.26400 41.16300
H  47.12900 21.50900 42.55700
H  46.92000 23.01100 43.40500
H  48.25600 21.92000 43.91600
H  48.39400 25.69400 40.19200
H  48.55600 23.90300 39.86600
H  50.80700 24.15600 39.67600
H  50.88500 25.55100 40.71800
H  52.38600 17.90700 41.57700
H  51.19900 18.38200 42.90700
H  52.46400 17.40700 43.29700
H  56.86800 19.37000 44.05400
H  56.86000 19.96900 42.37500
H  57.38700 18.37100 42.73000
H  57.69600 23.71900 43.91600
H  56.76800 25.12600 46.50100
H  57.05300 22.05500 46.15800
H  58.26200 23.30500 46.64400
H  58.54000 22.30000 45.16400
H  56.88300 26.80500 43.98000
H  58.28600 25.99800 44.26400
H  58.87300 27.67300 45.48500
H  57.89900 27.03900 46.81400
H  57.25100 28.26800 45.60700
H  52.42800 29.74100 46.52000
H  53.38700 30.06300 45.14900
H  54.04100 29.16500 46.38600
H  48.31600 27.05100 44.07000
H  48.24700 29.69800 40.75700
H  46.57300 29.86500 41.19000
H  47.14000 28.57300 40.06900
Mg -6.14900 25.85800 26.21800
C  -4.26300 27.30500 28.80200
C  -7.51100 23.76200 28.33500
C  -7.42600 24.48500 23.47000
C  -4.03400 27.92100 24.03100
N  -5.81300 25.51800 28.31000
C  -5.07900 26.26900 29.19600
C  -5.42300 25.87800 30.67200
C  -6.27300 24.50600 30.44900
C  -6.55600 24.61100 28.90500
C  -5.45900 23.34400 30.97100
C  -6.21200 27.05900 31.39800
C  -5.91500 27.26500 32.87100
H  -5.38500 26.12400 33.76700
N  -7.48000 24.34000 25.96100
C  -7.93500 23.59300 26.96300
C  -8.88400 22.62200 26.44900
C  -8.91600 22.84300 24.98100
C  -7.98400 23.97200 24.77000
C  -9.64700 21.54300 27.30900
C  -9.73500 22.20200 23.89100
O  -9.71600 22.57200 22.75000
C  -10.67800 21.15800 24.37500
N  -5.69800 26.13800 24.05000
C  -6.48200 25.40500 23.13500
C  -6.00600 25.61000 21.69000
C  -5.02500 26.84500 21.88200
C  -4.89500 27.02200 23.40400
C  -5.45500 24.38600 20.95500
C  -5.64900 28.06900 21.11800
C  -5.70500 27.93000 19.61700
N  -4.50600 27.29800 26.31300
C  -3.82100 28.07500 25.41400
C  -2.91000 29.01300 26.07400
C  -3.08500 28.75100 27.41600
C  -4.00000 27.66400 27.49400
C  -1.92100 29.93200 25.26200
C  -2.61500 29.11500 28.72200
O  -1.74700 29.85000 29.10500
C  -3.35400 28.14600 29.73200
C  -2.41400 27.28400 30.45100
O  -1.78800 26.33800 29.95800
O  -2.32800 27.71700 31.69900
C  -1.40900 27.17200 32.72700
H  -7.82600 23.03800 29.08900
H  -7.79300 23.93100 22.60300
H  -3.50800 28.64200 23.40200
H  -4.57200 25.65100 31.31500
H  -7.24300 24.62800 30.93200
H  -5.01300 22.71500 30.20100
H  -6.23500 22.86000 31.56300
H  -4.67300 23.57700 31.69000
H  -7.28900 26.91000 31.31400
H  -6.01500 28.00300 30.88900
H  -6.84700 27.64200 33.29200
H  -5.22300 28.10000 32.97600
H  -10.69300 21.37900 27.05000
H  -9.58000 21.80100 28.36600
H  -9.05000 20.63200 27.28600
H  -10.30000 20.27500 24.89000
H  -11.17200 20.79000 23.47700
H  -11.47500 21.60600 24.96800
H  -6.87600 26.04300 21.19600
H  -4.00500 26.61200 21.57600
H  -5.57900 23.50900 21.59000
H  -4.43000 24.49900 20.60300
H  -6.01500 24.21100 20.03600
H  -4.98600 28.93400 21.13200
H  -6.60800 28.43600 21.48400
H  -5.26100 26.96300 19.37900
H  -5.25700 28.74600 19.05100
H  -6.75700 27.93700 19.33200
H  -2.33400 30.93900 25.20200
H  -1.60700 29.41500 24.35500
H  -1.00400 30.14000 25.81300
H  -3.96900 28.74800 30.40200
H  -1.74400 27.06600 33.75800
H  -0.50700 27.78500 32.73100
H  -1.18800 26.12700 32.51000

