158

Mg 6.49400 54.36100 41.35400
C  6.19800 50.93100 41.20600
C  10.00900 53.90400 40.53800
C  6.86400 57.71800 41.00600
C  3.16500 54.69700 41.74700
N  7.85400 52.60300 40.72900
C  7.47100 51.24900 40.83700
C  8.72300 50.33900 40.63900
C  9.93200 51.34100 40.69500
C  9.22200 52.68700 40.74500
C  10.91900 51.07500 41.88600
C  8.66400 49.61200 39.27800
C  8.45700 50.49500 38.10700
H  7.49200 49.96900 37.04400
N  8.15400 55.61900 40.83900
C  9.46900 55.24500 40.59200
C  10.27900 56.46100 40.32000
C  9.39800 57.53800 40.46800
C  8.04700 56.93900 40.77800
C  11.70100 56.39100 39.86400
C  9.76400 59.03300 40.20300
O  10.90700 59.34400 39.88300
C  8.79300 60.09500 40.17100
N  5.19500 56.00100 41.14700
C  5.53400 57.27600 41.14800
C  4.42700 58.22600 41.56600
C  3.24700 57.24400 41.55200
C  3.89300 55.85900 41.42700
C  4.63100 58.78500 42.99800
C  2.18800 57.51300 40.40500
C  0.78700 57.82500 40.85700
N  4.92600 53.11700 41.49300
C  3.60800 53.34600 41.80000
C  2.98100 52.12700 42.17900
C  3.98100 51.17300 41.99300
C  5.16700 51.80100 41.47300
C  1.63200 51.95300 42.73400
C  4.20700 49.79300 42.02800
O  3.44600 48.87600 42.36100
C  5.62900 49.58300 41.49500
C  5.43200 48.70500 40.35200
O  4.86500 49.04000 39.36400
O  5.78300 47.40100 40.60700
C  5.19800 46.33300 39.75400
H  11.09600 53.84600 40.44700
H  7.04200 58.79400 41.06300
H  2.12300 54.95400 41.94800
H  8.69800 49.59300 41.43400
H  10.47100 51.36100 39.74700
H  11.18200 51.94200 42.49200
H  11.84800 50.67900 41.47500
H  10.58600 50.21900 42.47300
H  8.01700 48.73900 39.20000
H  9.64600 49.17600 39.09000
H  9.41900 50.49700 37.59600
H  8.20400 51.54700 38.23100
H  11.82800 57.01400 38.97900
H  11.88100 55.39000 39.47200
H  12.44900 56.74400 40.57400
H  7.87200 59.76800 39.68900
H  9.22800 60.89400 39.57000
H  8.67400 60.52500 41.16600
H  4.36400 59.07600 40.88700
H  2.68200 57.18100 42.48200
H  3.92300 58.28900 43.66200
H  4.41400 59.85300 43.00400
H  5.63700 58.61600 43.38100
H  2.24200 56.81700 39.56700
H  2.61600 58.40000 39.93900
H  0.63100 58.86300 40.56400
H  0.55300 57.83600 41.92100
H  0.07700 57.31300 40.20700
H  1.04300 51.52100 41.92400
H  1.13300 52.77700 43.24300
H  1.86300 51.14600 43.42900
H  6.34100 49.27200 42.26000
H  4.21000 46.24900 40.20600
H  5.72200 45.37800 39.71400
H  5.10600 46.71800 38.73900
Mg -4.75800 24.93400 26.06600
C  -3.18400 26.60800 28.66600
C  -6.24000 22.95000 28.21500
C  -5.56200 23.11800 23.39300
C  -2.98100 27.04100 23.85600
N  -4.73900 24.84700 28.25800
C  -3.97100 25.58100 29.09500
C  -4.36600 25.30300 30.56300
C  -5.07400 23.94200 30.39200
C  -5.42800 23.90600 28.88600
C  -4.19100 22.75000 30.78000
C  -5.14700 26.48500 31.16900
C  -6.13500 26.12600 32.30100
H  -5.68000 25.11800 33.37900
N  -5.69900 23.26300 25.85900
C  -6.20800 22.52700 26.88100
C  -6.87000 21.29800 26.40800
C  -6.70500 21.37700 24.98500
C  -5.96800 22.66600 24.69400
C  -7.65800 20.36600 27.30300
C  -7.11700 20.34100 23.88100
O  -6.91100 20.49200 22.70000
C  -7.77400 19.06500 24.27800
N  -4.52000 25.15000 23.88900
C  -4.93400 24.25900 22.94900
C  -4.76200 24.87300 21.49500
C  -3.90100 26.12000 21.78100
C  -3.78200 26.10500 23.26800
C  -4.29600 23.95100 20.34000
C  -4.47700 27.52900 21.25500
C  -3.44700 28.40100 20.51800
N  -3.32300 26.50400 26.15300
C  -2.68500 27.25900 25.22400
C  -1.76900 28.25300 25.89500
C  -1.90800 27.99100 27.19500
C  -2.86800 26.89900 27.31700
C  -0.95500 29.24300 25.13800
C  -1.49300 28.46500 28.52400
O  -0.72300 29.34800 28.87800
C  -2.32400 27.55000 29.46400
C  -1.42100 26.91200 30.43200
O  -0.30800 26.46500 30.13900
O  -1.89800 26.93000 31.77100
C  -1.13000 26.05800 32.64600
H  -6.94700 22.41500 28.85200
H  -5.76000 22.55300 22.47900
H  -2.52600 27.69500 23.10900
H  -3.46100 25.16600 31.15400
H  -6.00200 23.87000 30.95800
H  -4.32700 21.93100 30.07400
H  -4.46000 22.38800 31.77200
H  -3.12400 22.96100 30.70300
H  -5.68000 26.98600 30.36100
H  -4.43400 27.20100 31.57800
H  -7.06500 25.80400 31.83200
H  -6.35100 27.07100 32.79800
H  -8.68300 20.52600 26.96800
H  -7.68300 20.56900 28.37300
H  -7.30800 19.34700 27.14100
H  -8.69400 19.18300 24.85200
H  -6.96500 18.61300 24.85200
H  -8.09400 18.41600 23.46300
H  -5.73700 25.21800 21.14900
H  -2.93900 25.98000 21.28700
H  -4.28300 22.89200 20.59900
H  -3.27400 24.24500 20.10100
H  -4.90100 23.98400 19.43400
H  -4.75500 28.11400 22.13200
H  -5.27100 27.26700 20.55600
H  -2.63500 27.73600 20.22300
H  -3.15200 29.26300 21.11600
H  -3.92000 28.76900 19.60800
H  -0.92000 28.85600 24.12000
H  0.03800 29.44300 25.54200
H  -1.49200 30.18800 25.06800
H  -3.02700 28.20200 29.98300
H  -0.09800 26.40700 32.69100
H  -1.09300 25.09000 32.14700
H  -1.48400 25.98800 33.67500

