158

Mg 24.55000 -6.00100 45.83700
C  26.91200 -3.81000 44.58800
C  22.21700 -4.90500 43.78900
C  22.87900 -8.83700 46.54800
C  27.25000 -7.32600 47.90100
N  24.61600 -4.62500 44.31600
C  25.63000 -3.72100 44.02600
C  25.16200 -2.75100 42.93500
C  23.63400 -2.98000 42.94100
C  23.48800 -4.23600 43.75800
C  22.92900 -1.71400 43.58700
C  25.77900 -2.94600 41.57000
C  26.29300 -1.76900 40.75900
H  25.72300 -1.49900 39.37600
N  22.67800 -6.65200 45.29400
C  21.84200 -6.07100 44.37400
C  20.62600 -6.83000 44.28200
C  20.88300 -8.04000 45.01200
C  22.20500 -7.87600 45.69900
C  19.39000 -6.26500 43.52400
C  19.77500 -9.10600 45.18100
O  18.72900 -9.12400 44.59900
C  19.94800 -10.24500 46.03900
N  24.98600 -7.75900 47.05600
C  24.13800 -8.84000 47.16200
C  24.65500 -9.99000 47.99300
C  25.82700 -9.28600 48.72200
C  26.04500 -8.04500 47.81900
C  23.53000 -10.62400 48.90400
C  27.06700 -10.19100 49.07300
C  27.43500 -10.16500 50.58000
N  26.60900 -5.66400 46.28200
C  27.53700 -6.24400 47.13900
C  28.81500 -5.61200 47.01700
C  28.60800 -4.64700 46.02300
C  27.28500 -4.73700 45.54700
C  30.10000 -6.08600 47.67900
C  29.25900 -3.58600 45.34600
O  30.41500 -3.26900 45.45200
C  28.23900 -3.02000 44.36300
C  28.05300 -1.54700 44.52400
O  27.23100 -1.07400 45.28200
O  28.81600 -0.83000 43.64000
C  28.32500 0.49400 43.37500
H  21.48900 -4.36400 43.18100
H  22.53900 -9.86200 46.70800
H  28.03900 -7.57500 48.61400
H  25.31700 -1.75200 43.34200
H  23.17300 -3.08300 41.95900
H  23.56900 -1.46700 44.43400
H  21.89700 -1.82100 43.92100
H  22.94700 -0.98000 42.78200
H  25.05200 -3.43800 40.92400
H  26.54800 -3.71000 41.68200
H  27.35400 -1.96600 40.60200
H  26.26500 -0.82900 41.31000
H  18.44300 -6.52900 43.99500
H  19.47100 -6.62000 42.49700
H  19.54100 -5.18500 43.53000
H  18.97400 -10.73100 46.07500
H  20.19300 -9.86200 47.03000
H  20.79400 -10.86700 45.74700
H  25.05800 -10.73600 47.30800
H  25.43000 -9.00300 49.69700
H  23.93700 -10.69400 49.91300
H  23.22400 -11.59000 48.50200
H  22.65700 -9.97400 48.84300
H  27.88800 -9.87000 48.43200
H  26.86300 -11.23100 48.81900
H  27.50500 -11.18600 50.95500
H  26.73800 -9.56700 51.16700
H  28.48400 -9.87200 50.53200
H  30.92200 -5.39000 47.51500
H  30.37100 -7.07400 47.30500
H  29.84600 -6.11600 48.73900
H  28.69400 -3.14700 43.38100
H  28.60200 1.05000 44.27100
H  27.24400 0.50600 43.23700
H  28.84500 1.02700 42.57900
Mg 10.02200 48.15600 26.17000
C  7.81200 48.60300 28.82100
C  12.55000 49.80400 27.94900
C  12.01600 47.81800 23.51500
C  7.25800 47.36900 24.11300
N  10.11300 49.27700 28.12200
C  9.15300 49.05900 29.11200
C  9.77300 49.65200 30.35300
C  11.09500 50.32000 29.96800
C  11.28700 49.77100 28.53900
C  11.21700 51.88700 30.08900
C  9.87700 48.57800 31.45600
C  10.51700 49.00600 32.80800
H  9.76400 48.34200 34.02100
N  12.05600 48.64400 25.82300
C  12.86600 49.22600 26.70400
C  14.22000 49.24800 26.10600
C  14.15500 48.59400 24.84200
C  12.67200 48.30500 24.66700
C  15.44700 49.88600 26.83200
C  15.30200 48.13600 23.86000
O  15.12900 47.52400 22.79100
C  16.72800 48.40000 24.24700
N  9.66100 47.60500 24.03400
C  10.69100 47.43900 23.22200
C  10.29900 46.99600 21.85800
C  8.71400 46.73100 22.01900
C  8.50300 47.18000 23.51900
C  10.61800 47.95600 20.66300
C  8.23000 45.34900 21.78000
C  8.47100 44.27800 22.83400
N  8.00000 48.04700 26.33600
C  6.95900 47.70500 25.46200
C  5.62600 47.67000 26.08400
C  5.99400 48.03100 27.41300
C  7.39100 48.23700 27.49900
C  4.30300 47.32100 25.57800
C  5.45300 48.06500 28.74100
O  4.29300 47.92900 29.10300
C  6.60000 48.37800 29.74000
C  6.78900 47.09600 30.52000
O  7.43500 46.13900 30.14800
O  6.10500 47.17900 31.69800
C  6.47900 46.11400 32.59100
H  13.35800 50.30500 28.48700
H  12.76400 47.70600 22.72800
H  6.51500 46.97700 23.41500
H  9.13100 50.43700 30.75300
H  11.92900 49.96500 30.57300
H  10.25800 52.34200 30.33700
H  11.69500 52.31500 29.20800
H  11.91300 51.94200 30.92600
H  10.30600 47.69500 30.98200
H  8.89700 48.12900 31.61700
H  10.73400 50.07000 32.89700
H  11.48300 48.50000 32.81100
H  16.18900 50.31800 26.16100
H  15.97100 49.07100 27.33200
H  15.20800 50.75700 27.44200
H  16.89200 49.47300 24.15100
H  17.36800 47.77700 23.62100
H  16.79100 48.00300 25.26000
H  10.86100 46.06800 21.76000
H  8.27800 47.43300 21.30800
H  10.80400 48.95900 21.04800
H  9.79600 47.99700 19.94900
H  11.55500 47.62000 20.22000
H  8.64300 45.04600 20.81800
H  7.16100 45.50200 21.63300
H  7.47700 43.85000 22.96000
H  8.71200 44.73900 23.79200
H  9.24300 43.55100 22.58100
H  4.22300 46.41000 24.98400
H  3.97100 48.05600 24.84500
H  3.57600 47.40500 26.38600
H  6.21500 49.19600 30.35000
H  6.18700 45.17800 32.11500
H  5.95500 46.28400 33.53100
H  7.55800 46.21800 32.70200

