158

Mg 25.47300 1.65400 29.46300
C  27.68400 1.31600 32.37100
C  22.86400 1.70700 31.56100
C  23.59800 2.06400 26.80100
C  28.21500 0.96600 27.52600
N  25.33000 1.41000 31.73400
C  26.30500 1.48000 32.70700
C  25.69600 1.69000 34.05600
C  24.12100 1.59300 33.84900
C  24.10400 1.56100 32.28000
C  23.37800 0.35600 34.45300
C  26.18100 2.87200 34.87300
C  26.76900 2.68700 36.26300
H  26.59300 3.80800 37.31900
N  23.44700 1.93900 29.27700
C  22.50400 1.85500 30.21900
C  21.19900 2.06500 29.76200
C  21.35900 2.20100 28.30300
C  22.85000 2.05300 28.06100
C  19.94800 2.06100 30.66100
C  20.29400 2.31800 27.19500
O  20.55800 2.49800 26.00400
C  18.82900 2.28000 27.65200
N  25.97600 1.72900 27.43100
C  24.96300 2.01800 26.52200
C  25.59000 2.09600 25.08700
C  27.06300 1.61800 25.33100
C  27.09200 1.34000 26.86900
C  24.85700 1.42800 23.86100
C  28.07200 2.68900 24.75300
C  28.29100 3.97700 25.64400
N  27.58600 1.31400 29.82400
C  28.55900 0.91900 28.92600
C  29.81500 0.67300 29.58200
C  29.55000 0.80400 30.93700
C  28.15800 1.20100 31.03600
C  31.15700 0.36600 28.83500
C  30.10700 0.77200 32.19400
O  31.19500 0.47200 32.62400
C  28.94000 1.16000 33.25800
C  28.94100 0.06700 34.18000
O  28.52400 -1.05500 33.92100
O  29.52200 0.43100 35.43500
C  29.35700 -0.65100 36.46000
H  22.14500 1.93400 32.35100
H  22.96800 2.09200 25.90900
H  29.09200 0.68600 26.93800
H  25.95600 0.84900 34.69800
H  23.65900 2.51500 34.20200
H  24.03000 -0.28500 35.04700
H  22.95700 -0.25900 33.65700
H  22.57600 0.75900 35.07100
H  25.55600 3.76400 34.90000
H  27.02700 3.24500 34.29500
H  27.83400 2.75400 36.04000
H  26.64800 1.66900 36.63600
H  20.21900 2.17500 31.71100
H  19.52200 1.06100 30.58800
H  19.20700 2.82400 30.42500
H  18.79000 1.28300 28.09200
H  18.14100 2.38700 26.81300
H  18.60700 3.11300 28.31900
H  25.53800 3.16900 24.90000
H  27.23900 0.68400 24.79600
H  24.00700 0.84900 24.21900
H  25.52900 0.71000 23.39200
H  24.59200 2.14700 23.08600
H  27.68900 3.06800 23.80600
H  28.97000 2.18400 24.39500
H  29.36900 4.11900 25.72200
H  27.80800 3.93200 26.62000
H  27.82900 4.79000 25.08400
H  31.25000 -0.68100 28.54700
H  32.01000 0.43600 29.51000
H  31.35300 0.98600 27.96000
H  29.17100 2.11900 33.72200
H  28.58900 -0.34800 37.17200
H  30.27700 -0.79700 37.02700
H  29.18000 -1.66100 36.09000
Mg 41.20900 9.03800 30.87800
C  43.17100 10.16700 33.62600
C  38.92000 7.83700 32.96300
C  39.42400 8.22000 28.21600
C  43.98100 9.67000 28.78300
N  41.19700 8.82500 33.00400
C  41.98500 9.50700 33.89500
C  41.41500 9.41900 35.32800
C  40.16100 8.50500 35.13500
C  40.12800 8.27500 33.61600
C  40.26400 7.18500 35.95300
C  41.00000 10.71100 36.00400
C  41.14300 10.72800 37.50700
H  41.85200 11.93500 38.08500
N  39.40900 8.14100 30.61000
C  38.59600 7.75900 31.63200
C  37.32300 7.28600 31.04500
C  37.37000 7.62100 29.64200
C  38.77500 8.08100 29.44300
C  36.27200 6.56200 31.82800
C  36.40000 7.42600 28.52600
O  36.49900 7.83000 27.36900
C  35.02000 6.92600 28.95700
N  41.77600 8.64900 28.87100
C  40.80700 8.44600 27.94500
C  41.38300 8.37500 26.52500
C  42.87100 8.79400 26.66400
C  42.89500 9.11500 28.19400
C  41.15000 6.95500 25.82900
C  43.46800 9.82700 25.71700
C  42.87400 11.25300 25.86100
N  43.16200 9.88700 31.11000
C  44.15400 10.08500 30.17300
C  45.22800 10.75500 30.76900
C  44.86700 10.87700 32.13000
C  43.67400 10.20500 32.27800
C  46.54700 11.23200 30.08400
C  45.26100 11.40700 33.38300
O  46.16200 12.14900 33.71300
C  44.19000 10.94700 34.43700
C  44.86000 10.09500 35.46600
O  45.75300 9.25200 35.28700
O  44.39400 10.49700 36.69200
C  44.82100 9.66400 37.82500
H  38.08100 7.59500 33.61900
H  38.87700 8.04200 27.28700
H  44.88600 9.78400 28.18300
H  42.17500 8.91400 35.92500
H  39.28900 8.99000 35.57300
H  40.44600 6.28800 35.36100
H  39.39100 7.01000 36.58200
H  41.03200 7.38400 36.70100
H  40.01500 11.01000 35.64600
H  41.66100 11.48600 35.61600
H  41.77200 9.90900 37.85700
H  40.13000 10.71200 37.91100
H  36.54300 6.38400 32.86800
H  36.10500 5.58500 31.37400
H  35.29000 7.03400 31.87200
H  34.58000 7.59900 29.69300
H  34.98200 5.86300 29.19500
H  34.28300 6.92400 28.15400
H  40.90300 9.06900 25.83500
H  43.52800 7.92400 26.65100
H  40.23900 6.79100 25.25500
H  41.15800 6.16300 26.57800
H  41.97400 6.64500 25.18600
H  43.42100 9.48600 24.68200
H  44.50700 9.90300 26.03700
H  42.38100 11.70000 24.99800
H  43.63500 11.95800 26.19400
H  42.09400 11.11500 26.61000
H  46.52100 11.28900 28.99600
H  47.27200 10.47900 30.39100
H  46.84400 12.20200 30.48300
H  43.78700 11.85200 34.89100
H  45.89800 9.73500 37.97900
H  44.55000 8.62400 37.64300
H  44.22800 9.96900 38.68700

