158

Mg 47.07400 25.63400 28.90400
C  47.84400 27.80400 31.44300
C  46.37500 23.22500 31.34700
C  46.59600 23.41600 26.43900
C  48.44700 27.82000 26.64600
N  47.20500 25.53100 31.16700
C  47.33800 26.64400 31.99300
C  47.06300 26.24900 33.51500
C  46.77700 24.69200 33.36100
C  46.77900 24.48000 31.85300
C  47.82800 23.74300 34.04900
C  45.94300 27.13200 34.14900
C  46.24000 27.56300 35.59900
H  45.14000 27.64100 36.67900
N  46.44300 23.67300 28.87900
C  46.22400 22.84600 29.92200
C  45.71500 21.56800 29.41100
C  45.94000 21.62300 28.02400
C  46.34100 22.95600 27.72400
C  45.17700 20.42700 30.26700
C  45.66300 20.51200 26.96700
O  45.93200 20.61400 25.79500
C  45.19300 19.17500 27.49100
N  47.39900 25.63800 26.75000
C  47.07400 24.60200 25.89300
C  47.27300 24.85400 24.42400
C  47.81000 26.35300 24.48000
C  47.83300 26.69100 26.01500
C  48.28100 23.84300 23.73200
C  46.97800 27.51600 23.76600
C  47.85700 28.20600 22.62100
N  47.98100 27.40900 28.99300
C  48.60300 28.12500 27.98900
C  49.24100 29.29600 28.48400
C  48.96100 29.22100 29.84600
C  48.21800 28.02600 30.12100
C  49.92000 30.42200 27.71800
C  48.94600 30.00700 31.07900
O  49.20600 31.20200 31.33300
C  48.34300 29.01000 32.18000
C  49.34600 28.70300 33.24000
O  50.25100 27.88400 33.07700
O  49.14800 29.49800 34.35300
C  49.90300 29.25600 35.59700
H  45.99100 22.48600 32.05300
H  46.37100 22.71400 25.63400
H  48.96000 28.49400 25.95700
H  48.01200 26.31000 34.04700
H  45.79800 24.42600 33.75900
H  48.46700 23.23600 33.32600
H  47.25200 22.91200 34.45500
H  48.36500 24.19800 34.88200
H  45.02500 26.55100 34.05800
H  45.79500 28.03900 33.56200
H  46.62600 28.58300 35.58500
H  47.05800 26.88600 35.84400
H  44.08900 20.40700 30.32700
H  45.47800 20.59800 31.30000
H  45.73700 19.50000 30.14000
H  46.01000 18.81100 28.11400
H  44.95900 18.51200 26.65800
H  44.35100 19.39500 28.14700
H  46.30100 24.83400 23.93100
H  48.83500 26.46500 24.12500
H  48.44700 22.94500 24.32800
H  49.26700 24.26400 23.53300
H  47.89800 23.50600 22.76900
H  46.38200 28.24400 24.31800
H  46.23200 26.96700 23.19200
H  47.51700 29.22800 22.44800
H  47.88800 27.53600 21.76300
H  48.93500 28.15700 22.77300
H  49.19700 31.22500 27.57700
H  50.38500 30.05700 26.80200
H  50.65900 30.74400 28.45200
H  47.51600 29.47000 32.72200
H  49.23600 29.04100 36.43100
H  50.55600 30.09500 35.83400
H  50.38000 28.28600 35.45300
Mg 30.46200 58.12900 39.26000
C  27.82200 56.09100 38.03600
C  32.70000 55.58000 38.42000
C  33.07300 60.35600 39.43800
C  28.14900 60.75900 39.54000
N  30.24500 56.07000 38.34800
C  29.08500 55.49400 37.94700
C  29.36000 54.03800 37.60700
C  30.85700 53.76800 37.92300
C  31.32100 55.19900 38.35100
C  31.17100 52.74200 39.06800
C  28.90100 53.69000 36.23300
C  29.53000 54.48400 35.05800
H  28.62600 55.46600 34.21500
N  32.61700 57.96200 38.95300
C  33.32600 56.76800 38.74700
C  34.77600 57.09400 38.72200
C  34.89100 58.48500 38.99800
C  33.48500 59.00900 39.14500
C  35.91400 56.08000 38.55000
C  36.16700 59.25500 38.94500
O  37.25400 58.64200 38.82700
C  36.21800 60.83100 38.88300
N  30.58300 60.28300 39.18600
C  31.77500 60.91500 39.52500
C  31.54300 62.48000 39.58600
C  30.01300 62.52600 39.63000
C  29.50400 61.06100 39.48400
C  32.26600 63.30300 40.68100
C  29.26300 63.42800 38.57000
C  28.60600 64.68400 39.18300
N  28.34900 58.37400 39.06600
C  27.58600 59.47400 39.23100
C  26.18400 59.08900 39.06000
C  26.18400 57.78600 38.58300
C  27.55500 57.40200 38.51100
C  24.98200 59.91800 39.31200
C  25.35100 56.66600 38.17000
O  24.14200 56.55700 38.03900
C  26.44200 55.54900 37.70100
C  26.10500 54.37900 38.51400
O  26.50700 54.06900 39.63400
O  25.25200 53.59200 37.73000
C  24.54600 52.50100 38.37000
H  33.42300 54.80600 38.15300
H  33.83300 61.09800 39.69000
H  27.39700 61.55100 39.57300
H  28.83500 53.37200 38.29200
H  31.43600 53.32500 37.11400
H  30.51600 52.71700 39.93900
H  32.17800 52.93400 39.43600
H  31.22700 51.76600 38.58700
H  27.82700 53.73400 36.05200
H  29.12100 52.62700 36.13400
H  29.91300 53.77600 34.32400
H  30.41700 55.03900 35.36400
H  36.85300 56.35400 39.03200
H  36.07800 56.03200 37.47300
H  35.65600 55.08700 38.92000
H  37.14000 61.15300 38.39700
H  36.01200 61.17800 39.89500
H  35.39300 61.07800 38.21500
H  31.91900 62.92800 38.66600
H  29.81800 62.82100 40.66100
H  33.01700 63.93800 40.21000
H  32.98700 62.69200 41.22500
H  31.61700 63.88000 41.33900
H  28.41900 62.87800 38.15500
H  30.00200 63.86700 37.89900
H  29.10500 65.52200 38.69800
H  28.73900 64.72800 40.26400
H  27.52500 64.63700 39.04300
H  24.49800 59.61600 40.24000
H  24.16200 59.78700 38.60600
H  25.25200 60.96500 39.45400
H  26.32600 55.27900 36.65100
H  23.59600 52.44000 37.83900
H  24.33700 52.48800 39.44000
H  25.10800 51.58000 38.21300

