158

Mg 8.34400 2.35900 27.66800
C  9.84800 1.16900 30.59000
C  6.40000 4.38600 29.64400
C  6.84300 3.29200 24.83000
C  10.09900 -0.11700 25.82900
N  7.98600 2.52500 29.87100
C  8.82000 2.04100 30.85400
C  8.48200 2.68500 32.20300
C  7.25700 3.62900 31.86800
C  7.08200 3.44300 30.40600
C  5.89900 3.41300 32.57700
C  9.73000 3.47000 32.80000
C  9.62100 4.28300 34.11100
H  10.49700 3.71400 35.27600
N  6.83100 3.60300 27.23900
C  6.20500 4.43400 28.22600
C  5.24000 5.32900 27.47800
C  5.43000 5.08400 26.08600
C  6.35000 3.93200 26.03100
C  4.32700 6.37400 28.14200
C  4.76100 5.88900 24.84800
O  4.87700 5.48800 23.68400
C  3.80100 7.09200 25.03600
N  8.29100 1.53500 25.64800
C  7.73800 2.21100 24.64400
C  8.22600 1.74700 23.22100
C  9.26000 0.72100 23.62700
C  9.21000 0.66100 25.17200
C  7.03400 1.42500 22.25100
C  10.74900 0.98000 23.16700
C  11.37400 -0.09900 22.18400
N  9.71800 0.82900 28.07800
C  10.32200 -0.04800 27.23500
C  11.31300 -0.80000 27.99900
C  11.17000 -0.35800 29.27200
C  10.15900 0.63700 29.34100
C  12.23200 -1.86000 27.48600
C  11.69300 -0.45000 30.63600
O  12.57000 -1.18500 31.15200
C  10.85900 0.52700 31.46200
C  10.27400 -0.21700 32.61600
O  9.60400 -1.21400 32.59700
O  10.71000 0.32700 33.78700
C  10.27200 -0.28500 35.03000
H  5.99100 5.19700 30.24900
H  6.48100 3.55800 23.83500
H  10.91400 -0.66000 25.34700
H  8.12600 1.88400 32.85100
H  7.42000 4.68600 32.08100
H  5.27400 2.71300 32.02100
H  5.33100 4.32000 32.78200
H  6.09800 2.95000 33.54300
H  10.09300 4.12100 32.00400
H  10.60300 2.82100 32.87000
H  8.58800 4.19500 34.44600
H  9.89600 5.31600 33.89900
H  3.36300 6.12400 27.69800
H  4.48200 7.41100 27.84500
H  4.17900 6.29000 29.21900
H  2.80000 6.83700 25.38200
H  3.82900 7.68400 24.12100
H  4.30600 7.72600 25.76500
H  8.80000 2.63600 22.95700
H  9.02800 -0.31900 23.39900
H  6.04200 1.51600 22.69200
H  7.12700 0.40400 21.88000
H  7.22100 2.14700 21.45500
H  11.36700 1.15500 24.04800
H  10.72500 1.96200 22.69300
H  12.16800 -0.64400 22.69400
H  11.68500 0.38500 21.25800
H  10.56300 -0.82600 22.13800
H  13.04000 -1.90800 28.21600
H  12.59400 -1.66000 26.47700
H  11.65100 -2.78100 27.48400
H  11.55700 1.24500 31.89100
H  10.22500 0.56400 35.71200
H  11.03000 -0.97200 35.40600
H  9.36600 -0.88500 34.94200
Mg 41.06700 9.90300 30.28800
C  42.91300 10.51100 33.15100
C  38.68600 8.25700 32.30600
C  39.51300 8.83800 27.50100
C  43.62800 11.09800 28.29700
N  40.84700 9.45400 32.51800
C  41.76600 9.82500 33.48900
C  41.23700 9.38100 34.87000
C  40.06900 8.38600 34.50700
C  39.84300 8.73700 32.99500
C  40.22900 6.83600 34.76700
C  40.87200 10.65100 35.80500
C  41.43400 10.86400 37.19500
H  40.80300 12.00200 38.08100
N  39.27700 8.76200 29.91300
C  38.40100 8.33100 30.93900
C  37.32900 7.68100 30.28300
C  37.40200 7.94600 28.89300
C  38.80600 8.54700 28.68200
C  36.30400 6.88100 30.98100
C  36.43900 7.61100 27.74800
O  36.61900 7.84100 26.58600
C  35.06300 7.03700 28.12100
N  41.54800 10.00300 28.24400
C  40.74200 9.44800 27.29200
C  41.25400 9.69200 25.88500
C  42.33100 10.74900 26.15700
C  42.51900 10.65000 27.62800
C  41.73400 8.34500 25.30300
C  41.98000 12.13700 25.70200
C  40.70600 12.72100 26.34600
N  42.87800 10.68100 30.64200
C  43.83200 11.11700 29.73500
C  44.93200 11.70300 30.42700
C  44.60900 11.52900 31.76200
C  43.36300 10.83600 31.85000
C  46.12600 12.28500 29.98100
C  45.06300 11.75400 33.18400
O  46.11800 12.32000 33.59300
C  43.97700 11.12400 34.10900
C  44.70900 10.20100 34.96200
O  45.04000 9.08400 34.59700
O  44.88600 10.80500 36.22500
C  45.59200 9.98700 37.20200
H  37.99200 7.67900 32.92000
H  38.90200 8.66500 26.61300
H  44.45300 11.61200 27.79800
H  42.03700 8.82800 35.36300
H  39.24700 8.81600 35.08000
H  40.35100 6.27600 33.84000
H  39.31300 6.51600 35.26400
H  41.01500 6.74300 35.51700
H  39.80800 10.64600 36.04300
H  41.11600 11.48800 35.15200
H  42.45900 11.20600 37.05300
H  41.59200 9.94800 37.76400
H  35.29900 7.29600 30.90600
H  36.49600 6.89300 32.05400
H  36.24100 5.86800 30.58500
H  34.28700 7.18800 27.37000
H  34.80500 7.73000 28.92200
H  35.07200 6.01900 28.51100
H  40.44000 10.15400 25.32600
H  43.25900 10.57500 25.61200
H  41.41200 7.43200 25.80400
H  42.80900 8.26700 25.13900
H  41.30800 8.34100 24.30000
H  41.86600 12.14800 24.61800
H  42.90300 12.69500 25.85500
H  40.92900 13.68700 26.79900
H  40.18900 12.14200 27.11200
H  39.89400 12.76300 25.62100
H  45.96300 13.20500 29.41900
H  46.68100 11.49600 29.47300
H  46.76500 12.56400 30.81900
H  43.60300 11.97600 34.67800
H  45.17400 8.99000 37.06300
H  45.44500 10.34400 38.22100
H  46.67500 9.97300 37.07900

