158

Mg 53.74900 23.02800 45.62400
C  51.41400 25.47800 44.58500
C  51.66500 20.66300 44.35900
C  56.46300 20.75200 45.72600
C  56.06600 25.58300 46.17900
N  51.84300 23.21500 44.49200
C  50.96800 24.26700 44.29400
C  49.60600 23.83200 43.78400
C  49.66800 22.24600 44.08300
C  51.21200 22.01800 44.17300
C  48.98200 21.81900 45.42400
C  49.32500 24.23900 42.31800
C  48.29200 23.41600 41.61800
H  47.71500 23.71900 40.22800
N  54.01100 20.98400 45.23000
C  52.95800 20.18100 44.79500
C  53.46200 18.85400 44.91800
C  54.74100 18.77500 45.44000
C  55.15100 20.24700 45.48800
C  52.53300 17.79700 44.43800
C  55.63500 17.62900 45.83000
O  55.21100 16.49500 45.64200
C  56.91000 17.73400 46.47100
N  55.98100 23.15700 45.68800
C  56.87700 22.10000 45.78900
C  58.26900 22.59900 45.94600
C  58.07400 24.20900 46.12700
C  56.58300 24.31900 45.98000
C  58.86500 21.99900 47.17900
C  59.06800 24.99400 45.22800
C  59.81400 26.16800 46.02400
N  53.71800 25.05300 45.60000
C  54.67000 25.95000 45.97300
C  54.15400 27.27400 45.91600
C  52.83200 27.13700 45.40600
C  52.62400 25.80800 45.09700
C  54.85000 28.53400 46.18400
C  51.66600 27.87700 44.96700
O  51.41900 29.04000 45.02700
C  50.77700 26.81400 44.32200
C  50.68700 27.16200 42.83500
O  51.59600 27.05100 42.07700
O  49.44800 27.68000 42.57300
C  48.92800 27.91400 41.13900
H  50.85300 19.98200 44.09500
H  57.29300 20.05000 45.62500
H  56.82000 26.36400 46.29800
H  48.82300 24.28000 44.39500
H  49.19600 21.60600 43.33800
H  49.74300 21.34700 46.04600
H  48.29200 21.01200 45.17700
H  48.49600 22.65700 45.92300
H  50.25700 24.48600 41.80800
H  48.80900 25.19700 42.37700
H  47.52300 23.30200 42.38300
H  48.86000 22.50300 41.43800
H  52.91100 16.77800 44.53100
H  52.33700 17.92500 43.37400
H  51.62900 17.85000 45.04500
H  56.90300 18.51900 47.22700
H  57.69300 18.04600 45.78000
H  57.17500 16.81300 46.99200
H  58.84300 22.43800 45.03300
H  58.22000 24.39000 47.19200
H  58.20200 21.30900 47.70200
H  59.20700 22.73000 47.91200
H  59.75200 21.43500 46.89000
H  58.67000 25.53000 44.36600
H  59.80300 24.29800 44.82400
H  59.13600 27.01000 45.89100
H  60.83200 26.31600 45.66100
H  59.79000 25.96200 47.09400
H  55.71000 28.81500 45.57600
H  55.25400 28.44300 47.19200
H  54.13400 29.35200 46.09000
H  49.77300 26.88100 44.74100
H  47.85300 27.74500 41.20700
H  49.34200 27.26500 40.36700
H  49.14100 28.94500 40.85800
Mg -12.07200 38.89800 42.54200
C  -10.61400 35.85700 41.57800
C  -9.51500 40.49000 40.75700
C  -13.58500 41.80000 43.04700
C  -14.68200 37.09400 44.02600
N  -10.30100 38.22800 41.21300
C  -9.89900 36.92100 41.05900
C  -8.52200 36.86400 40.28200
C  -8.29400 38.42400 40.02400
C  -9.38100 39.11300 40.83300
C  -6.82400 38.84200 40.19800
C  -8.52900 36.07300 38.96500
C  -7.56500 34.82400 38.95200
H  -6.55200 34.86700 37.84300
N  -11.54600 40.90400 42.06600
C  -10.49100 41.34300 41.34900
C  -10.49600 42.77300 41.36300
C  -11.76200 43.20800 41.92200
C  -12.38400 41.95000 42.33000
C  -9.37500 43.63400 40.81100
C  -12.27400 44.63000 42.02400
O  -11.72500 45.51300 41.38100
C  -13.63500 45.08300 42.67100
N  -13.99900 39.36900 43.22200
C  -14.33900 40.70100 43.44500
C  -15.70900 40.77600 44.22400
C  -16.07000 39.27500 44.41300
C  -14.81900 38.51200 43.91900
C  -15.69900 41.61300 45.47900
C  -17.40400 38.73400 43.77000
C  -18.41800 38.03500 44.66200
N  -12.56200 36.88600 42.80900
C  -13.66300 36.29000 43.44900
C  -13.53300 34.81200 43.45600
C  -12.32700 34.67500 42.68900
C  -11.83400 35.89500 42.34000
C  -14.53600 33.77700 43.98600
C  -11.41000 33.61000 42.19000
O  -11.38100 32.41300 42.35200
C  -10.27000 34.38100 41.43800
C  -9.05500 34.01300 42.11900
O  -8.61500 34.59400 43.10000
O  -8.52900 32.95400 41.44000
C  -7.21600 32.56400 41.98300
H  -8.64500 40.99500 40.33300
H  -14.20600 42.67500 43.24800
H  -15.46300 36.49900 44.50500
H  -7.76800 36.45100 40.95200
H  -8.45500 38.77300 39.00400
H  -6.37300 39.08900 39.23700
H  -6.26800 37.95300 40.49600
H  -6.74600 39.72900 40.82700
H  -8.27400 36.70400 38.11300
H  -9.55000 35.74500 38.77300
H  -8.17700 33.95300 38.71700
H  -7.02900 34.73500 39.89700
H  -8.35700 43.36800 41.09500
H  -9.50800 44.54100 41.40100
H  -9.46100 43.87900 39.75200
H  -13.68300 44.59300 43.64400
H  -14.53000 44.71700 42.16700
H  -13.77200 46.16300 42.71400
H  -16.40800 41.16900 43.48600
H  -16.03600 39.02700 45.47400
H  -16.71000 41.99300 45.62700
H  -15.09800 42.49500 45.25900
H  -15.35600 41.10800 46.38200
H  -17.31400 37.97700 42.99000
H  -17.95800 39.58900 43.38300
H  -18.82100 37.15100 44.16900
H  -19.33300 38.60800 44.81200
H  -18.07000 37.70700 45.64100
H  -15.49100 33.76600 43.46200
H  -14.65000 33.83400 45.06900
H  -14.11100 32.80400 43.73800
H  -10.22800 33.98600 40.42300
H  -6.59500 33.39200 42.32500
H  -6.54800 32.02500 41.31100
H  -7.36300 31.88400 42.82300

