158

Mg 30.11300 58.16900 39.98000
C  27.37300 56.24900 39.13800
C  32.12000 55.52600 38.97800
C  32.80500 60.16500 40.06700
C  27.96300 60.95100 40.08900
N  29.77100 56.08700 39.37200
C  28.56300 55.49400 39.03500
C  28.75600 54.02000 38.75100
C  30.12900 53.68300 39.33200
C  30.79100 55.18100 39.23500
C  30.16700 53.07500 40.76200
C  28.70600 53.67000 37.21100
C  27.62600 52.64900 36.62100
H  26.73500 53.35900 35.60100
N  32.19100 57.90000 39.46200
C  32.80600 56.77700 39.09200
C  34.20100 56.94200 39.00500
C  34.47000 58.29000 39.43200
C  33.13000 58.94400 39.59400
C  35.05400 55.83500 38.60700
C  35.83300 58.86800 39.63400
O  36.79700 58.14600 39.37500
C  36.01600 60.27600 40.16200
N  30.32300 60.36800 39.88400
C  31.59200 60.87400 40.18600
C  31.38800 62.32100 40.59900
C  29.81700 62.46500 40.74700
C  29.28300 61.17200 40.15100
C  32.11300 62.83100 41.91400
C  29.15200 63.65700 39.97600
C  28.50700 64.67100 40.85300
N  28.03300 58.53000 39.89200
C  27.35800 59.71600 39.89700
C  25.94800 59.37400 39.87600
C  25.89500 57.96300 39.59300
C  27.20500 57.58600 39.50200
C  24.89200 60.38800 40.02700
C  25.05600 56.87300 39.32100
O  23.85400 56.79600 39.30200
C  26.02900 55.68900 38.98700
C  25.60100 54.48000 39.71100
O  26.01900 54.11800 40.81200
O  24.81500 53.61900 38.91700
C  24.31600 52.36100 39.48500
H  32.67900 54.61900 38.74200
H  33.65200 60.81900 40.28700
H  27.27900 61.73400 40.42200
H  28.02200 53.43000 39.30100
H  30.63700 53.10200 38.56300
H  29.24700 53.40500 41.24400
H  31.05000 53.50700 41.23400
H  30.31600 51.99500 40.75300
H  29.63400 53.35800 36.73100
H  28.52000 54.60800 36.68700
H  26.89900 52.30500 37.35700
H  28.21000 51.84600 36.17200
H  35.28000 55.32200 39.54200
H  35.95300 56.21900 38.12500
H  34.55100 55.02400 38.08000
H  35.57900 60.60100 41.10500
H  35.98900 60.92500 39.28700
H  37.09400 60.22600 40.31900
H  31.69300 62.87700 39.71300
H  29.51100 62.54700 41.79000
H  32.31800 61.93000 42.49300
H  31.47200 63.55400 42.42000
H  33.04400 63.34100 41.66500
H  28.30100 63.35500 39.36600
H  29.91500 64.19600 39.41300
H  28.24500 64.44600 41.88700
H  27.60600 64.92700 40.29500
H  29.17400 65.52500 40.96700
H  23.96200 59.84900 39.84200
H  25.02800 61.14900 39.25900
H  24.95400 60.90400 40.98500
H  25.87800 55.31700 37.97400
H  24.17400 51.63600 38.68300
H  23.38800 52.49400 40.04200
H  25.00600 51.93600 40.21300
Mg 1.27800 41.16200 26.74400
C  3.28000 41.99300 29.41300
C  -1.09700 40.06000 29.02200
C  -0.66000 40.26900 24.06900
C  3.82800 42.10200 24.54900
N  1.05700 41.13300 28.97200
C  2.00900 41.52800 29.84300
C  1.52300 41.62200 31.21300
C  0.21000 40.77600 31.16600
C  -0.02000 40.70300 29.64600
C  0.41000 39.38600 31.74600
C  1.27500 43.14000 31.66500
C  1.82600 43.46000 33.03200
H  1.58900 42.39800 34.12800
N  -0.60000 40.27600 26.55700
C  -1.41100 39.80600 27.60500
C  -2.45100 38.90600 27.02200
C  -2.27600 38.97700 25.58200
C  -1.11100 39.90300 25.36700
C  -3.37900 38.16500 27.91300
C  -3.03600 38.14300 24.49800
O  -2.79600 38.19400 23.28100
C  -4.19000 37.22700 24.99800
N  1.41600 41.41300 24.65200
C  0.49500 41.01000 23.78700
C  0.99800 41.30700 22.35600
C  2.43400 41.91500 22.52100
C  2.56300 41.80100 24.00300
C  0.96700 40.06900 21.34900
C  2.67200 43.35800 22.01400
C  2.18900 44.54600 22.86700
N  3.18400 41.91800 26.87700
C  4.17000 42.18400 25.94000
C  5.29300 42.79600 26.56600
C  5.02100 42.67100 27.95000
C  3.71000 42.17100 28.11100
C  6.51100 43.40600 25.95200
C  5.64600 42.78100 29.24100
O  6.79000 43.06100 29.56400
C  4.48600 42.38300 30.24700
C  4.91700 41.15000 30.99300
O  5.04100 39.94700 30.63100
O  5.24100 41.47600 32.26800
C  5.35900 40.40500 33.17600
H  -1.81600 39.53200 29.65300
H  -1.36400 40.01400 23.27400
H  4.61600 42.37700 23.84500
H  2.33800 41.12100 31.73500
H  -0.57800 41.23800 31.76000
H  -0.38100 38.95300 32.35900
H  1.32800 39.33000 32.33100
H  0.55600 38.66000 30.94600
H  0.18700 43.19000 31.70300
H  1.73800 43.82800 30.95700
H  1.47700 44.44400 33.34700
H  2.89500 43.65200 32.94100
H  -3.45100 37.07900 27.84400
H  -4.36500 38.51800 27.61200
H  -3.35200 38.60600 28.90900
H  -3.87100 36.30500 25.48300
H  -4.77100 36.97700 24.11000
H  -4.76000 37.95900 25.57000
H  0.32100 42.06100 21.95500
H  3.14300 41.20900 22.08900
H  0.43400 39.16700 21.64900
H  1.98300 39.70700 21.19400
H  0.46900 40.42300 20.44600
H  2.22500 43.45700 21.02500
H  3.75900 43.44200 22.02800
H  3.03400 45.09200 23.28800
H  1.65400 44.21600 23.75800
H  1.56200 45.23400 22.30100
H  6.35200 43.75700 24.93200
H  7.36300 42.73700 26.07700
H  6.87300 44.22700 26.57000
H  4.38700 43.25700 30.89100
H  6.32600 39.90700 33.11500
H  4.56700 39.65600 33.14200
H  5.29400 40.85500 34.16700

