158

Mg 8.83700 3.12400 27.05100
C  10.30400 1.67700 30.00700
C  7.02200 5.18500 29.26000
C  7.22200 4.27400 24.32000
C  10.34400 0.66100 25.15800
N  8.49800 3.26000 29.45300
C  9.37700 2.64300 30.38000
C  9.03300 3.29000 31.78300
C  7.90000 4.33600 31.46200
C  7.83100 4.26800 29.96400
C  6.51500 4.39000 32.20500
C  10.39700 3.87000 32.44100
C  10.24600 4.92400 33.49400
H  11.19200 4.78900 34.66300
N  7.33100 4.54100 26.76500
C  6.76600 5.29200 27.81000
C  5.84900 6.18900 27.16800
C  5.93700 6.02300 25.76300
C  6.82300 4.88900 25.53600
C  4.99500 7.22000 27.91400
C  5.43000 6.86200 24.53900
O  5.75900 6.68000 23.35600
C  4.51000 8.03000 24.87000
N  8.89300 2.66900 24.91900
C  8.15600 3.25700 24.05100
C  8.31200 2.60700 22.63500
C  9.38300 1.43400 22.93300
C  9.52500 1.56900 24.42200
C  7.00300 2.02800 22.04500
C  10.79300 1.60400 22.29300
C  11.53200 0.32400 21.85900
N  10.19900 1.63100 27.37800
C  10.74200 0.73700 26.50500
C  11.82700 0.03000 27.16000
C  11.64500 0.32800 28.53800
C  10.63000 1.27000 28.63300
C  12.67300 -1.10400 26.57300
C  12.14600 0.09400 29.92700
O  12.93500 -0.71400 30.22600
C  11.35800 1.00000 30.94600
C  10.89600 0.17100 32.07800
O  10.00400 -0.66400 32.08200
O  11.66300 0.45400 33.19100
C  11.53100 -0.26400 34.40700
H  6.60300 5.99700 29.85800
H  6.75400 4.60600 23.39100
H  10.77800 -0.15900 24.58200
H  8.64500 2.42400 32.31900
H  8.28500 5.33100 31.68200
H  6.25600 3.49300 32.76800
H  5.65900 4.64700 31.58200
H  6.56000 5.13100 33.00300
H  10.81700 4.32000 31.54200
H  10.92000 2.99400 32.82600
H  9.22400 4.88900 33.87000
H  10.32200 5.93300 33.08800
H  5.16900 8.23200 27.54600
H  5.09400 7.25900 28.99900
H  3.99400 6.93800 27.58900
H  5.18700 8.79600 25.24700
H  3.77200 7.78300 25.63400
H  3.91200 8.37500 24.02700
H  8.74200 3.32800 21.94000
H  8.88300 0.50000 22.67700
H  7.00600 0.94600 22.17500
H  6.89000 2.35000 21.01000
H  6.18300 2.50800 22.58000
H  11.44700 2.13100 22.98900
H  10.70700 2.20600 21.38800
H  12.00200 0.66500 20.93600
H  10.76700 -0.44500 21.74600
H  12.28600 0.08500 22.60800
H  12.99000 -0.87100 25.55600
H  12.13200 -2.05000 26.58200
H  13.57300 -1.15500 27.18600
H  12.12100 1.70100 31.28500
H  11.06700 -1.24000 34.26300
H  11.08500 0.19600 35.28900
H  12.56100 -0.43200 34.72200
Mg 9.75000 47.82000 26.51700
C  8.08500 47.61200 29.48300
C  12.45000 48.99200 28.37400
C  11.30100 48.24800 23.54900
C  6.60700 47.45500 24.74800
N  10.20600 48.23400 28.70800
C  9.32400 48.15000 29.71500
C  9.93500 48.67800 31.03400
C  11.09300 49.59400 30.56900
C  11.30100 48.89200 29.12700
C  10.84100 51.22000 30.58900
C  10.35500 47.49200 31.93300
C  9.88600 47.55500 33.38600
H  9.98400 46.19200 34.11800
N  11.68400 48.32100 26.07900
C  12.60800 48.76900 27.00600
C  13.82100 48.74400 26.31700
C  13.51200 48.51200 24.92600
C  12.07600 48.37300 24.76700
C  15.17400 48.97800 27.03200
C  14.47900 48.50600 23.73100
O  14.17900 48.19600 22.60700
C  15.91300 48.66900 23.92400
N  9.01300 47.90100 24.39200
C  9.87400 48.03000 23.40800
C  9.21300 48.06700 22.01000
C  7.68200 47.79400 22.42200
C  7.74400 47.61800 23.97600
C  9.45500 49.30900 21.03700
C  7.01200 46.62100 21.65900
C  6.57300 46.99000 20.20200
N  7.74700 47.46700 26.99600
C  6.64500 47.37300 26.22900
C  5.51900 47.19600 27.09700
C  5.99400 47.27600 28.39400
C  7.38500 47.46400 28.22700
C  4.14800 46.97000 26.58300
C  5.71100 47.17700 29.80500
O  4.69800 46.99300 30.43600
C  7.06000 47.43100 30.50900
C  7.27800 46.18500 31.28300
O  7.73500 45.11700 30.92400
O  6.75900 46.31200 32.51400
C  6.42100 45.07800 33.28200
H  13.32700 49.33700 28.92700
H  11.81800 48.34000 22.59200
H  5.63600 47.30500 24.27200
H  9.18200 49.24600 31.58000
H  11.94400 49.51700 31.24600
H  10.98800 51.40000 29.52400
H  11.76600 51.53600 31.07300
H  9.93300 51.56900 31.08100
H  11.44300 47.46200 31.97800
H  10.18400 46.51300 31.48400
H  8.85500 47.90200 33.32900
H  10.33900 48.40300 33.90000
H  15.27300 48.77400 28.09800
H  15.46500 49.95400 26.64300
H  15.84200 48.18100 26.70300
H  16.43100 48.77800 22.97100
H  16.19600 47.74700 24.43100
H  16.29800 49.49800 24.51900
H  9.52800 47.21600 21.40600
H  7.07500 48.69000 22.29300
H  8.52300 49.72400 20.65400
H  10.02300 49.03300 20.14900
H  10.00800 50.06800 21.59100
H  6.09800 46.37600 22.19900
H  7.65200 45.74400 21.76000
H  6.71700 48.05200 20.00200
H  5.54000 46.75900 19.94100
H  7.13800 46.37500 19.50200
H  4.07000 46.36400 25.68100
H  3.61700 47.91100 26.43800
H  3.48600 46.48600 27.30000
H  6.93800 48.21600 31.25500
H  6.87300 45.13200 34.27200
H  6.65000 44.11100 32.83400
H  5.34500 45.12600 33.44500

