158

Mg -2.03100 16.22900 26.06700
C  -2.48000 14.24400 28.84300
C  -2.76500 19.02100 27.97700
C  -1.60500 18.26900 23.29800
C  -1.89700 13.49500 23.99500
N  -2.48800 16.55700 28.08200
C  -2.67500 15.62000 29.08500
C  -2.96500 16.22200 30.52100
C  -3.34500 17.67100 30.06000
C  -2.77400 17.76300 28.64300
C  -4.91900 17.86700 30.00000
C  -1.78300 16.15400 31.54000
C  -2.08500 15.27400 32.80000
H  -2.74400 15.98600 33.92200
N  -2.10500 18.32900 25.72000
C  -2.45100 19.28700 26.71700
C  -2.24400 20.62700 26.07600
C  -2.00900 20.39900 24.71100
C  -1.85600 18.93200 24.55000
C  -2.38800 21.91100 26.87300
C  -1.91500 21.38000 23.58000
O  -1.86800 21.05300 22.38800
C  -1.79000 22.87700 23.96500
N  -2.11500 15.95200 23.87200
C  -1.72200 16.95100 22.98400
C  -1.49900 16.33000 21.60100
C  -1.34800 14.78100 21.94000
C  -1.72800 14.73900 23.33800
C  -2.65000 16.59600 20.58900
C  0.13900 14.28600 21.70600
C  1.21700 14.99600 22.46500
N  -2.19900 14.25400 26.30500
C  -2.10200 13.23200 25.38300
C  -2.23700 12.05100 26.08200
C  -2.26400 12.33000 27.47400
C  -2.28000 13.70600 27.56000
C  -2.07600 10.68800 25.34700
C  -2.39100 11.77600 28.78400
O  -2.46700 10.62600 29.15400
C  -2.44200 12.99500 29.77800
C  -1.29000 12.94400 30.77900
O  -0.20500 13.48300 30.52800
O  -1.55700 12.17200 31.85600
C  -0.55500 11.83900 32.76400
H  -3.07300 19.85800 28.60800
H  -1.52900 18.86300 22.38400
H  -1.76200 12.66200 23.30200
H  -3.72500 15.62100 31.02100
H  -2.84600 18.43000 30.66200
H  -5.51400 17.01100 30.31800
H  -5.18900 18.21000 29.00100
H  -5.13900 18.74700 30.60400
H  -1.56800 17.17300 31.85900
H  -0.83100 15.89800 31.07400
H  -1.12400 14.86900 33.11700
H  -2.77500 14.47800 32.52100
H  -2.40000 21.75700 27.95200
H  -3.29600 22.50100 26.75300
H  -1.55900 22.58100 26.64700
H  -1.86200 23.60600 23.15800
H  -0.90500 23.08600 24.56600
H  -2.57000 23.19600 24.65600
H  -0.60900 16.83100 21.21900
H  -1.99300 14.29400 21.20700
H  -2.18900 16.99100 19.68400
H  -3.40000 17.20400 21.09400
H  -3.14300 15.71700 20.17400
H  0.37600 14.41400 20.64900
H  0.29600 13.24900 22.00100
H  1.90400 14.25500 22.87400
H  0.76800 15.62300 23.23500
H  1.71200 15.68600 21.78200
H  -1.57000 10.79900 24.38900
H  -3.03500 10.17500 25.27400
H  -1.49900 10.10800 26.06700
H  -3.41500 12.91500 30.26300
H  0.18700 11.29100 32.18400
H  -1.02000 11.16900 33.48800
H  -0.12800 12.67100 33.32500
Mg 25.61900 -0.23900 29.42500
C  27.44200 -0.76100 32.25000
C  22.78100 -0.09600 31.35400
C  23.62900 -0.27700 26.55500
C  28.43000 -0.82200 27.47300
N  25.19200 -0.61300 31.52600
C  26.15800 -0.56400 32.52400
C  25.59600 -0.29400 33.98900
C  24.03700 -0.27800 33.64300
C  23.95600 -0.42000 32.10800
C  23.14800 -1.25600 34.44500
C  26.19900 0.96200 34.69100
C  26.79000 0.64600 36.05400
H  26.47000 1.70300 37.13900
N  23.56300 -0.06700 29.01400
C  22.50900 0.13400 29.95800
C  21.28500 0.47800 29.28600
C  21.55000 0.37100 27.90600
C  22.96100 -0.06200 27.76100
C  20.04100 0.82800 30.00200
C  20.61700 0.57200 26.72900
O  20.87600 0.36400 25.53300
C  19.26400 1.24700 27.00500
N  25.91000 -0.40000 27.32900
C  25.00700 -0.38400 26.34200
C  25.69300 -0.51900 24.94500
C  27.19300 -0.41800 25.28000
C  27.22000 -0.54000 26.83500
C  25.28100 -1.73600 24.09900
C  27.85600 0.92700 24.87800
C  29.14500 0.98700 24.10700
N  27.59900 -0.57200 29.78600
C  28.59500 -0.84200 28.90200
C  29.76600 -1.12000 29.69800
C  29.50100 -0.93800 31.02600
C  28.08400 -0.79900 31.01700
C  31.12300 -1.49800 29.13400
C  29.95900 -0.92000 32.34700
O  31.06600 -0.90700 32.83500
C  28.62100 -0.96200 33.20800
C  28.44100 -2.21500 33.96000
O  27.66600 -3.14200 33.75400
O  29.36500 -2.08000 35.01200
C  29.11800 -2.97500 36.14900
H  21.93200 0.00900 32.03300
H  22.94200 -0.37700 25.71200
H  29.25400 -1.00500 26.78000
H  25.85300 -1.14900 34.61600
H  23.65100 0.72700 33.81400
H  23.34500 -1.43700 35.50200
H  23.10700 -2.19800 33.89900
H  22.15900 -0.80200 34.39400
H  25.34100 1.61600 34.84700
H  26.93300 1.41800 34.02600
H  27.84200 0.45700 35.84100
H  26.39200 -0.23900 36.55200
H  19.80300 1.86600 29.77300
H  20.30700 0.83000 31.05900
H  19.22500 0.10700 29.93800
H  19.40500 2.10400 27.66400
H  18.55400 0.49600 27.35200
H  18.87900 1.67200 26.07700
H  25.37200 0.36000 24.38600
H  27.73300 -1.27300 24.87400
H  24.79200 -2.48100 24.72600
H  26.16400 -2.21200 23.67200
H  24.57000 -1.44300 23.32500
H  28.14900 1.53900 25.73100
H  27.10300 1.42500 24.26700
H  29.06300 1.62900 23.22900
H  29.52600 0.01400 23.79500
H  29.85500 1.36000 24.84500
H  31.93100 -1.32600 29.84500
H  31.34600 -1.03700 28.17200
H  31.04000 -2.55100 28.86200
H  28.61100 -0.15700 33.94200
H  28.81500 -3.96300 35.80300
H  28.48600 -2.50200 36.90100
H  30.08100 -3.09100 36.64600

