158

Mg 41.73200 41.08600 26.98500
C  41.00400 43.43000 29.53400
C  42.86900 38.92200 29.52400
C  42.98400 38.94800 24.72000
C  41.52500 43.65600 24.73700
N  42.00700 41.21400 29.20300
C  41.48700 42.20700 30.03500
C  41.53900 41.83000 31.52500
C  42.39500 40.47300 31.50100
C  42.47300 40.18100 29.98000
C  43.73600 40.29800 32.37300
C  40.05700 41.62100 32.16000
C  39.73400 42.30900 33.50600
H  39.09800 41.44600 34.57900
N  42.62400 39.07200 27.09500
C  42.93900 38.34100 28.22700
C  43.32100 36.99800 27.80800
C  43.37100 36.98500 26.38500
C  42.92000 38.36000 25.97900
C  43.48900 35.88200 28.90600
C  43.67700 35.85500 25.45000
O  43.54900 35.85000 24.20500
C  44.22400 34.60000 26.03200
N  42.15300 41.30000 25.05300
C  42.64000 40.28600 24.23300
C  42.71100 40.72600 22.75900
C  42.10900 42.18100 22.75300
C  41.92300 42.43200 24.25600
C  44.20100 40.64100 22.23200
C  40.67300 42.31400 22.04200
C  40.60600 43.41000 21.00500
N  41.29300 43.16000 27.04800
C  41.26200 44.06900 26.06600
C  40.75800 45.35600 26.46600
C  40.55700 45.14800 27.82800
C  40.97100 43.79900 28.18300
C  40.63200 46.61500 25.64600
C  40.12100 45.72800 29.11700
O  39.72700 46.89700 29.32100
C  40.46500 44.66800 30.17800
C  41.39100 45.37200 31.05200
O  42.45200 45.82900 30.73100
O  40.93000 45.33400 32.33100
C  41.95400 45.56100 33.31300
H  43.15600 38.20700 30.29800
H  43.38900 38.31200 23.93100
H  41.36700 44.21300 23.81200
H  42.04000 42.58000 32.13800
H  41.77000 39.64800 31.84100
H  43.83300 41.15600 33.03900
H  44.50800 40.39400 31.61000
H  43.91200 39.35800 32.89600
H  39.79400 40.57300 32.30000
H  39.30100 42.04900 31.50100
H  39.01300 43.08200 33.23900
H  40.59400 42.84400 33.90700
H  43.34400 36.21400 29.93400
H  44.48100 35.43200 28.88700
H  42.79800 35.05700 28.73500
H  43.41900 34.14100 26.60600
H  44.97200 34.86800 26.77900
H  44.68100 33.94400 25.29200
H  41.98600 40.16100 22.17300
H  42.75800 42.92800 22.29700
H  44.77800 40.72000 23.15400
H  44.43300 41.57400 21.71900
H  44.38300 39.80100 21.56200
H  39.89900 42.38900 22.80700
H  40.40900 41.37000 21.56500
H  40.64600 42.97900 20.00400
H  41.38200 44.17100 21.08100
H  39.65300 43.92300 21.13300
H  39.92900 46.58300 24.81300
H  41.62800 46.85700 25.27500
H  40.30800 47.36400 26.36800
H  39.50200 44.49700 30.65900
H  42.41000 46.54200 33.18400
H  42.72900 44.80000 33.21600
H  41.56200 45.54000 34.33000
Mg 17.27000 52.56500 25.73500
C  19.01700 50.99400 28.42700
C  14.88600 53.44200 27.81700
C  15.37900 53.29500 23.00700
C  19.58200 50.88100 23.45100
N  17.05900 52.29900 27.90300
C  17.95700 51.80900 28.79700
C  17.40600 51.95700 30.22700
C  15.93300 52.51400 29.96800
C  16.00300 52.86900 28.52300
C  14.73800 51.59000 30.43200
C  18.30200 52.81300 31.05500
C  18.01200 52.89800 32.57800
H  16.92900 52.01000 33.29700
N  15.44500 53.50500 25.49100
C  14.60000 53.76700 26.48100
C  13.37500 54.46300 25.97900
C  13.55400 54.40000 24.50300
C  14.85700 53.74000 24.26300
C  12.22400 54.92500 26.83100
C  12.63500 54.88700 23.43900
O  12.88900 54.90300 22.27000
C  11.28100 55.46700 23.83100
N  17.52500 52.12300 23.56100
C  16.55000 52.59800 22.67800
C  16.95200 52.36400 21.22500
C  18.36200 51.80400 21.40200
C  18.52600 51.62100 22.93200
C  16.05400 51.51300 20.31100
C  19.45400 52.66400 20.86600
C  20.64900 52.03800 20.03000
N  18.99100 51.15100 25.86100
C  19.80600 50.57000 24.85600
C  20.85100 49.80300 25.52600
C  20.59600 49.92500 26.91500
C  19.41800 50.71900 27.06500
C  22.04700 49.13700 24.90700
C  21.04100 49.55000 28.26100
O  22.05900 48.98900 28.63200
C  19.92800 50.11200 29.20700
C  19.16300 49.00600 29.78400
O  18.15300 48.43900 29.37800
O  19.56700 48.83700 31.08500
C  18.69900 48.01900 31.94200
H  14.04700 53.65600 28.48300
H  14.77500 53.50200 22.12100
H  20.29800 50.38900 22.78900
H  17.43900 50.96900 30.68500
H  15.84500 53.42200 30.56500
H  14.12700 51.31200 29.57300
H  14.12400 52.18600 31.10700
H  15.12600 50.67400 30.87900
H  17.99500 53.81200 30.74700
H  19.37900 52.64300 31.04900
H  17.94400 53.94900 32.85700
H  18.96300 52.52100 32.95500
H  12.51800 54.79900 27.87400
H  11.33200 54.31800 26.68200
H  11.91800 55.96900 26.75600
H  11.40400 56.43400 24.31800
H  10.65400 54.77900 24.39900
H  10.67000 55.69300 22.95700
H  17.03200 53.26800 20.62100
H  18.40300 50.79000 21.00300
H  15.62500 50.65500 20.82700
H  16.65000 51.17200 19.46400
H  15.21100 52.08500 19.92200
H  19.83300 53.33400 21.63800
H  18.94600 53.24400 20.09600
H  21.47300 52.64500 20.40400
H  20.51600 52.30800 18.98300
H  20.67800 50.95800 20.17600
H  22.94600 49.75300 24.91900
H  21.89600 48.67100 23.93300
H  22.24800 48.30500 25.58200
H  20.34500 50.66000 30.05200
H  18.71100 48.41600 32.95700
H  19.17300 47.03800 31.98000
H  17.67900 47.90800 31.57500

