158

Mg 25.82800 1.03900 28.76600
C  27.73100 0.61700 31.79200
C  22.98100 1.22900 30.84000
C  24.04500 1.09300 26.08100
C  28.65800 0.18000 27.04500
N  25.43800 1.01100 31.14300
C  26.34100 0.93900 32.11600
C  25.72600 1.10100 33.47800
C  24.20500 1.15200 33.16600
C  24.16000 1.15400 31.66200
C  23.31200 -0.00300 33.66400
C  26.38100 2.29500 34.28300
C  27.13300 2.09700 35.67500
H  26.92100 3.12600 36.87400
N  23.78800 1.12700 28.48600
C  22.82300 1.20600 29.44800
C  21.48200 1.19300 28.81000
C  21.78800 1.15500 27.41700
C  23.20800 1.16400 27.28800
C  20.19300 0.93400 29.47600
C  20.85600 1.06500 26.19400
O  21.26100 1.14200 25.02200
C  19.35700 0.95000 26.41100
N  26.29100 0.55300 26.83800
C  25.40300 0.87500 25.86300
C  26.11200 1.01000 24.50400
C  27.52600 0.51800 24.81100
C  27.47800 0.38000 26.31700
C  25.44300 0.21000 23.34400
C  28.68900 1.31000 24.16500
C  29.24200 0.72300 22.83800
N  27.77200 0.47500 29.30000
C  28.82800 0.16200 28.40200
C  30.02200 0.01200 29.16100
C  29.66200 0.14400 30.50100
C  28.25900 0.40700 30.51800
C  31.43200 -0.27600 28.62200
C  30.13200 0.11300 31.85900
O  31.25600 -0.16900 32.23500
C  28.90100 0.35100 32.78400
C  28.58500 -0.80600 33.68200
O  27.79500 -1.68400 33.43700
O  29.28300 -0.57400 34.84600
C  28.74800 -1.41100 35.93700
H  22.12100 1.39900 31.49200
H  23.45400 1.36000 25.20200
H  29.63500 0.08200 26.56600
H  25.86400 0.15400 34.00100
H  23.83700 2.15000 33.40300
H  22.55500 0.50100 34.26500
H  23.89100 -0.73900 34.22300
H  22.77400 -0.58000 32.91200
H  25.66900 3.07300 34.55600
H  27.03300 2.83600 33.59700
H  28.19100 2.29100 35.50000
H  26.91300 1.09300 36.03900
H  19.70800 0.03000 29.10800
H  19.59800 1.84500 29.41200
H  20.36600 0.72700 30.53200
H  18.73600 1.28700 25.58100
H  19.09900 1.59900 27.24700
H  19.06400 -0.09700 26.48800
H  26.07000 2.07100 24.26000
H  27.73700 -0.45500 24.36700
H  25.25500 1.03700 22.66000
H  24.42200 -0.14700 23.48200
H  26.16300 -0.51100 22.95700
H  29.57300 1.38200 24.79900
H  28.27800 2.28200 23.89100
H  29.08700 1.49900 22.08900
H  28.75300 -0.18600 22.48800
H  30.30100 0.52500 23.00500
H  31.55200 0.20200 27.65000
H  31.58800 -1.35300 28.55100
H  32.13500 0.25100 29.26800
H  29.09700 1.26600 33.34200
H  28.91100 -2.44600 35.63300
H  27.69800 -1.22900 36.16500
H  29.42300 -1.40500 36.79300
Mg 47.47500 17.04100 28.83200
C  45.61200 15.64900 31.68800
C  49.33400 18.70000 30.93600
C  49.10600 17.95200 26.07900
C  45.03600 15.47500 26.82100
N  47.38400 17.21900 31.12100
C  46.68400 16.55300 32.09600
C  47.14100 16.97200 33.52300
C  48.16300 18.13600 33.18100
C  48.26500 18.03000 31.65000
C  47.99400 19.57500 33.77100
C  47.87200 15.84600 34.39200
C  48.45300 16.21800 35.71500
H  48.04200 17.40500 36.50300
N  49.09100 18.10200 28.53400
C  49.71900 18.73400 29.55800
C  50.96200 19.26500 29.03500
C  50.96000 18.93200 27.62900
C  49.68800 18.37700 27.31300
C  52.01400 19.97900 29.93000
C  52.05500 19.06400 26.61000
O  51.88200 18.90300 25.35800
C  53.27500 19.56200 27.17400
N  47.02000 16.87900 26.76800
C  47.91200 17.37500 25.83200
C  47.37400 17.09600 24.34500
C  46.08300 16.29200 24.60000
C  45.98500 16.23100 26.13500
C  47.15400 18.38400 23.46100
C  46.13900 14.79600 24.09600
C  45.12700 14.42400 23.01100
N  45.73800 15.82500 29.16900
C  44.96900 15.20000 28.21400
C  43.91700 14.45000 28.82500
C  44.16200 14.61500 30.25000
C  45.30400 15.42600 30.33100
C  42.76100 13.71200 28.19400
C  43.59100 14.29900 31.47400
O  42.59500 13.69100 31.73200
C  44.47500 15.06300 32.50600
C  43.64100 16.05700 33.15300
O  42.83300 16.75500 32.64900
O  43.93500 15.99000 34.45900
C  43.34200 16.90800 35.47500
H  49.94000 19.24300 31.66500
H  49.65200 18.23600 25.17700
H  44.31200 15.06800 26.11200
H  46.29800 17.32000 34.12000
H  49.18200 17.86100 33.45300
H  47.90600 20.42800 33.09900
H  48.71500 19.74100 34.57200
H  46.98700 19.35200 34.12300
H  48.52500 15.24300 33.76100
H  47.06800 15.14200 34.60600
H  49.52100 16.28600 35.51000
H  48.16300 15.30900 36.24300
H  51.74600 20.08800 30.98100
H  52.31200 20.89800 29.42500
H  52.88200 19.33100 30.05700
H  53.16100 20.61800 27.41700
H  54.01200 19.52400 26.37200
H  53.52600 18.78700 27.89900
H  48.17600 16.56000 23.83700
H  45.18200 16.82900 24.30400
H  47.66400 18.22700 22.51000
H  47.71800 19.23900 23.83500
H  46.12900 18.75000 23.40700
H  46.07700 14.06400 24.90200
H  47.06500 14.55700 23.57300
H  45.66100 13.63100 22.48700
H  44.77400 15.27500 22.42800
H  44.20800 14.07400 23.48000
H  42.75000 13.82600 27.11000
H  41.81300 14.14800 28.51100
H  42.83700 12.66200 28.47900
H  44.74800 14.30500 33.24000
H  42.85800 16.22900 36.17800
H  42.62800 17.58600 35.00800
H  44.21900 17.36700 35.93200

