158

Mg 7.66100 3.28300 27.02300
C  8.59800 1.50600 29.95900
C  5.80800 5.46600 29.03200
C  6.53400 4.82200 24.28400
C  9.23300 0.93200 25.16500
N  7.31300 3.50000 29.13300
C  7.87400 2.69000 30.15400
C  7.64900 3.30200 31.57200
C  6.57600 4.40800 31.25100
C  6.52300 4.43800 29.70700
C  5.20300 4.12200 31.88400
C  8.92000 3.84800 32.22400
C  8.71500 4.63500 33.58200
H  9.47000 4.06400 34.77600
N  6.30300 4.81100 26.71100
C  5.70900 5.61100 27.66300
C  4.95000 6.65800 26.99700
C  5.12900 6.50800 25.63500
C  6.00200 5.34100 25.46700
C  3.95700 7.53200 27.83200
C  4.59400 7.44700 24.56800
O  4.74700 7.15600 23.36700
C  3.80200 8.65900 24.89300
N  7.88900 2.89000 25.00000
C  7.31400 3.70100 24.06000
C  7.69800 3.29500 22.63700
C  8.62800 2.03800 22.84600
C  8.59900 1.91000 24.41600
C  6.50600 3.10600 21.66600
C  9.99300 2.12400 22.24300
C  10.39800 0.87800 21.50100
N  8.69500 1.54300 27.42900
C  9.34700 0.71600 26.56800
C  9.98200 -0.38100 27.26900
C  9.70600 -0.11800 28.62800
C  8.96800 1.09000 28.67100
C  10.83200 -1.45600 26.58400
C  9.90900 -0.55400 29.96700
O  10.53300 -1.53100 30.40500
C  9.21600 0.46300 30.91200
C  8.25300 -0.26400 31.71600
O  7.31300 -0.89300 31.34600
O  8.38900 0.03700 33.14000
C  7.19400 -0.32100 34.00000
H  5.45900 6.23300 29.72600
H  6.16700 5.35900 23.40700
H  9.85100 0.25500 24.57100
H  7.21700 2.44700 32.09100
H  6.83000 5.41400 31.58400
H  5.24000 3.14100 32.35700
H  4.44200 4.09000 31.10500
H  5.05200 4.89400 32.63900
H  9.34100 4.50900 31.46600
H  9.57700 3.00900 32.45400
H  7.65700 4.65200 33.84600
H  8.94200 5.69600 33.48500
H  2.99700 7.33600 27.35500
H  4.16400 8.59500 27.71200
H  3.86200 7.29100 28.89100
H  2.83400 8.47800 25.36000
H  3.63400 9.10100 23.91100
H  4.35300 9.33700 25.54400
H  8.31200 4.10500 22.24500
H  8.10400 1.14900 22.49500
H  5.52100 3.43000 22.00300
H  6.34300 2.04500 21.47400
H  6.66100 3.73300 20.78800
H  10.79000 2.31300 22.96200
H  9.95500 2.98700 21.57800
H  10.48600 1.16500 20.45300
H  9.74300 0.00700 21.48000
H  11.35700 0.58200 21.92600
H  10.53400 -1.47400 25.53600
H  10.55100 -2.45900 26.90700
H  11.90600 -1.27700 26.62100
H  9.95500 0.89300 31.58800
H  6.87000 0.60800 34.46900
H  7.42000 -1.02500 34.80100
H  6.33600 -0.67000 33.42700
Mg 17.14400 51.99800 25.36600
C  18.94000 50.42000 27.98500
C  14.83800 53.09700 27.54500
C  15.29800 53.01200 22.77900
C  19.45800 50.37700 23.14800
N  16.92800 51.73800 27.56700
C  17.79200 51.06200 28.41400
C  17.43200 51.37700 29.89300
C  15.94600 52.09300 29.64000
C  15.89400 52.32900 28.16900
C  14.65600 51.36000 30.29000
C  18.43500 52.18800 30.67900
C  18.46000 52.04000 32.18900
H  17.37600 51.21900 32.86500
N  15.33200 52.97600 25.21200
C  14.56600 53.47500 26.17500
C  13.42400 54.19700 25.60100
C  13.51700 54.11000 24.15500
C  14.71800 53.31900 23.99100
C  12.31100 54.76600 26.56900
C  12.54600 54.74300 23.13300
O  12.66000 54.55800 21.94400
C  11.53800 55.65600 23.60900
N  17.44200 51.71300 23.33600
C  16.49400 52.27500 22.45600
C  16.86300 51.81900 20.98700
C  18.35500 51.28900 21.09800
C  18.45400 51.19500 22.58000
C  15.81900 50.71100 20.66900
C  19.44000 52.20000 20.50200
C  20.07600 53.33900 21.31000
N  18.90200 50.72500 25.46300
C  19.68900 50.16400 24.50000
C  20.80100 49.45200 25.08400
C  20.51300 49.48300 26.46600
C  19.33600 50.19700 26.60200
C  21.92900 48.72100 24.29300
C  20.96900 49.10100 27.82800
O  21.98200 48.50200 28.10300
C  19.99800 49.76800 28.77500
C  19.61500 48.80400 29.83400
O  18.80200 47.89100 29.74000
O  20.26500 49.06200 30.98300
C  19.79700 48.19600 32.10600
H  14.11100 53.45200 28.27800
H  14.72700 53.36600 21.91800
H  20.20700 49.92300 22.49700
H  17.34300 50.47500 30.49800
H  15.90400 53.05600 30.14900
H  14.18100 51.00900 29.37300
H  13.98800 51.99200 30.87500
H  15.04800 50.58200 30.94400
H  18.20000 53.23400 30.48300
H  19.35600 52.06700 30.10800
H  18.47700 53.03000 32.64400
H  19.39200 51.53800 32.44800
H  12.58200 55.78200 26.85600
H  12.35800 54.21800 27.50900
H  11.34300 54.65500 26.07800
H  10.78500 55.11900 24.18500
H  11.10600 56.16200 22.74600
H  12.03700 56.36500 24.26900
H  16.79200 52.69200 20.33800
H  18.33800 50.29800 20.64600
H  15.24000 50.96000 19.77900
H  15.14500 50.39600 21.46500
H  16.29500 49.78400 20.34900
H  19.11100 52.64200 19.56100
H  20.13100 51.47900 20.06500
H  21.10000 53.10000 21.59800
H  19.50200 53.61400 22.19500
H  20.20900 54.24700 20.72100
H  22.16200 49.15600 23.32100
H  21.74800 47.65900 24.12800
H  22.76900 48.94800 24.95000
H  20.59400 50.60100 29.14900
H  19.86000 48.80000 33.01200
H  20.40000 47.28800 32.11700
H  18.77900 47.81300 32.03300

