158

Mg 16.79700 -0.56300 27.93000
C  15.54500 1.05000 30.71900
C  18.72100 -2.56300 29.89400
C  18.13500 -1.97200 25.15300
C  15.02800 1.65200 25.91500
N  17.06800 -0.73400 30.00900
C  16.44400 0.05900 30.99900
C  16.95600 -0.38300 32.44300
C  17.92800 -1.59800 32.10600
C  17.98300 -1.58600 30.53800
C  19.38200 -1.51000 32.67200
C  15.84700 -0.86700 33.49100
C  15.92500 -0.22300 34.94400
H  17.24200 0.22200 35.54600
N  18.26800 -2.06600 27.63000
C  18.96100 -2.80600 28.55300
C  19.75500 -3.75900 27.91500
C  19.55400 -3.62800 26.53300
C  18.61600 -2.47100 26.37900
C  20.49800 -4.73600 28.76000
C  20.26700 -4.31500 25.37900
O  20.00600 -4.12800 24.22100
C  21.35000 -5.26900 25.74400
N  16.64300 -0.23100 25.84600
C  17.34100 -0.92000 24.88300
C  17.04200 -0.29500 23.41400
C  15.92300 0.74300 23.73000
C  15.82100 0.71700 25.29200
C  18.36900 0.21000 22.74100
C  14.65400 0.51300 22.92900
C  13.65400 -0.53000 23.48500
N  15.49000 1.01300 28.19100
C  14.94300 1.92500 27.26600
C  14.25200 2.95600 27.96700
C  14.42000 2.59500 29.31900
C  15.19200 1.40300 29.38500
C  13.63700 4.15000 27.31700
C  14.12300 3.04000 30.61700
O  13.65000 4.14500 30.95400
C  14.89600 2.12900 31.62500
C  15.91400 2.91300 32.27800
O  17.05000 3.09100 31.87200
O  15.49100 3.24900 33.54400
C  16.41800 4.00500 34.37300
H  19.16100 -3.23700 30.63200
H  18.54200 -2.35200 24.21300
H  14.45600 2.30500 25.25200
H  17.52900 0.42700 32.89400
H  17.58800 -2.61200 32.31900
H  19.91500 -2.45800 32.73800
H  19.42800 -1.00700 33.63800
H  20.02300 -0.90700 32.02900
H  16.02500 -1.92200 33.70100
H  14.87400 -0.51600 33.14700
H  15.44100 -0.95100 35.59400
H  15.27400 0.64900 34.99800
H  21.55600 -4.78100 28.50200
H  20.16700 -5.76500 28.62200
H  20.53300 -4.58000 29.83800
H  22.24300 -4.70000 26.00100
H  21.64200 -5.94100 24.93700
H  21.04400 -5.87900 26.59400
H  16.61400 -1.12100 22.84400
H  16.31800 1.72600 23.47700
H  19.19300 0.06200 23.43900
H  18.21500 1.26500 22.51500
H  18.57300 -0.30500 21.80200
H  15.08300 0.17900 21.98400
H  14.07900 1.42000 22.74400
H  13.99500 -1.14700 24.31600
H  13.32900 -1.21000 22.69700
H  12.77400 0.00900 23.83600
H  13.63800 4.86300 28.14200
H  12.67200 3.94000 26.85600
H  14.33400 4.49700 26.55500
H  14.15600 1.83900 32.37000
H  16.72800 4.90600 33.84500
H  17.37600 3.52100 34.56200
H  16.05100 4.45000 35.29800
Mg 41.34700 40.56000 26.54700
C  40.98000 42.99600 29.02400
C  42.30800 38.30100 28.90500
C  42.28100 38.39000 24.14100
C  40.64900 43.00500 24.22600
N  41.65700 40.68600 28.66700
C  41.31000 41.72000 29.56000
C  41.40200 41.33300 31.06600
C  42.29400 39.99900 30.92500
C  42.10700 39.60300 29.39200
C  43.76700 40.22400 31.42900
C  40.03400 41.04300 31.62800
C  39.62600 41.84600 32.90300
H  39.06300 41.03700 34.06700
N  42.09000 38.50400 26.56700
C  42.36500 37.72900 27.62600
C  42.78400 36.38000 27.24000
C  42.87000 36.41100 25.85100
C  42.41600 37.81000 25.42700
C  43.17200 35.33800 28.24200
C  43.26700 35.31400 24.80900
O  43.38600 35.54800 23.62300
C  43.40100 33.91900 25.35200
N  41.63300 40.71900 24.43700
C  41.88800 39.66100 23.64900
C  41.68600 39.95500 22.17100
C  40.85300 41.35700 22.16800
C  41.08100 41.77100 23.67500
C  43.05900 40.00200 21.36200
C  39.36900 41.29300 21.74400
C  38.50200 40.07400 22.18000
N  40.88000 42.61300 26.56400
C  40.66100 43.49400 25.53600
C  40.36400 44.82900 25.99900
C  40.47100 44.70700 27.39000
C  40.80200 43.31100 27.65500
C  40.15700 46.04700 25.14700
C  40.29500 45.35000 28.65100
O  40.04200 46.47000 28.89300
C  40.64400 44.31800 29.74400
C  41.66500 44.92700 30.63200
O  42.82200 45.21800 30.34700
O  41.09700 45.17800 31.78500
C  41.88300 45.64900 32.87100
H  42.43000 37.56400 29.70100
H  42.55000 37.77400 23.28000
H  40.20500 43.67600 23.48700
H  41.86000 42.17400 31.58600
H  41.85600 39.15000 31.45100
H  44.52500 39.66700 30.87700
H  43.75100 39.85600 32.45500
H  44.11400 41.24600 31.58100
H  39.79700 39.99700 31.82300
H  39.30500 41.13800 30.82300
H  38.92600 42.62400 32.59800
H  40.38800 42.49900 33.32800
H  44.15900 34.97900 27.94800
H  42.53800 34.46300 28.09800
H  43.09800 35.65300 29.28300
H  42.39500 33.59700 25.62000
H  44.09000 34.00000 26.19300
H  43.70900 33.26600 24.53600
H  41.04900 39.19200 21.72600
H  41.26800 42.10700 21.49400
H  43.86700 39.95900 22.09200
H  43.13600 40.86400 20.69900
H  43.08100 39.12400 20.71600
H  39.27500 41.39600 20.66300
H  38.82000 42.11400 22.20400
H  37.62000 40.38500 22.73900
H  39.21300 39.46300 22.73600
H  38.12600 39.48700 21.34100
H  39.37900 45.74100 24.44700
H  41.03300 46.29900 24.54900
H  39.96300 47.00500 25.62900
H  39.73000 44.11200 30.30000
H  42.95500 45.47200 32.78100
H  41.50700 45.37700 33.85800
H  41.66600 46.71700 32.88200

