158

Mg 8.83200 3.86800 27.93000
C  10.20400 2.51100 30.80100
C  6.81800 5.86400 29.88000
C  7.17900 4.70900 25.12400
C  10.36200 1.15400 26.04100
N  8.41400 3.95400 30.12200
C  9.34700 3.53600 31.10100
C  9.17400 4.23300 32.41400
C  8.04200 5.28500 32.07400
C  7.70100 5.03200 30.57700
C  6.86200 5.22100 33.05600
C  10.42500 4.79900 33.10000
C  10.76800 4.33000 34.49000
H  11.37600 5.33800 35.54900
N  7.26700 5.16100 27.53600
C  6.59400 6.00000 28.45600
C  5.80600 7.01700 27.69800
C  5.94400 6.65500 26.30100
C  6.83600 5.42900 26.27000
C  5.17600 8.27800 28.32500
C  5.45100 7.29000 25.03600
O  5.65000 6.94700 23.82600
C  4.60800 8.55300 25.03500
N  8.86500 3.08200 25.89300
C  8.02600 3.59700 24.91200
C  8.13900 2.93800 23.51600
C  9.11300 1.73700 23.80300
C  9.51400 2.01600 25.30900
C  6.75600 2.47700 23.13300
C  10.23000 1.56900 22.82800
C  10.04200 0.38600 21.86600
N  10.16100 2.35100 28.28800
C  10.59300 1.30200 27.46100
C  11.36200 0.40900 28.24300
C  11.26900 0.86900 29.52100
C  10.51600 2.02500 29.50900
C  12.10300 -0.78300 27.82900
C  11.82300 0.67900 30.83900
O  12.52800 -0.21400 31.31400
C  11.15200 1.73600 31.82400
C  10.39600 0.96900 32.93500
O  9.31100 0.41400 32.85500
O  11.12400 1.12100 34.07900
C  10.49700 0.87400 35.35400
H  6.34000 6.58200 30.55100
H  6.54000 4.92500 24.26500
H  10.70200 0.33600 25.40200
H  8.75800 3.47100 33.07300
H  8.58100 6.23100 32.12900
H  7.20600 5.56500 34.03200
H  6.34000 4.26700 33.13000
H  6.11100 5.95900 32.77200
H  10.28700 5.87100 33.24200
H  11.28400 4.67300 32.44100
H  11.56600 3.60000 34.34800
H  9.95600 3.75600 34.93700
H  5.51500 8.36100 29.35800
H  4.10600 8.08500 28.26000
H  5.45900 9.20500 27.82500
H  3.96300 8.64800 24.16200
H  5.25400 9.42300 25.15300
H  3.83000 8.46400 25.79400
H  8.44600 3.62800 22.73000
H  8.54200 0.81000 23.73700
H  5.93800 2.83200 23.76000
H  6.71500 1.39500 23.25500
H  6.59900 2.75800 22.09200
H  11.16000 1.46700 23.38700
H  10.21800 2.46300 22.20400
H  9.80200 0.75100 20.86800
H  9.13900 -0.15500 22.15100
H  10.87600 -0.31000 21.95900
H  11.94500 -0.68100 26.75500
H  11.57200 -1.65000 28.22300
H  13.15000 -0.78700 28.13000
H  11.89000 2.39300 32.28400
H  10.78700 -0.15700 35.55900
H  9.40900 0.80900 35.35000
H  10.87200 1.51500 36.15200
Mg 47.10700 34.58100 28.05800
C  45.57000 32.82900 30.58500
C  47.33500 37.39500 30.35500
C  48.33300 36.57400 25.76200
C  46.27400 32.13700 25.83100
N  46.49300 35.00900 30.23900
C  45.96500 34.07400 31.03700
C  46.04800 34.65300 32.54100
C  46.23000 36.16700 32.38500
C  46.73800 36.17800 30.89200
C  44.91400 36.83300 32.42400
C  47.32400 34.03900 33.23600
C  47.24200 33.62000 34.75500
H  46.51200 34.66800 35.63600
N  47.80400 36.62700 28.12100
C  47.89100 37.56100 29.12700
C  48.57300 38.71700 28.72700
C  48.88300 38.54200 27.39000
C  48.24800 37.23200 27.00000
C  48.97300 39.85800 29.65000
C  49.72600 39.36000 26.53000
O  49.81100 39.10500 25.31200
C  50.42800 40.59400 27.07700
N  47.03400 34.49900 25.98200
C  47.80000 35.36000 25.29900
C  47.85600 34.77200 23.85800
C  47.58800 33.31200 24.04600
C  46.92900 33.30000 25.40700
C  46.83200 35.50700 22.84300
C  48.70400 32.25400 23.90900
C  48.58400 31.27000 22.66200
N  46.23400 32.77600 28.11800
C  45.89000 31.89400 27.14900
C  45.29000 30.63700 27.67200
C  45.09900 31.00400 29.06000
C  45.68100 32.25600 29.21700
C  44.98700 29.36600 26.93800
C  44.61300 30.58900 30.37100
O  44.20700 29.45900 30.73000
C  44.72700 31.80500 31.30100
C  45.30800 31.33800 32.59500
O  46.23100 30.51100 32.72400
O  44.63700 31.87300 33.62900
C  44.68800 31.14200 34.90000
H  47.53100 38.12300 31.14400
H  48.74300 37.03700 24.86200
H  46.15300 31.25700 25.19600
H  45.15800 34.32200 33.07600
H  46.90800 36.56300 33.14200
H  45.00800 37.90800 32.26600
H  44.41100 36.57300 33.35500
H  44.32600 36.46800 31.58200
H  48.18000 34.71100 33.18900
H  47.47400 33.09300 32.71500
H  48.25100 33.65300 35.16500
H  46.93100 32.58900 34.92100
H  49.77300 39.49300 30.29400
H  48.11100 39.99800 30.30200
H  49.22500 40.84000 29.24900
H  49.74000 41.43900 27.04100
H  51.19800 40.90300 26.37000
H  50.92800 40.37300 28.02000
H  48.89700 34.89700 23.56000
H  46.86800 33.02200 23.28200
H  47.40200 36.05600 22.09400
H  46.19200 36.21300 23.37200
H  46.22600 34.71600 22.40200
H  48.68900 31.58700 24.77100
H  49.67900 32.72900 23.79800
H  49.49900 31.47900 22.10800
H  47.74400 31.57000 22.03500
H  48.39200 30.24000 22.96100
H  44.01800 29.28400 26.44700
H  45.29900 28.47700 27.48600
H  45.67100 29.39500 26.09000
H  43.70400 32.13600 31.47600
H  43.80600 30.53600 35.10800
H  44.76100 31.91600 35.66500
H  45.53300 30.46100 35.00900

