158

Mg 40.84200 9.27900 29.22800
C  42.46300 10.76600 31.96700
C  38.54400 7.99900 31.45600
C  39.12300 8.07100 26.60300
C  43.38000 10.41400 27.28000
N  40.60300 9.38300 31.44700
C  41.38500 10.06100 32.39900
C  40.77000 10.02500 33.77400
C  39.67300 8.90900 33.54100
C  39.54900 8.74300 32.02700
C  40.01300 7.61800 34.30800
C  40.19500 11.26800 34.45300
C  39.76300 11.21600 35.92800
H  40.24300 12.41700 36.77100
N  39.00500 8.22800 29.05900
C  38.23900 7.79600 30.05000
C  37.03300 7.17100 29.52700
C  37.06400 7.40900 28.08300
C  38.43600 7.94900 27.83400
C  36.00200 6.60200 30.40500
C  36.02300 7.15700 27.07400
O  36.19400 7.26100 25.86900
C  34.73800 6.79200 27.50400
N  41.24400 9.11900 27.28000
C  40.39900 8.63100 26.37300
C  41.01800 8.61400 24.94200
C  42.31900 9.49300 25.19700
C  42.32600 9.78600 26.67600
C  41.12300 7.16800 24.35600
C  42.41000 10.83900 24.37600
C  41.56500 12.09300 24.87900
N  42.63000 10.20600 29.51100
C  43.52500 10.62000 28.60900
C  44.55600 11.39800 29.23700
C  44.17200 11.54800 30.55600
C  42.97500 10.80800 30.70500
C  45.77000 11.87000 28.47700
C  44.56000 12.02600 31.86400
O  45.57400 12.67800 32.17200
C  43.38200 11.59700 32.86100
C  44.01000 10.82500 33.98800
O  44.90700 10.06600 33.86400
O  43.58000 11.22300 35.13800
C  44.15300 10.80700 36.40000
H  37.80400 7.56200 32.12900
H  38.63400 7.65400 25.72000
H  44.15000 10.92800 26.70200
H  41.45700 9.64900 34.53300
H  38.75200 9.30500 33.97000
H  41.03100 7.65000 34.69600
H  39.99900 6.76300 33.63100
H  39.30200 7.41700 35.11000
H  39.37900 11.59100 33.80600
H  40.91600 12.05700 34.23600
H  39.97700 10.24700 36.37900
H  38.68600 11.33400 36.04100
H  36.52100 6.24600 31.29400
H  35.50500 5.73700 29.96600
H  35.27400 7.39500 30.57900
H  34.63200 5.70700 27.52700
H  33.99400 7.09100 26.76600
H  34.41000 7.27400 28.42400
H  40.30400 9.20300 24.36600
H  43.15000 8.84000 24.92800
H  40.65100 7.19900 23.37400
H  40.62800 6.44600 25.00500
H  42.18600 6.93000 24.40400
H  42.20100 10.70700 23.31400
H  43.45600 11.13000 24.47700
H  40.95000 11.67000 25.67300
H  41.10900 12.37600 23.93000
H  42.22500 12.89400 25.21000
H  46.24200 11.05500 27.92900
H  46.46100 12.16800 29.26500
H  45.59000 12.65500 27.74300
H  42.98600 12.54100 33.23600
H  45.22000 10.61900 36.27900
H  43.68000 9.88300 36.73100
H  43.87800 11.53900 37.15900
Mg 54.42900 24.45100 44.39800
C  51.70000 26.46500 43.40900
C  52.76900 21.70600 43.24400
C  57.32300 22.64400 44.55400
C  56.14900 27.45100 44.98400
N  52.43200 24.14100 43.46000
C  51.50100 25.07800 43.17200
C  50.31400 24.41200 42.40600
C  50.49700 22.91600 42.82500
C  51.96000 22.89700 43.26900
C  49.55300 22.39000 43.98900
C  50.32200 24.65800 40.90000
C  48.86700 24.51700 40.28300
H  48.80400 24.24200 38.74000
N  54.94300 22.43000 44.09800
C  54.08500 21.47000 43.65500
C  54.77400 20.20400 43.62600
C  56.12500 20.49000 44.00900
C  56.17300 21.89200 44.22800
C  54.09000 18.82800 43.20600
C  57.31200 19.50900 43.87300
O  57.10500 18.34100 43.71300
C  58.71200 19.87500 43.59100
N  56.48600 24.96800 44.44700
C  57.47100 24.01600 44.58900
C  58.83100 24.74000 44.80800
C  58.43300 26.19300 45.10700
C  56.90100 26.19000 44.86300
C  59.85500 24.21800 45.82300
C  59.35000 27.25500 44.44500
C  59.83300 28.43300 45.32000
N  54.03800 26.56500 44.39500
C  54.77000 27.62400 44.73000
C  54.01400 28.83200 44.64900
C  52.75600 28.41200 44.17000
C  52.83900 27.04200 43.97800
C  54.44800 30.24900 45.18000
C  51.47300 28.88000 43.92300
O  50.89000 29.87800 44.17300
C  50.83000 27.71600 43.12000
C  50.74800 28.07400 41.67800
O  51.66500 28.46800 40.92100
O  49.44400 27.99700 41.26300
C  49.17000 28.21700 39.77700
H  52.17500 20.82800 42.98300
H  58.25600 22.08300 44.63200
H  56.79800 28.30400 45.18700
H  49.35800 24.80600 42.75300
H  50.42600 22.29300 41.93300
H  48.59000 22.89200 44.07900
H  50.09200 22.60100 44.91300
H  49.36800 21.32100 43.87600
H  50.87100 23.90300 40.33800
H  50.64300 25.69500 40.79400
H  48.45800 25.52500 40.34600
H  48.25400 23.85600 40.89600
H  54.42300 18.43100 42.24700
H  53.00200 18.83700 43.13800
H  54.44100 18.07900 43.91500
H  58.84800 20.68700 42.87700
H  59.08100 18.95200 43.14300
H  59.25500 20.09500 44.51000
H  59.35400 24.74200 43.85200
H  58.49000 26.43100 46.16900
H  59.33900 24.06400 46.77100
H  60.48400 25.07300 46.07200
H  60.41200 23.35400 45.46100
H  58.70700 27.61500 43.64200
H  60.22100 26.74100 44.03900
H  60.92000 28.49200 45.37500
H  59.45400 28.27900 46.33000
H  59.46600 29.36500 44.89200
H  53.84200 31.07800 44.81300
H  55.47100 30.54200 44.94400
H  54.43200 30.28300 46.26900
H  49.82200 27.54200 43.49500
H  48.93700 29.27300 39.91100
H  48.31400 27.62900 39.44600
H  50.06900 28.15200 39.16400

