158

Mg 45.12600 3.48500 47.76300
C  43.03000 6.03100 46.79300
C  42.67300 1.22300 47.11800
C  47.35400 1.03400 48.03700
C  47.73800 5.79800 47.03100
N  43.07600 3.61900 46.86300
C  42.42300 4.78700 46.65900
C  40.92200 4.45900 46.25400
C  40.79900 2.93900 46.71600
C  42.28100 2.55800 46.85700
C  39.95700 2.71400 47.96700
C  40.70400 4.71400 44.78800
C  39.59200 5.75600 44.62500
H  38.56900 5.55200 43.42400
N  45.02600 1.45400 47.68700
C  43.91500 0.70500 47.43600
C  44.15100 -0.75600 47.64100
C  45.50400 -0.88300 48.02200
C  46.03900 0.53000 47.90000
C  43.14200 -1.85000 47.38200
C  46.23800 -2.12300 48.40500
O  45.61300 -3.20500 48.51000
C  47.67800 -2.12700 48.77700
N  47.23600 3.49400 47.66400
C  47.89800 2.31200 47.92100
C  49.46700 2.57100 47.86600
C  49.55500 4.06500 47.41400
C  48.12100 4.47800 47.29800
C  50.11000 2.19000 49.23800
C  50.36400 4.14700 46.06700
C  51.87800 4.43000 46.25300
N  45.42800 5.59900 47.30300
C  46.51700 6.42900 47.12300
C  46.10700 7.83800 46.96800
C  44.69800 7.72300 46.90300
C  44.34600 6.29600 47.03700
C  47.06700 8.99700 46.67400
C  43.54500 8.45400 46.51800
O  43.25600 9.59400 46.18200
C  42.38000 7.41000 46.63500
C  41.38600 7.90000 47.70700
O  41.49400 7.63900 48.85900
O  40.26200 8.37000 47.08900
C  39.13000 8.81600 47.86400
H  41.75900 0.66200 46.91000
H  48.06500 0.23300 48.25000
H  48.58300 6.48500 46.96100
H  40.28000 5.03300 46.92200
H  40.31600 2.32300 45.95700
H  39.59400 3.63100 48.43000
H  40.60400 2.08600 48.58100
H  39.02600 2.22500 47.68100
H  40.39600 3.78400 44.31100
H  41.55100 5.14200 44.25200
H  40.06300 6.73800 44.56400
H  38.89900 5.90000 45.45400
H  42.17100 -1.51400 47.01800
H  42.98200 -2.58300 48.17300
H  43.59400 -2.46800 46.60600
H  48.37600 -1.82200 47.99800
H  47.87300 -3.16900 49.02900
H  47.93000 -1.61700 49.70800
H  49.71600 1.83500 47.10100
H  49.88600 4.63600 48.28100
H  49.49300 1.96300 50.10700
H  50.84900 2.96500 49.44300
H  50.74200 1.30200 49.25300
H  49.88900 4.89700 45.43500
H  50.32000 3.26900 45.42300
H  52.11800 4.75700 47.26500
H  52.03600 5.28100 45.59000
H  52.49900 3.60800 45.89400
H  48.12800 8.76900 46.77200
H  46.80800 9.78600 47.38000
H  46.79000 9.20600 45.64000
H  41.87600 7.37300 45.66900
H  39.52200 9.29900 48.75900
H  38.55600 7.89800 47.98800
H  38.77300 9.41500 47.02600
Mg 15.75100 52.56900 25.11400
C  17.43100 51.39500 27.93000
C  13.21000 53.50800 27.10900
C  14.19800 53.41700 22.32500
C  18.60200 51.40500 23.13700
N  15.47300 52.56200 27.18000
C  16.31300 52.11000 28.15000
C  15.74200 52.46800 29.55100
C  14.30700 52.81500 29.29100
C  14.30100 52.94300 27.73100
C  13.28000 51.75500 29.70500
C  16.66500 53.52700 30.38100
C  17.06900 53.07900 31.77500
H  16.07100 52.46700 32.82700
N  13.90200 53.36400 24.71000
C  13.03500 53.76800 25.68400
C  11.86300 54.38600 25.10400
C  12.18300 54.39200 23.69100
C  13.47500 53.72700 23.49900
C  10.62200 54.79100 25.86600
C  11.43600 54.99800 22.64500
O  11.88000 55.01200 21.49200
C  10.07900 55.67800 22.92800
N  16.44300 52.59900 23.05000
C  15.51400 52.94000 22.08800
C  16.05800 52.66800 20.70400
C  17.51700 52.19400 20.97000
C  17.53200 52.03500 22.48300
C  15.29200 51.50900 19.88200
C  18.68500 53.13300 20.54000
C  19.88600 52.53100 19.77500
N  17.66800 51.59400 25.38300
C  18.61700 51.14200 24.55700
C  19.60400 50.35400 25.29900
C  19.20600 50.48700 26.60900
C  17.99400 51.14700 26.61700
C  20.73700 49.61500 24.64400
C  19.52000 50.12200 28.00400
O  20.50600 49.55300 28.43700
C  18.36700 50.69100 28.92200
C  17.71000 49.71800 29.78500
O  16.73600 49.02000 29.51100
O  18.33300 49.70200 31.03000
C  17.69800 48.86600 32.06000
H  12.40400 53.93100 27.71200
H  13.65700 53.64900 21.40500
H  19.43400 51.01000 22.55100
H  15.87200 51.64200 30.25000
H  14.02600 53.81900 29.61200
H  12.69100 52.13700 30.53800
H  13.73200 50.83900 30.08400
H  12.66800 51.55000 28.82700
H  16.13900 54.47900 30.45400
H  17.58600 53.75100 29.84300
H  17.32300 54.01100 32.28100
H  17.98700 52.51300 31.62000
H  10.36900 55.84900 25.79400
H  10.65300 54.66900 26.94900
H  9.68900 54.30800 25.57400
H  10.41900 56.39100 23.67800
H  9.21600 55.03700 23.10900
H  9.89700 56.21200 21.99600
H  16.01400 53.66500 20.26600
H  17.68700 51.25600 20.44000
H  15.64100 50.52500 20.19400
H  15.28300 51.68600 18.80600
H  14.28100 51.59400 20.28100
H  19.09900 53.72400 21.35700
H  18.19800 53.81100 19.84000
H  19.77500 51.46900 19.55800
H  20.78800 52.71900 20.35800
H  20.01300 53.02900 18.81300
H  21.63500 50.15900 24.93500
H  20.67900 49.47000 23.56600
H  20.82200 48.65200 25.14800
H  18.85800 51.44900 29.53300
H  18.38400 48.02600 32.16800
H  16.71000 48.45700 31.85100
H  17.74300 49.45300 32.97700

