158

Mg 1.49800 7.84100 25.82800
C  2.17200 9.96800 28.51300
C  2.03100 5.21700 27.96200
C  1.04600 5.71700 23.24600
C  1.20000 10.57500 23.66400
N  1.92700 7.63700 27.98200
C  2.11100 8.64200 28.92100
C  2.25900 8.07000 30.38800
C  2.40400 6.54500 30.17000
C  2.15100 6.43600 28.61400
C  3.79800 5.86400 30.55100
C  0.99900 8.47200 31.23400
C  1.16900 9.28000 32.53200
H  2.34100 8.80800 33.41300
N  1.46100 5.70700 25.62000
C  1.79300 4.83100 26.59700
C  1.76100 3.45900 26.09300
C  1.30500 3.52000 24.75600
C  1.21600 5.01300 24.48000
C  2.12000 2.28400 27.02600
C  0.97700 2.47300 23.69400
O  0.51700 2.70400 22.61200
C  1.18100 0.94500 24.13600
N  1.42200 8.16300 23.70900
C  1.03700 7.10600 22.91900
C  0.65400 7.47600 21.46500
C  0.70100 9.05100 21.58600
C  1.05600 9.31800 23.09400
C  1.52200 6.79900 20.33300
C  -0.59500 9.76200 21.19600
C  -0.58400 10.58800 19.90800
N  1.67600 9.85300 25.98200
C  1.50700 10.86900 25.04700
C  1.65400 12.14300 25.73900
C  2.03200 11.84200 27.10200
C  1.97800 10.43800 27.19900
C  1.40900 13.54800 25.18600
C  2.39000 12.47200 28.31300
O  2.67900 13.64400 28.52300
C  2.31700 11.24700 29.34700
C  3.56600 11.27800 30.14000
O  4.65200 10.88300 29.77400
O  3.32400 11.95500 31.29100
C  4.50900 12.31100 32.06000
H  2.20200 4.45000 28.72000
H  0.89200 4.98900 22.44700
H  1.02600 11.39700 22.96700
H  3.18900 8.46100 30.79800
H  1.66500 5.95000 30.70500
H  4.25400 5.97200 31.53500
H  4.57500 6.18000 29.85500
H  3.66600 4.78200 30.51900
H  0.47700 7.56900 31.55400
H  0.36400 9.01500 30.53400
H  0.25100 9.22300 33.11700
H  1.29700 10.35200 32.38400
H  1.36800 1.50000 26.93400
H  2.33200 2.39900 28.08900
H  3.04500 1.81000 26.69700
H  0.94300 0.24400 23.33700
H  0.56400 0.74000 25.01100
H  2.17100 0.74200 24.54500
H  -0.38900 7.19300 21.32600
H  1.48200 9.45100 20.93900
H  2.53300 6.56600 20.66600
H  1.55700 7.53900 19.53300
H  1.04500 5.92300 19.89100
H  -0.82800 10.53700 21.92700
H  -1.42400 9.05600 21.23700
H  -0.02500 10.09700 19.11200
H  -0.19200 11.58200 20.12100
H  -1.64800 10.60400 19.67300
H  2.39700 13.97100 25.00200
H  0.97000 14.06500 26.03900
H  0.78000 13.45900 24.30000
H  1.45500 11.47300 29.97400
H  5.02600 11.40400 32.37100
H  4.21800 12.77500 33.00200
H  5.05100 13.04000 31.45700
Mg 43.75900 4.46800 46.71900
C  41.68100 7.11100 46.76500
C  41.19400 2.26200 46.32900
C  46.00800 1.80900 46.91100
C  46.61100 6.75500 46.74600
N  41.75200 4.68200 46.40200
C  41.09100 5.82800 46.65800
C  39.60000 5.66000 46.63000
C  39.46800 4.08400 46.68800
C  40.88200 3.66400 46.41000
C  38.96200 3.54300 48.06000
C  38.86200 6.29400 45.40100
C  39.62200 6.28800 44.03400
H  38.80300 5.94200 42.77500
N  43.63300 2.31000 46.47100
C  42.45300 1.65800 46.39200
C  42.73900 0.24000 46.28900
C  44.16100 0.09900 46.30600
C  44.69100 1.43500 46.63000
C  41.74700 -0.87300 46.20500
C  44.99700 -1.18000 46.00100
O  44.40200 -2.23700 45.86100
C  46.49200 -1.11800 45.82900
N  45.95000 4.24900 46.84300
C  46.56700 3.09200 47.02400
C  48.08500 3.28300 47.24700
C  48.17700 4.86300 47.40500
C  46.82100 5.38100 46.95300
C  48.55800 2.49500 48.43500
C  49.33200 5.37500 46.41300
C  50.76200 4.88800 46.52900
N  44.13300 6.52000 46.58900
C  45.29100 7.34000 46.67100
C  44.88000 8.72200 46.77800
C  43.47400 8.71200 46.78600
C  43.11600 7.34400 46.63400
C  45.94400 9.83600 46.92200
C  42.31800 9.49000 46.98700
O  42.20600 10.68700 47.19600
C  41.07500 8.45100 46.98100
C  40.26100 8.55500 48.21700
O  40.63100 8.36000 49.39900
O  38.97300 8.95900 47.87700
C  38.04400 9.10900 49.04600
H  40.35500 1.56900 46.23700
H  46.71800 0.99300 47.06500
H  47.34800 7.55900 46.78600
H  39.21100 6.05600 47.56900
H  38.67500 3.89900 45.96400
H  38.54700 4.32300 48.69800
H  39.76800 3.17700 48.69700
H  38.20900 2.76000 47.97600
H  38.64500 7.33600 45.63600
H  37.86300 5.88200 45.25800
H  40.53200 5.68900 44.08100
H  39.92800 7.31700 43.84500
H  40.77300 -0.47400 46.48700
H  41.92700 -1.70800 46.88300
H  41.80000 -1.32500 45.21500
H  46.93200 -1.23000 46.82000
H  46.87500 -0.19400 45.39500
H  46.80200 -1.93200 45.17300
H  48.66100 2.99400 46.36800
H  48.44300 5.22900 48.39700
H  48.09200 1.52900 48.62500
H  48.59100 3.06300 49.36500
H  49.60000 2.27100 48.20400
H  49.44900 6.35600 46.87400
H  48.91300 5.52000 45.41700
H  51.36900 5.74200 46.82700
H  51.09100 4.52000 45.55700
H  50.93700 3.99600 47.13100
H  46.67700 9.57600 46.15800
H  46.32400 9.77100 47.94200
H  45.59300 10.84100 46.68900
H  40.53700 8.69500 46.06500
H  38.38300 8.85000 50.04900
H  37.17600 8.53400 48.72200
H  37.68900 10.13900 49.04900

