158

Mg 17.18400 -0.33600 28.01200
C  16.09700 1.70500 30.66400
C  19.16000 -2.05600 30.47800
C  18.73200 -1.98300 25.53300
C  15.79700 1.82600 25.70600
N  17.74200 -0.08000 30.33000
C  16.95600 0.69600 31.15800
C  17.32100 0.40600 32.67700
C  18.56100 -0.60200 32.57400
C  18.45900 -0.99000 31.08700
C  19.96000 0.01000 32.94000
C  16.15100 0.02900 33.65100
C  16.15300 0.73300 35.04900
H  17.43300 1.32000 35.71600
N  18.62300 -1.88600 28.02700
C  19.32200 -2.44900 29.11100
C  20.23700 -3.45200 28.58200
C  20.16600 -3.35100 27.11600
C  19.06900 -2.41400 26.84000
C  20.94600 -4.43500 29.60500
C  21.13900 -4.22100 26.01700
O  21.06700 -4.06900 24.80800
C  22.19700 -5.16100 26.65700
N  17.31700 -0.01900 25.91200
C  17.99500 -0.88500 25.16600
C  17.86500 -0.56100 23.68300
C  16.69300 0.57900 23.69400
C  16.61000 0.83300 25.19100
C  19.15800 -0.15900 22.98700
C  15.39100 0.37900 22.96900
C  14.30000 -0.47000 23.64600
N  16.05800 1.29800 28.09400
C  15.52500 2.07700 27.03700
C  14.62200 3.10700 27.59500
C  14.85900 3.07700 28.99800
C  15.75100 1.94700 29.26400
C  13.79200 4.05700 26.78800
C  14.50500 3.65300 30.35700
O  13.74000 4.54300 30.69300
C  15.39700 2.83300 31.41800
C  16.29500 3.77400 32.18900
O  17.27800 4.28500 31.73500
O  15.89000 3.91800 33.52200
C  16.86200 4.79700 34.25600
H  19.82800 -2.51300 31.21200
H  19.26500 -2.54600 24.76500
H  15.21900 2.34000 24.93500
H  17.69100 1.36800 33.03300
H  18.39500 -1.42700 33.26700
H  19.89700 0.97900 33.43500
H  20.58600 0.11500 32.05500
H  20.38700 -0.68400 33.66500
H  16.14000 -1.05700 33.73200
H  15.29600 0.32500 33.04200
H  15.53300 0.10600 35.69000
H  15.56800 1.63700 34.88000
H  22.00900 -4.19900 29.56800
H  20.70400 -5.45600 29.31000
H  20.68900 -4.38300 30.66300
H  22.67500 -5.69900 25.83800
H  21.71300 -5.80700 27.39000
H  22.95100 -4.54000 27.14100
H  17.50100 -1.46900 23.20100
H  17.01000 1.56500 23.35500
H  19.97000 -0.02900 23.70100
H  19.07600 0.82000 22.51400
H  19.47300 -0.83900 22.19600
H  15.59900 -0.13300 22.02900
H  15.00100 1.37700 22.76700
H  13.45700 0.10700 24.02600
H  14.71700 -1.05300 24.46600
H  13.80900 -0.97400 22.81300
H  14.07300 3.93600 25.74100
H  13.89200 5.08500 27.13500
H  12.72000 3.87500 26.72000
H  14.61000 2.50200 32.09600
H  16.43000 5.78300 34.08700
H  17.85200 4.62100 33.83500
H  16.69500 4.70000 35.32900
Mg 36.02500 48.31000 26.01300
C  36.30600 46.25300 29.01400
C  34.97100 50.94000 28.07500
C  34.89000 49.84300 23.39200
C  36.31300 45.31900 24.22200
N  35.68300 48.60700 28.32200
C  36.04700 47.64200 29.29000
C  35.86100 48.27300 30.67300
C  35.40300 49.72200 30.35300
C  35.30200 49.80600 28.80500
C  34.02500 50.12000 31.01400
C  37.10800 48.13400 31.64400
C  36.83100 47.63100 33.04500
H  36.46100 48.60300 34.13700
N  35.26900 50.21500 25.76300
C  34.91000 51.15400 26.70800
C  34.67900 52.36500 26.14000
C  34.62200 52.09400 24.71500
C  34.93100 50.63200 24.54500
C  34.52600 53.67100 26.92100
C  34.29800 52.97100 23.53800
O  34.28800 52.52100 22.39900
C  33.89500 54.44300 23.83000
N  35.68200 47.67400 24.06800
C  35.20700 48.53000 23.16900
C  35.13800 47.90900 21.74600
C  35.61500 46.44500 22.01400
C  35.87900 46.48200 23.49900
C  33.71900 48.02700 21.10900
C  36.93700 45.97100 21.17600
C  38.32400 46.09600 21.82700
N  36.42600 46.26400 26.43700
C  36.56200 45.22800 25.60500
C  36.87900 44.02500 26.38400
C  36.75100 44.39100 27.70900
C  36.49800 45.75600 27.69400
C  37.20000 42.60900 25.89300
C  36.77800 43.90500 29.08000
O  36.85300 42.73300 29.53000
C  36.47700 45.12600 29.98400
C  35.16000 44.82500 30.62700
O  34.05100 45.12600 30.17000
O  35.39100 44.33000 31.85000
C  34.32900 44.15700 32.79700
H  34.72100 51.81700 28.67500
H  34.65200 50.34300 22.45100
H  36.32800 44.35400 23.71100
H  35.06300 47.70000 31.14500
H  36.12700 50.42800 30.76000
H  34.35800 50.83600 31.76500
H  33.57500 49.25500 31.50100
H  33.38200 50.59700 30.27400
H  37.64700 49.08000 31.69100
H  37.82900 47.39300 31.30000
H  37.76300 47.12500 33.29500
H  36.07200 46.84900 33.03600
H  33.49600 53.77400 27.26000
H  34.72800 54.56900 26.33800
H  35.16700 53.74600 27.79900
H  34.76400 55.05800 24.06200
H  33.13100 54.41000 24.60800
H  33.35800 54.81100 22.95600
H  35.75700 48.37800 20.98100
H  34.80200 45.75200 21.79600
H  33.57600 47.01600 20.72800
H  33.81800 48.72500 20.27700
H  33.00500 48.22600 21.90800
H  37.03700 46.58900 20.28400
H  36.78300 44.91900 20.94000
H  38.18900 46.83000 22.62200
H  39.08100 46.40100 21.10400
H  38.51400 45.12300 22.28000
H  38.20900 42.43200 26.26500
H  37.36400 42.44100 24.82800
H  36.52800 41.90800 26.38700
H  37.35100 45.27500 30.61800
H  34.42200 44.97600 33.51000
H  34.57100 43.24800 33.34800
H  33.29900 44.20500 32.44300

