158

Mg 15.80500 -2.29300 27.88800
C  15.06900 -0.20100 30.56900
C  17.85500 -4.09800 30.11400
C  17.27100 -3.92000 25.33600
C  14.77400 0.17800 25.64600
N  16.53900 -1.99200 30.08200
C  15.97300 -1.21500 30.97700
C  16.36700 -1.56400 32.37300
C  17.54200 -2.55600 32.18600
C  17.24400 -3.01100 30.76700
C  19.05200 -2.02300 32.27100
C  15.13500 -2.11200 33.21800
C  14.81300 -1.27000 34.50100
H  15.89600 -0.87700 35.48500
N  17.09200 -3.99200 27.74200
C  17.90100 -4.53400 28.78100
C  18.62300 -5.67200 28.24500
C  18.41900 -5.67000 26.83800
C  17.55300 -4.50000 26.57400
C  19.47200 -6.53300 29.07200
C  18.95200 -6.57700 25.77400
O  18.75300 -6.37100 24.60600
C  19.80600 -7.75200 26.16300
N  15.82600 -1.97700 25.82800
C  16.56200 -2.78100 24.98400
C  16.48300 -2.31000 23.53200
C  15.58900 -1.06900 23.58500
C  15.35000 -0.96200 25.09200
C  17.80700 -2.13000 22.82300
C  14.41500 -0.94000 22.62100
C  13.27100 -1.84000 23.08800
N  14.97200 -0.40500 27.95100
C  14.48800 0.42200 27.00700
C  13.66900 1.44200 27.68900
C  13.89200 1.27800 29.10000
C  14.74600 0.17300 29.19300
C  12.68800 2.36300 27.00300
C  13.56300 1.78200 30.38900
O  12.75200 2.63500 30.64700
C  14.35400 0.90700 31.37900
C  15.22100 1.92100 32.14900
O  16.15200 2.51600 31.67400
O  14.62000 2.33200 33.33500
C  15.30200 3.43800 34.06600
H  18.46300 -4.72000 30.77500
H  17.73500 -4.41100 24.47800
H  14.30100 0.76900 24.85800
H  16.65700 -0.61600 32.82600
H  17.41200 -3.28800 32.98300
H  19.66900 -2.58300 32.97500
H  19.04300 -0.99200 32.62500
H  19.56300 -2.00200 31.30800
H  15.25400 -3.09900 33.66600
H  14.17100 -1.99000 32.72400
H  13.97500 -1.78300 34.97200
H  14.26200 -0.39400 34.15900
H  19.49100 -7.56500 28.72000
H  19.02400 -6.54500 30.06600
H  20.45300 -6.11400 29.29600
H  20.83000 -7.52200 26.45900
H  20.01400 -8.27500 25.23000
H  19.34900 -8.44200 26.87200
H  15.92500 -3.14100 23.10000
H  16.12500 -0.13200 23.43200
H  17.99700 -1.09900 22.52500
H  17.64600 -2.56900 21.83800
H  18.67200 -2.58300 23.30600
H  14.64100 -1.22600 21.59400
H  14.13100 0.10700 22.51600
H  12.34700 -1.32200 23.34600
H  13.49300 -2.48600 23.93700
H  13.11300 -2.48200 22.22100
H  12.32500 3.09700 27.72300
H  11.81000 1.80500 26.67700
H  13.18800 2.92700 26.21500
H  13.57400 0.48000 32.00900
H  14.52700 3.99400 34.59300
H  15.88800 4.15800 33.49400
H  15.96400 3.10800 34.86700
Mg 4.81300 55.01900 42.05700
C  2.87900 52.11100 41.90700
C  7.26500 53.25300 40.29600
C  6.34700 57.86600 41.16200
C  2.03100 56.72200 42.94000
N  4.96300 52.96300 41.18500
C  4.01300 51.97600 41.10800
C  4.38500 50.83300 40.20900
C  5.91400 51.05600 40.02200
C  6.08500 52.53300 40.52400
C  6.94900 50.11600 40.69400
C  3.54500 50.73700 38.85600
C  2.93000 49.33100 38.49500
H  3.48200 48.61000 37.28200
N  6.69400 55.49900 41.15400
C  7.53200 54.61400 40.52100
C  8.70400 55.34400 40.11100
C  8.46700 56.70300 40.43900
C  7.11900 56.71200 40.91700
C  9.94700 54.65600 39.46000
C  9.48000 57.84800 40.15100
O  10.54500 57.58600 39.51900
C  9.33700 59.28100 40.62200
N  4.27800 57.04300 41.89100
C  5.03300 58.04300 41.51900
C  4.25900 59.37200 41.62500
C  2.87300 59.02300 42.22000
C  3.01400 57.52400 42.36400
C  5.08000 60.47700 42.34900
C  1.54900 59.50500 41.49900
C  0.17900 59.55700 42.23700
N  2.84900 54.59000 42.52000
C  1.84000 55.32500 42.97400
C  0.75000 54.58300 43.36200
C  1.12000 53.29900 43.07800
C  2.41300 53.34000 42.47700
C  -0.45700 54.98400 44.08800
C  0.80500 51.84100 43.09300
O  -0.16700 51.21600 43.46500
C  1.86500 51.02100 42.27900
C  1.18400 50.27200 41.13400
O  0.70800 50.73300 40.10700
O  1.22500 48.90600 41.46900
C  0.48400 47.90800 40.70500
H  7.81400 52.60200 39.61300
H  6.87400 58.78200 40.88600
H  1.11200 57.19700 43.28900
H  4.23700 49.87900 40.71600
H  6.12800 50.86200 38.97100
H  6.56900 49.64600 41.60200
H  7.76900 50.67200 41.14800
H  7.31800 49.38400 39.97600
H  4.19300 51.06600 38.04400
H  2.75500 51.48400 38.78800
H  1.84500 49.27400 38.40800
H  3.06300 48.56900 39.26300
H  10.09600 53.59400 39.65500
H  10.84500 55.11900 39.86900
H  10.17500 54.79300 38.40300
H  10.28100 59.82500 40.59400
H  9.01000 59.26000 41.66200
H  8.62700 59.85100 40.02400
H  4.05600 59.64700 40.59000
H  2.90100 59.69000 43.08300
H  4.80800 60.50300 43.40400
H  4.74000 61.43800 41.96300
H  6.12600 60.48900 42.04100
H  1.38000 58.83600 40.65500
H  1.70700 60.50800 41.10200
H  -0.18300 60.58400 42.29200
H  0.21200 59.28700 43.29300
H  -0.59900 58.88700 41.87100
H  -0.49500 56.02700 44.40200
H  -0.37000 54.34500 44.96600
H  -1.26000 54.76900 43.38300
H  2.21800 50.20600 42.91100
H  -0.22000 48.51000 40.13000
H  0.24800 47.11300 41.41200
H  1.15700 47.44700 39.98200

