158

Mg 15.19400 51.20000 25.96400
C  17.68300 50.61800 28.45100
C  12.97000 51.58500 28.57600
C  12.98700 51.48700 23.66800
C  17.68900 50.65600 23.54700
N  15.38300 51.24500 28.24000
C  16.49200 51.05500 29.01500
C  16.25600 51.21200 30.53200
C  14.72300 51.12900 30.51600
C  14.32500 51.38300 29.07200
C  14.19000 49.78500 31.08000
C  16.79200 52.62100 30.99800
C  17.05200 52.83000 32.45300
H  16.34300 51.91200 33.47100
N  13.29200 51.44300 26.17000
C  12.48000 51.59900 27.23800
C  11.09200 51.67900 26.78200
C  11.02500 51.56900 25.34600
C  12.48100 51.46600 25.00800
C  9.89400 51.80900 27.75200
C  9.77500 51.56200 24.34100
O  9.99800 51.56600 23.15300
C  8.39600 51.56400 24.92300
N  15.39100 51.28600 23.85800
C  14.32100 51.42200 23.10000
C  14.60100 51.33800 21.61600
C  16.17500 51.35000 21.60600
C  16.45600 51.04900 23.09200
C  13.79300 50.15400 20.97500
C  16.80100 52.74200 21.23000
C  17.94000 52.69500 20.17900
N  17.23200 50.69800 25.90800
C  18.13700 50.47000 24.86300
C  19.42700 50.07700 25.32200
C  19.27700 50.12100 26.72200
C  17.94600 50.49700 27.06500
C  20.50900 49.70000 24.39000
C  19.99900 49.86700 27.97400
O  21.09500 49.38800 28.21500
C  18.99200 50.25900 29.16300
C  18.85500 49.11100 30.16400
O  18.22600 48.07600 30.08600
O  19.57500 49.51900 31.30200
C  19.34500 48.69800 32.52400
H  12.15600 51.64500 29.30200
H  12.26000 51.43900 22.85500
H  18.43600 50.54800 22.75800
H  16.68000 50.38200 31.09700
H  14.41300 51.95900 31.15100
H  13.28900 49.46700 30.55600
H  13.93300 49.81900 32.13900
H  14.99800 49.06000 30.98300
H  16.05900 53.41300 30.84900
H  17.68600 52.85900 30.42300
H  16.78700 53.85400 32.71700
H  18.13800 52.73900 32.47900
H  9.43300 50.82200 27.80200
H  9.16900 52.46400 27.26900
H  10.29900 52.07000 28.73000
H  8.11800 52.55100 25.29400
H  8.18000 50.88400 25.74700
H  7.63900 51.27000 24.19600
H  14.15200 52.25400 21.23200
H  16.62000 50.50900 21.07300
H  14.43200 49.48300 20.40100
H  13.06400 50.69700 20.37400
H  13.31700 49.52100 21.72400
H  17.29900 53.15100 22.10800
H  15.97000 53.39600 20.96500
H  17.40700 52.95900 19.26600
H  18.38200 51.70300 20.27000
H  18.60000 53.53300 20.40000
H  21.41200 50.17600 24.77300
H  20.30700 49.97400 23.35500
H  20.80500 48.65100 24.41700
H  19.53500 51.08200 29.62700
H  20.13900 48.96500 33.22200
H  19.35200 47.61000 32.46000
H  18.46200 49.11000 33.01300
Mg -8.19600 39.52200 42.69900
C  -7.02600 36.38800 41.78400
C  -5.52100 41.00000 41.22100
C  -9.63300 42.40400 43.32500
C  -11.25900 37.98200 43.59700
N  -6.54400 38.81000 41.54000
C  -6.19500 37.48100 41.39300
C  -4.98800 37.37800 40.54600
C  -4.37500 38.84200 40.72800
C  -5.53700 39.64800 41.24700
C  -3.09600 38.96200 41.58900
C  -5.32300 37.01800 39.01300
C  -4.59000 35.72100 38.55800
H  -3.76100 35.75600 37.33000
N  -7.58600 41.52200 42.38900
C  -6.50400 41.92500 41.72800
C  -6.38400 43.35500 41.79200
C  -7.58500 43.82200 42.41000
C  -8.37800 42.64000 42.83300
C  -5.16000 44.12600 41.15800
C  -7.88400 45.28200 42.57500
O  -7.13500 46.12500 42.18600
C  -9.03300 45.72700 43.44700
N  -10.36900 40.17300 43.08500
C  -10.54000 41.41900 43.45800
C  -11.94900 41.66500 43.94100
C  -12.47100 40.18000 43.96200
C  -11.27200 39.33900 43.54900
C  -12.19000 42.42400 45.26500
C  -13.72300 39.97600 43.10500
C  -15.07500 40.43000 43.47400
N  -9.02500 37.54900 42.68000
C  -10.27100 37.11000 43.12800
C  -10.31400 35.64000 43.10100
C  -9.01900 35.33400 42.57000
C  -8.31800 36.54700 42.30900
C  -11.52500 34.78200 43.50100
C  -8.02900 34.27300 42.26000
O  -8.17300 33.10200 42.37300
C  -6.73800 34.90200 41.74700
C  -5.70800 34.57200 42.72300
O  -5.28100 35.33600 43.63000
O  -5.16300 33.29500 42.50100
C  -4.09600 32.84100 43.33900
H  -4.64000 41.45000 40.75800
H  -10.10800 43.37200 43.49700
H  -12.14700 37.54800 44.06300
H  -4.35100 36.61700 40.99600
H  -4.07400 39.27900 39.77600
H  -2.93500 38.00200 42.08100
H  -3.28600 39.69800 42.37000
H  -2.28000 39.28100 40.94100
H  -4.94300 37.82900 38.39100
H  -6.40600 37.08700 38.91000
H  -5.34900 34.98500 38.29400
H  -3.98000 35.32300 39.36900
H  -5.21100 45.21300 41.09900
H  -5.04200 43.79900 40.12500
H  -4.23400 43.88500 41.68000
H  -9.14400 46.81100 43.42900
H  -9.05600 45.35100 44.47000
H  -9.87200 45.36800 42.85100
H  -12.48800 42.26000 43.20400
H  -12.79400 39.88300 44.95900
H  -12.87200 43.26500 45.14600
H  -11.29100 42.80800 45.74800
H  -12.64100 41.69200 45.93400
H  -13.76900 38.89200 43.00400
H  -13.58000 40.38800 42.10600
H  -15.46800 41.06600 42.68200
H  -15.03500 41.03600 44.38000
H  -15.70100 39.54500 43.59000
H  -11.18500 33.75600 43.64400
H  -12.35300 34.90900 42.80300
H  -11.81100 35.21500 44.45900
H  -6.43600 34.50700 40.77700
H  -4.43100 32.99900 44.36500
H  -3.29000 33.56000 43.19300
H  -3.74500 31.83100 43.12900

