158

Mg 54.69200 24.55500 45.72000
C  51.92200 26.38100 44.66100
C  53.18900 21.70500 44.73100
C  57.52300 22.96200 46.38800
C  56.03600 27.43600 47.03100
N  52.89900 24.19000 44.49100
C  51.80600 25.08800 44.28300
C  50.62900 24.27200 43.61800
C  50.91900 22.87200 44.40600
C  52.42100 22.91900 44.65400
C  50.02400 22.53500 45.55500
C  50.73800 24.16500 42.06300
C  49.37700 24.65800 41.32900
H  48.98500 23.77800 40.10700
N  55.31800 22.64400 45.40400
C  54.56900 21.56900 45.06400
C  55.35900 20.35500 45.27000
C  56.69600 20.71900 45.50400
C  56.55200 22.19400 45.78000
C  54.75300 19.04600 45.12500
C  57.96200 19.79100 45.70100
O  57.75400 18.59200 45.70000
C  59.33800 20.30300 45.96700
N  56.48200 25.12700 46.84400
C  57.53700 24.31700 46.73200
C  58.89400 25.00000 47.09200
C  58.37700 26.41400 47.54200
C  56.91400 26.39600 47.08100
C  59.73800 24.20700 48.12200
C  59.17800 27.59400 46.92500
C  60.07600 28.20300 47.92700
N  54.22500 26.61800 45.70500
C  54.75200 27.62500 46.50400
C  53.98200 28.83100 46.34100
C  52.83400 28.45200 45.61900
C  53.00700 27.02100 45.35400
C  54.27800 30.24300 46.95100
C  51.62200 28.86200 44.97600
O  51.07700 29.95100 44.82300
C  50.93900 27.54800 44.38000
C  50.69200 27.69000 42.95900
O  51.55500 27.73900 42.05500
O  49.32800 27.82500 42.71600
C  48.98300 28.49100 41.41700
H  52.73500 20.74500 44.47800
H  58.56400 22.64000 46.31600
H  56.33600 28.45100 47.30200
H  49.71100 24.76600 43.93800
H  50.73000 22.03700 43.73100
H  50.55500 22.68800 46.49400
H  49.76700 21.47600 45.55300
H  49.13500 23.16600 45.55900
H  51.00200 23.17300 41.69600
H  51.58200 24.78700 41.76400
H  49.50200 25.70000 41.03500
H  48.49600 24.66700 41.97000
H  54.34300 19.04700 44.11500
H  53.88200 19.02400 45.78100
H  55.24100 18.08100 45.26300
H  59.47100 21.03100 45.16600
H  60.12700 19.57400 45.78300
H  59.33000 20.80200 46.93700
H  59.40200 25.24400 46.15900
H  58.30500 26.40700 48.63000
H  60.18300 24.80100 48.92000
H  60.64100 23.83400 47.64000
H  59.25900 23.28300 48.44700
H  58.48100 28.33000 46.52400
H  59.79700 27.24600 46.09900
H  60.08600 27.74400 48.91600
H  59.73000 29.19600 48.21400
H  61.07300 28.35700 47.51600
H  55.26900 30.54000 46.60700
H  54.13800 30.30300 48.03000
H  53.53600 30.97700 46.64000
H  50.00600 27.40800 44.92600
H  48.24900 27.85700 40.92000
H  49.75200 28.48200 40.64400
H  48.60700 29.49500 41.61100
Mg 35.60500 49.28700 25.65200
C  36.05000 47.23000 28.48400
C  34.24300 51.56600 27.79500
C  34.47200 50.76000 22.84900
C  36.42200 46.41100 23.69700
N  35.28400 49.39000 27.86900
C  35.62200 48.47600 28.79500
C  35.58300 49.05400 30.27600
C  34.68000 50.32600 29.95100
C  34.80700 50.46700 28.44200
C  33.17900 50.24600 30.33700
C  37.01600 49.42300 30.84600
C  37.31400 49.26000 32.37700
H  36.09700 49.24000 33.31000
N  34.57200 51.01100 25.40600
C  34.12700 51.84200 26.40500
C  33.66600 53.07100 25.76500
C  33.59600 52.84100 24.34800
C  34.27300 51.53500 24.13100
C  33.50800 54.41200 26.53500
C  33.06700 53.65700 23.21900
O  33.31800 53.35800 22.07500
C  32.47400 55.02800 23.57400
N  35.46100 48.66700 23.59700
C  35.06800 49.51100 22.65300
C  35.24100 48.93900 21.24700
C  35.98500 47.52200 21.55300
C  36.00400 47.54300 23.04300
C  33.95200 48.85000 20.40000
C  37.34500 47.39300 20.87300
C  37.55900 46.38900 19.84300
N  36.19400 47.28200 25.93700
C  36.47600 46.25300 25.10200
C  36.96100 45.09000 25.80400
C  36.80300 45.45100 27.14000
C  36.32100 46.78900 27.13900
C  37.35900 43.80400 25.24500
C  36.90800 44.97900 28.52200
O  37.31100 43.93100 28.92300
C  36.46500 46.10800 29.41900
C  35.36500 45.55800 30.24500
O  34.24500 45.33700 29.88200
O  35.84800 45.32200 31.53000
C  34.92400 45.08000 32.61900
H  33.78600 52.27100 28.49300
H  34.18000 51.33600 21.96800
H  36.67800 45.61400 22.99600
H  34.96800 48.38600 30.87900
H  35.02800 51.20300 30.49800
H  32.96100 51.14500 30.91300
H  32.94200 49.38000 30.95600
H  32.40500 50.47500 29.60400
H  37.25200 50.43100 30.50500
H  37.71500 48.71700 30.39600
H  37.78000 50.23500 32.52200
H  37.96300 48.39100 32.47900
H  33.87600 54.37900 27.56000
H  32.50300 54.83000 26.59100
H  33.86600 55.26900 25.96400
H  33.21300 55.70700 23.99800
H  31.59100 54.95500 24.20900
H  32.14100 55.46100 22.63100
H  35.83000 49.62300 20.63700
H  35.26700 46.77300 21.22100
H  33.99800 49.66900 19.68200
H  33.08500 48.94000 21.05500
H  33.88300 47.91600 19.84300
H  38.09700 47.20400 21.64000
H  37.34000 48.34700 20.34700
H  38.21300 46.71600 19.03500
H  36.63600 46.09800 19.34000
H  38.04900 45.55500 20.34600
H  37.50600 43.82700 24.16500
H  36.62400 43.06100 25.55500
H  38.34700 43.54200 25.62300
H  37.15200 46.49500 30.17200
H  35.56000 44.82600 33.46700
H  34.20900 44.31000 32.32700
H  34.33600 45.97200 32.83500

