158

Mg 41.10900 8.24400 30.07200
C  42.70600 9.56500 32.88300
C  39.06400 6.60100 32.39200
C  39.92500 6.49100 27.47100
C  43.70000 9.50300 28.10800
N  40.91200 8.11800 32.41400
C  41.56300 8.89600 33.26600
C  40.98700 8.85300 34.74300
C  39.81400 7.82400 34.55500
C  39.88600 7.57400 32.98700
C  39.92900 6.58500 35.49400
C  40.57800 10.26000 35.19600
C  41.29200 10.56100 36.60800
H  40.46500 11.21600 37.66100
N  39.75000 6.87100 29.95900
C  38.94500 6.35300 30.99000
C  37.91500 5.46900 30.41800
C  38.09500 5.52500 28.99400
C  39.27900 6.33900 28.78200
C  36.82300 4.73200 31.21400
C  37.31000 4.87500 27.87600
O  37.61000 4.83500 26.72200
C  36.04100 4.16000 28.22700
N  41.73200 8.16500 27.97200
C  41.03800 7.33300 27.12100
C  41.66400 7.44200 25.75400
C  42.84600 8.43300 25.93200
C  42.81100 8.68100 27.40000
C  42.00500 6.00100 25.22600
C  42.98000 9.67100 25.02300
C  42.04300 10.92600 25.37600
N  42.88300 9.21700 30.34400
C  43.76700 9.76100 29.44900
C  44.77200 10.42600 30.16000
C  44.35000 10.45000 31.42200
C  43.24000 9.66200 31.53400
C  46.03000 11.01600 29.61200
C  44.73500 10.83800 32.72100
O  45.66200 11.50200 33.10400
C  43.70300 10.25700 33.69300
C  44.37200 9.22900 34.58600
O  44.64500 8.05300 34.37000
O  44.75200 9.88900 35.71200
C  45.12600 9.01700 36.79800
H  38.27600 6.19200 33.02800
H  39.49900 5.95000 26.62400
H  44.40000 9.99000 27.42600
H  41.83600 8.48100 35.31500
H  38.92000 8.38700 34.82000
H  40.06200 5.71100 34.85600
H  38.95900 6.42200 35.96300
H  40.66800 6.67700 36.29000
H  39.52300 10.34300 35.45600
H  40.83100 11.02200 34.46000
H  42.03000 11.32800 36.37300
H  41.77300 9.66700 37.00400
H  35.81900 5.13800 31.08800
H  37.07800 4.80300 32.27200
H  36.91400 3.67400 30.96900
H  35.34800 4.71600 28.85900
H  36.37700 3.22500 28.67500
H  35.56900 3.96000 27.26500
H  40.97800 7.94000 25.07000
H  43.79300 7.91200 25.79000
H  41.35800 5.85600 24.36100
H  41.78600 5.22200 25.95600
H  43.05900 5.94700 24.95500
H  42.72300 9.44200 23.98900
H  44.00500 10.04000 24.99300
H  41.41300 10.58700 26.19800
H  41.38200 11.15900 24.54100
H  42.53900 11.85900 25.64100
H  45.94200 11.98900 29.12800
H  46.38200 10.32900 28.84200
H  46.78300 10.95700 30.39800
H  43.27400 11.08800 34.25300
H  45.40200 9.48200 37.74500
H  45.95200 8.38800 36.46600
H  44.25200 8.38800 36.96900
Mg 17.04100 52.69000 26.86100
C  18.96000 51.08600 29.24900
C  14.76200 53.50000 29.22400
C  15.17300 53.96200 24.47000
C  19.22300 51.27100 24.41000
N  16.84800 52.26500 29.02400
C  17.80300 51.69400 29.84400
C  17.49200 51.84300 31.24000
C  15.99000 52.47000 31.20900
C  15.83200 52.75700 29.71300
C  14.89200 51.55400 31.67600
C  18.49200 52.89400 31.82600
C  18.26000 53.54900 33.17300
H  17.38900 52.78200 34.13700
N  15.22800 53.59400 26.85300
C  14.49500 53.90500 27.95100
C  13.34200 54.74100 27.55300
C  13.33800 54.83400 26.14800
C  14.63800 54.15000 25.78100
C  12.39900 55.27600 28.54000
C  12.26500 55.58400 25.29500
O  12.31500 55.59900 24.04400
C  11.05200 56.25900 25.95300
N  17.12700 52.51600 24.70600
C  16.26400 53.19200 23.96100
C  16.64700 53.19500 22.50100
C  17.91300 52.29600 22.43400
C  18.15300 52.02900 23.93300
C  15.51800 52.54300 21.58900
C  19.10600 52.89000 21.68800
C  19.10400 52.54900 20.17500
N  18.67500 51.37600 26.79400
C  19.46600 50.92700 25.73200
C  20.58000 50.18700 26.20200
C  20.37800 50.11600 27.59800
C  19.22500 50.90300 27.90300
C  21.60100 49.50600 25.36800
C  20.97100 49.68600 28.87200
O  21.90100 48.90200 29.11600
C  20.07100 50.26800 30.03300
C  19.48800 49.19500 30.85700
O  18.91800 48.20100 30.45600
O  19.61100 49.51500 32.19400
C  19.26800 48.44000 33.18400
H  14.01100 53.75000 29.97600
H  14.59100 54.47600 23.70200
H  19.88000 50.83900 23.65200
H  17.54000 50.85200 31.69200
H  15.92200 53.38900 31.79300
H  14.71800 51.85100 32.71100
H  15.34800 50.56900 31.57900
H  14.01400 51.61200 31.03300
H  18.57100 53.69500 31.09200
H  19.42200 52.33900 31.94900
H  17.80900 54.53500 33.06500
H  19.21300 53.83100 33.62100
H  12.48400 56.36200 28.51600
H  12.71300 55.05400 29.56000
H  11.37700 54.98000 28.30200
H  10.47000 55.56500 26.55800
H  10.41400 56.55100 25.11800
H  11.27000 57.13400 26.56400
H  16.84400 54.25600 22.34500
H  17.74600 51.28500 22.06400
H  14.82100 52.03500 22.25600
H  15.89500 51.78000 20.90800
H  14.99600 53.31200 21.01900
H  20.07400 52.51500 22.01800
H  19.13000 53.95500 21.92300
H  19.29900 53.46300 19.61300
H  18.09700 52.27000 19.86400
H  19.85200 51.80500 19.90200
H  21.01400 48.65000 25.03500
H  22.44200 49.06000 25.89800
H  21.89100 50.25600 24.63100
H  20.77300 50.66700 30.76600
H  19.58800 48.89400 34.12100
H  19.72000 47.46500 33.00200
H  18.18200 48.34300 33.19100

