158

Mg 47.35600 16.44700 28.29200
C  45.32500 16.00100 31.04700
C  49.65000 18.05700 30.18700
C  49.48600 16.85000 25.51300
C  44.82200 15.13800 26.25300
N  47.40500 17.05200 30.42300
C  46.51000 16.61500 31.37700
C  46.95900 17.02300 32.78300
C  48.19000 17.98700 32.46400
C  48.43300 17.70000 30.89900
C  48.02300 19.50900 32.82600
C  47.38400 15.74000 33.63000
C  47.87700 15.90700 35.04400
H  47.39300 17.14300 35.78100
N  49.26700 17.30000 27.89100
C  50.00300 17.96300 28.78900
C  51.21500 18.42300 28.21400
C  51.23600 18.03200 26.86400
C  49.94400 17.46400 26.69700
C  52.17700 19.39000 29.00700
C  52.33400 18.30300 25.77100
O  52.12800 18.11500 24.61200
C  53.68600 18.73700 26.10800
N  47.14400 16.24400 26.14400
C  48.14700 16.46900 25.23300
C  47.52700 16.12600 23.87200
C  46.20900 15.36300 24.12800
C  46.00500 15.56800 25.59800
C  47.21200 17.38700 23.02400
C  46.24200 13.83300 23.68500
C  44.94200 13.40200 22.89200
N  45.51800 15.60400 28.54300
C  44.62100 15.08900 27.63000
C  43.54900 14.46500 28.36900
C  43.78400 14.81500 29.74600
C  44.96800 15.57600 29.73500
C  42.41100 13.75800 27.76600
C  43.22500 14.67400 31.06500
O  42.22400 14.10200 31.47700
C  44.22300 15.46500 32.03900
C  43.55300 16.46500 32.96800
O  43.17800 17.58900 32.73400
O  43.47300 15.89200 34.20600
C  43.15100 16.66500 35.37100
H  50.32700 18.46700 30.94000
H  50.01900 17.03200 24.57700
H  44.06200 14.60100 25.68200
H  46.10400 17.49800 33.26500
H  49.01400 17.66500 33.10100
H  48.68100 19.59800 33.69000
H  47.02400 19.87900 33.05600
H  48.36800 20.15700 32.02000
H  48.24100 15.30000 33.12000
H  46.64300 14.94100 33.59400
H  48.96600 15.90000 35.02000
H  47.38700 15.06400 35.53200
H  53.19100 18.99700 28.93700
H  51.91000 19.51100 30.05700
H  52.23600 20.37900 28.55300
H  54.35900 18.98800 25.28800
H  54.21000 18.05400 26.77700
H  53.61900 19.69800 26.61800
H  48.19600 15.43100 23.36400
H  45.33800 15.71600 23.57500
H  47.84800 18.21800 23.32800
H  46.16900 17.63600 22.82700
H  47.54000 17.21000 22.00000
H  46.31400 13.22800 24.58900
H  47.15900 13.53100 23.17800
H  45.19100 13.00500 21.90800
H  44.23800 14.20200 22.66200
H  44.43000 12.70800 23.55700
H  42.46500 13.45800 26.72000
H  41.53700 14.39400 27.91000
H  42.20800 12.90700 28.41700
H  44.57400 14.69400 32.72400
H  42.17300 16.40800 35.77800
H  43.34500 17.73700 35.34000
H  43.74900 16.31800 36.21400
Mg -0.06900 43.36600 26.94300
C  2.03100 43.50400 29.78400
C  -2.73500 43.07600 29.06300
C  -1.91800 42.37700 24.33100
C  2.75800 43.58000 24.94100
N  -0.27400 43.41700 29.18000
C  0.72100 43.49400 30.15800
C  0.09200 43.47800 31.52900
C  -1.45600 43.25300 31.28200
C  -1.53000 43.30000 29.78300
C  -1.96900 42.01100 31.89800
C  0.39300 44.89000 32.20700
C  0.66200 44.92800 33.71100
H  0.08400 43.73200 34.46000
N  -2.08700 42.93900 26.67300
C  -3.01100 42.89700 27.72200
C  -4.28600 42.50600 27.18200
C  -4.05000 42.33900 25.75900
C  -2.63100 42.51300 25.51800
C  -5.49400 42.32900 28.06800
C  -5.05100 41.91900 24.62000
O  -4.82200 41.73100 23.41700
C  -6.47700 41.88500 25.06000
N  0.37900 43.08700 24.96600
C  -0.53600 42.62700 24.08600
C  0.06000 42.34500 22.67100
C  1.45500 43.18900 22.82600
C  1.54900 43.25400 24.34100
C  0.10900 40.76200 22.54700
C  1.46800 44.53200 22.05300
C  2.38400 44.63500 20.83000
N  1.96500 43.50400 27.24500
C  2.98500 43.65700 26.34600
C  4.24400 43.80000 27.01000
C  3.89400 43.79400 28.36100
C  2.49900 43.58000 28.48100
C  5.57800 44.02200 26.18800
C  4.37000 43.97200 29.66000
O  5.55200 44.15600 29.99400
C  3.23200 43.72400 30.64900
C  3.42700 42.50300 31.44800
O  2.95000 41.40400 31.23400
O  4.28200 42.77900 32.47800
C  4.62800 41.85500 33.53500
H  -3.52000 42.94500 29.81100
H  -2.56600 42.03000 23.52300
H  3.64700 43.62800 24.31000
H  0.48500 42.65700 32.12900
H  -2.07900 44.06200 31.66300
H  -2.79600 41.68500 31.26600
H  -2.43100 42.28100 32.84800
H  -1.26200 41.19800 32.06100
H  -0.47900 45.53100 32.08200
H  1.20600 45.38800 31.67900
H  0.27900 45.87600 34.09100
H  1.74700 44.90500 33.81600
H  -5.91200 43.33000 28.16900
H  -5.29300 41.90300 29.05100
H  -6.23700 41.72300 27.54800
H  -6.72600 41.00900 25.66000
H  -6.98100 41.87600 24.09300
H  -6.88100 42.74300 25.59700
H  -0.56200 42.70700 21.85200
H  2.26700 42.62000 22.37400
H  -0.80100 40.50400 22.00600
H  0.08300 40.39900 23.57500
H  1.02800 40.52800 22.01100
H  1.68800 45.38800 22.69100
H  0.45400 44.70100 21.69000
H  2.90800 45.59000 20.85400
H  1.73600 44.69000 19.95500
H  3.08800 43.81200 20.95000
H  5.50400 44.85800 25.49300
H  5.69200 43.10100 25.61700
H  6.46600 44.23100 26.78500
H  3.16200 44.59500 31.30200
H  5.20100 41.04800 33.07600
H  3.73300 41.56700 34.08600
H  5.29600 42.40200 34.19900

