158

Mg 8.27200 3.32800 27.31900
C  9.64100 1.72100 30.24800
C  6.55400 5.50000 29.44200
C  6.49400 4.38900 24.74200
C  9.77800 0.79200 25.43600
N  8.11100 3.49900 29.57900
C  8.78500 2.84700 30.54400
C  8.54000 3.43800 31.94300
C  7.42200 4.50900 31.71000
C  7.30000 4.50200 30.16100
C  6.17200 4.30000 32.61700
C  9.77400 3.97800 32.77700
C  10.00600 3.25100 34.13400
H  10.48300 4.21300 35.24900
N  6.89600 4.88600 27.06900
C  6.35100 5.68100 28.07400
C  5.49200 6.62400 27.42700
C  5.44400 6.31600 26.05400
C  6.25500 5.16400 25.88100
C  4.81900 7.81900 28.19700
C  4.74000 7.06600 24.98400
O  4.59600 6.68000 23.84200
C  3.93600 8.36200 25.29900
N  8.13400 2.59300 25.39700
C  7.29000 3.22000 24.48500
C  7.43800 2.44000 23.13500
C  8.57600 1.42100 23.35600
C  8.82400 1.64100 24.80700
C  6.00600 1.76900 22.79200
C  9.78100 1.61200 22.42600
C  9.85900 0.58300 21.16800
N  9.62800 1.67900 27.67500
C  10.12600 0.72800 26.81400
C  11.00400 -0.18000 27.55500
C  10.82000 0.15800 28.90300
C  9.88100 1.27100 28.92300
C  11.87200 -1.22800 26.98700
C  11.22500 -0.16900 30.31600
O  11.92200 -1.09200 30.79600
C  10.42400 0.99500 31.16900
C  9.61400 0.33200 32.27800
O  8.47100 -0.10500 32.15400
O  10.38400 0.28100 33.36800
C  9.72000 -0.43000 34.51000
H  5.93400 6.13800 30.07500
H  6.02500 4.72800 23.81600
H  10.16800 -0.01000 24.80500
H  8.06800 2.65800 32.54100
H  7.75800 5.51100 31.98000
H  6.38000 4.78000 33.57300
H  6.01600 3.31000 33.04500
H  5.29100 4.60800 32.05300
H  9.70900 5.05200 32.94700
H  10.67000 3.75900 32.19700
H  10.83700 2.54800 34.19500
H  9.09300 2.74300 34.44400
H  5.24700 8.72000 27.75900
H  5.13800 7.99200 29.22500
H  3.75700 7.65400 28.01600
H  3.06700 8.21100 25.93900
H  3.49200 8.74700 24.38000
H  4.61400 9.14800 25.63100
H  7.70800 3.23600 22.44200
H  8.24200 0.38400 23.39700
H  6.10700 0.69700 22.62200
H  5.66700 2.07200 21.80100
H  5.24800 1.93600 23.55700
H  10.69900 1.42800 22.98400
H  9.86700 2.64900 22.10300
H  10.12200 1.12700 20.26000
H  8.94300 0.00100 21.06200
H  10.71100 -0.03400 21.44900
H  12.41000 -1.70700 27.80500
H  12.56700 -1.02700 26.17100
H  11.12600 -1.89300 26.55200
H  11.17000 1.54600 31.74200
H  10.36800 -1.18300 34.95900
H  8.79700 -0.93300 34.22100
H  9.50200 0.33200 35.25900
Mg 42.79400 3.32900 47.26900
C  41.17900 6.25000 46.51900
C  39.89600 1.59200 46.74000
C  44.65300 0.39300 47.00300
C  45.79300 5.11300 46.96900
N  40.78800 3.88200 46.51400
C  40.31000 5.17000 46.54500
C  38.77000 5.20400 46.57100
C  38.40400 3.67300 46.77500
C  39.77800 2.94100 46.62100
C  37.59200 3.33800 48.01100
C  38.12100 5.88400 45.35600
C  38.66600 5.33000 44.06400
H  39.19000 6.34500 43.04500
N  42.33400 1.25200 47.06700
C  41.06200 0.76100 46.84100
C  41.04900 -0.65400 46.77100
C  42.41600 -1.04100 46.82600
C  43.21700 0.23500 47.00900
C  39.83200 -1.53600 46.60700
C  42.93600 -2.41700 46.79800
O  42.14100 -3.41300 46.73000
C  44.39400 -2.79100 46.93200
N  44.89800 2.74100 46.87300
C  45.41800 1.51200 46.99300
C  46.93800 1.43600 46.85000
C  47.31400 3.00900 46.87600
C  45.88700 3.69900 46.92100
C  47.52800 0.50700 47.98100
C  48.16400 3.55700 45.65000
C  49.51800 4.04400 45.98400
N  43.42200 5.31400 46.93100
C  44.66500 5.92100 46.90200
C  44.57000 7.35700 46.78200
C  43.19500 7.53700 46.73200
C  42.52700 6.25200 46.69800
C  45.60400 8.41300 46.84000
C  42.16000 8.49500 46.74900
O  42.17700 9.68800 46.76900
C  40.84600 7.70700 46.62900
C  40.02600 8.04600 47.77300
O  40.18300 7.47100 48.82300
O  38.99800 8.91200 47.48700
C  37.94100 9.13300 48.49300
H  38.93000 1.09300 46.64000
H  45.19700 -0.54400 46.86800
H  46.76700 5.60400 47.00900
H  38.37800 5.65700 47.48200
H  37.76300 3.35400 45.95300
H  38.15000 2.55200 48.52100
H  36.60800 2.95100 47.74400
H  37.57300 4.21800 48.65400
H  38.22600 6.95300 45.53800
H  37.05900 5.64400 45.32400
H  37.92100 4.70200 43.57600
H  39.53800 4.71200 44.28000
H  38.90600 -1.17200 46.16300
H  39.54600 -1.95600 47.57100
H  40.06500 -2.30700 45.87300
H  44.84400 -2.34900 46.04200
H  44.43900 -3.88000 46.90100
H  44.99800 -2.42200 47.76100
H  47.26400 0.96400 45.92300
H  47.99100 3.17600 47.71400
H  47.70800 -0.44600 47.48500
H  46.80400 0.35700 48.78200
H  48.45400 0.96700 48.32500
H  47.65600 4.28000 45.01100
H  48.41900 2.68700 45.04400
H  49.60300 4.75800 46.80400
H  49.85900 4.55000 45.08100
H  50.24900 3.23600 46.01400
H  46.58400 8.04300 46.53900
H  45.77900 9.01600 47.73100
H  45.20500 9.17200 46.16700
H  40.38000 8.10300 45.72700
H  38.26200 10.00200 49.06800
H  37.71300 8.27400 49.12500
H  37.05400 9.36800 47.90500

