158

Mg 47.07800 25.67000 28.75400
C  48.11700 27.79700 31.30200
C  45.99700 23.41400 31.02300
C  46.64100 23.36800 26.21000
C  48.52300 27.80700 26.33000
N  47.16300 25.65300 30.87700
C  47.59400 26.59500 31.78600
C  47.26200 26.24500 33.23900
C  46.77900 24.76000 33.04800
C  46.55400 24.60100 31.52500
C  47.70200 23.68300 33.67400
C  46.10900 27.21200 33.87200
C  46.47800 27.48600 35.29100
H  45.33800 27.09000 36.24200
N  46.40900 23.64600 28.58100
C  45.92100 22.94200 29.65800
C  45.55700 21.64900 29.29900
C  45.70600 21.60100 27.89400
C  46.30400 22.86800 27.47200
C  45.03000 20.58400 30.27900
C  45.44400 20.42300 26.94600
O  45.76700 20.47600 25.78700
C  44.84800 19.15500 27.50300
N  47.52100 25.61500 26.57500
C  47.12300 24.53100 25.79600
C  47.54000 24.80600 24.41300
C  47.84100 26.29600 24.37600
C  48.01000 26.58800 25.84000
C  48.63800 23.87900 23.79500
C  46.80500 27.22000 23.64700
C  47.47300 28.00400 22.46700
N  48.02400 27.48000 28.77600
C  48.50700 28.24200 27.73600
C  49.18100 29.36700 28.29700
C  48.94800 29.25100 29.67900
C  48.29500 28.08700 29.93000
C  49.94100 30.43800 27.57200
C  49.20900 29.90700 30.95800
O  49.74900 30.92700 31.29400
C  48.55400 29.01600 32.02700
C  49.58000 28.65800 33.07900
O  50.71100 28.29900 32.85200
O  49.01900 28.80100 34.33300
C  49.96800 28.77700 35.44800
H  45.69300 22.74300 31.83000
H  46.50400 22.66500 25.38600
H  48.85400 28.46700 25.52500
H  48.16700 26.24300 33.84500
H  45.86300 24.55800 33.60400
H  48.59100 24.13000 34.11900
H  47.82200 22.98200 32.84800
H  47.22900 23.11000 34.47200
H  45.07200 26.97500 33.63500
H  46.24400 28.13800 33.31300
H  46.54300 28.56400 35.44100
H  47.41000 27.02000 35.61000
H  45.60400 19.66400 30.39500
H  44.08300 20.27600 29.83600
H  44.85900 20.91000 31.30500
H  44.68600 18.47900 26.66400
H  43.90800 19.45500 27.96600
H  45.51200 18.65100 28.20500
H  46.70000 24.75100 23.72200
H  48.84500 26.43200 23.97400
H  48.77100 22.99800 24.42300
H  49.52600 24.50100 23.67900
H  48.30700 23.53500 22.81500
H  46.36000 27.82100 24.43900
H  46.00200 26.63100 23.20300
H  46.88000 27.94900 21.55400
H  48.50400 27.69400 22.29800
H  47.38700 29.08200 22.60700
H  49.96200 30.31200 26.48900
H  50.94400 30.24800 27.95300
H  49.57100 31.43500 27.81400
H  47.73300 29.53800 32.51900
H  49.81800 27.84100 35.98600
H  49.80200 29.62600 36.11200
H  51.00800 29.00400 35.21600
Mg 27.91200 56.66200 39.46400
C  25.38300 54.23000 39.04600
C  30.15100 54.25000 38.60300
C  30.27600 58.96700 39.08900
C  25.48600 59.15100 39.81300
N  27.67500 54.50800 38.56300
C  26.63400 53.67900 38.63900
C  27.04100 52.27900 38.13900
C  28.56800 52.30200 38.22400
C  28.82300 53.79000 38.50100
C  29.19900 51.42300 39.40900
C  26.51300 52.02800 36.64000
C  26.65400 53.23300 35.66400
H  27.03900 53.06500 34.20200
N  29.98900 56.62200 39.00300
C  30.70900 55.49400 38.82300
C  32.08800 55.88400 38.82600
C  32.14500 57.29000 38.91900
C  30.78700 57.69300 38.99900
C  33.33700 54.90200 38.79300
C  33.43800 58.11900 39.00300
O  34.56000 57.62300 38.95800
C  33.51300 59.62000 39.21000
N  27.78900 58.78700 39.26100
C  28.97100 59.46500 39.26200
C  28.76700 61.00000 39.28900
C  27.19300 61.03200 39.66400
C  26.78000 59.58100 39.47400
C  29.63400 61.64500 40.40300
C  26.36700 62.14900 38.93300
C  26.00200 63.42800 39.82200
N  25.87000 56.72800 39.47900
C  24.96600 57.75600 39.66800
C  23.67600 57.24200 39.85300
C  23.83900 55.87500 39.67900
C  25.18700 55.56300 39.40500
C  22.38900 57.98900 40.16600
C  23.05300 54.62300 39.70600
O  21.84300 54.38000 39.79300
C  24.03000 53.52000 39.09300
C  23.83300 52.21200 39.85900
O  23.19400 51.24400 39.45800
O  24.46700 52.39500 40.99900
C  24.76300 51.14900 41.79800
H  30.87900 53.44200 38.51800
H  30.97400 59.78500 38.89800
H  24.84200 60.00400 40.03700
H  26.70800 51.43300 38.74000
H  28.90300 52.07800 37.21200
H  30.21200 51.12800 39.13600
H  28.50500 50.58600 39.49200
H  29.23400 52.02400 40.31700
H  25.46300 51.74900 36.72700
H  26.96500 51.08700 36.32300
H  27.35400 53.92900 36.12700
H  25.70300 53.76500 35.69500
H  33.84600 54.88200 37.82900
H  33.01000 53.87100 38.93300
H  33.95700 55.14300 39.65700
H  32.94100 59.95900 40.07400
H  33.09700 60.15700 38.35800
H  34.50700 60.01900 39.41600
H  28.99300 61.31200 38.27000
H  27.20500 61.26500 40.72800
H  29.86800 60.94100 41.20100
H  29.00300 62.45400 40.77400
H  30.54900 62.08300 40.00300
H  25.45600 61.78200 38.45900
H  26.90000 62.53200 38.06300
H  26.45000 63.34900 40.81200
H  24.94400 63.56900 40.04200
H  26.33400 64.29300 39.24700
H  21.61100 57.26000 40.39700
H  22.32000 58.58400 39.25500
H  22.60700 58.71500 40.94800
H  23.65000 53.42100 38.07600
H  25.75200 51.05600 42.24500
H  24.63100 50.22600 41.23300
H  24.06600 51.12900 42.63600

