158

Mg 47.28000 17.02400 28.18100
C  45.39500 16.69800 31.19300
C  49.66800 18.39200 30.01700
C  48.92900 17.27500 25.36900
C  44.58000 15.72800 26.44300
N  47.50400 17.45900 30.33300
C  46.65000 17.32700 31.40000
C  47.30600 17.80400 32.71200
C  48.54400 18.63000 32.21200
C  48.51900 18.18300 30.76300
C  48.38800 20.18300 32.36200
C  47.72900 16.63300 33.57300
C  48.19100 16.92700 35.06200
H  47.78500 18.26300 35.78400
N  49.06100 17.65500 27.81900
C  49.97000 18.08600 28.65600
C  51.23700 18.39300 27.92300
C  51.03600 18.03200 26.57000
C  49.65100 17.56900 26.57500
C  52.39100 18.87300 28.69800
C  51.96700 18.03700 25.44600
O  51.67400 17.67300 24.30000
C  53.40600 18.56300 25.59800
N  46.92400 16.21900 26.22000
C  47.72400 16.63500 25.22000
C  47.00700 16.49100 23.81800
C  45.56900 15.95300 24.28200
C  45.68200 16.04600 25.71600
C  46.79400 17.84600 23.04800
C  45.14000 14.54500 23.86400
C  45.55500 14.24200 22.45000
N  45.45900 16.30600 28.70100
C  44.47500 15.71100 27.87300
C  43.37800 15.32500 28.70700
C  43.67300 15.66600 30.01100
C  44.94300 16.28800 29.95500
C  42.10800 14.68500 28.13000
C  43.18500 15.54800 31.39500
O  42.10300 15.15100 31.89200
C  44.32900 16.17700 32.23700
C  43.63100 17.24500 33.05700
O  43.51700 18.47500 32.79400
O  43.15700 16.57200 34.18400
C  42.71300 17.58500 35.15100
H  50.41100 18.91200 30.62700
H  49.40000 17.50800 24.41100
H  43.69000 15.40500 25.89900
H  46.63400 18.50000 33.21400
H  49.45600 18.37400 32.75200
H  49.32000 20.47800 32.84400
H  47.63300 20.48900 33.08600
H  48.15900 20.58200 31.37300
H  48.68300 16.30300 33.16200
H  47.04900 15.78400 33.63700
H  49.27800 16.87100 35.12300
H  47.81500 16.12400 35.69500
H  52.13700 18.70500 29.74500
H  52.68400 19.91700 28.58200
H  53.29600 18.34200 28.40200
H  54.02200 17.82700 26.11300
H  53.42200 19.52500 26.11000
H  53.79800 18.66900 24.58600
H  47.56400 15.84900 23.13500
H  44.71800 16.61800 24.13700
H  45.73800 18.09700 22.94800
H  47.23200 17.90800 22.05200
H  47.14100 18.70900 23.61700
H  44.09500 14.24600 23.77900
H  45.63600 13.79600 24.48100
H  46.47600 13.69600 22.65300
H  45.63900 15.08900 21.76900
H  44.94800 13.49900 21.93200
H  41.34000 15.44600 28.26800
H  41.82900 13.75800 28.63100
H  42.28900 14.28900 27.13100
H  44.64100 15.44700 32.98300
H  43.47600 18.33900 35.34900
H  42.56800 17.07400 36.10300
H  41.74400 17.97100 34.83600
Mg 17.08700 52.42700 26.47100
C  18.93600 50.81200 28.78800
C  14.86400 53.32600 28.87600
C  15.21700 53.96100 24.06500
C  19.26200 51.28500 24.01000
N  16.98400 52.15900 28.62000
C  17.84000 51.48500 29.37600
C  17.39200 51.42400 30.92600
C  15.86700 51.85400 30.74900
C  15.92300 52.61600 29.33000
C  14.83500 50.77800 30.87400
C  18.36000 52.37500 31.66300
C  18.39300 52.32600 33.20100
H  17.28300 51.52900 33.93400
N  15.21100 53.34700 26.45600
C  14.51600 53.70000 27.60900
C  13.42700 54.50600 27.30600
C  13.49200 54.66000 25.85400
C  14.68300 54.03600 25.39700
C  12.26100 54.84300 28.29400
C  12.46500 55.30400 24.83200
O  12.66100 55.51400 23.66700
C  11.12600 55.89000 25.31800
N  17.13100 52.45400 24.30700
C  16.27300 53.21900 23.53000
C  16.61100 53.10800 22.06700
C  17.87700 52.20000 22.06600
C  18.14800 52.00900 23.59400
C  15.46300 52.64300 21.20900
C  19.02600 52.70200 21.20500
C  19.67800 53.96500 21.80100
N  18.80200 51.31200 26.33600
C  19.56500 50.86200 25.27500
C  20.63900 50.05800 25.74200
C  20.38600 49.93000 27.09500
C  19.30400 50.82000 27.41200
C  21.71800 49.34700 24.93700
C  20.84300 49.33600 28.30600
O  21.71600 48.51900 28.47700
C  20.00700 49.95600 29.46700
C  19.46200 48.86300 30.38500
O  18.65500 48.01100 30.03700
O  19.93800 49.05700 31.61500
C  19.41800 48.06900 32.53800
H  14.10300 53.59000 29.61300
H  14.72000 54.61700 23.34700
H  19.95300 50.97100 23.22500
H  17.48300 50.38900 31.25500
H  15.72300 52.46900 31.63800
H  14.38300 50.80700 31.86600
H  15.38100 49.88000 30.58700
H  14.04800 50.92700 30.13500
H  18.08200 53.41800 31.51400
H  19.38000 52.26800 31.29500
H  18.43600 53.26000 33.76200
H  19.41800 52.06900 33.46600
H  11.57100 54.05400 28.59400
H  11.52800 55.56800 27.94100
H  12.74200 55.27400 29.17200
H  10.69500 55.09000 25.92100
H  10.56400 56.24800 24.45500
H  11.31400 56.69000 26.03300
H  16.78200 54.13200 21.73300
H  17.68000 51.20600 21.66600
H  15.64300 51.76800 20.58500
H  15.23600 53.32400 20.38900
H  14.55800 52.45900 21.78900
H  18.53300 53.04400 20.29500
H  19.71400 51.90200 20.93000
H  19.67900 54.80000 21.09900
H  20.71800 53.65500 21.90600
H  19.28600 54.24300 22.77900
H  21.37100 49.16100 23.92100
H  21.94800 48.42100 25.46500
H  22.62000 49.95900 24.91200
H  20.64800 50.65600 30.00300
H  19.57200 48.48500 33.53400
H  19.92400 47.10500 32.47900
H  18.33500 48.08400 32.41300

