158

Mg 24.38400 -5.63200 45.52600
C  26.43300 -3.27600 44.02300
C  21.76200 -4.43600 43.72000
C  22.55600 -8.58100 46.28400
C  27.15300 -7.28200 46.82200
N  24.19200 -4.01600 44.11100
C  25.10900 -3.10900 43.64300
C  24.50100 -2.12500 42.62900
C  22.94700 -2.27500 42.78400
C  22.90000 -3.59700 43.62100
C  22.12400 -1.04500 43.34400
C  25.09300 -2.25800 41.16400
C  25.39800 -0.97700 40.29500
H  25.34000 -1.05200 38.78400
N  22.29600 -6.36500 45.11200
C  21.39700 -5.65600 44.37000
C  20.19300 -6.45500 44.32800
C  20.43200 -7.61400 45.20500
C  21.80300 -7.54900 45.61500
C  18.98300 -5.96800 43.60200
C  19.29900 -8.62700 45.52300
O  18.25700 -8.56200 44.96900
C  19.44400 -9.62600 46.58900
N  24.77700 -7.67400 46.26500
C  23.86400 -8.66200 46.63200
C  24.47900 -9.90300 47.33700
C  25.88500 -9.33700 47.71200
C  25.95700 -7.99500 46.92000
C  23.62400 -10.43900 48.56000
C  27.11000 -10.34300 47.39000
C  28.08500 -10.54500 48.67000
N  26.38900 -5.38300 45.52500
C  27.40800 -6.08500 46.14600
C  28.70600 -5.39900 45.93900
C  28.30700 -4.24000 45.14900
C  26.93800 -4.35000 44.82700
C  29.96400 -5.73800 46.60900
C  28.86100 -3.06900 44.56700
O  29.96400 -2.59200 44.68300
C  27.73000 -2.51400 43.62900
C  27.41800 -1.03400 44.01700
O  27.38000 -0.54300 45.15100
O  27.25100 -0.36100 42.82000
C  26.92600 1.11200 42.90300
H  20.93100 -4.01800 43.14800
H  22.01700 -9.50000 46.51900
H  27.94900 -7.82500 47.33600
H  24.74900 -1.11700 42.96300
H  22.54100 -2.41900 41.78300
H  22.79400 -0.18600 43.38700
H  21.86600 -1.25900 44.38100
H  21.19200 -0.87500 42.80600
H  24.48800 -2.90700 40.53100
H  26.07300 -2.73300 41.22000
H  26.45700 -0.83600 40.51100
H  24.88400 -0.05200 40.55600
H  18.01800 -6.34700 43.94100
H  19.05100 -6.12100 42.52500
H  18.86700 -4.89000 43.71600
H  18.47300 -9.75100 47.06600
H  20.03900 -9.15800 47.37300
H  19.84600 -10.53900 46.15000
H  24.60800 -10.63400 46.53900
H  25.78100 -9.13100 48.77700
H  22.99600 -11.21400 48.12100
H  23.07500 -9.62200 49.02900
H  24.28000 -10.95600 49.26100
H  27.72200 -9.93700 46.58400
H  26.73400 -11.25000 46.91600
H  28.03500 -11.62300 48.82900
H  27.85500 -9.93100 49.54000
H  29.07800 -10.24100 48.34000
H  30.61800 -6.24700 45.90100
H  30.02300 -6.44900 47.43300
H  30.53500 -4.84200 46.85100
H  27.91800 -2.53600 42.55600
H  26.35600 1.37100 43.79500
H  26.34400 1.34200 42.01100
H  27.84100 1.70300 42.95000
Mg -5.40200 25.56800 25.99800
C  -4.06800 27.04500 28.93100
C  -7.28900 23.69800 28.03500
C  -6.32600 23.97100 23.21400
C  -3.21300 27.68300 24.11300
N  -5.49500 25.31600 28.23200
C  -4.92600 25.97700 29.24800
C  -5.56300 25.58500 30.62500
C  -6.43600 24.36400 30.24000
C  -6.49200 24.51700 28.75700
C  -6.03700 22.98500 30.80500
C  -6.39600 26.72400 31.25200
C  -7.06700 26.54600 32.65800
H  -6.39700 25.48100 33.58900
N  -6.70700 24.04500 25.68100
C  -7.45700 23.48300 26.66100
C  -8.40500 22.47400 26.02900
C  -8.08100 22.52300 24.64100
C  -6.93300 23.48300 24.46400
C  -9.44600 21.60800 26.88200
C  -8.62600 21.69300 23.57600
O  -8.26300 21.82800 22.44800
C  -9.64200 20.60300 23.88600
N  -4.85400 25.80800 23.98000
C  -5.36700 24.99800 22.98800
C  -4.66100 25.30300 21.67200
C  -3.87100 26.60400 21.96500
C  -4.08200 26.76500 23.45900
C  -3.76600 24.13600 21.26500
C  -4.16900 27.88800 21.13600
C  -3.15400 28.27400 20.04200
N  -3.99100 27.03700 26.36300
C  -3.22900 27.83800 25.50200
C  -2.47000 28.80600 26.33000
C  -2.76000 28.52500 27.64200
C  -3.66700 27.41900 27.64100
C  -1.57100 29.90600 25.78400
C  -2.52900 28.95500 28.94700
O  -1.90900 29.93100 29.34400
C  -3.36100 28.01800 29.82700
C  -2.57500 27.43800 30.92000
O  -1.56700 26.72600 30.81000
O  -3.12700 27.71900 32.16000
C  -2.31700 27.45300 33.35900
H  -7.89100 23.02500 28.65000
H  -6.49200 23.34800 22.33300
H  -2.46800 28.17400 23.48300
H  -4.74700 25.32700 31.30000
H  -7.41400 24.54800 30.68400
H  -6.68200 22.73100 31.64600
H  -5.01900 22.95700 31.19300
H  -6.13600 22.21500 30.04000
H  -7.15700 26.86200 30.48400
H  -5.81700 27.64200 31.35200
H  -8.13400 26.34800 32.56100
H  -7.00900 27.54200 33.09700
H  -9.47200 22.01200 27.89400
H  -9.39500 20.52500 26.77800
H  -10.46000 21.82200 26.54300
H  -10.62200 20.91000 24.25200
H  -9.06200 20.02100 24.60200
H  -9.68600 19.86500 23.08500
H  -5.45100 25.53300 20.95600
H  -2.79400 26.44500 21.91300
H  -3.89700 23.36400 22.02400
H  -2.68800 24.27600 21.19400
H  -4.13100 23.71500 20.32800
H  -4.36600 28.70600 21.82900
H  -5.14900 27.90000 20.65900
H  -2.83500 29.27200 20.34400
H  -3.59600 28.40700 19.05500
H  -2.31900 27.57300 20.04300
H  -2.25400 30.52900 25.20700
H  -0.78300 29.46400 25.17400
H  -1.10700 30.39900 26.63900
H  -4.09000 28.70900 30.25000
H  -1.64800 28.30000 33.51200
H  -1.77800 26.50600 33.31700
H  -3.06900 27.43300 34.14800

