158

Mg 46.61500 44.86400 43.00900
C  43.38000 43.83800 43.13500
C  47.62500 41.66200 42.66300
C  49.71700 46.02000 42.77200
C  45.47700 48.30200 42.91400
N  45.58300 43.00300 42.79100
C  44.27200 42.73100 42.91700
C  43.96300 41.21600 42.92500
C  45.35500 40.56200 43.04200
C  46.25400 41.79300 42.85200
C  45.58600 39.69100 44.30500
C  43.19200 40.73700 41.73000
C  43.53600 41.34600 40.40500
H  44.00800 40.45900 39.20800
N  48.37900 43.95800 42.66800
C  48.58800 42.62000 42.59500
C  49.96700 42.31900 42.46400
C  50.67800 43.61100 42.50900
C  49.61700 44.59800 42.68100
C  50.61600 40.89500 42.31300
C  52.19600 43.78800 42.39200
O  52.91400 42.81600 42.28600
C  52.85200 45.16300 42.29000
N  47.46500 46.91100 42.77600
C  48.77600 47.00200 42.93900
C  49.17400 48.47500 43.10300
C  47.87300 49.28300 43.10900
C  46.83100 48.09800 42.89500
C  50.07600 48.95300 44.30500
C  47.80000 50.50000 42.10900
C  47.38800 51.86500 42.76100
N  44.87300 45.90300 42.92000
C  44.54400 47.25400 42.86100
C  43.09800 47.37000 42.71900
C  42.61200 46.08000 42.98000
C  43.70800 45.20900 43.04600
C  42.25800 48.60000 42.61200
C  41.38500 45.27600 43.13800
O  40.21200 45.59100 43.29800
C  41.84600 43.79100 43.31600
C  41.41100 43.28800 44.66900
O  41.40800 43.96600 45.70400
O  41.00000 41.95300 44.64500
C  40.37600 41.54400 45.86400
H  47.80900 40.60000 42.49100
H  50.73600 46.39500 42.89100
H  45.02600 49.23800 43.25000
H  43.43000 41.05600 43.86200
H  45.63100 39.92900 42.19900
H  44.59400 39.32000 44.56200
H  46.03800 40.28400 45.10100
H  46.26500 38.84200 44.23500
H  42.11600 40.83700 41.86800
H  43.43300 39.67700 41.65200
H  44.32800 42.09400 40.45200
H  42.76700 42.08800 40.19300
H  51.02200 40.71500 41.31700
H  49.89400 40.09900 42.49700
H  51.46300 40.81400 42.99400
H  52.30200 45.79300 41.59100
H  53.89500 45.01700 42.01200
H  52.85500 45.54800 43.31000
H  49.64200 48.81200 42.17800
H  47.65000 49.53900 44.14400
H  51.11800 48.79900 44.02400
H  49.81400 48.38700 45.19900
H  49.79900 49.97600 44.56000
H  47.10900 50.38600 41.27300
H  48.74300 50.73300 41.61400
H  48.10400 52.67000 42.59300
H  47.40800 51.83700 43.85100
H  46.43600 52.20400 42.35300
H  41.96000 48.57000 41.56400
H  42.71300 49.58000 42.75300
H  41.41300 48.49200 43.29200
H  41.40400 43.10400 42.59400
H  39.55900 42.19500 46.17600
H  41.08700 41.33100 46.66200
H  39.82700 40.61800 45.69300
Mg 29.93600 59.46700 39.37800
C  26.79700 58.06200 38.51800
C  31.43700 56.82600 38.28300
C  32.49800 61.46000 39.34600
C  28.01600 62.58200 39.86300
N  29.15200 57.73700 38.26000
C  27.91700 57.25400 38.22500
C  27.90100 55.84300 37.70700
C  29.32900 55.34300 38.12600
C  30.04100 56.71500 38.27600
C  29.34600 54.53400 39.44800
C  27.60700 55.73400 36.17000
C  26.66400 54.60600 35.71200
H  26.04400 54.76800 34.26300
N  31.72600 59.12500 38.91500
C  32.20500 57.95600 38.40800
C  33.65400 58.10600 38.28800
C  34.01200 59.39700 38.65600
C  32.72700 60.09000 39.00200
C  34.42000 56.90300 37.65500
C  35.42800 60.04300 38.72400
O  36.39600 59.42500 38.32800
C  35.84700 61.24600 39.48300
N  30.18500 61.73600 39.73600
C  31.41200 62.21800 39.58300
C  31.43400 63.68900 39.40600
C  30.07100 64.12800 39.94300
C  29.34800 62.71500 39.83500
C  32.54900 64.62800 39.91700
C  29.35000 65.28600 39.23700
C  28.54900 66.11600 40.28500
N  27.84900 60.17400 39.35600
C  27.24800 61.42200 39.66300
C  25.81600 61.31800 39.59600
C  25.61400 59.99400 39.14900
C  26.83500 59.34300 39.05600
C  24.70700 62.44100 39.71200
C  24.57100 59.00800 38.78800
O  23.33300 59.01700 38.77700
C  25.37100 57.72800 38.30100
C  24.97300 56.51000 39.11300
O  25.53100 56.15600 40.14900
O  24.07200 55.82100 38.43300
C  23.94100 54.45600 38.94800
H  32.06300 55.95100 38.09500
H  33.38500 62.09500 39.29900
H  27.36800 63.46000 39.87200
H  27.05400 55.30500 38.13300
H  29.82200 54.65900 37.43500
H  28.59100 54.93000 40.12700
H  30.35500 54.71500 39.81600
H  29.25100 53.45400 39.33700
H  28.55000 55.43500 35.71300
H  27.28500 56.70600 35.79700
H  25.83600 54.54200 36.41800
H  27.20000 53.65900 35.65500
H  34.51700 56.09500 38.38100
H  35.44000 57.15800 37.36500
H  33.77200 56.48800 36.88400
H  36.93500 61.31200 39.48400
H  35.31600 61.25200 40.43400
H  35.50300 62.08900 38.88400
H  31.54300 63.95000 38.35300
H  30.14800 64.32000 41.01300
H  32.85900 65.33700 39.14900
H  33.38000 64.08700 40.36800
H  32.11600 65.18800 40.74600
H  28.53000 65.03500 38.56400
H  30.05200 65.92600 38.70300
H  28.26900 66.94200 39.63300
H  29.09800 66.37000 41.19200
H  27.61600 65.58800 40.48800
H  24.24000 62.75200 38.77800
H  25.08700 63.34700 40.18500
H  23.93300 61.97700 40.32300
H  25.21000 57.61300 37.22900
H  23.27500 53.82800 38.35600
H  23.42300 54.36700 39.90300
H  24.94100 54.02500 38.99900

