158

Mg -11.77000 38.74700 40.77200
C  -9.90200 35.81900 39.98200
C  -9.12400 40.57400 39.30000
C  -13.71500 41.47800 40.61500
C  -14.40300 36.64900 41.44400
N  -9.72900 38.29700 39.72200
C  -9.23000 37.01600 39.48100
C  -7.97800 37.03700 38.61100
C  -7.66300 38.58900 38.59600
C  -8.88300 39.22300 39.31300
C  -6.33500 38.99300 39.24600
C  -8.22600 36.38500 37.23900
C  -6.96800 35.62800 36.74400
H  -6.39600 36.02300 35.40000
N  -11.38300 40.81400 40.34600
C  -10.22300 41.39900 39.81800
C  -10.47200 42.85500 39.84800
C  -11.80400 43.07200 39.98600
C  -12.38700 41.75700 40.30100
C  -9.32800 43.71200 39.36300
C  -12.53900 44.42600 39.96800
O  -11.78400 45.39600 40.02600
C  -14.02200 44.67800 40.08500
N  -13.72500 39.04500 40.92300
C  -14.27700 40.27700 41.04800
C  -15.84200 40.16600 41.22000
C  -16.05900 38.59800 41.20700
C  -14.61600 38.03400 41.27300
C  -16.56900 40.82900 42.44200
C  -16.75300 38.09400 39.88800
C  -17.59900 36.80200 40.06700
N  -12.11700 36.67900 40.90700
C  -13.19700 35.96200 41.27400
C  -12.92000 34.57800 41.32700
C  -11.66700 34.46500 40.85600
C  -11.19300 35.74700 40.59900
C  -13.93300 33.48900 41.57900
C  -10.59400 33.55300 40.59500
O  -10.56400 32.35200 40.68900
C  -9.38600 34.35700 39.98200
C  -8.32300 34.09500 40.92000
O  -7.54400 33.14900 40.74500
O  -8.07500 35.17800 41.79600
C  -6.89700 35.11500 42.73800
H  -8.47700 41.20200 38.68400
H  -14.45000 42.28500 40.62500
H  -15.27100 36.03600 41.69500
H  -7.27100 36.51300 39.25500
H  -7.57800 38.91000 37.55800
H  -5.58900 39.55200 38.68300
H  -5.83100 38.13400 39.69000
H  -6.55700 39.75400 39.99400
H  -8.60200 37.13100 36.53900
H  -9.07900 35.70800 37.29100
H  -7.19400 34.56500 36.66100
H  -6.13000 35.65300 37.44100
H  -8.32700 43.35900 39.61200
H  -9.36100 44.73400 39.74000
H  -9.36900 43.76400 38.27500
H  -14.27700 45.69500 39.78700
H  -14.33600 44.45800 41.10500
H  -14.68800 44.13400 39.41400
H  -16.28300 40.66900 40.36000
H  -16.67900 38.23000 42.02500
H  -17.22300 41.64200 42.12500
H  -15.80900 41.24600 43.10300
H  -17.15900 40.08800 42.98300
H  -15.93100 37.91500 39.19400
H  -17.42900 38.82400 39.44300
H  -17.89400 36.63700 41.10300
H  -17.03800 35.99600 39.59400
H  -18.59900 36.84300 39.63700
H  -14.72300 33.55300 40.83000
H  -14.24900 33.58500 42.61800
H  -13.60200 32.46400 41.41100
H  -9.05500 33.92900 39.03600
H  -6.33000 34.20500 42.54400
H  -7.22700 35.29400 43.76100
H  -6.21700 35.89600 42.39700
Mg 0.07400 43.46200 26.34600
C  1.87900 43.41800 29.23800
C  -2.74500 42.86600 28.16400
C  -1.44600 42.65400 23.44500
C  3.04600 43.91400 24.47600
N  -0.33700 43.06100 28.48800
C  0.50800 43.22100 29.47900
C  -0.19600 43.03600 30.80200
C  -1.62700 42.50600 30.44600
C  -1.59700 42.91800 28.97300
C  -2.01300 41.06000 30.73300
C  -0.27100 44.41600 31.50900
C  0.33100 44.52800 32.88400
H  -0.02100 43.43400 33.97300
N  -1.80600 42.92300 25.88400
C  -2.87700 42.81600 26.75500
C  -4.07300 42.51200 25.98600
C  -3.76500 42.50800 24.55800
C  -2.27600 42.66900 24.57400
C  -5.42900 42.46300 26.75600
C  -4.60400 42.33500 23.33700
O  -4.15100 42.28400 22.20100
C  -6.07500 42.49700 23.59300
N  0.68500 43.37700 24.16900
C  -0.11200 42.96900 23.22500
C  0.57800 42.86600 21.93900
C  2.01000 43.52600 22.20800
C  1.95700 43.60700 23.76600
C  0.68800 41.40700 21.38900
C  2.08300 44.96100 21.52100
C  3.47500 45.30300 21.06600
N  2.05500 43.62500 26.72300
C  3.19800 43.82900 25.92400
C  4.36500 43.99500 26.73600
C  3.93600 43.83500 28.03300
C  2.50400 43.64300 27.97200
C  5.78100 44.20800 26.25200
C  4.28300 43.77400 29.40300
O  5.45000 43.88200 29.86900
C  2.95400 43.58400 30.26800
C  3.31300 42.45100 31.07300
O  3.42300 41.32200 30.68400
O  3.65900 42.89100 32.34100
C  3.98900 41.86100 33.30100
H  -3.58900 42.77400 28.85000
H  -1.82700 42.43000 22.44600
H  3.93300 43.97600 23.84200
H  0.32300 42.33400 31.45500
H  -2.37500 43.05800 31.01400
H  -1.16700 40.56800 31.21400
H  -2.29400 40.54800 29.81300
H  -2.77100 41.13900 31.51300
H  -1.29600 44.77300 31.60900
H  0.30100 45.05900 30.83900
H  -0.07800 45.44000 33.31900
H  1.41200 44.63500 32.79400
H  -6.03800 43.32000 26.46900
H  -5.35500 42.64000 27.82900
H  -5.90700 41.50000 26.57800
H  -6.63200 42.45400 22.65700
H  -6.11300 43.44400 24.13100
H  -6.45000 41.79100 24.33400
H  0.04100 43.47200 21.21000
H  2.81700 42.84900 21.93100
H  0.80300 40.66700 22.18100
H  1.67700 41.37900 20.93100
H  -0.23100 41.22800 20.83200
H  1.76500 45.69700 22.26000
H  1.44800 45.07800 20.64300
H  3.60600 44.74600 20.13900
H  4.23600 44.86300 21.71100
H  3.76200 46.35400 21.02600
H  6.36500 43.29100 26.17200
H  6.29200 44.80400 27.00900
H  5.85900 44.71300 25.28900
H  2.75500 44.47500 30.86400
H  4.63700 41.11400 32.84100
H  3.06400 41.37700 33.61300
H  4.39700 42.26700 34.22600

