158

Mg 24.43300 -5.37400 46.06000
C  26.42100 -2.83700 44.61000
C  21.92800 -4.31500 43.99900
C  22.94800 -8.22700 46.65500
C  27.34000 -6.37500 47.75300
N  24.37400 -3.77900 44.51300
C  25.20000 -2.79800 44.08700
C  24.51800 -1.90200 43.03900
C  23.02900 -2.14900 43.43100
C  23.09200 -3.51200 43.97800
C  22.33500 -1.19200 44.42000
C  24.80700 -2.36600 41.54800
C  25.51700 -1.40600 40.66500
H  26.27900 -2.06400 39.45400
N  22.74400 -6.18800 45.44300
C  21.80400 -5.55700 44.63900
C  20.60800 -6.39800 44.61700
C  20.83300 -7.60300 45.37000
C  22.20900 -7.39300 45.87600
C  19.40800 -6.15000 43.67800
C  19.86500 -8.75100 45.46300
O  18.75800 -8.78800 44.90800
C  20.34200 -10.05900 46.11500
N  25.07100 -7.08600 47.15100
C  24.23700 -8.15600 47.15900
C  24.99300 -9.39100 47.66800
C  26.34300 -8.75400 48.24600
C  26.25300 -7.30700 47.73900
C  24.17500 -10.32800 48.68400
C  27.55300 -9.60100 47.96100
C  28.45400 -9.94100 49.21400
N  26.45100 -4.69400 46.35100
C  27.46100 -5.16300 47.10600
C  28.66000 -4.30200 46.91700
C  28.24400 -3.38300 45.96300
C  26.88900 -3.64900 45.60200
C  30.02700 -4.40800 47.68600
C  28.71400 -2.31600 45.16600
O  29.81500 -1.88700 45.06200
C  27.57900 -1.92400 44.24500
C  27.31600 -0.50700 44.33200
O  27.76600 0.27100 43.55200
O  26.59100 -0.21000 45.46200
C  26.47000 1.18900 45.79300
H  21.06800 -4.06600 43.37500
H  22.51200 -9.22700 46.70400
H  28.22600 -6.55500 48.36700
H  24.84700 -0.89700 43.30200
H  22.42200 -2.12200 42.52600
H  22.28300 -1.59000 45.43300
H  21.35900 -1.00300 43.97200
H  22.92100 -0.27900 44.52500
H  23.83400 -2.58200 41.10800
H  25.27200 -3.34800 41.62900
H  26.29400 -0.93200 41.26500
H  24.70800 -0.83000 40.21600
H  19.52900 -6.76200 42.78400
H  19.30800 -5.09800 43.41100
H  18.48200 -6.35800 44.21400
H  21.11100 -10.37200 45.41000
H  19.52600 -10.78000 46.05500
H  20.67300 -9.92100 47.14400
H  25.10400 -10.06400 46.81700
H  26.30200 -8.52900 49.31200
H  23.24700 -10.47500 48.13100
H  23.88900 -9.91100 49.64900
H  24.83300 -11.19700 48.71200
H  28.17500 -9.00400 47.29400
H  27.34000 -10.50700 47.39400
H  29.50900 -10.12900 49.01800
H  28.09000 -10.73800 49.86200
H  28.40300 -8.97200 49.71000
H  30.18000 -5.47000 47.88000
H  29.92300 -3.85800 48.62100
H  30.88900 -3.96300 47.18900
H  27.88000 -2.12200 43.21600
H  26.19400 1.31000 46.84100
H  25.64000 1.65900 45.26600
H  27.38600 1.75900 45.63500
Mg 48.82400 45.73700 43.34900
C  45.42100 45.94000 42.09500
C  48.99200 42.64400 41.70400
C  52.12400 45.86700 43.61500
C  48.55300 49.07900 44.12900
N  47.34000 44.43600 41.99400
C  46.07700 44.72600 41.64800
C  45.52800 43.67300 40.72100
C  46.50600 42.44100 41.00800
C  47.68600 43.16400 41.64200
C  45.90900 41.25800 41.85200
C  45.50300 44.02600 39.25600
C  44.20400 43.80400 38.49400
H  44.24400 42.72000 37.43600
N  50.29600 44.36500 42.95100
C  50.13400 43.15300 42.31800
C  51.45900 42.51800 42.25800
C  52.40100 43.37600 42.98000
C  51.61000 44.56500 43.30700
C  51.71100 41.09800 41.72100
C  53.79900 43.05500 43.39200
O  54.25000 41.91400 43.15300
C  54.65400 43.98900 44.20100
N  50.09500 47.18900 43.95800
C  51.45100 47.06700 43.94000
C  52.17600 48.41800 44.15400
C  51.00900 49.37900 44.30800
C  49.82700 48.49600 44.05900
C  53.21400 48.46900 45.33000
C  51.06400 50.65600 43.35000
C  50.56200 51.92000 44.09200
N  47.26600 47.24400 43.34000
C  47.31400 48.52700 43.72800
C  46.04800 49.08700 43.68100
C  45.25500 48.11200 42.95300
C  46.03600 46.97700 42.84500
C  45.69200 50.50800 43.97400
C  43.95400 47.87900 42.36200
O  43.02900 48.65100 42.03100
C  44.00800 46.47800 41.76600
C  42.96400 45.60800 42.30600
O  42.27200 44.92100 41.58900
O  42.73900 45.72500 43.68500
C  41.66100 44.77600 44.07700
H  49.12700 41.60900 41.38400
H  53.21000 45.97500 43.64000
H  48.49000 50.13000 44.41600
H  44.52700 43.42300 41.07400
H  46.82600 42.05700 40.04000
H  45.83200 40.31000 41.32100
H  44.90500 41.51600 42.19200
H  46.57100 41.09000 42.70200
H  46.30700 43.58100 38.66800
H  45.63500 45.10800 39.25700
H  43.77900 44.79600 38.34600
H  43.52100 43.33700 39.20400
H  52.63600 41.02200 41.14900
H  50.89200 40.66800 41.14500
H  51.78500 40.36300 42.52300
H  55.04500 44.80200 43.58900
H  55.46700 43.39000 44.61100
H  54.23500 44.34600 45.14100
H  52.71200 48.60000 43.22200
H  50.75300 49.63700 45.33600
H  54.04300 49.08900 44.98900
H  53.64300 47.59200 45.81600
H  52.68200 48.94400 46.15400
H  50.35000 50.52800 42.53700
H  52.00500 50.94400 42.87900
H  51.36900 52.57200 44.42400
H  50.10200 51.75700 45.06700
H  49.88500 52.49600 43.46300
H  46.39400 51.08100 44.58000
H  44.81600 50.50500 44.62200
H  45.53300 50.97500 43.00200
H  43.91700 46.42300 40.68100
H  40.64600 45.11200 43.86800
H  41.68500 44.61000 45.15400
H  41.89700 43.76400 43.74700

