158

Mg 24.59600 -6.99900 46.98900
C  26.95600 -4.50900 45.86700
C  22.21700 -5.39500 45.13800
C  22.65900 -9.57100 47.62900
C  27.37200 -8.72000 48.22300
N  24.66800 -5.08900 45.67800
C  25.69200 -4.35800 45.26100
C  25.33500 -3.33300 44.13600
C  23.76500 -3.56200 44.03700
C  23.54800 -4.76700 44.99600
C  22.95000 -2.30900 44.40500
C  26.11800 -3.56400 42.79000
C  27.14600 -2.45100 42.19900
H  27.04400 -2.04300 40.62800
N  22.64900 -7.40300 46.58000
C  21.83200 -6.60800 45.80100
C  20.56700 -7.21600 45.71600
C  20.62400 -8.38900 46.50500
C  21.99000 -8.51700 46.97200
C  19.32900 -6.62800 44.97500
C  19.53100 -9.39400 46.65800
O  18.37700 -9.12500 46.26800
C  19.70400 -10.80400 47.30400
N  24.96200 -8.88600 47.78200
C  23.95600 -9.79000 48.01700
C  24.52200 -11.05900 48.70100
C  26.09000 -10.81200 48.63800
C  26.13500 -9.41100 48.13900
C  24.06400 -11.16700 50.14300
C  26.94700 -11.84500 47.84300
C  27.32300 -13.13900 48.61400
N  26.71000 -6.66000 47.16700
C  27.71300 -7.44700 47.74600
C  28.94200 -6.80800 47.80300
C  28.67700 -5.62700 47.06100
C  27.34100 -5.58100 46.65900
C  30.23400 -7.24300 48.36700
C  29.25400 -4.40600 46.55400
O  30.27800 -3.83700 46.83300
C  28.20400 -3.69100 45.65000
C  27.99200 -2.36400 46.33000
O  27.50700 -2.06100 47.37700
O  28.32000 -1.43200 45.39900
C  28.02900 -0.06200 45.68200
H  21.44400 -4.96700 44.49600
H  21.93800 -10.33100 47.93500
H  28.26500 -9.27800 48.51400
H  25.61100 -2.37200 44.57000
H  23.41100 -3.88700 43.05900
H  23.33800 -1.53300 43.74500
H  23.02700 -2.10000 45.47200
H  21.88300 -2.37900 44.19300
H  25.35200 -3.80200 42.05200
H  26.70000 -4.45900 43.01200
H  28.16400 -2.81000 42.35000
H  27.14600 -1.50100 42.73400
H  19.16800 -7.05800 43.98700
H  19.42500 -5.56000 44.77700
H  18.43600 -6.71900 45.59300
H  18.75900 -11.31900 47.13000
H  19.76500 -10.67400 48.38400
H  20.50300 -11.39000 46.84900
H  24.29800 -11.93400 48.09000
H  26.61300 -10.87900 49.59200
H  24.39100 -12.11400 50.57200
H  22.97600 -11.22800 50.16000
H  24.35500 -10.28100 50.70800
H  27.90400 -11.45700 47.49600
H  26.41200 -12.16600 46.94900
H  26.75600 -13.27200 49.53600
H  28.37800 -13.16800 48.88500
H  27.05900 -13.91900 47.90000
H  30.74700 -6.32000 48.63600
H  30.75700 -7.73000 47.54300
H  30.13800 -7.95700 49.18500
H  28.61800 -3.62800 44.64400
H  26.99800 0.23200 45.48600
H  28.66400 0.53700 45.02900
H  28.33000 0.17000 46.70300
Mg 36.12600 49.12900 24.98800
C  36.43100 47.57600 28.02900
C  35.20800 52.08200 26.64300
C  35.65100 50.65300 22.09900
C  37.25200 46.19500 23.42200
N  35.96100 49.77200 27.09500
C  36.12100 48.94800 28.16400
C  36.21700 49.82200 29.45800
C  35.71500 51.22600 29.00600
C  35.63600 51.01600 27.46600
C  34.35100 51.63400 29.67500
C  37.56000 49.77300 30.16900
C  37.39400 49.31500 31.63500
H  36.03200 49.43000 32.51100
N  35.51700 51.08300 24.48700
C  35.11900 52.13000 25.27800
C  34.75000 53.30000 24.42600
C  34.80400 52.87400 23.11000
C  35.34000 51.47500 23.16600
C  34.51600 54.64100 25.01600
C  34.51700 53.69200 21.85200
O  34.62100 53.25200 20.72200
C  33.94200 55.00600 22.00400
N  36.33400 48.52300 23.08500
C  36.14600 49.35500 22.00900
C  36.61600 48.80300 20.68500
C  37.23900 47.46000 21.08700
C  36.96500 47.34300 22.65600
C  35.52100 48.59800 19.57100
C  38.72000 47.20500 20.86800
C  38.99900 45.98200 19.95700
N  36.60800 47.25500 25.51600
C  37.02500 46.12700 24.83000
C  37.20900 45.00200 25.67600
C  37.05600 45.59400 26.98400
C  36.64400 46.93100 26.83700
C  37.56500 43.65700 25.20800
C  37.13700 45.26000 28.39900
O  37.47000 44.17900 28.90500
C  36.83200 46.56800 29.17600
C  35.67600 46.31400 30.08400
O  34.52700 46.10100 29.66600
O  35.99800 46.00600 31.37900
C  35.08600 45.25400 32.22900
H  34.81900 52.96300 27.15800
H  35.60700 51.13100 21.11900
H  37.77300 45.35500 22.95800
H  35.48800 49.30300 30.08100
H  36.42800 52.03000 29.18800
H  33.40900 51.35700 29.20100
H  34.27300 52.70300 29.87000
H  34.40200 51.18000 30.66400
H  38.02500 50.75800 30.17500
H  38.27500 49.18300 29.59600
H  38.20500 49.87200 32.10300
H  37.54800 48.23600 31.67100
H  33.45700 54.89800 24.99200
H  35.11200 55.34000 24.42900
H  34.89300 54.72400 26.03500
H  33.00500 54.89500 22.55100
H  33.67200 55.43500 21.04000
H  34.70600 55.65800 22.42800
H  37.31300 49.59600 20.41500
H  36.60500 46.67600 20.67400
H  34.59600 48.22700 20.01200
H  35.84100 47.82000 18.87700
H  35.42200 49.54700 19.04300
H  39.21300 47.10700 21.83500
H  39.09200 48.12000 20.40600
H  39.76600 45.39400 20.46100
H  39.33500 46.54400 19.08600
H  38.10700 45.44200 19.64100
H  38.60500 43.51000 24.91600
H  36.93500 43.26700 24.40900
H  37.31700 43.06500 26.08900
H  37.71000 46.92000 29.71800
H  34.85600 44.34800 31.66800
H  34.20200 45.87600 32.37000
H  35.60400 45.00900 33.15600

