158

Mg -3.22600 16.69500 27.03400
C  -3.63000 14.79700 30.03100
C  -4.23300 19.46000 29.01100
C  -3.49700 18.60900 24.30600
C  -3.50300 13.82400 25.23900
N  -3.62400 17.09700 29.37100
C  -3.66100 16.12300 30.38700
C  -3.73000 16.78000 31.74400
C  -4.11600 18.23000 31.35500
C  -4.04800 18.30000 29.81300
C  -5.41300 18.69300 31.94600
C  -2.39500 16.53900 32.45700
C  -1.89200 17.51900 33.54100
H  -1.40300 16.91300 34.98800
N  -3.41100 18.70100 26.74700
C  -3.76500 19.74100 27.66400
C  -3.66700 21.02300 26.98500
C  -3.32700 20.76200 25.64100
C  -3.46000 19.28300 25.49100
C  -4.03300 22.30600 27.71200
C  -2.93300 21.68500 24.48300
O  -2.73000 21.31500 23.27400
C  -2.59200 23.05900 24.83400
N  -3.65600 16.23200 24.98900
C  -3.64300 17.23500 24.05000
C  -3.73100 16.64800 22.63500
C  -3.63600 15.07400 22.92800
C  -3.59200 15.01200 24.46000
C  -4.96900 17.15100 21.74500
C  -2.46600 14.40400 22.19100
C  -1.05400 14.31700 22.85300
N  -3.44000 14.69500 27.47500
C  -3.43200 13.62800 26.61300
C  -3.48200 12.42100 27.37900
C  -3.51200 12.82600 28.70300
C  -3.53900 14.27900 28.73900
C  -3.52600 10.98300 26.83600
C  -3.55400 12.33200 30.08000
O  -3.56200 11.22700 30.52500
C  -3.58200 13.63800 30.99400
C  -2.29900 13.53800 31.61300
O  -1.20200 13.82600 31.17800
O  -2.49700 13.01200 32.90400
C  -1.49400 13.08700 33.93300
H  -4.54700 20.31900 29.60800
H  -3.52000 19.23300 23.41000
H  -3.58400 12.83700 24.77900
H  -4.50600 16.32200 32.35700
H  -3.40700 18.86800 31.88300
H  -6.18600 18.39300 31.23900
H  -5.32300 19.73400 32.25500
H  -5.36200 18.23300 32.93300
H  -1.68200 16.51200 31.63300
H  -2.48200 15.53300 32.86800
H  -2.60000 18.28600 33.85600
H  -1.07000 18.01300 33.02400
H  -3.09900 22.85800 27.82100
H  -4.54100 22.19800 28.67100
H  -4.65300 22.86500 27.01100
H  -3.33500 23.67300 25.34300
H  -2.40500 23.61300 23.91400
H  -1.68500 22.99700 25.43500
H  -2.81800 17.03100 22.18100
H  -4.51400 14.59800 22.49100
H  -4.63500 17.61800 20.81800
H  -5.59800 17.82600 22.32600
H  -5.62700 16.31200 21.52100
H  -2.36200 14.98000 21.27100
H  -2.79500 13.42900 21.83100
H  -0.38400 14.98000 22.30500
H  -0.78500 13.27200 22.69500
H  -1.02800 14.61100 23.90200
H  -4.52300 10.60100 26.61300
H  -3.11400 10.27500 27.55600
H  -3.00100 11.10500 25.88900
H  -4.35700 13.63100 31.76000
H  -1.70900 13.84000 34.69100
H  -0.52400 13.36500 33.52100
H  -1.50400 12.06400 34.30900
Mg -11.49400 38.64100 40.56800
C  -10.02300 35.46500 40.08100
C  -8.86700 39.96200 38.83300
C  -13.38000 41.30400 40.23800
C  -14.49800 36.82100 41.57000
N  -9.58800 37.67700 39.60500
C  -9.25300 36.43000 39.46300
C  -7.95500 36.29200 38.63900
C  -7.48400 37.77500 38.58400
C  -8.71500 38.53000 39.04300
C  -6.25300 38.09700 39.44100
C  -8.29700 35.79800 37.22400
C  -7.11000 34.99100 36.46300
H  -6.46700 35.70900 35.33300
N  -11.10800 40.42000 39.84900
C  -9.90600 40.81400 39.27100
C  -9.95200 42.21700 39.09300
C  -11.28900 42.63500 39.31500
C  -12.00400 41.46900 39.85800
C  -8.85800 43.02200 38.50300
C  -11.86200 44.05900 38.99500
O  -11.16100 44.86700 38.43500
C  -13.30700 44.51500 39.39900
N  -13.68100 38.98600 40.65100
C  -14.14700 40.21800 40.65400
C  -15.64000 40.35400 40.97800
C  -15.95500 38.82000 41.25900
C  -14.58300 38.18100 41.26800
C  -16.03300 41.28200 42.15300
C  -17.00000 38.17000 40.16900
C  -18.07200 37.25900 40.80700
N  -12.10900 36.56700 40.97000
C  -13.34900 36.00300 41.36800
C  -13.18100 34.57300 41.43700
C  -11.85300 34.28700 40.99400
C  -11.28500 35.51200 40.70000
C  -14.36900 33.60600 41.72400
C  -10.86300 33.23600 40.75400
O  -10.93500 32.00800 40.84800
C  -9.58700 34.04900 40.24600
C  -8.55300 33.80500 41.29400
O  -8.28600 32.71700 41.80800
O  -7.77600 34.93000 41.53800
C  -6.58300 34.72300 42.30600
H  -8.01700 40.42800 38.33000
H  -13.93700 42.24300 40.25200
H  -15.42700 36.37500 41.93200
H  -7.15000 35.71400 39.09300
H  -7.26800 37.97700 37.53500
H  -6.40800 39.05900 39.92900
H  -5.40100 38.23800 38.77500
H  -5.94600 37.42600 40.24400
H  -8.46900 36.58900 36.49400
H  -9.26100 35.29500 37.29800
H  -7.59800 34.13300 36.00100
H  -6.35600 34.61300 37.15300
H  -8.92000 42.98900 37.41500
H  -7.91800 42.56600 38.81300
H  -8.79400 44.04700 38.86900
H  -13.48200 45.56800 39.17800
H  -13.21800 44.35500 40.47400
H  -14.07600 43.85200 39.00300
H  -16.21000 40.61800 40.08700
H  -16.41500 38.69600 42.24000
H  -16.68900 40.75400 42.84500
H  -16.60500 42.13500 41.78800
H  -15.20400 41.67500 42.74200
H  -16.39500 37.67700 39.40800
H  -17.44400 38.94100 39.53900
H  -17.82900 36.26500 40.43000
H  -19.11100 37.40300 40.51100
H  -18.02300 37.37300 41.89000
H  -15.06300 33.42400 40.90300
H  -14.89000 33.98700 42.60200
H  -13.94000 32.68700 42.12400
H  -9.37000 33.63400 39.26200
H  -6.01400 33.91400 41.84700
H  -6.85700 34.50900 43.33900
H  -5.86600 35.54300 42.32900

