158

Mg 8.48100 2.36800 27.50800
C  10.16300 1.20100 30.19500
C  6.64700 4.44200 29.68400
C  6.84400 3.64700 24.90200
C  10.12600 0.00100 25.48600
N  8.35700 2.69000 29.74000
C  9.24300 2.22200 30.59800
C  8.96500 2.70700 31.97400
C  7.79500 3.78200 31.69000
C  7.50600 3.58100 30.23400
C  6.61700 3.67600 32.67200
C  10.18300 3.36400 32.76300
C  10.46900 2.77100 34.11900
H  10.58800 3.85600 35.24200
N  6.82300 3.83200 27.34300
C  6.40400 4.69500 28.32600
C  5.56500 5.75400 27.73300
C  5.49500 5.44800 26.34000
C  6.39600 4.22900 26.10600
C  4.74100 6.75300 28.54200
C  4.65500 6.16500 25.29400
O  4.56700 5.78500 24.11500
C  3.91700 7.41600 25.60600
N  8.24400 1.74100 25.57100
C  7.60000 2.49200 24.58400
C  7.84400 1.94500 23.18100
C  8.99900 0.94700 23.43200
C  9.15800 0.88700 24.94100
C  6.48300 1.35300 22.48400
C  10.35200 1.38200 22.69800
C  11.11700 0.13000 22.12300
N  9.94100 0.89500 27.75400
C  10.51700 0.03800 26.81000
C  11.47900 -0.78200 27.50500
C  11.35700 -0.41700 28.86100
C  10.36700 0.58000 28.95900
C  12.35200 -1.84300 26.93100
C  11.81600 -0.65900 30.26700
O  12.48200 -1.52500 30.75800
C  11.12100 0.46600 31.15400
C  10.32800 -0.28100 32.15900
O  9.30300 -0.88900 31.85000
O  10.86900 -0.25000 33.39600
C  10.05900 -0.77500 34.49000
H  6.15200 5.07600 30.42200
H  6.60500 4.28400 24.04700
H  10.68500 -0.64600 24.80700
H  8.64400 1.79200 32.47100
H  8.21600 4.78400 31.77900
H  5.78600 3.09500 32.27200
H  6.34200 4.62600 33.13100
H  7.03300 3.18100 33.54900
H  10.10200 4.44500 32.87600
H  11.07200 3.24100 32.14500
H  11.51400 2.46600 34.06900
H  9.70400 2.03000 34.34900
H  5.02400 6.89500 29.58500
H  3.67400 6.52600 28.53300
H  4.93000 7.72900 28.09600
H  3.18700 7.34500 26.41200
H  3.22100 7.62900 24.79600
H  4.57600 8.26300 25.79500
H  8.19600 2.74300 22.52800
H  8.87000 -0.07500 23.07500
H  5.71300 1.23700 23.24700
H  6.65700 0.42500 21.94000
H  6.17700 2.12400 21.77700
H  10.95700 1.82800 23.48600
H  10.16800 2.06300 21.86700
H  11.12500 0.24000 21.03800
H  10.55400 -0.72500 22.49800
H  12.14800 0.16000 22.47400
H  11.58000 -2.59100 26.74900
H  13.13400 -2.06400 27.65800
H  12.75100 -1.51800 25.97000
H  11.80900 1.10600 31.70600
H  10.19800 -1.83800 34.68700
H  9.00900 -0.52600 34.33600
H  10.28200 -0.31700 35.45300
Mg 43.07300 41.63900 25.95400
C  42.45300 44.02000 28.58200
C  43.86700 39.41200 28.27400
C  44.19800 39.75000 23.44800
C  42.55900 44.27200 23.68800
N  43.24400 41.74900 28.19400
C  42.80500 42.75700 29.07000
C  43.13600 42.36700 30.52000
C  43.59300 40.85700 30.43000
C  43.53200 40.60700 28.86800
C  44.94800 40.50900 31.06200
C  41.90000 42.44800 31.41800
C  42.09300 41.87500 32.85900
H  41.92700 42.83000 34.06000
N  43.96400 39.72700 25.87000
C  44.12700 38.95100 26.92100
C  44.66800 37.68400 26.47800
C  44.81300 37.77200 25.04300
C  44.36200 39.11500 24.72100
C  45.00000 36.56200 27.51200
C  45.04100 36.74800 24.02800
O  45.08600 36.96600 22.84900
C  45.36800 35.33900 24.57300
N  43.58200 42.04500 23.89500
C  43.97100 41.03600 23.04100
C  43.94300 41.49500 21.52500
C  43.20500 42.91800 21.66400
C  43.11000 43.12200 23.18200
C  45.29500 41.65300 20.83600
C  41.82700 42.87300 21.00300
C  40.79600 41.90700 21.58600
N  42.52000 43.66800 26.03400
C  42.36600 44.55500 25.03500
C  41.97600 45.85500 25.56700
C  41.92300 45.61800 26.95800
C  42.36000 44.32600 27.17300
C  41.63300 47.15000 24.86100
C  41.68000 46.26200 28.28600
O  41.29900 47.37500 28.61000
C  41.91700 45.22300 29.35800
C  42.80700 45.76900 30.36300
O  44.03500 45.76700 30.30600
O  42.09900 46.37900 31.39000
C  42.88600 46.73100 32.53100
H  44.03300 38.58900 28.97200
H  44.43900 39.15100 22.56600
H  42.35700 45.02600 22.92400
H  43.97600 42.99500 30.81800
H  42.93900 40.13700 30.92300
H  44.85700 39.63400 31.70400
H  45.39000 41.36500 31.57200
H  45.71100 40.18800 30.35300
H  41.11300 41.78900 31.05300
H  41.40700 43.42000 31.44000
H  43.04200 41.33900 32.85900
H  41.41900 41.03800 33.04100
H  44.51200 35.64000 27.19800
H  44.71300 36.73000 28.55000
H  46.07100 36.36600 27.46500
H  46.04800 35.31700 25.42500
H  45.80800 34.85500 23.70200
H  44.41700 34.88900 24.85900
H  43.39000 40.63900 21.13900
H  43.78200 43.79600 21.37400
H  45.33700 40.86100 20.08800
H  46.17100 41.62500 21.48300
H  45.32000 42.59100 20.28200
H  42.07200 42.59200 19.97900
H  41.48800 43.90800 21.02500
H  40.16000 42.48000 22.26100
H  41.24200 41.03900 22.07100
H  40.12600 41.49500 20.83100
H  42.40600 47.13500 24.09300
H  41.85800 47.93700 25.58100
H  40.69100 47.17400 24.31300
H  40.93400 45.07600 29.80600
H  43.39500 47.65300 32.25300
H  43.55100 45.94300 32.88500
H  42.08600 46.99800 33.22100

