158

Mg -2.93400 35.10700 26.22200
C  -4.39400 33.46000 28.80200
C  -1.30700 37.22200 28.44300
C  -1.34900 36.45400 23.60600
C  -4.98700 33.17000 23.97100
N  -2.91700 35.33600 28.27500
C  -3.55900 34.51600 29.18200
C  -3.13400 34.84400 30.61700
C  -2.19300 36.02500 30.50000
C  -2.21200 36.28300 28.98600
C  -2.50200 37.32700 31.33000
C  -2.66500 33.74100 31.51700
C  -3.43500 33.40100 32.75900
H  -2.58300 33.20100 34.06000
N  -1.58100 36.72000 26.07100
C  -1.02000 37.43700 27.08700
C  -0.03100 38.36100 26.46600
C  -0.03800 38.14700 25.09000
C  -1.01800 37.07300 24.84400
C  0.66700 39.44900 27.32700
C  0.85000 38.85300 24.03400
O  0.88500 38.50300 22.87700
C  1.79500 40.01100 24.43200
N  -3.31800 35.03600 24.13800
C  -2.43100 35.63500 23.31800
C  -2.68900 35.17800 21.88100
C  -3.68700 34.01500 22.07900
C  -4.13700 34.16800 23.50500
C  -3.24000 36.39400 20.96300
C  -3.03000 32.58100 21.77400
C  -1.72100 32.25400 22.53800
N  -4.44600 33.58400 26.25300
C  -5.17800 32.93900 25.35900
C  -5.99300 31.98100 25.97700
C  -5.72300 32.10300 27.35600
C  -4.84400 33.15700 27.47000
C  -6.77900 30.95600 25.20100
C  -6.04000 31.62400 28.74000
O  -6.89200 30.76600 29.13000
C  -5.17800 32.53100 29.77400
C  -6.39100 33.11600 30.59700
O  -7.32900 33.78800 30.11500
O  -6.36000 32.51500 31.80800
C  -7.52500 32.56200 32.65100
H  -0.71400 37.73900 29.20100
H  -0.77800 36.86000 22.76900
H  -5.50300 32.58800 23.20400
H  -4.08800 35.16600 31.03500
H  -1.22900 35.70800 30.89800
H  -2.67000 38.27600 30.82000
H  -1.74700 37.52600 32.09100
H  -3.39100 37.19500 31.94600
H  -1.63000 33.89000 31.82500
H  -2.70100 32.83900 30.90700
H  -3.98100 32.48900 32.51600
H  -4.08700 34.20800 33.09200
H  1.72800 39.27400 27.50800
H  0.25400 39.48200 28.33600
H  0.51100 40.49300 27.05700
H  2.35200 39.61100 25.27900
H  1.16600 40.84800 24.73400
H  2.49900 40.25600 23.63600
H  -1.73700 34.87100 21.44800
H  -4.60300 34.07900 21.49100
H  -2.44800 36.89200 20.40400
H  -3.83200 37.22800 21.34000
H  -3.72000 35.85000 20.15000
H  -2.78300 32.65200 20.71500
H  -3.78700 31.81300 21.93400
H  -1.69200 32.81000 23.47500
H  -0.80100 32.52200 22.01900
H  -1.61100 31.19200 22.75600
H  -6.84400 31.18000 24.13600
H  -7.74900 30.74000 25.64700
H  -6.20200 30.03700 25.30900
H  -4.55500 31.93000 30.43600
H  -7.09800 33.08000 33.51000
H  -7.76900 31.55500 32.98900
H  -8.42400 33.03600 32.25700
Mg -6.27700 25.88900 26.25000
C  -5.00200 27.36100 29.08700
C  -8.08900 23.61900 28.35800
C  -7.29700 23.97300 23.58200
C  -4.41100 27.88100 24.29900
N  -6.45100 25.47000 28.46000
C  -5.98700 26.32900 29.43100
C  -6.51300 26.01600 30.77900
C  -7.28600 24.63400 30.47700
C  -7.23700 24.55200 28.98000
C  -6.89800 23.39100 31.22200
C  -7.44600 27.22100 31.41500
C  -7.15000 27.48400 32.87200
H  -6.87200 26.36100 33.91400
N  -7.52800 24.08400 25.99600
C  -8.09800 23.33100 26.96500
C  -8.72600 22.18500 26.44500
C  -8.52800 22.22800 25.01000
C  -7.77500 23.43100 24.80500
C  -9.38100 21.15600 27.34500
C  -9.02200 21.35800 23.83400
O  -8.74100 21.41700 22.66000
C  -10.12700 20.39000 24.18800
N  -5.91300 25.92900 24.19800
C  -6.49200 25.08700 23.20400
C  -5.95700 25.46800 21.82000
C  -5.18900 26.82300 22.09300
C  -5.14600 26.88800 23.61900
C  -5.15200 24.30500 21.10100
C  -5.75600 28.12500 21.52100
C  -4.87000 28.71800 20.49300
N  -4.85500 27.24900 26.56100
C  -4.21000 28.05100 25.70500
C  -3.44500 29.07300 26.42700
C  -3.73300 28.77900 27.74500
C  -4.57300 27.68200 27.75800
C  -2.65800 30.19800 25.83800
C  -3.46800 29.26600 29.08200
O  -2.79200 30.22100 29.45100
C  -4.31200 28.38000 29.98600
C  -3.30900 27.77300 30.85500
O  -2.57400 26.85500 30.44900
O  -3.37700 28.37900 32.03700
C  -2.42200 27.83300 33.00400
H  -8.72900 23.01800 29.00700
H  -7.59600 23.43700 22.67800
H  -3.94800 28.72800 23.78800
H  -5.72600 25.70000 31.46400
H  -8.35500 24.75300 30.65200
H  -6.70200 23.72800 32.24000
H  -6.08200 22.77400 30.84500
H  -7.75600 22.72000 31.21300
H  -8.50000 26.95500 31.32700
H  -7.28200 28.09500 30.78500
H  -8.08000 27.86100 33.29700
H  -6.29600 28.14700 33.00600
H  -10.14400 20.60700 26.79200
H  -9.93500 21.59300 28.17600
H  -8.69000 20.37900 27.67100
H  -10.51300 19.85800 23.31900
H  -10.91000 20.85300 24.79000
H  -9.63400 19.69000 24.86200
H  -6.85400 25.74300 21.26600
H  -4.12700 26.79600 21.85100
H  -4.18000 24.73700 20.86500
H  -5.84200 23.93000 20.34600
H  -5.02700 23.44600 21.76000
H  -5.82400 28.84000 22.34100
H  -6.74500 27.81800 21.18100
H  -4.31100 27.99300 19.90200
H  -4.15900 29.36100 21.01100
H  -5.52800 29.30000 19.84700
H  -1.67100 29.94500 26.22400
H  -3.14600 31.16100 25.99100
H  -2.49700 30.13600 24.76200
H  -4.95000 28.91500 30.68900
H  -1.91800 28.68400 33.46200
H  -1.67100 27.15100 32.60500
H  -2.93300 27.21300 33.74100

