158

Mg 25.98300 0.98900 29.39800
C  27.94400 0.45900 32.30100
C  23.24700 1.51600 31.48100
C  23.98600 1.27900 26.63500
C  28.62200 0.05800 27.50800
N  25.61200 0.93200 31.60900
C  26.60000 0.74100 32.57600
C  25.96800 0.88600 33.94500
C  24.43300 1.01600 33.69700
C  24.38700 1.14500 32.20200
C  23.59400 -0.16500 34.20900
C  26.63400 2.03400 34.73000
C  27.30000 1.59300 36.03300
H  26.93600 2.28500 37.39200
N  23.94300 1.44100 29.06700
C  22.99000 1.64100 30.11700
C  21.73600 1.85100 29.48600
C  21.92400 1.67600 28.09400
C  23.30700 1.45100 27.87400
C  20.37300 1.86100 30.24800
C  20.88500 1.59600 26.99900
O  21.09600 1.28100 25.83900
C  19.49200 2.02900 27.25500
N  26.31300 0.68200 27.34200
C  25.35600 0.97900 26.38500
C  25.91100 0.58200 24.97600
C  27.44700 0.35400 25.22500
C  27.48400 0.31300 26.77500
C  25.11400 -0.54700 24.22500
C  28.33900 1.46900 24.58700
C  28.91700 2.56900 25.50900
N  27.98800 0.48100 29.76300
C  28.91700 0.10300 28.88600
C  30.06400 -0.37200 29.64300
C  29.80500 -0.14500 30.96600
C  28.49900 0.27000 30.99500
C  31.35300 -0.99500 29.13900
C  30.28100 -0.27800 32.31100
O  31.34500 -0.67000 32.71700
C  29.06700 0.12700 33.24700
C  28.72100 -0.96300 34.08400
O  27.99000 -1.87700 33.77400
O  29.48100 -0.96400 35.22400
C  29.18900 -2.05300 36.21600
H  22.36600 1.71900 32.09400
H  23.47500 1.69900 25.76600
H  29.46400 -0.15600 26.84600
H  26.15200 -0.05000 34.47100
H  24.02600 1.93600 34.11700
H  24.14900 -0.97300 34.68600
H  23.00500 -0.59600 33.39900
H  22.84800 0.23500 34.89500
H  25.97300 2.78000 35.17100
H  27.30900 2.58600 34.07500
H  28.33900 1.89900 35.90800
H  27.21100 0.50700 36.03100
H  19.79800 1.02400 29.85200
H  19.96700 2.84200 30.00100
H  20.39100 1.74500 31.33200
H  19.09500 1.19900 27.84000
H  19.02400 2.12900 26.27500
H  19.55300 3.02200 27.70000
H  25.79900 1.49400 24.39000
H  27.85300 -0.52600 24.72700
H  25.92200 -1.18300 23.86500
H  24.54200 -0.19300 23.36700
H  24.58900 -1.10300 25.00200
H  27.69700 1.99100 23.87800
H  29.10700 1.04500 23.93900
H  28.40900 2.70700 26.46400
H  28.71100 3.52100 25.02000
H  29.96500 2.27300 25.55500
H  31.99200 -1.23900 29.98800
H  31.98900 -0.30700 28.58300
H  31.25400 -1.98500 28.69400
H  29.33500 1.02400 33.80500
H  29.00600 -3.00800 35.72300
H  28.35600 -1.71400 36.83100
H  30.16300 -2.14700 36.69500
Mg 36.05700 49.11600 25.17400
C  36.25500 47.27200 28.13600
C  34.85500 51.80100 26.92100
C  35.41600 50.62100 22.13900
C  37.25100 46.30500 23.43300
N  35.61400 49.45200 27.23600
C  35.84500 48.60600 28.30700
C  35.76400 49.31300 29.67900
C  35.27100 50.72300 29.22700
C  35.25000 50.65500 27.66900
C  33.92900 51.18800 29.80400
C  37.14600 49.23300 30.42500
C  37.21000 48.86100 31.92500
H  36.00000 49.09800 32.76800
N  35.21600 50.98700 24.52100
C  34.89200 51.99500 25.42700
C  34.58800 53.13600 24.69800
C  34.79800 52.87600 23.35200
C  35.14800 51.44300 23.24900
C  34.23300 54.47000 25.33800
C  34.69600 53.77300 22.14600
O  34.63900 53.29000 21.01900
C  34.72000 55.32100 22.36300
N  36.22600 48.51700 23.08300
C  35.83100 49.29200 22.08900
C  36.21300 48.62400 20.71300
C  37.06400 47.36500 21.11600
C  36.85300 47.40600 22.66300
C  34.99900 48.18800 19.78300
C  38.54300 47.45400 20.82500
C  39.09200 46.04200 20.41200
N  36.75300 47.21500 25.58000
C  37.17000 46.10600 24.77800
C  37.40900 44.93300 25.59300
C  37.12900 45.42200 26.88300
C  36.70200 46.73100 26.86400
C  37.72700 43.55900 25.13200
C  36.98700 44.90100 28.24100
O  37.24300 43.79800 28.67000
C  36.51900 46.12600 29.07800
C  35.36000 45.77000 30.05100
O  34.21400 45.91100 29.75700
O  35.89400 45.27100 31.22500
C  34.77700 45.10100 32.10700
H  34.67200 52.73800 27.45100
H  35.34400 51.06100 21.14200
H  37.86700 45.57700 22.90100
H  34.96000 48.74700 30.14800
H  36.03000 51.48900 29.38900
H  33.38600 50.34100 30.22400
H  33.32200 51.70600 29.06200
H  34.20000 51.89900 30.58500
H  37.57600 50.23400 30.42000
H  37.87100 48.63600 29.87200
H  38.10100 49.36600 32.29700
H  37.26700 47.77400 31.86200
H  34.86100 55.31400 25.05400
H  34.13100 54.34900 26.41600
H  33.30800 54.68300 24.80100
H  33.80300 55.78300 22.72900
H  34.88200 55.74300 21.37100
H  35.57300 55.42400 23.03300
H  36.86800 49.40700 20.33100
H  36.64900 46.40700 20.80200
H  35.11200 48.65000 18.80200
H  34.14900 48.58600 20.33600
H  34.84700 47.11800 19.64600
H  39.08600 47.79200 21.70800
H  38.76000 48.20200 20.06300
H  39.75300 46.13200 19.55000
H  38.29300 45.37100 20.09700
H  39.71700 45.60300 21.19000
H  37.43000 43.42000 24.09300
H  37.14600 42.86600 25.74100
H  38.79500 43.35700 25.21500
H  37.29100 46.43100 29.78400
H  35.42200 44.92200 32.96700
H  34.11300 44.25600 31.92300
H  34.29100 46.07600 32.06600

