158

Mg 45.77700 3.92800 47.50200
C  43.96600 6.85100 47.17800
C  42.94200 2.13900 46.77900
C  47.73400 1.19600 47.31400
C  48.77700 6.01100 47.38700
N  43.67200 4.45100 47.15800
C  43.16300 5.69800 47.05000
C  41.80800 5.65800 46.41600
C  41.37900 4.18500 46.65800
C  42.74600 3.51100 46.87600
C  40.45000 4.07200 47.97500
C  41.82600 6.08900 44.91500
C  40.63200 6.90700 44.43400
H  40.34100 6.70500 42.98100
N  45.36900 1.92500 47.10900
C  44.11000 1.37600 46.92000
C  44.24000 -0.07500 46.80900
C  45.59700 -0.38100 47.08500
C  46.33400 0.91000 47.14300
C  43.10500 -1.09400 46.51900
C  46.18300 -1.75800 47.26800
O  45.42900 -2.75500 47.32100
C  47.66900 -2.03200 47.24900
N  47.92500 3.64700 47.39800
C  48.47200 2.41900 47.47600
C  50.03500 2.44800 47.62200
C  50.33000 3.91200 47.24800
C  48.95300 4.64000 47.36400
C  50.43800 1.87400 49.04800
C  51.17500 4.00200 45.97000
C  52.34000 5.04200 45.85400
N  46.34300 6.05100 47.41700
C  47.50000 6.74800 47.36000
C  47.24400 8.16600 47.44100
C  45.86700 8.25100 47.25200
C  45.37700 6.94400 47.24800
C  48.27500 9.25800 47.50600
C  44.74600 9.14600 47.14400
O  44.82300 10.36100 47.08700
C  43.48000 8.25600 47.06300
C  42.48300 8.71400 48.13600
O  42.33900 8.15200 49.25500
O  41.67000 9.79000 47.69400
C  40.52900 10.25400 48.40600
H  42.02100 1.56200 46.67100
H  48.39100 0.32500 47.34900
H  49.63500 6.68500 47.41100
H  41.19800 6.36500 46.97800
H  40.81200 3.77700 45.82100
H  40.02700 4.98800 48.38900
H  40.98000 3.52900 48.75700
H  39.60600 3.45800 47.66200
H  41.84100 5.11800 44.41900
H  42.71600 6.62600 44.58800
H  40.94600 7.93600 44.61000
H  39.74100 6.79300 45.05200
H  42.12500 -0.61600 46.51100
H  43.22200 -1.90000 47.24300
H  43.37000 -1.55000 45.56500
H  48.00700 -1.55000 48.16600
H  48.03100 -1.59000 46.32100
H  47.87400 -3.09300 47.10700
H  50.50300 1.73800 46.94000
H  50.91000 4.41900 48.01900
H  49.57100 1.67900 49.68000
H  50.91800 2.69600 49.58100
H  51.10400 1.01200 49.01700
H  50.50600 4.21400 45.13600
H  51.53400 3.02400 45.64800
H  51.96200 5.90200 45.30100
H  53.13900 4.62900 45.23800
H  52.69800 5.37900 46.82700
H  47.80600 10.14200 47.07500
H  49.12100 8.95100 46.89300
H  48.57100 9.50700 48.52500
H  42.99300 8.44800 46.10600
H  39.68000 9.64900 48.08700
H  40.25400 11.26600 48.10900
H  40.55300 10.20600 49.49400
Mg 54.46500 24.50700 44.64800
C  52.04300 26.77500 43.91400
C  52.57300 21.91100 43.66100
C  57.26400 22.50600 44.73000
C  56.54700 27.22000 45.77600
N  52.62700 24.48200 43.54000
C  51.76700 25.46600 43.43100
C  50.42100 24.89800 42.86500
C  50.51000 23.41900 43.45500
C  52.00400 23.22500 43.56100
C  49.78400 23.09800 44.83700
C  50.55000 24.84700 41.30600
C  49.30800 25.16400 40.55500
H  48.85300 24.34300 39.37200
N  54.87300 22.47000 44.05400
C  53.90800 21.51200 43.77100
C  54.48800 20.23000 43.63300
C  55.88500 20.45700 43.89500
C  56.07400 21.85500 44.23200
C  53.72200 18.98100 43.29400
C  56.99300 19.38500 43.88800
O  56.69000 18.23600 43.49300
C  58.42100 19.57800 44.16200
N  56.60300 24.79400 44.97500
C  57.50500 23.79500 45.11600
C  58.88200 24.21500 45.59200
C  58.70800 25.74900 45.81100
C  57.22000 25.94500 45.42000
C  59.50700 23.49400 46.81000
C  59.65900 26.66100 44.92800
C  60.06100 28.08300 45.42100
N  54.33000 26.59000 44.89800
C  55.22300 27.53300 45.46100
C  54.43900 28.80000 45.54200
C  53.24500 28.61600 44.90600
C  53.21800 27.21200 44.61400
C  55.05300 30.09400 46.09500
C  51.92100 29.12900 44.47800
O  51.50700 30.25200 44.56500
C  51.13800 28.01100 43.74000
C  50.92900 28.44900 42.36600
O  51.65800 28.29900 41.41200
O  49.63000 28.92400 42.25100
C  48.90400 29.09600 40.93900
H  51.83300 21.13800 43.44500
H  58.15700 21.91800 44.95400
H  57.23900 27.95200 46.19900
H  49.58600 25.45200 43.29400
H  50.05300 22.67700 42.80000
H  50.54300 22.52900 45.37500
H  48.97200 22.42500 44.56000
H  49.33200 23.98300 45.28500
H  50.86500 23.85100 40.99500
H  51.29400 25.54500 40.92400
H  49.21600 26.18600 40.18800
H  48.49200 25.22300 41.27600
H  53.89100 18.21200 44.04800
H  53.92300 18.68800 42.26400
H  52.67100 19.26600 43.34600
H  58.82400 20.25100 43.40500
H  58.84300 18.57400 44.12600
H  58.50100 20.00600 45.16100
H  59.43600 23.95300 44.69000
H  58.74900 25.99700 46.87100
H  58.86900 22.65900 47.09800
H  59.37400 24.06600 47.72900
H  60.55000 23.22800 46.63900
H  59.10200 26.78400 44.00000
H  60.58400 26.14300 44.67300
H  59.75500 28.82200 44.68000
H  61.12800 28.07400 45.64700
H  59.41500 28.25500 46.28100
H  54.81800 29.99200 47.15400
H  54.43200 30.87900 45.66200
H  56.09300 30.36800 45.91600
H  50.15100 27.82400 44.16400
H  48.13900 28.32600 40.83700
H  49.50100 29.07100 40.02700
H  48.46200 30.09200 40.90200

