158

Mg 34.81800 3.16500 29.72500
C  32.80500 4.63700 32.22600
C  37.20900 2.71300 32.12400
C  36.88000 2.23000 27.27700
C  32.41400 4.18000 27.38800
N  35.02500 3.70600 31.90100
C  34.00000 4.21800 32.69300
C  34.40700 4.15200 34.17700
C  35.97300 3.80000 34.13600
C  36.09300 3.30500 32.62600
C  36.92900 5.02800 34.36800
C  33.55600 3.21700 35.07900
C  33.11200 3.87100 36.45800
H  33.87200 5.10500 36.95600
N  36.73500 2.52700 29.66500
C  37.57700 2.35900 30.79900
C  38.87500 1.91600 30.39400
C  38.84600 1.83900 28.94700
C  37.44400 2.20200 28.57600
C  39.95100 1.72600 31.37200
C  39.92300 1.31400 27.96500
O  39.74400 1.34600 26.73100
C  41.21300 0.71800 28.50900
N  34.54700 2.98900 27.57700
C  35.56300 2.56900 26.74200
C  35.10100 2.68700 25.24000
C  33.72500 3.27100 25.36800
C  33.51900 3.45000 26.87300
C  36.22000 3.58900 24.55200
C  32.56800 2.54600 24.64100
C  31.87500 1.32000 25.35800
N  32.97100 4.15600 29.69800
C  32.10000 4.47800 28.64600
C  30.84400 5.00900 29.22300
C  31.06200 5.08800 30.66400
C  32.40300 4.61300 30.87000
C  29.69600 5.38000 28.40000
C  30.48600 5.38200 31.93200
O  29.32600 5.68300 32.15400
C  31.66800 5.22100 32.97300
C  31.95200 6.50500 33.64000
O  32.75500 7.35900 33.27600
O  31.12400 6.50000 34.74600
C  31.10300 7.77700 35.45200
H  37.99600 2.58200 32.87000
H  37.58000 1.99300 26.47300
H  31.69700 4.53800 26.64600
H  34.37900 5.20700 34.44700
H  36.29400 3.04100 34.85000
H  36.38100 5.77800 34.93700
H  37.14800 5.43600 33.38100
H  37.88000 4.79100 34.84400
H  34.07500 2.30000 35.36300
H  32.66400 2.77000 34.64000
H  33.07900 3.07600 37.20300
H  32.09300 4.21800 36.28700
H  40.67500 0.97100 31.06500
H  39.53100 1.36400 32.31100
H  40.45000 2.68200 31.52700
H  41.80600 0.19800 27.75700
H  41.03800 -0.06400 29.24700
H  41.79400 1.53100 28.94500
H  35.15200 1.65100 24.90700
H  33.81800 4.23300 24.86200
H  35.81700 4.39100 23.93400
H  36.78500 2.90800 23.91600
H  36.93400 4.02200 25.25300
H  32.88800 2.08200 23.70800
H  31.81400 3.29300 24.39300
H  32.68700 0.59500 25.41900
H  31.12200 0.92100 24.67800
H  31.46600 1.35200 26.36700
H  29.70900 4.83300 27.45700
H  29.79800 6.40500 28.04300
H  28.74600 5.21800 28.90800
H  31.33400 4.50100 33.72000
H  30.53100 8.54600 34.93300
H  32.12300 8.14200 35.56700
H  30.69600 7.62600 36.45200
Mg 55.29700 24.28600 44.51700
C  52.90600 26.55200 43.39700
C  53.43400 21.75000 43.11100
C  58.09100 22.24700 44.64700
C  57.35400 26.90400 45.25100
N  53.47200 24.18200 43.25400
C  52.62700 25.26100 42.98600
C  51.29200 24.72300 42.44900
C  51.36600 23.12500 42.61500
C  52.84000 22.99000 43.07000
C  50.29300 22.37300 43.49600
C  50.94300 25.05900 41.00100
C  49.49500 25.10700 40.49300
H  49.14800 24.96800 39.01500
N  55.68000 22.19800 44.03300
C  54.74300 21.37400 43.42000
C  55.37600 20.01400 43.26300
C  56.74100 20.11200 43.75500
C  56.92900 21.53200 44.17000
C  54.64200 18.85500 42.59400
C  57.81300 18.94800 43.81900
O  57.53000 17.82200 43.42100
C  59.15900 19.17600 44.41800
N  57.33400 24.50500 44.95000
C  58.26200 23.53700 45.05700
C  59.67100 24.08300 45.30500
C  59.41800 25.61000 45.37100
C  57.94100 25.70300 45.18100
C  60.54800 23.38500 46.32800
C  60.11800 26.37900 44.21900
C  61.07100 27.50200 44.67600
N  55.10900 26.29100 44.62500
C  56.00700 27.24800 44.99000
C  55.38700 28.54600 45.09800
C  54.16200 28.30500 44.38900
C  54.02400 26.93000 44.15600
C  56.09400 29.78900 45.59700
C  52.97600 28.97000 43.94800
O  52.63000 30.15000 44.09500
C  52.13800 27.90600 43.12500
C  52.35000 28.30100 41.72700
O  53.34700 28.18100 41.08400
O  51.16600 28.70500 41.15900
C  51.23000 28.73700 39.66900
H  52.81600 20.96400 42.67200
H  59.00700 21.68200 44.83300
H  58.00600 27.69600 45.62500
H  50.57100 25.08100 43.18300
H  51.21800 22.82200 41.57800
H  50.71000 21.86000 44.36200
H  49.62000 21.73800 42.92000
H  49.65200 23.06500 44.04300
H  51.50800 24.39600 40.34600
H  51.37900 26.04200 40.82100
H  49.04600 26.08200 40.68300
H  48.82700 24.46000 41.06200
H  54.78200 17.87100 43.04100
H  55.19300 18.54500 41.70600
H  53.57600 19.06400 42.50000
H  59.66300 19.82600 43.70300
H  59.71400 18.24100 44.50800
H  58.98300 19.62300 45.39600
H  60.19600 23.84700 44.37900
H  59.68200 25.88900 46.39100
H  60.29300 22.35900 46.59500
H  60.53100 24.04700 47.19400
H  61.59100 23.30200 46.02300
H  59.34700 26.91600 43.66700
H  60.68600 25.76100 43.52300
H  61.41200 27.37600 45.70400
H  60.73700 28.50800 44.42400
H  61.92900 27.36000 44.01900
H  55.40800 30.63100 45.50700
H  57.03900 29.99700 45.09500
H  56.33800 29.64100 46.64900
H  51.10300 27.94300 43.46500
H  51.79000 29.58200 39.26900
H  50.20800 28.77000 39.29200
H  51.59100 27.81900 39.20400

