158

Mg 45.56000 5.09500 48.24900
C  43.41700 7.75100 47.46600
C  42.96000 2.89900 47.92600
C  47.84500 2.69900 48.49900
C  48.28100 7.44400 47.87000
N  43.41900 5.27400 47.77400
C  42.75700 6.52000 47.52100
C  41.24800 6.22900 47.40600
C  41.07800 4.74200 47.86600
C  42.57300 4.26500 47.85700
C  40.36100 4.50000 49.24900
C  40.51600 6.56900 46.06400
C  39.49300 7.71600 46.13600
H  38.68700 7.86400 44.85400
N  45.43700 3.00900 48.15000
C  44.24800 2.29200 48.05200
C  44.55100 0.91100 48.28300
C  45.95100 0.79200 48.35900
C  46.49100 2.19700 48.35000
C  43.46900 -0.15300 48.33400
C  46.68200 -0.53800 48.49000
O  46.17600 -1.67500 48.56000
C  48.13600 -0.55500 48.58900
N  47.80200 5.12100 48.01300
C  48.43500 3.96000 48.33900
C  49.96200 4.13200 48.40900
C  50.13500 5.64600 48.19700
C  48.67100 6.14100 48.01800
C  50.43700 3.58500 49.80000
C  51.08000 6.04800 46.96500
C  52.41800 6.72500 47.30200
N  45.84400 7.16000 47.89100
C  46.97100 7.93700 47.82700
C  46.57900 9.27800 47.42200
C  45.21000 9.28100 47.40100
C  44.79000 7.93600 47.60700
C  47.53100 10.43400 47.28200
C  44.00800 10.05700 47.13600
O  43.90000 11.26000 46.88900
C  42.78000 9.09100 47.14900
C  41.89700 9.58500 48.25200
O  41.76000 9.10500 49.38600
O  41.05900 10.54800 47.72100
C  39.98100 11.10900 48.66800
H  42.06900 2.27500 47.83100
H  48.60700 1.93400 48.65800
H  49.20600 8.00000 48.04000
H  40.81700 6.78800 48.23700
H  40.49900 4.19900 47.11800
H  39.91100 5.39000 49.68800
H  41.14200 4.20800 49.95000
H  39.64200 3.68900 49.13200
H  40.16500 5.69300 45.51900
H  41.20400 7.06700 45.38000
H  39.90900 8.67800 46.43500
H  38.71700 7.34700 46.80700
H  43.56100 -0.84700 47.49900
H  42.46400 0.26000 48.42100
H  43.63400 -0.70900 49.25700
H  48.45600 -0.13200 47.63700
H  48.34400 -1.62300 48.52200
H  48.58200 -0.06800 49.45600
H  50.37500 3.50300 47.62000
H  50.56700 6.13100 49.07200
H  50.51300 2.49700 49.77900
H  49.74800 3.81900 50.61100
H  51.39900 4.02500 50.06200
H  50.55200 6.78400 46.35800
H  51.22600 5.19500 46.30200
H  52.64000 6.68100 48.36900
H  52.33900 7.76800 46.99600
H  53.23300 6.20500 46.80000
H  48.32400 10.22400 46.56500
H  47.94100 10.55300 48.28500
H  46.79200 11.19600 47.03400
H  42.24000 9.00200 46.20600
H  39.86000 12.17700 48.49000
H  40.28600 11.01500 49.71000
H  39.02800 10.58100 48.63400
Mg 48.33000 34.74500 27.58400
C  46.42300 33.39000 30.34500
C  49.07200 37.52900 29.77100
C  49.29800 36.52600 24.98100
C  47.22800 32.16100 25.74900
N  47.72000 35.35600 29.78000
C  47.10600 34.55900 30.69600
C  47.24000 35.07500 32.11400
C  47.82700 36.48900 31.85600
C  48.27400 36.48400 30.37400
C  46.88900 37.66100 32.16400
C  48.18800 34.04200 32.84400
C  47.99900 33.91300 34.31600
H  47.60900 35.12300 35.20900
N  49.23600 36.71100 27.49300
C  49.46900 37.68000 28.40200
C  50.23300 38.79300 27.78700
C  50.22800 38.49800 26.41700
C  49.62900 37.23200 26.24200
C  50.77100 39.97700 28.52500
C  50.75800 39.39000 25.24800
O  50.65000 39.04700 24.07400
C  51.45400 40.74700 25.49500
N  48.42400 34.33900 25.61700
C  48.83100 35.21200 24.66100
C  48.56500 34.66000 23.29600
C  48.20200 33.20600 23.61500
C  47.94900 33.20900 25.11700
C  47.57500 35.48300 22.44300
C  49.23300 32.20800 23.07800
C  50.53200 31.99400 23.88300
N  47.14900 33.06500 27.90100
C  46.76600 32.05900 27.08800
C  45.97400 31.05400 27.70000
C  45.73500 31.62100 28.97500
C  46.55300 32.73900 29.07100
C  45.51900 29.81300 27.01900
C  44.93400 31.39200 30.20200
O  44.20200 30.50000 30.53700
C  45.21800 32.65200 31.05300
C  45.59100 32.26000 32.47900
O  46.34400 31.36100 32.88900
O  44.75600 32.95100 33.28000
C  44.51100 32.45100 34.69700
H  49.42300 38.34700 30.40400
H  49.36900 37.08200 24.04400
H  46.92400 31.35800 25.07400
H  46.29900 35.07900 32.66500
H  48.73200 36.63300 32.44700
H  45.94400 37.31800 32.58500
H  46.62800 38.06900 31.18800
H  47.34200 38.47400 32.73100
H  49.21200 34.40500 32.76100
H  48.09600 33.07800 32.34300
H  48.91300 33.49600 34.73900
H  47.25400 33.12200 34.40000
H  51.82700 39.81300 28.74200
H  50.29100 39.93500 29.50200
H  50.58700 41.00300 28.20500
H  50.71200 41.42700 25.91300
H  51.83600 41.15500 24.55900
H  52.29600 40.68800 26.18500
H  49.45600 34.69800 22.66800
H  47.20600 32.99900 23.22400
H  47.01400 36.11700 23.12900
H  46.92700 34.84900 21.83700
H  48.17000 36.07700 21.74800
H  49.52000 32.42800 22.05000
H  48.67400 31.27300 23.04600
H  51.40100 32.06700 23.22900
H  50.49300 31.03200 24.39500
H  50.71700 32.78000 24.61500
H  46.34000 29.44100 26.40700
H  44.63300 30.02600 26.42100
H  45.25100 29.05400 27.75500
H  44.38300 33.34800 30.97100
H  43.43700 32.27000 34.73600
H  44.79100 33.22000 35.41700
H  44.91600 31.46800 34.93700

