158

Mg 34.95800 2.58700 29.36400
C  32.81400 3.50900 31.96700
C  37.53500 2.15000 31.57500
C  36.94800 1.70600 26.74300
C  32.36100 3.40900 26.98200
N  35.11700 2.92700 31.51100
C  34.09000 3.24000 32.46100
C  34.68900 3.33900 33.94700
C  36.18300 3.03500 33.63100
C  36.31900 2.61000 32.16200
C  37.21000 4.22800 33.85300
C  34.03000 2.45300 34.95500
C  33.55400 3.07500 36.27900
H  34.56900 3.83400 37.03000
N  36.96300 1.97700 29.14300
C  37.84900 1.94200 30.14800
C  39.12500 1.48500 29.62800
C  39.02500 1.31100 28.23700
C  37.59000 1.59100 27.99300
C  40.33000 1.09100 30.56300
C  39.99600 0.79500 27.21200
O  39.66000 0.42500 26.10300
C  41.57300 0.57100 27.59100
N  34.69900 2.56800 27.20900
C  35.65300 2.11600 26.35600
C  35.09800 1.97400 24.89300
C  33.59300 2.34500 25.03300
C  33.54600 2.83700 26.48900
C  35.84600 2.80500 23.88700
C  32.68200 1.09400 24.78900
C  31.74200 1.21700 23.58100
N  33.01500 3.33600 29.37100
C  32.06400 3.59900 28.34700
C  30.80900 3.88300 29.01100
C  31.02800 3.88700 30.42000
C  32.39700 3.49400 30.59900
C  29.54300 3.92700 28.34500
C  30.38600 4.09500 31.76400
O  29.24300 4.43000 32.07000
C  31.53400 3.85100 32.82300
C  31.62000 5.06300 33.54600
O  32.33300 6.02800 33.28100
O  30.66700 5.02800 34.50100
C  30.54400 6.29100 35.22200
H  38.38500 1.98200 32.24100
H  37.57700 1.43200 25.89300
H  31.59200 3.68400 26.25800
H  34.56000 4.40200 34.15400
H  36.49300 2.20100 34.26100
H  37.80600 4.33900 32.94700
H  37.87100 4.01000 34.69200
H  36.74700 5.20900 33.96100
H  34.63600 1.56900 35.15300
H  33.08700 2.18200 34.48200
H  33.24100 2.23100 36.89300
H  32.65700 3.68700 36.18400
H  40.38400 0.07600 30.95700
H  40.36200 1.78300 31.40500
H  41.28000 1.33300 30.08700
H  41.66700 -0.14000 28.41300
H  42.11300 1.48500 27.83600
H  42.06700 0.20800 26.69000
H  35.26700 0.89900 24.83500
H  33.36500 3.10200 24.28200
H  36.47900 2.19300 23.24400
H  36.45100 3.58400 24.35100
H  35.26900 3.39100 23.17100
H  31.96100 0.95200 25.59400
H  33.25300 0.18800 24.58500
H  31.93300 0.45200 22.82800
H  31.91100 2.16000 23.06000
H  30.70600 1.10000 23.89700
H  29.37100 4.79700 27.71100
H  28.77100 3.91700 29.11500
H  29.34800 3.04200 27.73900
H  31.20600 3.05900 33.49500
H  30.16600 7.07700 34.56800
H  31.51600 6.68600 35.51800
H  29.95000 6.14000 36.12300
Mg 17.67000 50.84400 25.94500
C  19.39400 49.50500 28.68400
C  15.14500 51.69400 27.97700
C  15.96700 51.74700 23.24500
C  20.01800 49.25300 23.89100
N  17.28800 50.47900 28.04400
C  18.14000 50.01400 29.00500
C  17.66700 50.35400 30.38900
C  16.19100 50.73800 30.08500
C  16.17300 50.99900 28.58200
C  15.12700 49.62700 30.45900
C  18.48100 51.44400 31.20900
C  18.45600 51.34500 32.73200
H  17.53900 50.53300 33.58300
N  15.84300 51.81400 25.66800
C  14.97300 51.99200 26.62300
C  13.90600 52.87400 26.07700
C  14.18300 52.91600 24.67200
C  15.33400 52.05000 24.45700
C  12.77500 53.40300 26.86400
C  13.53100 53.71600 23.54200
O  14.03700 53.84200 22.39700
C  12.44300 54.66400 23.90700
N  18.00900 50.57300 23.80100
C  17.17700 51.08600 22.92100
C  17.51000 50.66100 21.46800
C  18.95100 49.94400 21.68400
C  18.97000 49.90400 23.19300
C  16.42600 49.79900 20.74900
C  20.23300 50.63900 21.06400
C  21.01600 51.59000 21.94500
N  19.49200 49.79900 26.18600
C  20.29500 49.19500 25.23200
C  21.43800 48.57000 25.90900
C  21.15800 48.69600 27.27000
C  19.90800 49.41200 27.32600
C  22.60700 48.00500 25.26400
C  21.63100 48.35500 28.57200
O  22.72200 47.77300 28.90100
C  20.57800 48.97600 29.53900
C  20.13300 47.89700 30.49000
O  19.45100 46.93100 30.16800
O  20.59900 48.27200 31.74500
C  20.30400 47.29800 32.72900
H  14.37600 52.10900 28.63100
H  15.46400 51.93000 22.29300
H  20.64100 48.59100 23.28800
H  17.67900 49.38700 30.89100
H  15.97300 51.65800 30.62700
H  14.23700 49.93800 31.00500
H  15.76600 48.94800 31.02400
H  14.90800 49.09800 29.53200
H  18.10600 52.42900 30.93000
H  19.53900 51.31700 30.97900
H  18.31500 52.41500 32.88900
H  19.51800 51.16400 32.89800
H  12.85900 54.46700 27.08900
H  12.81300 52.87400 27.81600
H  11.82200 53.12800 26.41100
H  12.14600 55.37000 23.13100
H  12.97900 55.37800 24.53400
H  11.56200 54.18300 24.33000
H  17.63000 51.62000 20.96300
H  18.95400 48.91100 21.33600
H  15.68400 49.48600 21.48400
H  16.66300 48.83400 20.29900
H  15.94400 50.37400 19.95800
H  19.97700 51.16300 20.14300
H  20.91100 49.80800 20.86900
H  20.75600 51.55400 23.00300
H  21.11900 52.61600 21.59300
H  22.05400 51.27900 21.82600
H  23.51400 48.32500 25.77700
H  22.85100 48.43700 24.29300
H  22.64700 46.92000 25.35600
H  21.09300 49.77400 30.07400
H  20.97900 46.45500 32.87200
H  19.30500 46.87000 32.64000
H  20.35800 47.73200 33.72800

