158

Mg 25.89000 0.97400 29.14000
C  27.66400 0.64000 32.06000
C  22.93600 1.31400 30.88200
C  24.24200 1.43400 26.19100
C  28.79800 0.20000 27.37900
N  25.36400 0.79400 31.19900
C  26.32600 0.85400 32.24400
C  25.62000 1.05700 33.62000
C  24.10400 0.88200 33.18100
C  24.09500 1.00300 31.65200
C  23.22800 -0.27600 33.70200
C  25.97900 2.46700 34.17900
C  26.95100 2.40700 35.36200
H  26.49700 3.30200 36.51700
N  23.89900 1.24200 28.61700
C  22.88500 1.41200 29.46500
C  21.70800 1.65600 28.72200
C  22.01100 1.93100 27.39300
C  23.45500 1.52200 27.34600
C  20.43000 1.66700 29.44500
C  21.17200 2.39600 26.22500
O  21.58600 2.62500 25.10300
C  19.74300 2.68300 26.50100
N  26.46000 0.70800 27.08600
C  25.59400 1.16100 26.08200
C  26.33300 1.27500 24.74300
C  27.80600 1.05600 25.16700
C  27.71400 0.59900 26.65900
C  25.78100 0.38300 23.64400
C  28.68100 2.39100 24.92500
C  29.20200 2.50300 23.49400
N  27.82500 0.36900 29.56300
C  28.84600 0.01600 28.76400
C  30.02500 -0.31600 29.53300
C  29.60900 -0.05600 30.88200
C  28.24200 0.34800 30.81400
C  31.33400 -0.72200 29.04600
C  30.03600 0.05000 32.23900
O  31.16700 -0.18000 32.69400
C  28.76300 0.45100 33.12900
C  28.45800 -0.63000 34.07300
O  27.78600 -1.66500 33.85400
O  28.93800 -0.26700 35.24000
C  28.60000 -1.13100 36.41300
H  22.07300 1.64400 31.46400
H  23.81400 1.81200 25.26000
H  29.74700 0.19800 26.83800
H  25.94500 0.24100 34.26400
H  23.58800 1.81900 33.39000
H  23.92300 -0.93500 34.22200
H  22.82800 -0.73600 32.79900
H  22.37100 -0.10500 34.35300
H  25.09800 3.02200 34.50100
H  26.35300 3.10000 33.37500
H  27.89400 2.80100 34.98400
H  27.16600 1.40100 35.72200
H  20.12600 2.68100 29.70400
H  20.48200 0.95400 30.26800
H  19.64700 1.24500 28.81500
H  19.18600 1.80100 26.81700
H  19.23900 3.04700 25.60600
H  19.70400 3.51300 27.20700
H  26.27200 2.30600 24.39400
H  28.31500 0.23000 24.67200
H  24.73500 0.14500 23.83800
H  26.25900 -0.55900 23.37300
H  26.01900 0.99200 22.77200
H  29.57200 2.28600 25.54400
H  28.09500 3.25600 25.23600
H  30.27800 2.33400 23.44400
H  28.93400 3.47800 23.08900
H  28.83700 1.71900 22.83100
H  32.10000 -0.02100 29.37700
H  31.41200 -0.60900 27.96500
H  31.54600 -1.76800 29.26700
H  29.13500 1.33200 33.65100
H  28.70700 -2.18000 36.13700
H  27.65700 -0.93900 36.92400
H  29.32900 -0.87900 37.18300
Mg 36.34400 48.99900 24.55300
C  36.40600 47.22100 27.58000
C  35.09500 51.66600 26.30000
C  35.32800 50.46900 21.60200
C  37.15900 46.08900 23.00000
N  35.67200 49.32800 26.70800
C  36.01000 48.55100 27.78900
C  35.77600 49.28100 29.14800
C  35.49300 50.75500 28.66400
C  35.38200 50.59000 27.15000
C  34.22500 51.30700 29.31200
C  36.81800 49.03900 30.30300
C  36.47600 48.65900 31.71100
H  35.06900 48.79800 32.16900
N  35.51200 50.85200 24.00000
C  35.15500 51.85600 24.91700
C  34.66700 52.99600 24.14400
C  34.63700 52.64500 22.76400
C  35.13200 51.25200 22.74300
C  34.15900 54.19800 24.72000
C  34.05200 53.43900 21.54900
O  34.16100 53.11600 20.35300
C  33.66800 54.89400 21.74700
N  36.33000 48.36300 22.53400
C  35.82400 49.16700 21.51100
C  35.89000 48.30800 20.14700
C  36.78400 47.04600 20.56000
C  36.65400 47.10100 22.20500
C  34.53700 47.88700 19.65000
C  38.32600 47.04400 20.13700
C  39.28700 47.79500 21.06700
N  36.86500 47.13600 25.10100
C  37.14800 46.02000 24.34400
C  37.61900 44.95000 25.18600
C  37.26300 45.36000 26.50900
C  36.82300 46.66300 26.34200
C  38.09500 43.58600 24.76300
C  37.23500 44.98900 27.90200
O  37.50800 43.93200 28.43700
C  36.64200 46.10100 28.59800
C  35.31100 45.77500 29.21300
O  34.22900 46.21100 28.85500
O  35.54400 45.08400 30.35800
C  34.41100 44.70000 31.18600
H  34.93900 52.63300 26.78200
H  35.00600 50.86700 20.63800
H  37.54800 45.21200 22.47800
H  34.85500 48.77500 29.44100
H  36.29600 51.43300 28.95300
H  33.86300 50.73900 30.16900
H  33.44200 51.34200 28.55500
H  34.39500 52.27200 29.79000
H  37.20700 50.05600 30.35500
H  37.66600 48.44300 29.96700
H  37.07900 49.25400 32.39700
H  36.75000 47.60400 31.71200
H  34.80700 55.00000 24.36600
H  34.12300 54.11200 25.80600
H  33.13000 54.40200 24.42500
H  33.17500 55.29200 20.86000
H  34.52100 55.47300 22.10100
H  32.86300 55.02200 22.47000
H  36.16800 48.95000 19.31100
H  36.35400 46.10500 20.21700
H  33.88100 47.62200 20.48000
H  34.60200 46.92300 19.14400
H  34.08200 48.54900 18.91400
H  38.43000 47.65000 19.23700
H  38.70500 46.04500 19.92000
H  39.73300 47.16800 21.84000
H  38.90900 48.69700 21.54800
H  40.11200 48.00400 20.38600
H  38.69800 43.56000 23.85500
H  37.20200 43.03600 24.46500
H  38.68200 43.21800 25.60500
H  37.36000 46.33000 29.38600
H  33.99900 43.82600 30.68200
H  33.60600 45.43300 31.13500
H  34.64800 44.67000 32.25000

