158

Mg 50.19700 45.63700 42.24500
C  47.17900 46.44400 40.65800
C  49.92800 42.43700 40.75100
C  53.24700 45.15200 43.24800
C  50.48700 49.17300 43.18200
N  48.70800 44.58600 40.76000
C  47.50000 45.07600 40.41100
C  46.75900 44.02800 39.62600
C  47.67700 42.77200 39.62800
C  48.87600 43.30700 40.38000
C  46.95500 41.54200 40.29600
C  46.44500 44.58900 38.27600
C  45.10900 44.22500 37.73800
H  44.86900 43.21600 36.57600
N  51.40700 43.99600 42.11100
C  51.22300 42.78100 41.49000
C  52.45400 41.92900 41.65600
C  53.32500 42.63700 42.47300
C  52.66600 43.99700 42.63700
C  52.58700 40.52800 41.01300
C  54.59200 42.14200 43.06600
O  55.00000 41.04600 42.84400
C  55.37800 42.90100 44.10100
N  51.68800 46.98700 43.05600
C  52.85000 46.48500 43.38300
C  53.75200 47.58000 43.89400
C  52.88400 48.85000 43.90000
C  51.58000 48.31800 43.28500
C  54.39600 47.30100 45.22300
C  53.46700 50.14400 43.07900
C  52.87600 50.40900 41.64800
N  48.98300 47.37700 42.17000
C  49.24800 48.77700 42.52000
C  48.05700 49.59500 42.21400
C  47.22400 48.64600 41.58100
C  47.86800 47.35700 41.43400
C  47.67800 51.01600 42.54500
C  45.95400 48.61000 40.87700
O  45.12800 49.49800 40.54600
C  45.90200 47.19600 40.34400
C  44.74100 46.51900 41.06700
O  44.79700 45.77400 42.00400
O  43.66800 46.92900 40.38400
C  42.35700 46.47200 40.88200
H  49.93200 41.40000 40.41200
H  54.28100 44.95900 43.54000
H  50.56900 50.17100 43.61900
H  45.84100 43.85000 40.18700
H  47.92700 42.51700 38.59800
H  47.33600 40.63700 39.82300
H  45.87100 41.59200 40.19300
H  47.06500 41.64700 41.37600
H  47.23900 44.37100 37.56200
H  46.35900 45.67600 38.27300
H  44.50800 45.10700 37.51800
H  44.50600 43.76500 38.52100
H  51.87900 39.82300 41.45000
H  53.59900 40.16300 41.18600
H  52.34900 40.59000 39.95100
H  54.70100 43.20900 44.89700
H  56.07800 43.63900 43.70900
H  56.08600 42.22500 44.58100
H  54.64000 47.79300 43.29800
H  52.70400 49.24100 44.90100
H  55.41700 47.68200 45.22600
H  54.43500 46.27400 45.58700
H  53.87000 47.74600 46.06700
H  54.50900 49.88900 42.88100
H  53.55300 51.08000 43.63000
H  52.43500 51.39400 41.80700
H  52.13000 49.71200 41.26600
H  53.63700 50.53200 40.87800
H  46.63500 50.97300 42.86000
H  47.84700 51.57900 41.62800
H  48.24700 51.36100 43.40800
H  45.60700 47.32400 39.30200
H  41.86800 47.12400 41.60600
H  42.40400 45.47800 41.32700
H  41.77900 46.49000 39.95700
Mg -2.04500 34.68900 27.50700
C  -3.72900 33.20800 30.22900
C  -0.72500 36.96600 29.71100
C  -0.80100 36.29700 24.98200
C  -3.80100 32.54400 25.38600
N  -2.38300 35.15300 29.67400
C  -2.89800 34.25600 30.58500
C  -2.71800 34.73300 32.06300
C  -1.89100 36.08400 31.94300
C  -1.63600 36.10700 30.35300
C  -2.65300 37.43500 32.48000
C  -1.99000 33.70500 33.00000
C  -1.42900 34.28200 34.37000
H  -1.59700 33.46400 35.56300
N  -0.94100 36.37000 27.40100
C  -0.41800 37.16900 28.39300
C  0.42500 38.25200 27.81600
C  0.34000 38.03600 26.38200
C  -0.55100 36.83600 26.19300
C  1.01400 39.40100 28.69900
C  1.00300 38.91000 25.24400
O  0.97200 38.70600 24.05600
C  1.77400 40.15800 25.55600
N  -2.30100 34.47300 25.43500
C  -1.57500 35.18300 24.59500
C  -1.76000 34.71400 23.14800
C  -2.67000 33.44600 23.30100
C  -2.83700 33.40800 24.81200
C  -2.21600 35.80400 22.18400
C  -1.87400 32.07800 22.89600
C  -2.67200 30.97600 22.28400
N  -3.54000 33.20300 27.74500
C  -4.15600 32.42700 26.77100
C  -5.03600 31.46100 27.36400
C  -4.90300 31.71200 28.77900
C  -4.03500 32.81000 28.87300
C  -5.81000 30.48400 26.72700
C  -5.29800 31.28000 30.06300
O  -5.98500 30.34900 30.47200
C  -4.45400 32.18600 31.07200
C  -5.34900 32.71800 32.08500
O  -6.18300 33.57000 31.83700
O  -5.22000 32.01400 33.22100
C  -6.30100 32.00800 34.13000
H  -0.10000 37.58100 30.36300
H  -0.40200 36.88100 24.15100
H  -4.34200 31.86500 24.72400
H  -3.70200 34.79500 32.52700
H  -0.94400 36.05300 32.48200
H  -2.15200 37.71600 33.40600
H  -3.69600 37.22600 32.71700
H  -2.57000 38.26900 31.78300
H  -1.11700 33.30600 32.48300
H  -2.55300 32.79100 33.19100
H  -1.81700 35.24800 34.69400
H  -0.36300 34.47600 34.24900
H  2.06000 39.13300 28.84900
H  0.46800 39.36800 29.64200
H  0.89200 40.35700 28.19100
H  1.09500 40.86600 26.03100
H  2.13600 40.66800 24.66400
H  2.61600 39.85000 26.17600
H  -0.76100 34.39500 22.85300
H  -3.63700 33.55300 22.80800
H  -2.20900 36.79000 22.64900
H  -3.14900 35.56900 21.67000
H  -1.42000 35.81700 21.44000
H  -1.25400 31.69700 23.70700
H  -1.12000 32.25000 22.12800
H  -3.71600 31.28200 22.21300
H  -2.45700 30.10100 22.89800
H  -2.32000 30.70400 21.28900
H  -5.82300 29.60600 27.37300
H  -5.36300 30.24400 25.76300
H  -6.80900 30.81900 26.44700
H  -3.72900 31.54000 31.56700
H  -5.99400 32.63900 34.96400
H  -6.56100 31.01200 34.48900
H  -7.15600 32.51000 33.67700

