158

Mg 47.09500 34.86800 28.28700
C  45.27200 32.94500 30.56300
C  47.43700 37.27800 30.73600
C  48.41300 37.05500 25.97200
C  46.20300 32.69100 25.70700
N  46.49400 34.95900 30.45100
C  45.75600 34.09100 31.17100
C  45.83300 34.60400 32.62300
C  46.02900 36.17100 32.46700
C  46.68400 36.16700 31.13600
C  44.63000 36.93600 32.46000
C  47.12400 34.02400 33.37500
C  47.01300 34.02300 34.94900
H  46.07600 35.03900 35.63400
N  47.91100 36.86100 28.32700
C  47.97400 37.68400 29.44400
C  48.76700 38.83300 29.12600
C  49.05000 38.79500 27.75100
C  48.52900 37.49400 27.26400
C  49.10600 39.89300 30.09900
C  49.70000 39.83500 26.91100
O  50.03300 39.57700 25.75600
C  50.06900 41.22200 27.35200
N  47.20700 34.86300 26.19100
C  47.76100 35.90000 25.48200
C  47.57200 35.71500 24.06200
C  47.05500 34.23500 23.90700
C  46.83500 33.87100 25.38400
C  46.60100 36.83800 23.48000
C  48.00200 33.23400 23.14600
C  49.32200 33.00300 23.80800
N  46.10100 33.11900 28.15300
C  45.83600 32.32900 27.03100
C  44.99000 31.23300 27.47800
C  44.75300 31.42600 28.86800
C  45.44300 32.63000 29.20300
C  44.31100 30.12000 26.63000
C  44.08800 30.94300 30.04000
O  43.31500 29.99000 30.26600
C  44.27100 31.96100 31.11500
C  44.37900 31.51100 32.53400
O  45.09500 30.60600 32.88900
O  43.35800 32.05100 33.27000
C  43.08200 31.63200 34.58100
H  47.55200 37.97600 31.56800
H  48.94500 37.65100 25.22700
H  45.93400 32.05400 24.86300
H  44.91900 34.26900 33.11300
H  46.77300 36.50800 33.18900
H  44.58700 37.51900 31.54100
H  44.71400 37.62600 33.30000
H  43.86500 36.16300 32.54100
H  47.98800 34.66100 33.18300
H  47.30900 33.01200 33.01500
H  48.01800 34.27400 35.28600
H  46.84700 33.02900 35.36400
H  48.36700 40.69300 30.06300
H  50.07800 40.35700 29.93500
H  49.15400 39.51600 31.12100
H  49.32200 41.60000 28.05000
H  50.18200 42.03300 26.63200
H  51.00500 41.17100 27.90700
H  48.47000 35.89600 23.47100
H  46.04600 34.18300 23.49800
H  46.24200 37.42400 24.32600
H  45.64500 36.52000 23.06500
H  47.02300 37.54300 22.76400
H  48.21700 33.62700 22.15200
H  47.45200 32.29600 23.08100
H  49.67500 33.85200 24.39400
H  50.06400 32.88700 23.01800
H  49.27200 32.14700 24.48100
H  43.38300 30.57900 26.28800
H  44.05500 29.25100 27.23600
H  44.94800 29.95500 25.76000
H  43.27100 32.39200 31.12900
H  43.63000 30.73600 34.87600
H  42.03700 31.50100 34.86300
H  43.29000 32.45000 35.27000
Mg 30.59000 60.16600 39.12600
C  27.73200 58.41700 38.07600
C  32.48700 57.37800 38.40600
C  33.41800 62.01900 39.50100
C  28.57800 63.01800 39.36500
N  30.16200 58.13900 38.19400
C  28.94000 57.70400 37.85700
C  29.12500 56.30700 37.32400
C  30.52200 55.91700 37.82700
C  31.10700 57.25600 38.10900
C  30.72800 54.94800 39.06000
C  28.96900 56.14200 35.67800
C  28.42600 54.84200 35.10700
H  27.08200 55.13200 34.40000
N  32.70400 59.70100 38.98000
C  33.26200 58.49200 38.78700
C  34.67500 58.52900 39.03500
C  35.01500 59.95500 39.22500
C  33.70700 60.63400 39.22900
C  35.60200 57.30300 38.87200
C  36.40100 60.51600 39.50100
O  37.36400 59.73400 39.51500
C  36.71200 62.01700 39.87000
N  30.99400 62.20500 39.33100
C  32.24700 62.76300 39.54500
C  32.20600 64.30600 39.77500
C  30.65400 64.50900 39.83100
C  30.00200 63.19400 39.45500
C  32.99300 64.97600 40.96800
C  30.16400 65.77300 39.09400
C  29.19300 66.68000 39.88500
N  28.53600 60.62500 38.99900
C  27.88100 61.79900 39.19400
C  26.48700 61.66300 38.96100
C  26.38100 60.37300 38.52600
C  27.64400 59.78700 38.54700
C  25.36900 62.59900 38.96700
C  25.46300 59.33000 38.10800
O  24.26800 59.34300 37.89800
C  26.30600 58.07200 37.76600
C  25.79500 56.89400 38.55600
O  25.40000 56.87600 39.72100
O  25.68400 55.84700 37.72900
C  25.35100 54.52200 38.22900
H  33.00800 56.44000 38.20400
H  34.23600 62.70400 39.73500
H  27.97900 63.92700 39.45300
H  28.35200 55.67600 37.76300
H  31.01800 55.43800 36.98200
H  31.56500 54.26500 38.92000
H  29.86900 54.27900 39.11300
H  30.88800 55.50500 39.98400
H  29.93300 56.34600 35.21100
H  28.37200 56.96900 35.29400
H  28.09500 54.14900 35.88000
H  29.12100 54.30700 34.45900
H  35.13000 56.56100 38.22700
H  35.75900 56.85900 39.85500
H  36.55600 57.60500 38.44200
H  37.78000 62.05400 40.08500
H  36.18700 62.23100 40.80100
H  36.41000 62.72300 39.09700
H  32.57200 64.68100 38.81900
H  30.45500 64.48600 40.90200
H  33.67800 64.26700 41.43300
H  32.39200 65.43400 41.75400
H  33.73300 65.68700 40.60100
H  29.48700 65.50700 38.28200
H  30.95100 66.40000 38.67600
H  28.68600 66.07300 40.63400
H  28.42100 67.09200 39.23400
H  29.60800 67.60800 40.28000
H  24.39900 62.10300 39.01300
H  25.42600 63.09000 37.99500
H  25.48900 63.27300 39.81400
H  26.20400 57.83600 36.70700
H  25.25000 53.85300 37.37500
H  24.38900 54.51100 38.74300
H  26.02100 54.06500 38.95700

