158

Mg 46.43100 44.52900 43.32900
C  42.99100 43.66900 42.98200
C  47.26900 41.40900 42.23800
C  49.54100 45.55500 42.88400
C  45.38300 47.94500 43.87200
N  45.20600 42.76400 43.00600
C  43.88000 42.68100 42.80700
C  43.52600 41.27700 42.26600
C  44.87700 40.50400 42.36400
C  45.89200 41.56700 42.56400
C  44.95900 39.34800 43.34100
C  42.79700 41.28000 40.96300
C  43.38800 42.10800 39.77600
H  43.20500 41.39200 38.39000
N  48.13200 43.54900 42.72300
C  48.30600 42.28500 42.30000
C  49.67800 42.03000 42.06900
C  50.38700 43.24900 42.24600
C  49.38600 44.21900 42.63000
C  50.24800 40.65600 41.77500
C  51.95900 43.41800 42.05600
O  52.66800 42.51400 41.70100
C  52.59800 44.75900 42.24600
N  47.28000 46.51800 43.11200
C  48.68100 46.57700 43.12400
C  49.09400 47.98900 43.65700
C  47.72500 48.79300 43.84600
C  46.71300 47.71900 43.65200
C  50.06500 48.18100 44.79400
C  47.49300 49.87400 42.79400
C  47.47300 51.34800 43.34400
N  44.55100 45.58100 43.53200
C  44.34200 46.95200 43.69300
C  42.91100 47.17000 43.86400
C  42.28400 45.93600 43.54400
C  43.36100 44.99600 43.36600
C  42.20600 48.48100 43.98500
C  41.01400 45.29300 43.21900
O  39.89600 45.80500 43.18200
C  41.49800 43.81200 42.88500
C  40.83400 42.95600 43.98200
O  39.99300 42.10800 43.67900
O  41.53100 42.97100 45.21700
C  41.32100 41.91600 46.23400
H  47.52600 40.40900 41.88300
H  50.56900 45.85400 43.10000
H  45.15300 48.98300 44.12000
H  42.95900 40.71800 43.01100
H  45.06300 39.99000 41.42100
H  44.13200 39.38000 44.05100
H  45.85800 39.43000 43.95200
H  44.94900 38.35200 42.89800
H  41.77000 41.57900 41.17500
H  42.77400 40.20900 40.76100
H  44.47000 42.21300 39.85000
H  42.91800 43.09100 39.76500
H  49.44700 39.98200 42.08100
H  51.28600 40.53600 42.08500
H  50.13600 40.57000 40.69400
H  52.08300 45.51400 41.65200
H  53.64300 44.81200 41.94000
H  52.57400 45.05600 43.29500
H  49.60900 48.39300 42.78500
H  47.70800 49.22400 44.84700
H  50.49000 47.22900 45.11200
H  49.58100 48.59900 45.67700
H  50.87700 48.87800 44.58700
H  46.49300 49.71600 42.39000
H  48.31300 49.74800 42.08700
H  48.30200 51.68500 43.96700
H  46.44200 51.49800 43.66400
H  47.62500 51.96500 42.45900
H  41.65900 48.34300 44.91700
H  41.34300 48.50100 43.32000
H  42.86400 49.34800 43.92100
H  41.09700 43.64600 41.88500
H  40.37400 41.95400 46.77300
H  42.18500 41.96600 46.89700
H  41.37800 41.06100 45.56100
Mg 30.28100 59.97000 39.30100
C  27.23900 58.35400 38.04900
C  32.01900 57.25400 38.21400
C  33.14600 61.66000 39.75000
C  28.25700 62.79200 39.76600
N  29.67500 58.10300 37.98800
C  28.42400 57.61900 37.78600
C  28.58600 56.31800 37.02100
C  29.94500 55.82000 37.51700
C  30.60700 57.12200 37.95400
C  30.02300 54.70600 38.64600
C  28.29200 56.53400 35.47900
C  27.14200 55.74900 34.78400
H  26.25400 56.41700 33.81600
N  32.33600 59.50600 39.04200
C  32.80300 58.32700 38.65200
C  34.19600 58.37400 38.65800
C  34.62000 59.61000 39.15900
C  33.38300 60.33800 39.38000
C  35.09000 57.30800 38.02700
C  36.03800 60.05500 39.39900
O  36.94100 59.33900 39.06000
C  36.32200 61.27000 40.13500
N  30.63400 61.93000 39.62000
C  31.86800 62.37700 39.83400
C  31.80100 63.94600 39.82100
C  30.29600 64.21200 40.19600
C  29.66000 62.88500 39.88000
C  32.81500 64.68200 40.79900
C  29.68600 65.42800 39.47000
C  28.83600 66.39900 40.43200
N  28.13000 60.52100 39.05300
C  27.51600 61.70100 39.33800
C  26.05300 61.56400 39.16000
C  25.88100 60.18700 38.67600
C  27.18100 59.64400 38.64800
C  24.90300 62.60000 39.22000
C  24.89800 59.24900 38.21000
O  23.66700 59.33300 38.11200
C  25.80600 57.94600 37.84000
C  25.26700 56.83500 38.58200
O  25.72300 56.43600 39.67300
O  24.18600 56.32200 37.93400
C  23.49400 55.22500 38.61000
H  32.55600 56.37900 37.84100
H  33.98900 62.35400 39.73300
H  27.68000 63.70900 39.89700
H  27.94000 55.51600 37.38000
H  30.53700 55.44700 36.68100
H  30.79800 55.03100 39.34000
H  30.39300 53.76300 38.24300
H  29.12500 54.66900 39.26400
H  29.17500 56.26400 34.89800
H  28.02800 57.59000 35.43100
H  26.44400 55.26500 35.46800
H  27.59400 54.86500 34.33400
H  34.57400 56.68600 37.29500
H  35.59900 56.79500 38.84300
H  35.92500 57.72200 37.46100
H  37.25900 61.24300 40.69100
H  35.57000 61.27700 40.92400
H  36.27600 62.19700 39.56300
H  32.05600 64.38100 38.85400
H  30.22000 64.30300 41.28000
H  33.50800 64.01900 41.31700
H  32.24000 65.17300 41.58300
H  33.32800 65.44700 40.21600
H  29.04100 65.11200 38.65100
H  30.55800 66.03400 39.22500
H  28.74700 66.01600 41.44900
H  27.83900 66.59900 40.03800
H  29.45400 67.24400 40.73400
H  24.02700 62.11700 38.78800
H  25.27600 63.51400 38.75700
H  24.75000 62.78000 40.28400
H  25.66100 57.69300 36.78900
H  23.99800 54.32300 38.26500
H  22.44500 55.19000 38.31500
H  23.62000 55.30400 39.69000

