158

Mg 55.82900 22.63100 44.87900
C  53.73200 25.15700 43.90500
C  53.61200 20.34600 43.78300
C  58.44400 20.34200 44.59400
C  58.30000 24.96500 45.47100
N  53.95500 22.77500 43.87500
C  53.20200 23.84900 43.61400
C  51.69700 23.47500 43.28800
C  51.63800 21.96400 43.60100
C  53.15900 21.69400 43.79000
C  50.75500 21.44300 44.81400
C  51.06700 23.89200 41.89000
C  49.77100 24.67300 42.07400
H  48.83200 24.57100 40.88100
N  56.00900 20.53400 44.45800
C  54.95200 19.80600 43.88400
C  55.41600 18.43800 43.77600
C  56.77100 18.38700 44.03200
C  57.12100 19.73900 44.43400
C  54.53100 17.35800 43.40700
C  57.71900 17.16800 43.91100
O  57.35400 16.08300 43.40500
C  59.18000 17.18600 44.34800
N  58.11500 22.66300 44.99600
C  58.89700 21.58100 44.91200
C  60.37000 21.90300 45.12500
C  60.27800 23.45700 45.23900
C  58.81200 23.71200 45.26500
C  61.03800 21.26200 46.40400
C  61.06100 24.20400 44.12200
C  62.16500 25.19600 44.64200
N  55.94800 24.64400 44.90200
C  57.01100 25.42500 45.20000
C  56.58400 26.79800 45.30900
C  55.23900 26.81800 44.79300
C  54.95600 25.40100 44.56200
C  57.35300 27.97300 45.82900
C  54.06400 27.55300 44.40300
O  53.78300 28.77500 44.51900
C  53.12000 26.53600 43.69100
C  53.11200 26.95800 42.26300
O  54.01500 26.68100 41.44000
O  51.88100 27.56200 41.95200
C  51.78700 27.75900 40.58100
H  52.83700 19.58500 43.67700
H  59.25000 19.60600 44.55100
H  58.95900 25.79600 45.73200
H  51.16700 24.00700 44.07800
H  51.18000 21.45100 42.75600
H  50.05900 22.22900 45.11100
H  51.34500 21.16600 45.68700
H  50.20500 20.64700 44.31300
H  50.92800 22.99900 41.28100
H  51.74600 24.55800 41.35700
H  50.05000 25.69400 42.33600
H  49.25000 24.23100 42.92200
H  54.73600 16.81100 42.48700
H  53.48600 17.62200 43.24400
H  54.54900 16.58700 44.17800
H  59.81100 17.65800 43.59500
H  59.44500 16.14500 44.53100
H  59.28500 17.68700 45.31000
H  60.92500 21.59200 44.24000
H  60.69500 23.78800 46.19000
H  61.91100 20.64800 46.18600
H  60.23300 20.63200 46.78200
H  61.35400 22.08700 47.04300
H  60.31000 24.70800 43.51400
H  61.46700 23.47600 43.42000
H  62.38600 25.07200 45.70200
H  61.91600 26.21600 44.35100
H  63.11100 24.97800 44.14600
H  56.68200 28.56900 46.44700
H  57.61200 28.64200 45.00900
H  58.24500 27.67000 46.37700
H  52.13600 26.70600 44.12800
H  50.92500 28.39000 40.36500
H  51.71700 26.84100 39.99700
H  52.65500 28.25200 40.14500
Mg 29.95800 58.48900 41.68700
C  27.14800 56.80700 40.19800
C  31.96800 56.46700 39.82800
C  32.45100 60.60800 42.20500
C  27.70700 60.88800 42.91000
N  29.49900 56.81100 40.17300
C  28.38000 56.33700 39.62300
C  28.62700 55.12500 38.70200
C  30.19700 54.99700 38.69700
C  30.58100 56.19400 39.61900
C  30.73400 53.67400 39.23500
C  27.96800 55.30600 37.32000
C  28.64300 54.54900 36.12800
H  27.74400 54.35200 34.94700
N  31.93600 58.46300 41.27200
C  32.58000 57.48100 40.53200
C  34.00300 57.74400 40.45300
C  34.20600 58.91400 41.26600
C  32.84000 59.36900 41.61900
C  35.04400 56.98800 39.63800
C  35.52700 59.53100 41.69800
O  36.55100 59.02400 41.22700
C  35.63000 60.65200 42.71900
N  30.07000 60.55200 42.46400
C  31.22500 61.13500 42.63500
C  31.02500 62.54700 43.21800
C  29.47000 62.73800 43.24800
C  29.03700 61.30600 42.88100
C  31.73100 62.75500 44.55200
C  28.92800 63.76200 42.20700
C  27.43600 64.08700 42.41300
N  27.91600 58.75700 41.72200
C  27.10400 59.73000 42.27000
C  25.71300 59.39500 42.11700
C  25.73300 58.24200 41.27500
C  27.06700 57.90800 41.05500
C  24.43400 60.08000 42.58800
C  24.82400 57.25600 40.65500
O  23.59400 57.24600 40.67700
C  25.65000 56.35900 39.86600
C  25.51800 54.94900 40.40400
O  25.75700 54.45800 41.50700
O  25.03100 54.17400 39.33800
C  24.71800 52.78200 39.65900
H  32.57700 55.69500 39.35400
H  33.29900 61.27300 42.38200
H  27.01900 61.63700 43.30800
H  28.22400 54.20800 39.13200
H  30.67700 55.11900 37.72600
H  29.90900 52.97100 39.35100
H  31.12300 53.81100 40.24400
H  31.52400 53.37400 38.54700
H  27.94100 56.35700 37.03400
H  26.91700 55.02500 37.39600
H  28.96400 53.57600 36.49900
H  29.53900 55.10700 35.85600
H  35.28500 57.67700 38.82800
H  34.62700 56.13800 39.09900
H  35.87400 56.73400 40.29800
H  36.69200 60.65700 42.96400
H  34.94200 60.44200 43.53800
H  35.27300 61.57600 42.26400
H  31.52500 63.17700 42.48200
H  29.16000 62.96400 44.26900
H  32.45800 63.56400 44.48100
H  32.22400 61.81400 44.79200
H  31.05900 62.94500 45.38900
H  29.01900 63.13900 41.31700
H  29.48200 64.69300 42.08400
H  26.80100 63.39900 41.85500
H  27.11900 65.07700 42.08600
H  27.18200 63.91600 43.45900
H  24.63200 61.14300 42.45300
H  24.55600 59.82200 43.64000
H  23.50700 59.73200 42.13300
H  25.41100 56.51700 38.81500
H  25.58000 52.11500 39.67900
H  24.20500 52.36400 38.79300
H  24.17100 52.62600 40.58900

