158

Mg 25.37700 1.50300 29.21000
C  27.30000 0.90300 32.23000
C  22.67500 1.27500 31.20000
C  23.55700 1.69300 26.38100
C  28.26900 0.93100 27.39300
N  25.04900 0.99300 31.58200
C  25.95700 0.91900 32.56700
C  25.15800 1.06300 33.92800
C  23.76700 0.67400 33.49400
C  23.79900 1.04900 32.02000
C  23.50000 -0.84500 33.72500
C  25.27700 2.50100 34.58300
C  26.12500 2.45600 35.89200
H  25.70400 3.45900 36.90800
N  23.43700 1.71100 28.85800
C  22.46900 1.58000 29.81700
C  21.13000 1.81300 29.11100
C  21.34500 1.91100 27.71000
C  22.84000 1.81300 27.62500
C  19.82600 1.92000 29.82300
C  20.37600 1.96000 26.51200
O  20.76900 2.21600 25.34400
C  18.95700 1.82700 26.73500
N  25.83600 1.29600 27.25900
C  24.94400 1.47300 26.23300
C  25.57300 1.36600 24.82700
C  27.11100 1.30600 25.16800
C  27.10100 1.16100 26.66100
C  25.06500 0.08200 24.02300
C  27.88600 2.58400 24.76200
C  27.24800 4.00200 24.83900
N  27.35300 1.08700 29.64200
C  28.47900 0.96600 28.82500
C  29.65400 0.76400 29.54300
C  29.25900 0.80800 30.90000
C  27.81200 0.88500 30.89500
C  31.08200 0.50400 29.09500
C  29.77400 0.82100 32.25100
O  30.89200 0.71000 32.63700
C  28.55700 0.92400 33.18300
C  28.52900 -0.11100 34.22200
O  27.83400 -1.15400 34.18300
O  29.29300 0.26500 35.34700
C  29.34200 -0.68900 36.41400
H  21.68500 1.35700 31.65100
H  22.98400 1.78700 25.45600
H  29.20200 0.72300 26.86400
H  25.47300 0.34300 34.68300
H  23.08000 1.29300 34.07000
H  22.64700 -0.85400 34.40300
H  24.30700 -1.32300 34.28100
H  23.15000 -1.33800 32.81800
H  24.29500 2.79300 34.95500
H  25.61000 3.19700 33.81400
H  27.08500 2.77400 35.48700
H  26.30000 1.44200 36.25200
H  19.43500 2.88400 29.49700
H  19.85200 1.89800 30.91200
H  19.08500 1.18800 29.50200
H  18.55400 2.33800 27.60900
H  18.86200 0.74300 26.79000
H  18.45100 2.19000 25.84100
H  25.44000 2.25100 24.20500
H  27.58200 0.40500 24.77300
H  24.03300 -0.18800 24.24600
H  25.64700 -0.79000 24.32100
H  25.25100 0.22700 22.95900
H  28.24000 2.29600 23.77300
H  28.84300 2.58700 25.28300
H  27.98600 4.76900 25.07600
H  26.56700 4.01000 25.69100
H  26.79400 4.24900 23.88000
H  31.27000 -0.56200 28.96300
H  31.62500 0.94400 29.93100
H  31.30600 1.06400 28.18700
H  28.55000 1.89200 33.68400
H  30.26700 -0.62100 36.98600
H  29.26400 -1.73300 36.10900
H  28.57300 -0.49100 37.16000
Mg -11.81100 17.07900 43.00600
C  -9.04000 15.00500 42.40900
C  -9.90400 19.76600 42.02200
C  -14.70400 18.71700 42.47300
C  -13.61500 14.06600 43.72900
N  -9.78300 17.27200 42.19700
C  -8.78000 16.34300 42.10800
C  -7.46600 16.96900 41.64700
C  -7.74100 18.47000 42.16900
C  -9.25700 18.56300 42.17200
C  -7.15000 18.88600 43.52600
C  -7.15300 16.96100 40.13900
C  -5.65600 16.84400 39.72800
H  -5.27300 15.58100 38.98900
N  -12.26800 18.97300 42.24400
C  -11.29000 19.94600 41.89500
C  -12.00400 21.12100 41.58300
C  -13.42000 20.88200 41.67900
C  -13.54500 19.48000 42.24100
C  -11.17300 22.34600 41.14000
C  -14.48500 22.00300 41.43000
O  -14.20400 23.12300 41.00300
C  -15.95000 21.80200 41.88700
N  -13.85200 16.45800 43.03000
C  -14.85400 17.40100 42.92900
C  -16.20800 16.79000 43.19600
C  -15.76800 15.36300 43.75300
C  -14.29100 15.26400 43.56100
C  -17.24300 17.50500 44.06800
C  -16.56200 14.23500 42.89600
C  -17.77800 13.73000 43.74000
N  -11.48300 14.96200 43.20100
C  -12.28800 13.89100 43.51600
C  -11.51500 12.67700 43.56600
C  -10.18200 13.06400 43.19600
C  -10.26900 14.43900 42.89600
C  -12.12300 11.36800 43.75800
C  -8.88500 12.54500 42.96200
O  -8.44400 11.41300 42.96000
C  -8.16600 13.77400 42.22900
C  -6.89600 13.92500 42.98300
O  -6.87000 14.26900 44.13100
O  -5.74600 13.60200 42.25600
C  -4.58900 14.19600 42.87300
H  -9.34300 20.69700 41.92300
H  -15.61200 19.29400 42.28400
H  -14.24500 13.18100 43.83800
H  -6.65600 16.64600 42.30000
H  -7.35100 19.12300 41.38900
H  -7.03100 18.01700 44.17300
H  -7.72700 19.63100 44.07300
H  -6.11800 19.23100 43.45600
H  -7.57800 17.76700 39.54200
H  -7.68600 16.07400 39.79500
H  -5.08000 16.68900 40.64100
H  -5.27300 17.72700 39.21600
H  -11.64000 23.32300 41.26500
H  -10.73900 22.12300 40.16600
H  -10.35200 22.39700 41.85600
H  -16.02000 21.45000 42.91700
H  -16.54600 21.21700 41.18700
H  -16.50600 22.71100 42.11700
H  -16.68700 16.66500 42.22500
H  -15.82900 15.25800 44.83700
H  -17.46300 16.80200 44.87100
H  -18.14700 17.76600 43.51600
H  -16.86800 18.49100 44.34000
H  -15.95100 13.40600 42.53900
H  -16.94900 14.57200 41.93400
H  -17.71900 12.68300 44.03600
H  -18.70100 13.79800 43.16500
H  -17.91600 14.30100 44.65800
H  -12.52300 10.95800 42.83100
H  -12.92400 11.32300 44.49600
H  -11.29600 10.72700 44.06500
H  -7.97500 13.43700 41.21000
H  -4.23000 13.46100 43.59400
H  -4.69300 15.16600 43.35900
H  -3.81400 14.31500 42.11500

