158

Mg 24.39700 -5.08700 45.73500
C  26.92100 -2.92600 44.70200
C  22.24700 -3.57500 43.53700
C  22.18100 -7.65400 46.23800
C  26.85100 -6.97900 47.34100
N  24.63200 -3.65100 44.04900
C  25.76300 -2.86400 43.91700
C  25.50000 -1.85000 42.79300
C  23.99900 -1.72600 42.76200
C  23.54500 -3.03000 43.42900
C  23.55900 -0.47200 43.52300
C  26.04700 -2.32200 41.44200
C  26.21800 -1.30200 40.45600
H  25.50400 -1.50100 39.07200
N  22.41200 -5.50300 45.10800
C  21.73100 -4.72700 44.22200
C  20.39100 -5.21900 44.01800
C  20.38300 -6.49000 44.72100
C  21.65600 -6.60900 45.48800
C  19.34100 -4.45000 43.30200
C  19.24200 -7.39400 44.56200
O  18.21000 -7.13100 44.04100
C  19.30500 -8.76900 45.19700
N  24.54800 -7.09400 46.62400
C  23.48900 -7.90500 46.78800
C  23.85200 -9.25800 47.40700
C  25.32500 -9.07900 47.82800
C  25.60300 -7.61100 47.20700
C  22.87700 -9.72000 48.60300
C  26.27900 -10.14300 47.14800
C  27.51900 -10.49300 47.95700
N  26.39300 -4.87100 46.20200
C  27.26800 -5.67500 46.96700
C  28.48200 -4.95500 47.15000
C  28.41000 -3.91300 46.21600
C  27.12300 -3.88700 45.68200
C  29.51700 -5.53600 48.05300
C  29.11900 -2.74200 45.59500
O  30.24800 -2.32500 45.82400
C  28.17800 -2.12700 44.52600
C  27.90300 -0.68300 44.84700
O  27.46400 -0.22400 45.88500
O  28.34700 0.11700 43.84200
C  28.06800 1.53700 43.93600
H  21.67100 -2.83600 42.97600
H  21.47200 -8.45700 46.45000
H  27.62200 -7.57400 47.83500
H  26.03400 -0.93300 43.03900
H  23.68400 -1.60300 41.72600
H  22.81100 0.15700 43.04000
H  24.39300 0.20200 43.71900
H  23.04800 -0.75400 44.44300
H  25.36700 -3.06400 41.02400
H  26.96000 -2.85800 41.70200
H  27.26400 -1.32100 40.15300
H  26.08900 -0.28100 40.81800
H  18.84700 -5.06000 42.54600
H  19.89000 -3.76100 42.66000
H  18.64300 -3.85000 43.88700
H  19.27100 -8.66900 46.28200
H  20.25700 -9.22600 44.92700
H  18.59200 -9.51400 44.84500
H  23.70700 -10.03900 46.66100
H  25.53600 -8.94700 48.89000
H  21.98700 -9.09300 48.54200
H  23.41900 -9.66500 49.54700
H  22.75400 -10.80200 48.65600
H  26.59800 -9.76600 46.17600
H  25.80300 -11.10100 46.94000
H  28.17200 -11.10700 47.33700
H  27.17900 -11.17000 48.74100
H  27.95600 -9.70700 48.57300
H  30.32900 -4.85400 48.30700
H  29.98400 -6.41200 47.60200
H  29.10000 -5.76700 49.03300
H  28.70400 -2.18900 43.57400
H  28.94900 2.01000 44.37100
H  27.29500 1.79900 44.65700
H  27.70800 1.78800 42.93800
Mg 41.23000 8.64200 29.92300
C  43.07000 9.66100 32.64600
C  39.01300 7.16500 31.99800
C  39.69100 7.24300 27.25800
C  43.85000 9.54600 27.94500
N  41.13600 8.38200 32.09900
C  41.93400 8.90700 33.03300
C  41.34500 8.70100 34.51000
C  40.29200 7.58500 34.20900
C  40.10200 7.74000 32.65600
C  40.53300 6.05300 34.60100
C  40.75500 10.01000 35.21000
C  40.72000 10.04300 36.82000
H  41.27000 11.31300 37.48600
N  39.58800 7.41900 29.68900
C  38.75900 6.95100 30.65800
C  37.64000 6.26300 30.13600
C  37.73500 6.39000 28.72300
C  39.03700 7.07100 28.48300
C  36.68800 5.41600 30.94700
C  36.71600 6.14900 27.62200
O  36.87200 6.44800 26.43900
C  35.31700 5.75600 28.06500
N  41.77600 8.38200 28.00300
C  40.97200 7.80900 27.11600
C  41.44900 7.96100 25.65600
C  42.82500 8.67900 25.81600
C  42.81900 8.94900 27.31300
C  41.58700 6.58500 24.92100
C  43.02600 9.89500 24.95600
C  42.55400 11.28100 25.39100
N  43.01300 9.57100 30.18100
C  43.97600 9.94600 29.25800
C  44.99800 10.75000 29.87400
C  44.69500 10.67200 31.27400
C  43.47300 9.95300 31.35000
C  46.16900 11.46100 29.22800
C  45.15400 11.04900 32.56900
O  46.12300 11.71300 32.87400
C  44.04700 10.47300 33.53200
C  44.85400 9.58100 34.46000
O  45.52800 8.67000 34.07400
O  44.60800 10.00700 35.73000
C  44.92600 8.97900 36.68200
H  38.42500 6.53500 32.66900
H  39.26500 6.96000 26.29300
H  44.69800 9.86100 27.33300
H  42.10300 8.21100 35.12300
H  39.35000 7.97700 34.59400
H  40.40000 5.47700 33.68500
H  39.75400 5.84200 35.33400
H  41.51000 5.84800 35.03900
H  39.73300 10.15600 34.86000
H  41.38900 10.83400 34.88200
H  41.31600 9.21400 37.20100
H  39.66000 9.94600 37.05700
H  36.89500 5.42700 32.01700
H  36.46400 4.39200 30.65000
H  35.70600 5.87500 30.83400
H  35.12100 6.42200 28.90500
H  35.20700 4.80900 28.59400
H  34.49800 6.06500 27.41500
H  40.75700 8.66000 25.18600
H  43.60200 7.98600 25.49200
H  41.27000 5.80500 25.61300
H  42.58000 6.46700 24.48700
H  40.81800 6.68700 24.15600
H  42.56200 9.65500 23.99900
H  44.08800 10.09600 24.81700
H  42.32600 11.99200 24.59700
H  43.17600 11.79300 26.12500
H  41.62300 11.08400 25.92300
H  46.31900 12.43100 29.70300
H  46.01300 11.51900 28.15100
H  47.15900 11.02400 29.35200
H  43.67400 11.28000 34.16300
H  46.00600 8.84500 36.62300
H  44.41300 8.05500 36.41800
H  44.61900 9.32400 37.66900

