158

Mg 24.86400 -4.81000 45.87500
C  26.97100 -2.53000 44.54700
C  22.26500 -3.60300 43.80600
C  23.11000 -7.75200 46.19600
C  27.67700 -6.37800 47.46300
N  24.62700 -3.30500 44.38300
C  25.67500 -2.46900 43.95200
C  25.21300 -1.52600 42.81200
C  23.66100 -1.72100 42.69900
C  23.47900 -2.95600 43.67900
C  22.74600 -0.47900 43.20400
C  26.07600 -1.53700 41.43500
C  25.63600 -0.55800 40.30100
H  25.93400 -0.92600 38.82200
N  22.89000 -5.53900 45.23300
C  21.94900 -4.84500 44.44500
C  20.69800 -5.55900 44.48000
C  20.97100 -6.75800 45.20700
C  22.37600 -6.78200 45.54900
C  19.45600 -5.18600 43.69400
C  19.86900 -7.83200 45.49400
O  18.75700 -7.64200 45.06200
C  20.14300 -9.04200 46.28000
N  25.35100 -6.84100 46.66200
C  24.42400 -7.80500 46.67000
C  25.11100 -9.08500 47.39800
C  26.54500 -8.58900 47.80100
C  26.51100 -7.18500 47.25300
C  24.44200 -9.61700 48.65600
C  27.79300 -9.38700 47.38500
C  28.73700 -9.78300 48.51700
N  26.96800 -4.38100 46.11400
C  27.97100 -5.09100 46.81500
C  29.21800 -4.25000 46.76800
C  28.81600 -3.25000 45.82600
C  27.44900 -3.44100 45.49400
C  30.51200 -4.53200 47.39500
C  29.27000 -2.03600 45.17600
O  30.39000 -1.49200 45.34300
C  28.12100 -1.60000 44.19100
C  27.84000 -0.20600 44.41600
O  27.17800 0.22600 45.34300
O  28.53600 0.56000 43.48600
C  28.18600 1.93100 43.61400
H  21.41200 -3.25100 43.22000
H  22.53300 -8.66100 46.38000
H  28.49000 -6.84500 48.02300
H  25.42900 -0.55700 43.26400
H  23.49400 -2.10700 41.69300
H  22.21900 -0.17500 42.30000
H  23.44800 0.29200 43.52100
H  21.93000 -0.68500 43.89700
H  26.02800 -2.55500 41.04800
H  27.14600 -1.43200 41.61100
H  26.25300 0.28200 40.62100
H  24.58600 -0.30700 40.44900
H  19.12400 -5.77600 42.84000
H  19.64700 -4.14900 43.41600
H  18.55800 -5.04700 44.29600
H  19.28000 -9.68800 46.44400
H  20.65900 -8.68100 47.17000
H  20.88400 -9.60400 45.71200
H  25.14000 -9.82700 46.60000
H  26.53200 -8.46800 48.88400
H  23.75200 -8.81300 48.91200
H  25.03100 -9.79300 49.55500
H  23.92200 -10.55700 48.46700
H  28.42400 -8.84300 46.68100
H  27.46700 -10.32700 46.94000
H  28.29100 -9.58100 49.49100
H  29.64900 -9.19100 48.44100
H  28.96700 -10.84600 48.44200
H  31.00200 -3.56800 47.53300
H  31.17100 -5.13300 46.76900
H  30.44600 -5.09300 48.32700
H  28.50100 -1.72700 43.17700
H  27.10000 2.02000 43.61200
H  28.45000 2.37800 42.65600
H  28.76300 2.38100 44.42200
Mg 6.76600 55.59700 40.89600
C  4.25000 53.19600 40.71700
C  8.98100 53.20400 40.08700
C  8.96700 58.10800 40.26100
C  4.28400 58.01700 41.61200
N  6.53700 53.57500 40.20600
C  5.46800 52.74600 40.24800
C  5.82300 51.31500 39.82200
C  7.32100 51.26300 40.09700
C  7.66800 52.74400 40.11700
C  7.69700 50.54700 41.46700
C  5.40500 51.19100 38.31500
C  4.56500 50.01400 37.95800
H  5.05500 49.23800 36.69500
N  8.69700 55.69800 40.23400
C  9.47900 54.54800 40.03900
C  10.79900 54.98700 39.71600
C  10.82200 56.38300 39.64300
C  9.46100 56.74800 40.00400
C  11.88500 54.00900 39.32200
C  12.05100 57.21300 39.22400
O  13.14900 56.70900 39.23000
C  11.84600 58.67900 38.78000
N  6.55100 57.76000 40.80400
C  7.66100 58.56000 40.50600
C  7.34100 60.04100 40.73300
C  5.88900 60.08100 41.15200
C  5.52300 58.52900 41.24200
C  8.20900 60.79800 41.74900
C  4.86200 60.82100 40.23100
C  3.90200 61.69500 40.99400
N  4.69600 55.68800 41.15000
C  3.85800 56.64300 41.54000
C  2.47600 56.12400 41.73100
C  2.63300 54.75200 41.53500
C  3.98700 54.55700 41.09700
C  1.23700 56.93700 42.07700
C  1.89600 53.48600 41.58400
O  0.71900 53.28000 41.86400
C  2.94100 52.42700 40.95000
C  2.32300 51.79900 39.76500
O  2.22100 52.26700 38.61800
O  1.81800 50.56400 40.18000
C  1.31000 49.70700 39.15600
H  9.74400 52.42800 39.99500
H  9.73900 58.88000 40.25900
H  3.55400 58.75400 41.95300
H  5.32400 50.66100 40.53700
H  7.83100 50.79200 39.25700
H  8.33400 49.70300 41.20500
H  6.83400 50.17400 42.02000
H  8.27300 51.24200 42.07800
H  6.29700 51.10600 37.69400
H  4.98500 52.13600 37.97000
H  3.52300 50.31900 37.85500
H  4.58500 49.34300 38.81600
H  12.30100 54.50100 38.44300
H  11.55200 53.00800 39.04800
H  12.58400 54.02200 40.15900
H  12.44800 58.94400 37.91100
H  12.23900 59.35500 39.53900
H  10.80900 58.90600 38.52900
H  7.50500 60.53500 39.77600
H  5.84100 60.48500 42.16300
H  7.81000 61.04600 42.73300
H  8.64400 61.71300 41.34900
H  8.91400 60.08100 42.17100
H  4.23200 60.07900 39.73900
H  5.37000 61.37900 39.44400
H  4.26200 61.87500 42.00700
H  2.89200 61.29000 40.94200
H  3.91000 62.59200 40.37500
H  0.95900 57.62400 41.27800
H  1.42200 57.55200 42.95800
H  0.49100 56.15400 42.21400
H  3.11700 51.66800 41.71200
H  1.07500 50.22700 38.22700
H  0.39100 49.21000 39.46600
H  2.08100 48.96000 38.97000

