158

Mg 24.97200 -5.30200 46.33600
C  27.27400 -3.06000 44.82400
C  22.66500 -4.43100 44.06900
C  23.10700 -7.91300 47.53900
C  27.70900 -6.50900 48.31800
N  25.12100 -4.07400 44.48000
C  26.09100 -3.19600 44.10500
C  25.65900 -2.34300 42.90300
C  24.07100 -2.49800 42.98300
C  23.90000 -3.75800 43.89400
C  23.23000 -1.32600 43.45800
C  26.26600 -2.84700 41.50200
C  26.80700 -1.84600 40.46600
H  26.35400 -1.97900 38.99500
N  23.04100 -6.05700 45.81400
C  22.21700 -5.56700 44.83000
C  20.96500 -6.22100 44.89300
C  21.02400 -7.17800 45.97200
C  22.45300 -7.08500 46.52300
C  19.82800 -5.78100 44.01000
C  19.93400 -8.06700 46.38200
O  18.82900 -8.14200 45.86800
C  20.07000 -8.81400 47.62400
N  25.39400 -6.93900 47.61800
C  24.46500 -7.89500 47.97100
C  25.08400 -9.03200 48.78200
C  26.59500 -8.73300 48.68600
C  26.56200 -7.28000 48.18600
C  24.43600 -9.15600 50.22700
C  27.48800 -9.63200 47.76500
C  28.71900 -10.41900 48.39000
N  26.98300 -4.74100 46.67700
C  27.95500 -5.35500 47.50400
C  29.18700 -4.53100 47.41900
C  28.91200 -3.62200 46.38900
C  27.64300 -3.84400 45.95000
C  30.41100 -4.70900 48.05500
C  29.51100 -2.57800 45.56400
O  30.62100 -2.12800 45.61800
C  28.51700 -2.18300 44.52300
C  28.31100 -0.74800 44.60000
O  27.32000 -0.22600 45.04200
O  29.40400 -0.11100 44.08800
C  29.19600 1.31500 43.81100
H  21.88200 -4.06500 43.40200
H  22.55000 -8.77600 47.91000
H  28.52300 -6.96600 48.88400
H  26.00700 -1.33200 43.11400
H  23.69300 -2.83600 42.01800
H  22.45300 -1.05000 42.74500
H  23.70000 -0.35300 43.59900
H  22.81100 -1.54100 44.44200
H  25.49800 -3.43100 40.99600
H  27.09300 -3.53300 41.68600
H  27.89100 -1.82500 40.57500
H  26.41700 -0.88500 40.80200
H  19.16600 -6.64300 43.93300
H  20.37100 -5.68400 43.07000
H  19.38800 -4.84400 44.35000
H  19.11700 -9.13400 48.04700
H  20.46300 -8.01200 48.24900
H  20.74600 -9.62900 47.36700
H  25.03000 -9.98700 48.25800
H  27.10000 -8.63800 49.64700
H  23.42500 -8.74900 50.20600
H  24.98400 -8.64300 51.01700
H  24.37400 -10.21600 50.47700
H  27.84300 -9.06000 46.90800
H  26.78400 -10.41200 47.47700
H  28.88400 -11.35800 47.86100
H  28.67200 -10.62400 49.46000
H  29.63900 -9.87800 48.16900
H  30.15500 -4.74900 49.11300
H  31.10700 -3.88400 47.89900
H  30.89900 -5.65200 47.81200
H  28.99400 -2.30100 43.54900
H  30.17200 1.78700 43.69700
H  28.56800 1.84500 44.52800
H  28.77900 1.33100 42.80400
Mg 44.64300 4.94700 46.75400
C  42.65600 7.79800 46.95100
C  41.76400 2.92000 46.64600
C  46.52900 2.30400 45.77600
C  47.48200 7.06400 46.47600
N  42.47600 5.33200 46.75700
C  41.90200 6.56400 46.90400
C  40.36100 6.47100 46.97700
C  40.15400 4.82400 46.81800
C  41.53500 4.26200 46.74900
C  39.20000 4.20400 47.96100
C  39.48100 7.30300 46.02300
C  40.05300 7.36600 44.57700
H  39.26800 6.71700 43.42100
N  44.21500 2.91100 46.30500
C  42.97700 2.29800 46.32800
C  43.17600 0.86700 46.18900
C  44.55700 0.61400 45.99100
C  45.16600 1.97300 46.00100
C  42.03200 -0.11200 46.26300
C  45.22700 -0.73100 45.77200
O  44.46900 -1.69300 45.96600
C  46.58800 -0.94200 45.48300
N  46.67600 4.77700 46.10400
C  47.25000 3.53600 45.81500
C  48.78400 3.59700 45.69400
C  49.03800 5.17300 45.72500
C  47.65100 5.66600 46.23800
C  49.58000 2.85800 46.78300
C  49.44900 5.75500 44.32700
C  50.98200 5.84100 44.10300
N  45.09900 7.01300 46.78000
C  46.26100 7.72100 46.77600
C  45.91900 9.09900 46.90800
C  44.52900 9.16100 47.01700
C  44.07400 7.91400 46.83200
C  46.97500 10.13600 46.94000
C  43.40700 10.07700 47.10800
O  43.44700 11.34200 47.20500
C  42.13300 9.28600 47.04600
C  41.25800 9.41200 48.23000
O  41.25200 8.67100 49.20700
O  40.43700 10.48100 48.05500
C  39.51000 10.63800 49.15800
H  40.85100 2.33100 46.53600
H  47.21800 1.50100 45.50700
H  48.39500 7.65600 46.38400
H  40.17700 6.81700 47.99400
H  39.67100 4.58200 45.87100
H  39.72100 3.61200 48.71300
H  38.39200 3.68700 47.44300
H  38.86900 5.06100 48.54800
H  39.47300 8.31700 46.42400
H  38.43800 7.01500 45.88700
H  40.97100 6.77900 44.59000
H  40.22700 8.42800 44.40500
H  41.77400 -0.44900 45.25900
H  41.20600 0.38600 46.76900
H  42.20300 -0.98200 46.89800
H  46.76900 -1.98600 45.22900
H  47.16600 -0.74300 46.38500
H  46.93600 -0.41100 44.59700
H  49.03500 3.13500 44.73900
H  49.78200 5.38700 46.49100
H  50.42000 3.44500 47.15500
H  49.95900 1.87500 46.50100
H  48.86300 2.74500 47.59700
H  49.15300 6.80200 44.26400
H  48.96700 5.16800 43.54500
H  51.21500 5.40300 43.13300
H  51.51100 5.18600 44.79500
H  51.47800 6.80500 44.21600
H  47.65600 9.98200 47.77700
H  46.50800 11.09600 47.16300
H  47.51600 10.11800 45.99400
H  41.61300 9.53100 46.11900
H  38.60200 10.15600 48.79700
H  39.25500 11.69300 49.25600
H  39.88100 10.25100 50.10700

