158

Mg 52.58400 23.84600 45.05700
C  49.90900 25.95700 44.48000
C  50.75000 21.23500 43.74000
C  55.42900 21.98500 44.95000
C  54.38000 26.71300 46.15600
N  50.66500 23.70500 44.01500
C  49.70000 24.69300 43.99500
C  48.35100 23.98900 43.60300
C  48.61700 22.48300 43.74400
C  50.14100 22.43700 43.78800
C  47.90900 21.73600 44.97200
C  47.88100 24.48400 42.24600
C  48.87400 24.42700 41.01900
H  48.37400 23.63400 39.73400
N  53.00900 21.82600 44.49700
C  52.05300 20.94300 44.09500
C  52.73400 19.72200 43.90900
C  54.08800 19.81600 44.30000
C  54.22300 21.24100 44.60900
C  52.06700 18.49800 43.35700
C  55.11700 18.70100 44.22100
O  54.90600 17.52800 43.82600
C  56.56900 18.99600 44.61000
N  54.60200 24.29600 45.41200
C  55.60500 23.39300 45.24700
C  56.98900 24.03700 45.57900
C  56.61100 25.40800 46.14000
C  55.09400 25.53300 45.87800
C  57.90700 23.12400 46.53400
C  57.50200 26.54800 45.57300
C  58.78000 26.84400 46.32800
N  52.24700 25.91900 45.32800
C  53.00500 26.95500 45.88800
C  52.21200 28.10100 46.10700
C  50.96400 27.77100 45.51900
C  51.05800 26.48800 45.02000
C  52.71600 29.40400 46.64900
C  49.69500 28.32000 45.19400
O  49.17500 29.44100 45.32200
C  48.88100 27.17300 44.50500
C  48.54800 27.73000 43.10900
O  49.39800 27.83900 42.24000
O  47.20400 28.09000 43.06300
C  46.83700 28.65200 41.68400
H  50.05300 20.43100 43.49400
H  56.40600 21.49700 44.96300
H  54.94500 27.60100 46.45000
H  47.58200 24.33300 44.29500
H  48.30800 22.02800 42.80300
H  47.20300 22.43400 45.42200
H  48.69400 21.56400 45.70800
H  47.42700 20.83700 44.58800
H  47.40200 25.43000 42.49800
H  47.00500 23.88000 42.01000
H  49.72000 23.79200 41.28200
H  49.26000 25.42400 40.80800
H  50.98500 18.48000 43.48200
H  52.33600 17.68200 44.02800
H  52.32600 18.36900 42.30600
H  57.06400 18.02500 44.61300
H  56.45900 19.46200 45.58900
H  56.99400 19.71500 43.91000
H  57.61400 24.17300 44.69600
H  56.71100 25.29500 47.22000
H  57.22400 22.54600 47.15700
H  58.43500 23.80300 47.20400
H  58.63600 22.60600 45.91000
H  56.83700 27.41100 45.53600
H  57.74300 26.36900 44.52600
H  59.66900 26.92300 45.70300
H  59.01600 26.09900 47.08800
H  58.70400 27.78500 46.87300
H  52.42500 30.20400 45.96900
H  53.80400 29.35600 46.60900
H  52.51200 29.65900 47.68900
H  47.94200 26.93800 45.00600
H  47.66200 29.19700 41.22600
H  45.98200 29.26100 41.98000
H  46.52700 27.81400 41.06000
Mg 25.37400 50.36500 26.73400
C  23.19800 51.49700 29.23100
C  27.66000 49.65400 29.23400
C  27.61600 49.88900 24.27000
C  23.30400 52.00900 24.44300
N  25.36000 50.47600 28.97300
C  24.33100 50.93200 29.80200
C  24.68100 50.73100 31.28800
C  26.15700 50.43300 31.21900
C  26.47200 50.24000 29.72900
C  27.12700 51.48500 31.89900
C  23.74600 49.64200 31.95200
C  23.06500 50.03200 33.24900
H  23.83800 50.95900 34.18700
N  27.31700 49.87800 26.78900
C  28.07600 49.48300 27.90100
C  29.26600 48.81900 27.44700
C  29.30000 48.87700 26.01700
C  28.04700 49.57000 25.61300
C  30.30200 48.14800 28.29700
C  30.30400 48.31700 25.05100
O  30.11900 48.44400 23.80800
C  31.55900 47.64500 25.56900
N  25.54800 50.99400 24.58400
C  26.56800 50.55500 23.78200
C  26.25800 50.94400 22.33300
C  24.83300 51.56800 22.43500
C  24.50300 51.48300 23.89700
C  27.25400 51.99900 21.68700
C  23.78300 50.96400 21.43900
C  23.26800 49.53400 21.70500
N  23.54600 51.33100 26.73700
C  22.80500 51.89700 25.73000
C  21.53900 52.41500 26.22400
C  21.70200 52.28800 27.60300
C  22.95400 51.64200 27.88700
C  20.44900 53.02400 25.36100
C  21.06800 52.58700 28.87100
O  19.94800 53.00800 29.11600
C  22.06800 52.10800 30.00200
C  22.40800 53.25400 30.84100
O  23.42900 53.94100 30.76500
O  21.35000 53.35700 31.74500
C  21.38000 54.49200 32.62900
H  28.39400 49.42200 30.00800
H  28.31100 49.58300 23.48600
H  22.76000 52.58500 23.69100
H  24.59300 51.70200 31.77500
H  26.26500 49.42800 31.62700
H  27.28200 51.10700 32.90900
H  26.65900 52.46600 31.98700
H  28.04600 51.54400 31.31600
H  24.15400 48.63400 32.01700
H  22.96000 49.52300 31.20600
H  22.79800 49.05000 33.64200
H  22.09000 50.42100 32.95700
H  29.99800 48.25300 29.33900
H  31.22200 48.73000 28.25600
H  30.33600 47.06600 28.16900
H  32.22000 47.27200 24.78700
H  31.25200 46.76200 26.12900
H  32.06300 48.38900 26.18600
H  26.38700 50.02700 21.75700
H  24.81900 52.64600 22.27800
H  26.86200 53.00700 21.82400
H  27.42500 51.73500 20.64300
H  28.23300 51.94900 22.16300
H  24.26400 51.12300 20.47400
H  22.90900 51.61100 21.51900
H  23.26000 48.88300 20.83100
H  22.30700 49.55500 22.21800
H  23.94800 49.07700 22.42500
H  20.68100 52.81800 24.31600
H  20.27000 54.08200 25.54900
H  19.52700 52.47900 25.56300
H  21.61300 51.34900 30.63900
H  21.63200 55.26100 31.89800
H  22.03700 54.34800 33.48700
H  20.39000 54.75100 33.00300

