158

Mg 25.26500 -0.76700 28.99700
C  27.20400 -0.46800 31.89800
C  22.31200 -0.28600 30.97400
C  23.29100 -1.01800 26.38500
C  28.09000 -1.64200 27.35600
N  24.87900 -0.50100 31.22300
C  25.86400 -0.29500 32.19600
C  25.11000 -0.03300 33.56500
C  23.58800 -0.22500 33.21500
C  23.53400 -0.42400 31.71100
C  22.84300 -1.39200 34.03800
C  25.49600 1.47200 34.15700
C  26.40200 1.39400 35.48500
H  26.18300 2.35800 36.57200
N  23.07100 -0.68300 28.67600
C  22.08000 -0.37200 29.62000
C  20.81700 -0.24100 28.94200
C  21.09700 -0.51000 27.59200
C  22.52600 -0.77400 27.43100
C  19.55500 0.05700 29.68900
C  20.07100 -0.59200 26.42500
O  20.40500 -0.89300 25.32400
C  18.67200 -0.32400 26.64900
N  25.56100 -1.62900 27.23600
C  24.64200 -1.34500 26.24900
C  25.20900 -1.41200 24.80500
C  26.75300 -1.57800 25.14600
C  26.81600 -1.67000 26.71100
C  24.55900 -2.52400 23.88600
C  27.58300 -0.44000 24.51400
C  27.51900 0.99200 25.08600
N  27.22500 -0.97200 29.47400
C  28.29800 -1.40200 28.69800
C  29.56600 -1.33200 29.40400
C  29.20500 -0.97300 30.72300
C  27.77100 -0.78600 30.64300
C  30.88000 -1.60400 28.79700
C  29.69300 -0.63000 32.06400
O  30.79000 -0.54200 32.52100
C  28.38700 -0.35900 32.89700
C  28.46100 -1.28700 34.07000
O  28.24200 -2.49200 34.04200
O  28.80100 -0.46000 35.15000
C  28.74600 -1.16700 36.43500
H  21.48100 0.01400 31.61600
H  22.86300 -0.86200 25.39200
H  28.93100 -1.76500 26.67000
H  25.54200 -0.78800 34.22100
H  22.90700 0.55800 33.54700
H  23.43700 -1.85000 34.82900
H  22.45000 -2.15800 33.36900
H  22.10700 -0.91000 34.68100
H  24.60700 1.98900 34.51700
H  25.93200 2.05900 33.35000
H  27.42500 1.43000 35.11300
H  26.20000 0.41900 35.92800
H  19.58100 -0.25600 30.73300
H  18.62100 -0.41300 29.38100
H  19.45200 1.13800 29.78500
H  18.26200 -1.04000 27.36100
H  18.09300 -0.25900 25.72800
H  18.72500 0.71700 26.96800
H  25.00800 -0.44300 24.34700
H  27.04500 -2.54300 24.73300
H  25.34800 -3.02400 23.32300
H  23.79700 -2.02400 23.28900
H  23.96000 -3.20100 24.49300
H  27.14300 -0.29200 23.52800
H  28.61200 -0.76900 24.37300
H  26.87800 1.05700 25.96600
H  26.99600 1.64300 24.38600
H  28.47800 1.47300 25.27800
H  31.28400 -0.76100 28.23600
H  30.86300 -2.41100 28.06500
H  31.50500 -1.91600 29.63500
H  28.47000 0.67900 33.21700
H  27.81300 -0.79900 36.86100
H  29.64500 -0.93600 37.00600
H  28.67500 -2.24900 36.32300
Mg -8.96800 39.87900 42.39900
C  -7.71400 36.77000 41.12900
C  -6.15500 41.39900 41.07000
C  -10.35300 42.78200 42.83600
C  -11.80100 38.12000 43.37600
N  -7.30500 39.19200 40.96100
C  -6.99300 37.87500 40.70400
C  -5.57400 37.78300 40.10300
C  -5.00500 39.15500 40.46800
C  -6.22000 40.03100 40.87100
C  -3.91900 38.92200 41.62100
C  -5.65300 37.41600 38.57700
C  -4.79500 36.20600 38.02100
H  -3.69600 36.53700 37.00500
N  -8.35700 41.86300 41.99400
C  -7.15500 42.25300 41.42900
C  -7.09200 43.64600 41.37700
C  -8.30100 44.18200 41.89300
C  -9.05300 42.90900 42.32100
C  -5.91400 44.41500 40.66000
C  -8.63800 45.57300 42.03800
O  -7.87200 46.49200 41.60100
C  -9.95900 45.96100 42.61300
N  -10.84400 40.36100 42.81400
C  -11.15900 41.67200 43.15800
C  -12.61000 41.75400 43.71800
C  -13.06300 40.32800 43.71000
C  -11.80900 39.51200 43.32700
C  -12.88800 42.42500 45.13000
C  -14.10300 39.98900 42.60900
C  -15.28700 39.04600 42.97500
N  -9.60800 37.84300 42.50500
C  -10.78300 37.30600 42.87500
C  -10.77700 35.91000 42.75400
C  -9.57600 35.65700 42.07400
C  -8.89400 36.86500 41.94100
C  -11.82700 34.93600 43.17000
C  -8.73400 34.63800 41.47500
O  -8.94000 33.40100 41.49000
C  -7.44500 35.31700 40.83200
C  -6.29000 34.72300 41.56900
O  -6.01100 35.02100 42.74500
O  -5.45700 33.96300 40.73300
C  -4.14200 33.51500 41.42700
H  -5.16100 41.78400 40.83200
H  -10.83200 43.73400 43.07300
H  -12.74900 37.70700 43.72600
H  -4.92000 36.98900 40.46300
H  -4.55400 39.48100 39.53100
H  -4.18700 39.42300 42.55100
H  -3.03000 39.40000 41.20800
H  -3.54100 37.90600 41.73500
H  -5.28400 38.22500 37.94700
H  -6.67900 37.18900 38.28700
H  -5.40200 35.44800 37.52600
H  -4.26900 35.76900 38.87000
H  -5.36000 43.68700 40.06800
H  -5.41000 45.00600 41.42600
H  -6.44700 45.06100 39.96300
H  -10.02400 47.04700 42.68800
H  -10.03300 45.46900 43.58300
H  -10.78400 45.69900 41.95100
H  -13.10200 42.20400 42.85500
H  -13.43900 40.06800 44.70000
H  -13.69500 42.00000 45.72600
H  -13.27300 43.42900 44.95400
H  -11.96300 42.47000 45.70400
H  -13.71500 39.56700 41.68200
H  -14.58500 40.94300 42.39400
H  -16.28100 39.45600 42.79900
H  -15.40200 38.83200 44.03700
H  -15.25600 38.05900 42.51200
H  -11.91500 34.94200 44.25600
H  -11.57100 33.92700 42.84700
H  -12.81500 35.16800 42.77300
H  -7.44200 35.21300 39.74700
H  -4.42600 32.89600 42.27700
H  -3.54900 34.32700 41.84900
H  -3.44600 32.96100 40.79700

