158

Mg 46.88700 16.29900 28.79200
C  44.83100 15.62500 31.52400
C  49.04900 17.73900 31.05600
C  48.63300 17.56700 26.15700
C  44.52600 15.03800 26.68300
N  46.96800 16.58800 31.04800
C  46.05800 16.21300 31.93700
C  46.40100 16.54800 33.38300
C  47.60300 17.52700 33.18200
C  47.92200 17.24500 31.70400
C  47.17800 19.01400 33.38200
C  46.69800 15.31500 34.19900
C  46.38600 15.43800 35.72900
H  46.10800 16.79200 36.47300
N  48.62800 17.40900 28.68100
C  49.49400 17.77900 29.70100
C  50.79300 18.22600 29.08800
C  50.56900 18.36600 27.67500
C  49.22700 17.77900 27.43800
C  51.81900 18.82200 29.98600
C  51.60200 18.69700 26.59000
O  51.28700 18.73100 25.38300
C  53.06000 18.73900 27.02300
N  46.48200 16.49500 26.74700
C  47.35000 17.01200 25.83100
C  47.05900 16.52800 24.38300
C  45.80100 15.68600 24.60500
C  45.55200 15.77700 26.07600
C  47.03400 17.70000 23.35200
C  45.92900 14.29200 23.86800
C  46.12800 13.06000 24.78400
N  45.03000 15.52200 28.95100
C  44.23400 14.91900 28.04700
C  43.12500 14.20400 28.66500
C  43.27800 14.59800 29.96500
C  44.45900 15.34500 30.13100
C  41.97800 13.37700 28.04000
C  42.64100 14.44300 31.28400
O  41.62500 13.78300 31.63600
C  43.56600 15.15500 32.28000
C  42.78100 16.34900 32.71300
O  42.10700 17.12400 32.02300
O  42.89900 16.42700 34.09200
C  42.36000 17.70900 34.66200
H  49.64400 18.31900 31.76500
H  49.24500 17.70500 25.26300
H  43.90500 14.48100 25.97900
H  45.53900 17.02500 33.84900
H  48.44800 17.16900 33.77000
H  46.14800 19.28300 33.61400
H  47.50100 19.67700 32.58000
H  47.66700 19.28800 34.31700
H  47.74100 15.04600 34.03100
H  46.14500 14.40000 33.98900
H  47.21600 14.92900 36.22000
H  45.48000 14.94900 36.08700
H  52.79600 18.34100 29.95300
H  51.53400 18.83700 31.03800
H  51.86400 19.88300 29.74100
H  53.55700 18.69600 26.05400
H  53.23500 17.88800 27.68200
H  53.18500 19.65400 27.60100
H  47.93100 15.94500 24.08800
H  44.95900 16.17500 24.11300
H  47.66900 17.42000 22.51100
H  47.45900 18.57600 23.84200
H  45.96900 17.83600 23.16300
H  46.73700 14.27400 23.13700
H  45.03100 14.02400 23.31100
H  46.93400 13.29800 25.47900
H  46.55000 12.29100 24.13700
H  45.15100 12.74500 25.15000
H  42.33800 13.04500 27.06600
H  41.14500 14.02900 27.77600
H  41.74200 12.56200 28.72500
H  43.91000 14.54800 33.11800
H  42.63600 18.59400 34.08800
H  42.68800 17.81200 35.69600
H  41.27300 17.69900 34.73600
Mg -12.00500 16.45300 41.30200
C  -8.81000 15.12100 40.93500
C  -11.04000 19.37300 39.81700
C  -15.25400 17.40300 41.34900
C  -13.11400 13.23600 42.44000
N  -10.17300 17.06800 40.29400
C  -8.93600 16.42100 40.30800
C  -7.83000 17.22200 39.62400
C  -8.54500 18.62100 39.26200
C  -10.03100 18.33000 39.78600
C  -7.93300 19.87000 39.84500
C  -7.04200 16.48300 38.48500
C  -6.03700 17.33600 37.69600
H  -6.06700 17.27100 36.15200
N  -13.04700 18.17900 40.70300
C  -12.45400 19.31100 40.23400
C  -13.42900 20.39600 40.25100
C  -14.58800 19.82500 40.82500
C  -14.34500 18.44000 41.05800
C  -13.13400 21.86500 39.87300
C  -15.83000 20.62300 41.24200
O  -15.98000 21.84500 40.96400
C  -16.94300 19.95600 42.03100
N  -13.91900 15.33400 41.75900
C  -15.10300 15.99000 41.62800
C  -16.33400 15.18700 42.03200
C  -15.59100 13.87200 42.56100
C  -14.10200 14.14000 42.26200
C  -17.32000 15.80000 43.03800
C  -16.10300 12.54600 41.81300
C  -16.04900 11.23000 42.63300
N  -11.19300 14.50600 41.57700
C  -11.68800 13.33600 42.16900
C  -10.65900 12.40000 42.34600
C  -9.55100 13.01600 41.83200
C  -9.88900 14.28100 41.34000
C  -10.76400 10.95500 42.86500
C  -8.14400 12.95900 41.63800
O  -7.38500 12.02600 41.86600
C  -7.63500 14.24600 41.03300
C  -6.65500 14.77400 41.99700
O  -6.89900 15.54700 42.91600
O  -5.37400 14.21300 41.76200
C  -4.43900 14.59600 42.81900
H  -10.76900 20.35700 39.42900
H  -16.32100 17.63300 41.36700
H  -13.46200 12.26200 42.79000
H  -7.07900 17.33600 40.40700
H  -8.55700 18.72600 38.17700
H  -8.56100 20.30200 40.62400
H  -7.83400 20.56600 39.01200
H  -6.97000 19.67200 40.31500
H  -7.72400 15.83100 37.94000
H  -6.42200 15.74400 38.99300
H  -5.08600 16.98600 38.09800
H  -6.15900 18.34800 38.08300
H  -13.66300 22.31100 39.03000
H  -12.08300 21.99300 39.61400
H  -13.32300 22.46700 40.76200
H  -17.56400 20.79200 42.35000
H  -16.51600 19.53600 42.94200
H  -17.45600 19.32300 41.30700
H  -16.80200 15.01000 41.06400
H  -15.68600 13.72100 43.63700
H  -17.87700 14.86600 43.11500
H  -17.81500 16.69800 42.66900
H  -16.70000 16.07100 43.89300
H  -15.54600 12.43600 40.88300
H  -17.13000 12.79200 41.54400
H  -17.09500 10.97700 42.80700
H  -15.54200 11.39600 43.58400
H  -15.63800 10.43200 42.01400
H  -11.71800 10.53800 42.54500
H  -10.68200 11.05500 43.94800
H  -9.96800 10.33700 42.45000
H  -7.11000 14.02500 40.10400
H  -4.14200 15.63400 42.66800
H  -3.52900 13.99900 42.75700
H  -4.73800 14.54300 43.86500

