158

Mg 30.28100 57.51800 40.15000
C  27.33900 55.73100 39.28100
C  32.09900 55.18000 38.46200
C  32.82700 59.65500 40.18700
C  28.13800 60.16100 41.13500
N  29.77100 55.73900 38.89000
C  28.52200 55.16500 38.78400
C  28.61000 53.76100 38.23100
C  30.11900 53.56100 38.21500
C  30.74500 54.91400 38.58800
C  30.73800 52.42800 39.07800
C  27.80800 53.53300 36.90400
C  27.33500 54.68000 35.95700
H  27.76700 54.59700 34.52700
N  32.25000 57.35900 39.52400
C  32.83700 56.33900 38.83100
C  34.22900 56.59700 38.58200
C  34.43700 57.90600 39.13900
C  33.14900 58.37700 39.68800
C  35.11900 55.54100 38.03800
C  35.77500 58.68800 39.04300
O  36.76300 58.22300 38.53100
C  35.83800 60.13200 39.48500
N  30.50300 59.59000 40.49200
C  31.63600 60.26300 40.49400
C  31.55200 61.66800 41.14300
C  30.15200 61.70600 41.65100
C  29.52400 60.45000 41.00900
C  32.64600 62.13700 42.14700
C  29.30500 63.05200 41.53600
C  29.10500 63.92000 42.77600
N  28.16900 57.91400 40.16800
C  27.44000 59.07000 40.52700
C  26.04000 58.84600 40.49500
C  25.96900 57.50500 39.97200
C  27.30700 57.01600 39.82100
C  24.92700 59.73000 41.03200
C  25.03900 56.50000 39.69500
O  23.78700 56.42900 39.74700
C  25.87000 55.32200 39.15400
C  25.54100 54.00600 39.91500
O  26.17700 53.69400 40.88900
O  24.58500 53.31100 39.27800
C  24.49200 51.91200 39.79400
H  32.73100 54.43800 37.97000
H  33.65200 60.35800 40.32400
H  27.50400 60.92900 41.58500
H  28.20100 53.16300 39.04500
H  30.51200 53.36200 37.21800
H  30.01200 51.80400 39.60000
H  31.54000 52.71800 39.75700
H  31.20800 51.63900 38.49200
H  26.85500 53.03900 37.09500
H  28.32700 52.78100 36.31000
H  27.56700 55.59400 36.50400
H  26.24600 54.72000 35.98700
H  36.15900 55.86200 37.97600
H  34.59200 55.02500 37.23500
H  35.06600 54.83800 38.87000
H  36.82700 60.57700 39.37100
H  35.56400 60.09700 40.53900
H  35.16800 60.68300 38.82500
H  31.66700 62.39200 40.33700
H  30.08300 61.55900 42.72900
H  33.29400 62.98300 41.92000
H  33.22900 61.22100 42.24100
H  32.23400 62.30300 43.14200
H  28.34200 62.93600 41.03900
H  29.94500 63.59300 40.83800
H  28.05900 64.14300 42.98800
H  29.69700 64.83000 42.68000
H  29.43000 63.42000 43.68800
H  25.22600 60.73500 40.73500
H  24.79900 59.78500 42.11300
H  24.00600 59.53900 40.48100
H  25.55600 55.30700 38.11000
H  23.83500 52.02500 40.65700
H  25.41300 51.41200 40.09400
H  23.97400 51.26900 39.08300
Mg -1.30200 34.36500 27.73200
C  -3.14000 32.29800 29.98300
C  0.18200 35.72900 30.49300
C  0.00600 36.55300 25.65300
C  -3.07800 32.79000 25.13600
N  -1.56300 34.07400 29.94600
C  -2.34800 33.21300 30.64400
C  -2.11100 33.25600 32.13500
C  -1.21800 34.55100 32.33200
C  -0.88500 34.90300 30.84900
C  -1.85100 35.72700 33.07400
C  -1.45800 31.96300 32.73300
C  -1.95200 31.48000 34.11300
H  -1.30500 31.91100 35.41400
N  0.07600 35.85100 27.99400
C  0.60900 36.24600 29.25600
C  1.66400 37.16000 28.97900
C  1.60800 37.38200 27.55200
C  0.54500 36.57000 26.97400
C  2.51600 37.80200 30.08400
C  2.39700 38.43500 26.75900
O  2.12300 38.71800 25.63900
C  3.47900 39.21500 27.40800
N  -1.55500 34.61200 25.70800
C  -0.99100 35.71600 25.10000
C  -1.59100 35.95900 23.73300
C  -2.28500 34.61700 23.41400
C  -2.39800 33.93400 24.80700
C  -2.50600 37.21300 23.58700
C  -1.59500 33.73500 22.30200
C  -2.18700 34.03100 20.85200
N  -2.74500 32.81900 27.46200
C  -3.33400 32.17200 26.39000
C  -4.18800 31.12400 26.78500
C  -4.21200 31.17500 28.19900
C  -3.29300 32.17900 28.57600
C  -4.92700 30.17900 25.87100
C  -4.75600 30.51900 29.30400
O  -5.55400 29.59100 29.27600
C  -4.04000 31.18000 30.58100
C  -5.25600 31.70800 31.29500
O  -6.11000 32.51000 30.89200
O  -5.27800 31.15300 32.56300
C  -6.18800 31.78500 33.52400
H  0.56300 36.24400 31.37800
H  0.24700 37.35800 24.95500
H  -3.56900 32.37700 24.25200
H  -3.05100 33.43600 32.65800
H  -0.28500 34.35800 32.86100
H  -2.92700 35.55700 33.12100
H  -1.66500 36.65400 32.53300
H  -1.47400 35.77900 34.09600
H  -0.42800 32.27500 32.90500
H  -1.48000 31.13900 32.01900
H  -2.17100 30.41500 34.04500
H  -2.96600 31.85100 34.25900
H  3.52700 37.64700 29.70600
H  2.53800 37.21900 31.00400
H  2.27400 38.85300 30.24200
H  3.05500 39.83700 28.19600
H  4.03800 39.85800 26.72700
H  4.20300 38.53600 27.85800
H  -0.74700 35.96600 23.04300
H  -3.31700 34.84300 23.14600
H  -2.80400 37.58400 24.56800
H  -3.45600 37.03300 23.08400
H  -2.02500 38.01600 23.02900
H  -1.65200 32.67800 22.56300
H  -0.51800 33.87200 22.40300
H  -2.98500 34.77300 20.85800
H  -2.59600 33.10200 20.45700
H  -1.41500 34.46500 20.21700
H  -4.32300 30.00300 24.98100
H  -5.94300 30.48600 25.62200
H  -5.06300 29.21100 26.35500
H  -3.47300 30.55200 31.26800
H  -5.68500 32.20800 34.39400
H  -6.74400 30.98700 34.01600
H  -6.88600 32.51200 33.11100

