158

Mg 26.06700 49.57200 26.64300
C  23.83500 51.00400 28.83100
C  28.26400 49.18000 29.11600
C  28.34200 48.78100 24.14200
C  23.88800 50.58600 23.97900
N  26.07600 50.26900 28.79800
C  24.95700 50.61900 29.52900
C  25.04100 50.36900 31.01200
C  26.62600 50.04400 31.07300
C  27.07100 49.75900 29.58000
C  27.50600 51.17900 31.77200
C  24.08600 49.25000 31.60600
C  23.85800 49.17400 33.24000
H  24.63900 50.15200 34.07300
N  27.98500 49.09400 26.63500
C  28.76000 48.97900 27.79000
C  30.04100 48.47300 27.36900
C  30.11600 48.48500 25.94700
C  28.79700 48.83400 25.55000
C  31.12600 48.11900 28.47500
C  31.35700 48.22800 24.99000
O  31.37700 48.44300 23.78400
C  32.64300 47.86000 25.63300
N  26.01400 49.43000 24.46000
C  27.05900 49.04200 23.66100
C  26.68400 48.94600 22.14600
C  25.29400 49.61700 22.10200
C  25.00100 49.87000 23.61900
C  27.70000 49.63300 21.13300
C  24.17300 48.79500 21.38200
C  23.23700 49.56600 20.39700
N  24.21400 50.45300 26.34800
C  23.47100 50.87100 25.23200
C  22.30500 51.50700 25.68200
C  22.31300 51.43600 27.06100
C  23.56200 50.88600 27.41300
C  21.26400 52.00800 24.79500
C  21.65200 51.84200 28.26200
O  20.59700 52.40700 28.39800
C  22.52700 51.46200 29.47200
C  22.86400 52.74100 30.32600
O  23.53500 53.72500 30.01000
O  22.26900 52.58000 31.62800
C  22.60700 53.66400 32.53500
H  28.94100 48.87600 29.91600
H  28.97100 48.44400 23.31500
H  23.21300 50.81400 23.15100
H  24.94600 51.26900 31.61900
H  26.93200 49.14400 31.60600
H  28.01200 50.78200 32.65200
H  26.87400 51.96400 32.18800
H  28.20500 51.58300 31.04100
H  24.62300 48.36400 31.26700
H  23.16400 49.49000 31.07600
H  23.98100 48.16600 33.63500
H  22.80400 49.45000 33.21500
H  32.05400 48.56500 28.11700
H  31.41700 47.07000 28.41500
H  31.02600 48.55900 29.46700
H  33.35800 47.32000 25.01200
H  32.34700 47.11300 26.37000
H  33.16400 48.72500 26.04400
H  26.66800 47.87200 21.96000
H  25.38700 50.60600 21.65300
H  28.40300 50.35600 21.54500
H  27.12100 50.10900 20.34100
H  28.24800 48.85900 20.59600
H  23.69000 48.26500 22.20200
H  24.70200 48.13500 20.69400
H  23.26700 50.65500 20.43800
H  22.20100 49.24000 20.48600
H  23.48400 49.36700 19.35400
H  21.14400 51.41100 23.89100
H  21.51800 53.04600 24.57600
H  20.26400 51.96600 25.22600
H  21.98300 50.59900 29.85700
H  22.90200 54.56100 31.99100
H  23.42800 53.38100 33.19400
H  21.72900 53.86900 33.14700
Mg -2.18900 35.32900 26.85700
C  -3.47800 33.16000 29.30300
C  -0.84400 37.13800 29.26200
C  -0.97800 37.12700 24.42300
C  -3.85200 33.20800 24.36300
N  -2.21300 35.11000 29.09300
C  -2.56000 34.10900 29.84900
C  -2.25700 34.29100 31.31900
C  -1.50500 35.69600 31.29300
C  -1.57900 36.04300 29.78500
C  -2.08500 36.84000 32.23600
C  -1.50000 33.02800 31.83200
C  -1.96700 32.47000 33.17100
H  -0.94800 32.23700 34.28500
N  -1.18900 36.93300 26.80900
C  -0.65000 37.57400 27.94400
C  0.30200 38.61800 27.53200
C  0.37100 38.54000 26.14300
C  -0.62200 37.49700 25.70700
C  1.12900 39.53900 28.52900
C  1.20500 39.32900 25.19200
O  1.26400 39.19700 23.99200
C  2.12800 40.33500 25.73800
N  -2.62400 35.32600 24.74300
C  -1.92600 36.17600 23.94800
C  -2.25300 35.93900 22.46400
C  -3.06500 34.70100 22.45700
C  -3.22900 34.40400 23.94700
C  -2.95700 37.06300 21.69100
C  -2.44100 33.48300 21.62900
C  -1.23900 32.73500 22.29600
N  -3.49700 33.60200 26.75700
C  -4.08400 32.84900 25.71000
C  -4.81300 31.72200 26.23800
C  -4.70000 31.84500 27.67400
C  -3.79100 32.92000 27.93900
C  -5.47400 30.62300 25.48500
C  -5.03200 31.33000 28.90600
O  -5.79200 30.39900 29.17300
C  -4.21500 32.06000 30.04500
C  -5.11700 32.65200 31.04000
O  -5.87300 33.59900 30.85800
O  -5.03900 31.97700 32.22300
C  -6.12800 32.24100 33.14000
H  -0.27600 37.73300 29.98000
H  -0.68300 37.76400 23.58700
H  -4.32200 32.67100 23.53700
H  -3.19600 34.41000 31.86000
H  -0.52700 35.60000 31.76300
H  -2.95900 36.60300 32.84300
H  -2.35800 37.67800 31.59500
H  -1.36000 37.25200 32.93800
H  -0.43300 33.22600 31.93100
H  -1.47600 32.23300 31.08700
H  -2.53200 31.55300 33.00500
H  -2.65300 33.18400 33.62700
H  2.14700 39.79000 28.23000
H  1.08400 39.11600 29.53200
H  0.63500 40.49800 28.67800
H  2.96500 39.76400 26.13900
H  1.59100 40.94800 26.46200
H  2.45500 41.06900 25.00200
H  -1.25700 35.88900 22.02400
H  -4.12300 34.82600 22.22700
H  -3.64900 36.71700 20.92400
H  -2.17500 37.75400 21.37800
H  -3.51800 37.59800 22.45800
H  -2.23600 33.87300 20.63200
H  -3.23100 32.78100 21.36000
H  -0.92100 33.17800 23.23900
H  -0.31900 32.87700 21.72900
H  -1.48800 31.67900 22.40400
H  -4.93000 30.34400 24.58300
H  -6.47900 30.99500 25.28800
H  -5.59500 29.88200 26.27500
H  -3.56900 31.31600 30.51200
H  -7.02700 32.70100 32.73000
H  -5.74700 32.75500 34.02200
H  -6.42500 31.28800 33.58000

