158

Mg 8.32100 3.27700 28.50500
C  9.62700 1.75800 31.18400
C  6.24700 5.01800 30.65100
C  6.77400 4.50900 25.71400
C  10.18500 1.01800 26.42900
N  7.98000 3.36500 30.63800
C  8.78400 2.79300 31.56100
C  8.56200 3.28800 33.02900
C  7.25500 4.08200 32.81300
C  7.09700 4.12300 31.26700
C  5.94800 3.40300 33.35700
C  9.74200 4.15300 33.47200
C  10.43400 3.80400 34.83900
H  9.54900 3.12200 35.88400
N  6.80300 4.65000 28.18200
C  6.05300 5.21200 29.29300
C  5.07800 6.09300 28.71700
C  5.18300 6.00100 27.30200
C  6.24700 4.96100 26.96700
C  4.26500 7.11300 29.49000
C  4.29700 6.69900 26.22700
O  4.45700 6.51600 25.04500
C  3.25200 7.58200 26.72100
N  8.24300 2.55200 26.32900
C  7.67100 3.40900 25.41100
C  8.28300 3.19600 23.97500
C  9.37800 2.12000 24.20500
C  9.31500 1.92100 25.76300
C  7.19400 2.60200 23.01800
C  10.78200 2.60600 23.63800
C  11.51900 3.72100 24.44400
N  9.51600 1.65500 28.69500
C  10.24500 0.81300 27.80500
C  11.18600 -0.02000 28.53700
C  10.95400 0.36700 29.82900
C  9.95200 1.31800 29.88100
C  12.04800 -1.08500 28.04400
C  11.39900 0.10900 31.11600
O  12.36200 -0.62100 31.51200
C  10.55200 1.02600 32.07200
C  9.80700 0.17400 32.94700
O  8.80500 -0.42200 32.62300
O  10.35100 -0.07900 34.14700
C  9.63900 -0.80700 35.11800
H  5.65900 5.64400 31.32500
H  6.34400 4.97200 24.82300
H  11.06800 0.48700 26.06800
H  8.34400 2.46700 33.71100
H  7.33000 5.05500 33.29900
H  5.71800 2.69300 32.56300
H  5.12500 4.11600 33.30700
H  6.02100 2.96500 34.35300
H  9.54800 5.22300 33.40400
H  10.56200 3.98000 32.77500
H  10.76300 4.74600 35.27700
H  11.29200 3.18300 34.58100
H  4.53300 8.16600 29.39800
H  4.29200 6.95400 30.56800
H  3.23800 6.88700 29.20300
H  2.71000 7.96800 25.85700
H  3.75200 8.36200 27.29500
H  2.52500 7.06600 27.34900
H  8.59500 4.21000 23.72800
H  9.16300 1.10800 23.86200
H  6.29100 2.97800 23.49900
H  7.29500 1.52600 22.87400
H  7.29700 3.15400 22.08400
H  10.69500 2.96100 22.61200
H  11.39200 1.70800 23.53300
H  11.13400 3.92100 25.44400
H  11.32600 4.66900 23.94200
H  12.60800 3.67600 24.43100
H  13.03600 -0.79000 28.39700
H  12.09300 -1.13100 26.95600
H  11.73400 -1.99800 28.55100
H  11.16400 1.65200 32.72200
H  9.54500 -1.81900 34.72200
H  8.67200 -0.34400 35.31400
H  10.29200 -0.68300 35.98100
Mg 24.86400 -4.81000 45.87500
C  26.97100 -2.53000 44.54700
C  22.26500 -3.60300 43.80600
C  23.11000 -7.75200 46.19600
C  27.67700 -6.37800 47.46300
N  24.62700 -3.30500 44.38300
C  25.67500 -2.46900 43.95200
C  25.21300 -1.52600 42.81200
C  23.66100 -1.72100 42.69900
C  23.47900 -2.95600 43.67900
C  22.74600 -0.47900 43.20400
C  26.07600 -1.53700 41.43500
C  25.63600 -0.55800 40.30100
H  25.93400 -0.92600 38.82200
N  22.89000 -5.53900 45.23300
C  21.94900 -4.84500 44.44500
C  20.69800 -5.55900 44.48000
C  20.97100 -6.75800 45.20700
C  22.37600 -6.78200 45.54900
C  19.45600 -5.18600 43.69400
C  19.86900 -7.83200 45.49400
O  18.75700 -7.64200 45.06200
C  20.14300 -9.04200 46.28000
N  25.35100 -6.84100 46.66200
C  24.42400 -7.80500 46.67000
C  25.11100 -9.08500 47.39800
C  26.54500 -8.58900 47.80100
C  26.51100 -7.18500 47.25300
C  24.44200 -9.61700 48.65600
C  27.79300 -9.38700 47.38500
C  28.73700 -9.78300 48.51700
N  26.96800 -4.38100 46.11400
C  27.97100 -5.09100 46.81500
C  29.21800 -4.25000 46.76800
C  28.81600 -3.25000 45.82600
C  27.44900 -3.44100 45.49400
C  30.51200 -4.53200 47.39500
C  29.27000 -2.03600 45.17600
O  30.39000 -1.49200 45.34300
C  28.12100 -1.60000 44.19100
C  27.84000 -0.20600 44.41600
O  27.17800 0.22600 45.34300
O  28.53600 0.56000 43.48600
C  28.18600 1.93100 43.61400
H  21.41200 -3.25100 43.22000
H  22.53300 -8.66100 46.38000
H  28.49000 -6.84500 48.02300
H  25.42900 -0.55700 43.26400
H  23.49400 -2.10700 41.69300
H  22.21900 -0.17500 42.30000
H  23.44800 0.29200 43.52100
H  21.93000 -0.68500 43.89700
H  26.02800 -2.55500 41.04800
H  27.14600 -1.43200 41.61100
H  26.25300 0.28200 40.62100
H  24.58600 -0.30700 40.44900
H  19.12400 -5.77600 42.84000
H  19.64700 -4.14900 43.41600
H  18.55800 -5.04700 44.29600
H  19.28000 -9.68800 46.44400
H  20.65900 -8.68100 47.17000
H  20.88400 -9.60400 45.71200
H  25.14000 -9.82700 46.60000
H  26.53200 -8.46800 48.88400
H  23.75200 -8.81300 48.91200
H  25.03100 -9.79300 49.55500
H  23.92200 -10.55700 48.46700
H  28.42400 -8.84300 46.68100
H  27.46700 -10.32700 46.94000
H  28.29100 -9.58100 49.49100
H  29.64900 -9.19100 48.44100
H  28.96700 -10.84600 48.44200
H  31.00200 -3.56800 47.53300
H  31.17100 -5.13300 46.76900
H  30.44600 -5.09300 48.32700
H  28.50100 -1.72700 43.17700
H  27.10000 2.02000 43.61200
H  28.45000 2.37800 42.65600
H  28.76300 2.38100 44.42200

