158

Mg 25.86300 0.76200 29.22100
C  27.77400 0.36800 31.98800
C  23.18700 1.43700 31.22400
C  24.08200 1.23500 26.49000
C  28.63300 -0.19700 27.10900
N  25.59900 0.84500 31.39300
C  26.49300 0.72800 32.40200
C  25.98200 1.00100 33.84300
C  24.47000 1.15000 33.51300
C  24.40800 1.27500 31.93700
C  23.52900 -0.07800 33.94700
C  26.68500 2.15300 34.73200
C  27.30000 1.65600 36.08300
H  27.29500 2.59300 37.28200
N  23.85400 1.19300 28.91400
C  22.91700 1.43800 29.85700
C  21.71100 1.74100 29.18800
C  21.98500 1.76500 27.83200
C  23.35300 1.44200 27.71000
C  20.39500 1.89200 29.93600
C  20.98900 1.97600 26.66800
O  21.26800 1.95400 25.49200
C  19.52100 2.29100 26.99400
N  26.37500 0.64800 27.14100
C  25.41000 0.89800 26.24600
C  25.93800 0.66700 24.75400
C  27.31400 0.08400 25.02000
C  27.53600 0.23700 26.53500
C  24.97700 -0.15400 23.80400
C  28.44400 0.78500 24.14400
C  29.07100 2.16900 24.49700
N  27.80500 0.22800 29.43800
C  28.80300 -0.22000 28.47900
C  29.97500 -0.60200 29.24600
C  29.63400 -0.46700 30.59800
C  28.34500 0.12600 30.68000
C  31.24500 -1.06900 28.64400
C  30.16600 -0.55400 31.89000
O  31.22900 -0.86400 32.33600
C  29.03200 0.09500 32.85600
C  28.68700 -0.99900 33.84200
O  27.96600 -1.95400 33.58100
O  29.24300 -0.76200 35.07700
C  29.03800 -1.83400 36.03100
H  22.34700 1.78400 31.82900
H  23.54100 1.43400 25.56200
H  29.49600 -0.50000 26.51200
H  26.20900 0.04300 34.31000
H  24.16400 2.13900 33.85300
H  24.04800 -0.52100 34.79700
H  23.49100 -0.81200 33.14200
H  22.51800 0.25300 34.18500
H  26.02100 2.99100 34.93900
H  27.58700 2.37700 34.16200
H  28.33400 1.36200 35.90100
H  26.62000 0.85000 36.35700
H  19.82100 1.05500 29.54000
H  19.83800 2.78100 29.63900
H  20.33100 1.83200 31.02300
H  19.01500 2.49200 26.04900
H  19.31100 3.15200 27.62700
H  19.08400 1.33800 27.29300
H  26.05300 1.64000 24.27600
H  27.28300 -0.99500 24.86900
H  25.63500 -0.51600 23.01300
H  24.13300 0.44600 23.46400
H  24.58100 -1.04600 24.29000
H  27.98800 0.84500 23.15600
H  29.17100 -0.02600 24.17200
H  29.99500 1.88900 25.00300
H  28.59400 2.74100 25.29300
H  29.19900 2.82500 23.63600
H  32.02400 -0.30800 28.60300
H  31.03800 -1.30000 27.59900
H  31.58000 -1.99400 29.11300
H  29.35500 0.91000 33.50400
H  29.81600 -1.76300 36.79100
H  29.16000 -2.84300 35.63600
H  28.11600 -1.68000 36.59100
Mg 35.01500 48.47500 25.09800
C  35.16600 46.70700 28.10500
C  33.55000 51.05700 26.82100
C  34.66400 50.07700 22.19600
C  36.27700 45.54700 23.45400
N  34.52800 48.88900 27.20500
C  34.70500 48.00700 28.25600
C  34.37000 48.65400 29.58700
C  33.62300 49.93200 29.15100
C  33.91400 49.98700 27.62500
C  32.12700 49.94900 29.50900
C  35.71900 48.97500 30.32500
C  35.73200 48.49500 31.80700
H  34.49100 48.54600 32.68100
N  34.23900 50.26600 24.58400
C  33.69400 51.23500 25.41900
C  33.38900 52.38800 24.72900
C  33.94000 52.21300 23.44500
C  34.39100 50.79800 23.33600
C  32.70100 53.57600 25.40300
C  34.06700 53.21800 22.27600
O  34.68400 52.98500 21.24500
C  33.38000 54.57600 22.46400
N  35.44100 47.90600 23.16900
C  35.07200 48.72000 22.11500
C  35.40300 48.00900 20.78000
C  36.26100 46.78400 21.15500
C  35.81100 46.62800 22.68000
C  34.09900 47.45800 20.02300
C  37.81600 46.99400 20.92900
C  38.55100 45.87500 20.14500
N  35.58000 46.54000 25.63000
C  36.04100 45.46900 24.91600
C  36.18200 44.30700 25.75900
C  35.91200 44.76800 27.03100
C  35.43900 46.10300 26.87200
C  36.73800 42.97200 25.31600
C  35.81100 44.38900 28.41900
O  35.97300 43.30700 28.95800
C  35.35300 45.60900 29.26100
C  34.10900 45.22900 29.92600
O  32.96200 45.36300 29.53800
O  34.45600 44.74100 31.14200
C  33.30900 44.42600 32.01700
H  33.07400 51.76400 27.50400
H  34.60100 50.57700 21.22700
H  36.63900 44.74000 22.81400
H  33.79600 47.93800 30.17500
H  34.11300 50.76900 29.64800
H  31.79800 48.91800 29.64000
H  31.59200 50.40700 28.67700
H  32.05200 50.58800 30.38900
H  35.74400 50.06500 30.33100
H  36.56800 48.58900 29.76200
H  36.24000 49.25300 32.40400
H  36.31400 47.58400 31.94900
H  31.80400 53.76600 24.81300
H  33.28200 54.48300 25.57100
H  32.33300 53.31500 26.39500
H  32.30500 54.44100 22.57900
H  33.47600 55.16200 21.55000
H  33.88800 55.13900 23.24700
H  35.94100 48.67400 20.10400
H  35.90700 45.86700 20.68400
H  34.11200 47.76200 18.97600
H  33.26000 47.84300 20.60300
H  33.88800 46.38900 19.99400
H  38.35800 47.22400 21.84600
H  37.89500 47.92600 20.36800
H  37.86400 45.10400 19.79500
H  39.14500 45.30100 20.85600
H  39.23600 46.23600 19.37700
H  37.65500 43.11700 24.74500
H  36.00000 42.61300 24.59900
H  36.84100 42.30100 26.16900
H  36.12200 46.07700 29.87500
H  33.58400 44.17400 33.04100
H  32.60500 43.74200 31.54400
H  32.69900 45.32300 32.12700

