158

Mg 28.90900 56.89000 40.36900
C  26.99700 54.03200 39.67200
C  31.68000 54.97800 39.75000
C  30.65000 59.63500 40.70900
C  25.91400 58.61900 40.95700
N  29.21000 54.81600 39.48900
C  28.29500 53.82500 39.38900
C  28.96400 52.50400 38.96100
C  30.35700 52.81000 39.33000
C  30.43800 54.32800 39.51100
C  30.80700 52.17300 40.66400
C  28.80600 52.11500 37.52700
C  29.29800 53.18500 36.49200
H  28.25800 53.69000 35.42800
N  30.95300 57.22400 40.27900
C  31.91600 56.31800 40.15100
C  33.24800 56.97300 40.34100
C  32.97100 58.37100 40.61000
C  31.49800 58.47400 40.58300
C  34.51400 56.22000 40.07100
C  34.01000 59.43300 40.93600
O  35.22400 59.14300 40.73000
C  33.62300 60.71900 41.49700
N  28.35500 58.85500 40.42700
C  29.28600 59.81400 40.82300
C  28.68000 61.18900 40.75700
C  27.16400 60.85900 40.94700
C  27.13000 59.28600 40.83600
C  29.35100 62.38000 41.61000
C  26.24900 61.61300 40.00500
C  25.89400 63.00500 40.39500
N  26.76200 56.49200 40.40900
C  25.76500 57.25200 40.70900
C  24.58600 56.47300 40.74000
C  24.97400 55.21400 40.32800
C  26.37800 55.28400 40.17000
C  23.17800 56.87300 41.02700
C  24.53200 53.79700 40.10300
O  23.42500 53.34400 40.33500
C  25.81500 53.00700 39.53800
C  26.01200 51.81500 40.38300
O  26.25600 51.83900 41.58800
O  25.93700 50.68400 39.60600
C  25.87200 49.39900 40.24000
H  32.55000 54.31900 39.80300
H  31.25000 60.54500 40.77900
H  25.00900 59.18800 41.17900
H  28.52400 51.77400 39.64000
H  31.12200 52.50400 38.61700
H  30.38800 51.17700 40.80500
H  30.37500 52.70500 41.51100
H  31.88900 52.03300 40.65900
H  27.79000 51.83800 37.24300
H  29.50200 51.28300 37.42600
H  30.23400 52.92100 36.00000
H  29.66600 54.05000 37.04500
H  35.39300 56.84100 40.24200
H  34.50000 55.79800 39.06600
H  34.47700 55.28700 40.63200
H  33.10700 61.33800 40.76300
H  34.51200 61.25500 41.82900
H  33.04300 60.46600 42.38500
H  28.67600 61.64100 39.76500
H  26.94200 61.03500 42.00000
H  30.29900 62.00600 41.99800
H  28.77400 62.47400 42.53000
H  29.38500 63.30300 41.03100
H  25.33900 61.03000 39.86500
H  26.66800 61.75500 39.00900
H  24.81000 63.09700 40.32400
H  26.44200 63.70000 39.75800
H  26.21200 63.39300 41.36200
H  22.73300 57.28800 40.12200
H  23.29500 57.73800 41.68000
H  22.65500 56.10700 41.59800
H  25.52300 52.86000 38.49800
H  26.87900 48.98500 40.20200
H  25.15000 48.81500 39.66900
H  25.49900 49.39800 41.26400
Mg 10.55700 46.77300 25.51400
C  8.39900 47.22700 28.11100
C  13.13500 47.80300 27.47400
C  12.55000 46.35400 22.87800
C  7.83300 46.09500 23.38500
N  10.67400 47.70400 27.49100
C  9.77700 47.48000 28.44900
C  10.36400 47.67000 29.81100
C  11.81100 48.27000 29.50300
C  11.86100 47.87200 28.05000
C  11.86800 49.78300 29.75400
C  10.37400 46.27200 30.62900
C  11.29300 45.93100 31.78200
H  10.60100 45.12100 32.84500
N  12.53200 46.97400 25.21800
C  13.49100 47.36400 26.13100
C  14.87000 47.15100 25.65900
C  14.70400 46.60900 24.38400
C  13.17500 46.59900 24.09500
C  16.09000 47.64200 26.38000
C  15.69800 46.27900 23.33700
O  15.42500 45.82100 22.21300
C  17.17600 46.36000 23.69500
N  10.20500 46.45200 23.32200
C  11.23800 46.26100 22.46100
C  10.84000 46.05700 21.04900
C  9.29500 45.92100 21.22000
C  9.03200 46.18200 22.72600
C  11.26200 47.21700 20.24300
C  8.78400 44.54900 20.69300
C  8.23200 44.60100 19.23000
N  8.50200 46.72400 25.66600
C  7.48300 46.34600 24.73400
C  6.22300 46.35000 25.39500
C  6.52700 46.63000 26.75700
C  7.90700 46.87200 26.85800
C  4.84800 46.19300 24.88500
C  5.96700 46.69500 28.04400
O  4.78500 46.54900 28.45600
C  7.17000 46.95900 28.96000
C  7.27100 45.64400 29.78200
O  7.90800 44.66900 29.38400
O  6.59400 45.76300 31.00300
C  6.68000 44.49800 31.85400
H  14.01200 48.05200 28.07500
H  13.25400 46.40900 22.04500
H  6.88200 46.01400 22.85300
H  9.70000 48.44000 30.20300
H  12.57200 47.68200 30.01700
H  10.87400 50.22200 29.67700
H  12.41600 50.29300 28.96200
H  12.16700 50.03000 30.77300
H  10.36700 45.33800 30.06800
H  9.37100 46.37800 31.04300
H  11.67000 46.83900 32.25300
H  12.23400 45.47100 31.48100
H  16.00500 47.49300 27.45700
H  16.06800 48.71700 26.20000
H  17.04400 47.23300 26.04800
H  17.94600 46.15800 22.95100
H  17.28300 45.57900 24.44800
H  17.30800 47.40100 23.99100
H  11.23200 45.12600 20.63900
H  8.77500 46.71100 20.67800
H  12.15400 46.97000 19.66800
H  11.59500 48.08900 20.80600
H  10.46300 47.39500 19.52300
H  7.93400 44.11900 21.22200
H  9.50600 43.74300 20.82700
H  7.87400 45.60500 19.00100
H  7.43500 43.87500 19.06500
H  8.96600 44.27200 18.49500
H  4.90900 46.58400 23.86900
H  4.03600 46.76400 25.33600
H  4.53900 45.14900 24.83200
H  7.01300 47.63000 29.80500
H  7.63600 43.99700 31.70000
H  5.93900 43.73200 31.62500
H  6.50900 44.64800 32.92000

