158

Mg 39.49500 10.31900 29.70400
C  41.45500 11.75200 32.23900
C  37.37800 9.12600 32.04100
C  37.72600 8.81000 27.09900
C  42.19300 10.66700 27.58300
N  39.48500 10.34600 31.96600
C  40.33600 11.05600 32.74600
C  39.78400 11.08500 34.22900
C  38.64300 9.99500 34.15900
C  38.46400 9.77300 32.59500
C  38.85000 8.62300 34.85300
C  39.42400 12.52500 34.78600
C  40.14700 12.96200 36.05000
H  39.33300 13.57300 37.21600
N  37.73900 9.24800 29.57700
C  37.05300 8.75500 30.70700
C  35.77700 8.25600 30.23600
C  35.87200 8.11500 28.79500
C  37.19000 8.68800 28.44600
C  34.74800 7.87800 31.27100
C  34.84900 7.67300 27.78500
O  34.98700 7.61000 26.58000
C  33.58700 7.22500 28.35700
N  39.91000 9.77600 27.64100
C  38.95600 9.39000 26.71500
C  39.50600 9.44800 25.28800
C  40.98300 9.70600 25.57800
C  41.05300 10.11700 27.01500
C  39.27600 8.15600 24.43200
C  41.61200 10.71000 24.54400
C  41.36000 12.19700 24.73400
N  41.43600 11.05600 29.80500
C  42.41800 11.14800 28.87900
C  43.55100 11.81800 29.32100
C  43.25700 12.05200 30.66700
C  41.95300 11.52900 30.94400
C  44.69200 12.12100 28.56300
C  43.73400 12.61800 31.88300
O  44.79200 13.23200 31.98000
C  42.69000 12.35900 32.99700
C  43.20000 11.30400 33.93100
O  43.55900 10.17200 33.64300
O  43.29100 11.73000 35.25300
C  43.72100 10.76900 36.30200
H  36.67300 8.69100 32.75300
H  37.12800 8.39700 26.28400
H  43.03000 10.77500 26.88900
H  40.50300 10.74000 34.97200
H  37.68100 10.27700 34.58800
H  39.77100 8.62600 35.43700
H  38.92400 7.85000 34.08900
H  37.98800 8.30200 35.43700
H  38.35800 12.57600 35.00700
H  39.55900 13.23300 33.96800
H  41.01300 13.55800 35.76200
H  40.45500 12.01000 36.48200
H  34.91000 6.82600 31.50600
H  33.74900 8.04100 30.86600
H  34.75500 8.54200 32.13400
H  32.99400 7.91100 28.96100
H  33.78500 6.38200 29.01900
H  32.88600 6.82100 27.62600
H  39.11100 10.30000 24.73500
H  41.49900 8.74800 25.64900
H  39.15200 8.28800 23.35700
H  38.29300 7.77100 24.70200
H  39.90800 7.28400 24.60500
H  41.21000 10.37200 23.58900
H  42.68300 10.52300 24.46600
H  40.46100 12.46500 25.28900
H  41.26100 12.64400 23.74400
H  42.20600 12.65200 25.24800
H  45.47200 12.45700 29.24600
H  44.49700 12.99000 27.93400
H  44.93500 11.23900 27.97100
H  42.38400 13.24100 33.56100
H  44.73800 10.50200 36.01500
H  43.03200 9.92600 36.23700
H  43.73300 11.17700 37.31200
Mg 17.56800 52.40700 26.02300
C  19.66800 51.10600 28.49800
C  15.36700 53.25000 28.38800
C  15.67900 53.28500 23.47500
C  19.90800 50.97300 23.60600
N  17.46000 51.93600 28.22100
C  18.48400 51.60900 28.99000
C  18.06100 51.71700 30.45600
C  16.55000 52.08200 30.39100
C  16.48000 52.55800 28.94600
C  15.55900 50.80600 30.60800
C  18.89600 52.79000 31.16400
C  19.21100 52.72000 32.62000
H  18.23300 52.00900 33.50600
N  15.66700 53.17100 25.90700
C  14.97300 53.49300 27.01900
C  13.88000 54.30400 26.56700
C  13.86400 54.26700 25.12300
C  15.05300 53.44900 24.75600
C  12.90000 55.03200 27.47400
C  12.97100 55.01600 24.14200
O  13.18400 54.95300 22.95500
C  11.81700 55.93700 24.64000
N  17.68100 52.04300 23.91300
C  16.80100 52.59600 23.09700
C  17.09300 52.50700 21.64200
C  18.45600 51.68600 21.61000
C  18.74100 51.51200 23.09000
C  16.00700 51.62800 20.93300
C  19.55500 52.58200 20.93400
C  20.46400 51.94300 19.83700
N  19.37300 51.26400 26.03500
C  20.22100 50.82900 24.96700
C  21.40900 50.24000 25.55000
C  21.24500 50.40400 26.90800
C  19.99900 50.97800 27.14800
C  22.60800 49.76700 24.82700
C  21.89700 50.31300 28.18500
O  22.99800 49.91400 28.55100
C  20.86100 50.65000 29.26000
C  20.54400 49.41700 30.16400
O  20.13500 48.31400 29.85100
O  20.95300 49.73500 31.44200
C  20.98200 48.62200 32.43000
H  14.68700 53.49100 29.20700
H  15.06500 53.75000 22.70100
H  20.67300 50.69300 22.87900
H  18.27500 50.74900 30.90800
H  16.30000 52.90400 31.06200
H  15.03400 50.55400 29.68600
H  14.71100 50.89300 31.28800
H  16.11000 49.91900 30.91700
H  18.58700 53.81000 30.93400
H  19.84600 52.78800 30.62900
H  19.16700 53.69800 33.09900
H  20.18000 52.25300 32.79800
H  13.02700 56.11300 27.41100
H  13.19200 54.93400 28.52000
H  11.87300 54.74300 27.25000
H  11.08500 55.46800 25.29700
H  11.38700 56.36700 23.73500
H  12.24600 56.71300 25.27500
H  17.07000 53.50800 21.21100
H  18.34800 50.65600 21.27000
H  15.57700 50.85100 21.56500
H  16.39900 51.08100 20.07500
H  15.16600 52.24500 20.61400
H  20.35600 52.91700 21.59200
H  19.07000 53.47500 20.54100
H  20.39200 52.56300 18.94400
H  20.19900 50.92800 19.54200
H  21.46500 51.92800 20.27000
H  23.04100 50.42900 24.07700
H  22.28700 48.87200 24.29400
H  23.45800 49.43200 25.42200
H  21.36100 51.41400 29.85600
H  21.13800 47.62300 32.02500
H  20.07900 48.58200 33.03900
H  21.88500 48.84500 32.99800

