158

Mg 46.09400 44.87000 42.56900
C  42.63200 44.03300 42.36000
C  46.92600 41.67100 41.78100
C  49.30200 45.74400 42.35000
C  45.10900 48.15800 42.65600
N  44.86300 43.09400 42.04000
C  43.49100 42.93700 42.02200
C  43.08600 41.47100 41.97000
C  44.49700 40.78100 41.76700
C  45.51900 41.93100 41.84300
C  44.75800 39.63500 42.80700
C  42.00000 41.12000 40.85900
C  42.04400 41.93000 39.52700
H  41.81800 41.19600 38.11200
N  47.86600 43.89500 42.23000
C  48.00800 42.52600 41.97300
C  49.40400 42.11800 41.90400
C  50.18300 43.34400 42.02800
C  49.13700 44.43300 42.17200
C  49.95500 40.69000 41.83000
C  51.71400 43.40300 41.96700
O  52.40500 42.39700 41.87700
C  52.39200 44.73700 42.07300
N  47.05000 46.73400 42.22700
C  48.40500 46.82600 42.41600
C  48.85000 48.30400 42.55900
C  47.39400 49.00600 42.56500
C  46.47900 47.87200 42.57800
C  49.83600 48.72900 43.73300
C  47.11900 49.97600 41.40000
C  46.97200 51.47300 41.82500
N  44.25700 45.95600 42.67800
C  44.00000 47.29100 42.70500
C  42.63700 47.60100 42.77400
C  42.00300 46.37700 42.64700
C  43.06800 45.39200 42.55500
C  41.96800 48.97600 43.17100
C  40.75500 45.65500 42.56700
O  39.59400 46.02000 42.51900
C  41.12800 44.10200 42.42100
C  40.68600 43.40800 43.64900
O  40.40300 42.24300 43.68200
O  40.71200 44.11900 44.84200
C  40.90000 43.38200 46.15700
H  47.19100 40.63300 41.57100
H  50.31900 46.13200 42.43900
H  44.81800 49.19000 42.85800
H  42.76400 41.33800 43.00300
H  44.61800 40.34400 40.77600
H  45.51300 39.92300 43.53900
H  45.06300 38.77800 42.20600
H  43.87300 39.36700 43.38400
H  41.00600 41.13600 41.30700
H  42.31200 40.08600 40.71100
H  43.01400 42.42300 39.46500
H  41.31500 42.73400 39.42500
H  50.70900 40.67600 41.04300
H  49.19200 39.94600 41.60200
H  50.47400 40.50200 42.77000
H  51.98300 45.34300 41.26400
H  53.47300 44.68500 41.94100
H  52.13000 45.13100 43.05500
H  49.34600 48.74200 41.69300
H  47.28900 49.48100 43.54000
H  49.29000 49.37900 44.41600
H  50.72600 49.17800 43.29200
H  50.20900 47.77600 44.10800
H  46.23000 49.62700 40.87500
H  47.95100 50.01000 40.69700
H  47.63500 52.06100 41.19100
H  47.38700 51.56800 42.82800
H  45.96900 51.88300 41.70200
H  41.30300 48.82400 44.02200
H  41.33700 49.31700 42.35100
H  42.68200 49.77200 43.38500
H  40.64900 43.67400 41.54000
H  40.67200 44.04100 46.99500
H  41.98200 43.25300 46.13300
H  40.27800 42.48700 46.17900
Mg -10.37500 17.95900 43.35600
C  -7.15200 16.61700 42.67200
C  -9.00700 21.05300 42.35700
C  -13.52700 19.05700 42.99200
C  -11.57100 14.68500 43.55000
N  -8.27700 18.73100 42.63700
C  -7.15300 18.00800 42.50100
C  -6.00400 18.94300 42.12500
C  -6.61300 20.34300 42.24200
C  -8.03300 20.02900 42.52500
C  -5.91600 21.29600 43.19500
C  -5.20600 18.69400 40.78900
C  -5.92200 17.96500 39.52100
H  -5.45200 18.38100 38.12100
N  -11.15500 19.78000 42.80900
C  -10.43800 20.94100 42.48200
C  -11.39300 21.96900 42.25100
C  -12.68900 21.40600 42.38600
C  -12.52800 20.00100 42.79100
C  -11.00100 23.41300 41.98300
C  -14.12700 22.15900 42.26300
O  -14.15400 23.34700 41.90300
C  -15.47500 21.50300 42.67200
N  -12.35400 16.97400 43.21200
C  -13.48900 17.63900 43.24100
C  -14.69200 16.68700 43.49100
C  -14.04500 15.31600 43.70500
C  -12.61100 15.64600 43.54100
C  -15.57500 17.10200 44.69200
C  -14.61000 14.30500 42.56300
C  -15.07000 12.94500 43.04100
N  -9.54000 16.11300 43.32200
C  -10.18700 14.84300 43.36300
C  -9.15800 13.84000 43.34800
C  -7.94400 14.45400 43.12500
C  -8.27300 15.84300 43.02800
C  -9.44800 12.36000 43.54900
C  -6.42500 14.25500 42.91400
O  -5.86100 13.19000 42.95900
C  -5.96900 15.64700 42.58200
C  -4.91700 16.03800 43.52400
O  -3.76100 15.92900 43.27600
O  -5.36400 16.60000 44.71900
C  -4.36400 17.00800 45.75500
H  -8.58600 22.00800 42.03800
H  -14.58000 19.33900 42.93100
H  -11.83800 13.63600 43.68800
H  -5.33900 18.76600 42.97100
H  -6.65800 20.87600 41.29200
H  -5.18300 20.64300 43.67000
H  -6.73700 21.75200 43.74700
H  -5.49800 22.16300 42.68400
H  -4.26700 18.21400 41.06500
H  -4.95800 19.68300 40.40500
H  -7.00500 17.85500 39.57900
H  -5.38600 17.01700 39.57200
H  -11.14300 23.75200 40.95700
H  -9.96900 23.53300 42.31100
H  -11.53900 24.04300 42.69100
H  -15.30600 21.12300 43.68000
H  -15.83000 20.68700 42.04300
H  -16.24400 22.27300 42.60800
H  -15.30100 16.83200 42.59900
H  -14.32000 14.97900 44.70400
H  -15.21100 17.89300 45.34800
H  -15.81700 16.20900 45.26800
H  -16.44300 17.69000 44.39200
H  -13.83900 14.16600 41.80500
H  -15.39000 14.86800 42.05000
H  -14.47900 12.13400 42.61600
H  -16.12200 12.71100 42.87900
H  -14.78900 12.85800 44.09100
H  -10.19800 12.15400 44.31300
H  -8.50600 11.90700 43.85700
H  -9.62600 12.01500 42.53000
H  -5.50300 15.51600 41.60600
H  -4.55200 16.33400 46.59100
H  -4.48800 18.06100 46.00600
H  -3.28600 16.93500 45.61100

