158

Mg 40.81700 9.90700 30.07500
C  42.38300 10.95200 32.94500
C  38.04600 8.90300 31.87900
C  39.52000 8.66700 27.15800
C  43.49900 11.23900 28.21200
N  40.35900 9.71800 32.21000
C  41.09300 10.34200 33.14600
C  40.31800 10.51200 34.45000
C  39.09900 9.63700 34.19400
C  39.09000 9.45500 32.63000
C  38.90700 8.28300 34.98300
C  40.05600 11.99900 34.76200
C  39.56300 12.20500 36.15500
H  40.44600 13.02100 37.09700
N  39.02700 8.94900 29.59300
C  38.00200 8.56800 30.45900
C  37.04700 7.69300 29.67500
C  37.46000 7.66700 28.33500
C  38.69400 8.48700 28.28400
C  35.86300 7.06900 30.28700
C  36.82200 6.96900 27.15500
O  37.24100 7.15600 26.06600
C  35.61200 6.26300 27.30400
N  41.47300 9.89200 27.95100
C  40.67000 9.37600 26.98900
C  41.27100 9.69200 25.64400
C  42.40600 10.77900 25.99200
C  42.48000 10.69400 27.45200
C  41.73000 8.47900 24.72800
C  42.13000 12.21400 25.43600
C  41.01600 12.97500 26.14100
N  42.68500 10.69900 30.44900
C  43.63500 11.20400 29.59500
C  44.74400 11.67700 30.40300
C  44.30100 11.64400 31.71200
C  43.02800 11.09600 31.71600
C  45.98500 12.26600 29.85300
C  44.57600 12.03200 33.05200
O  45.58400 12.57600 33.56000
C  43.33500 11.60000 33.91600
C  43.80400 10.66300 34.94300
O  44.49600 9.64800 34.65500
O  43.40800 11.13800 36.21800
C  43.66700 10.21100 37.31900
H  37.10100 8.63200 32.35400
H  39.29200 8.16400 26.21500
H  44.27600 11.63700 27.55700
H  40.80100 10.02200 35.29500
H  38.22800 10.17500 34.56900
H  39.84600 8.16000 35.52200
H  38.76500 7.42300 34.32800
H  38.09100 8.44500 35.68800
H  39.31200 12.40800 34.07800
H  40.96800 12.58000 34.62800
H  39.44800 11.31900 36.78000
H  38.59800 12.70600 36.07400
H  35.09700 7.83500 30.17600
H  35.99300 6.88900 31.35500
H  35.66700 6.06600 29.90600
H  35.42100 5.98400 26.26700
H  34.85400 7.02200 27.49400
H  35.62300 5.34100 27.88400
H  40.56300 10.30300 25.08400
H  43.38500 10.42800 25.66500
H  41.30700 7.54400 25.09600
H  42.80600 8.31600 24.66000
H  41.31700 8.73100 23.75100
H  41.92500 12.01500 24.38400
H  43.03400 12.81300 25.54100
H  41.31900 13.99300 26.38800
H  40.55200 12.48100 26.99500
H  40.23600 13.07100 25.38700
H  46.66400 12.44500 30.68700
H  45.64800 13.05400 29.18000
H  46.51600 11.54800 29.22900
H  43.03100 12.53300 34.39100
H  44.46600 9.49200 37.13900
H  42.74000 9.74900 37.65800
H  43.99600 10.86100 38.13000
Mg 49.66600 47.78900 43.32300
C  46.35200 48.36200 42.27200
C  49.81100 44.80900 41.38400
C  53.09600 47.65300 43.79700
C  49.81900 51.01400 44.44400
N  48.24500 46.79100 41.88100
C  46.96500 47.22300 41.73800
C  46.38900 46.16200 40.78800
C  47.31000 44.83200 40.82400
C  48.55700 45.50600 41.40500
C  46.79600 43.67800 41.72200
C  46.20700 46.64100 39.33800
C  44.78900 46.46700 38.73300
H  44.56000 45.46300 37.60800
N  51.23400 46.46100 42.66100
C  51.06100 45.23200 41.98000
C  52.29600 44.54100 41.93200
C  53.23600 45.27600 42.73800
C  52.55300 46.51800 43.12700
C  52.29300 43.09700 41.34900
C  54.63800 44.80800 43.16800
O  54.99300 43.71900 42.79900
C  55.58200 45.67300 43.95800
N  51.38000 49.17600 43.89200
C  52.54900 48.80000 44.28900
C  53.31100 49.85100 45.07600
C  52.21700 50.91600 45.40600
C  51.03600 50.39200 44.52000
C  54.15100 49.33500 46.29300
C  52.66100 52.39100 45.03000
C  52.26800 53.54600 45.99600
N  48.40300 49.30600 43.54000
C  48.53600 50.58000 44.05500
C  47.29900 51.35300 44.04700
C  46.35200 50.45900 43.38800
C  47.10200 49.28100 43.05000
C  46.89500 52.67200 44.74600
C  44.95600 50.22700 43.04500
O  44.00600 50.97600 43.20500
C  44.99900 48.95500 42.17300
C  43.84700 48.04500 42.70700
O  43.50300 47.94700 43.87300
O  43.31700 47.30500 41.69100
C  42.26800 46.37300 41.99000
H  49.79400 43.79500 40.97800
H  54.16600 47.59800 44.00700
H  49.87600 51.99200 44.92600
H  45.38400 45.98500 41.17100
H  47.42800 44.38600 39.83600
H  47.14800 42.76600 41.24000
H  45.71100 43.59000 41.76700
H  47.24000 43.69700 42.71700
H  46.96000 46.13500 38.73400
H  46.51500 47.68600 39.32300
H  44.51900 47.45100 38.35200
H  44.01300 46.15400 39.43200
H  51.65100 42.53400 42.02600
H  53.31800 42.74500 41.22800
H  51.87700 43.21400 40.34800
H  55.82800 46.55700 43.36900
H  56.41300 45.00400 44.18300
H  55.01800 45.83800 44.87600
H  54.11300 50.19600 44.42200
H  51.98800 50.88700 46.47100
H  53.97000 48.26000 46.26100
H  53.60200 49.74100 47.14200
H  55.20000 49.59000 46.14200
H  52.54500 52.65400 43.97900
H  53.74400 52.29400 45.10400
H  53.13300 53.92700 46.53800
H  51.54400 53.13300 46.69800
H  51.77700 54.38000 45.49400
H  46.16800 52.60300 45.55500
H  46.37400 53.27100 43.99800
H  47.74500 53.23400 45.13200
H  44.75600 49.26300 41.15600
H  41.30400 46.82800 42.21800
H  42.60800 45.65400 42.73400
H  42.18300 45.82600 41.05100

