158

Mg -2.12300 16.97400 26.25700
C  -2.32200 14.72600 28.95700
C  -2.14200 19.51500 28.47300
C  -2.65000 19.02300 23.59200
C  -2.56500 14.20000 24.01800
N  -2.61900 17.06300 28.52900
C  -2.55800 16.04200 29.41900
C  -2.83000 16.58100 30.83000
C  -2.73400 18.11600 30.50200
C  -2.41100 18.27400 29.05300
C  -4.02100 18.89100 30.93500
C  -2.00700 16.01300 32.02100
C  -1.80600 17.02400 33.19500
H  -1.45800 16.48800 34.59700
N  -2.32400 18.97800 26.07600
C  -2.22500 19.91900 27.11100
C  -2.15300 21.25100 26.47400
C  -2.25600 21.09100 25.07400
C  -2.45600 19.63000 24.85300
C  -1.93900 22.42100 27.26500
C  -2.07200 22.11500 24.01500
O  -2.26100 21.84100 22.80000
C  -1.44900 23.36600 24.33300
N  -2.71900 16.65400 24.11000
C  -2.82600 17.70200 23.24000
C  -3.34000 17.18300 21.85500
C  -2.88200 15.66700 21.91600
C  -2.69400 15.47200 23.42200
C  -4.82800 17.38500 21.79400
C  -1.67600 15.18400 20.99700
C  -0.35200 15.20500 21.77000
N  -2.28300 14.86300 26.40500
C  -2.52400 13.92200 25.40000
C  -2.49100 12.56600 26.03400
C  -2.36900 12.91200 27.46700
C  -2.34300 14.28500 27.64100
C  -2.54400 11.25500 25.33400
C  -2.31300 12.33800 28.79000
O  -2.37300 11.16300 29.16700
C  -2.26500 13.51000 29.80000
C  -1.00900 13.41300 30.58900
O  0.10400 13.80500 30.26900
O  -1.19300 12.66600 31.73000
C  -0.12000 12.62100 32.71200
H  -2.12000 20.34400 29.18500
H  -3.00500 19.69500 22.80800
H  -2.67100 13.36400 23.32400
H  -3.87100 16.37000 31.07200
H  -1.85600 18.48100 31.03500
H  -4.71300 18.21200 31.43300
H  -4.56500 19.42200 30.15400
H  -3.80600 19.70300 31.63000
H  -0.97200 15.82700 31.73300
H  -2.41200 15.07900 32.41000
H  -2.64600 17.69500 33.37300
H  -0.96300 17.66600 32.93900
H  -2.48300 23.28100 26.87500
H  -0.86100 22.53600 27.14900
H  -2.04000 22.33200 28.34700
H  -0.53100 23.19300 24.89500
H  -2.11900 24.05500 24.84800
H  -1.33400 23.78200 23.33200
H  -2.85800 17.74200 21.05200
H  -3.74200 15.07000 21.61500
H  -5.25800 17.34600 22.79500
H  -5.38300 16.66300 21.19500
H  -5.03100 18.34200 21.31400
H  -1.61300 15.86800 20.15100
H  -2.00700 14.16500 20.79700
H  0.44400 14.91600 21.08400
H  -0.37000 14.44600 22.55200
H  -0.15500 16.22300 22.10400
H  -3.57300 10.90200 25.40800
H  -1.94700 10.48700 25.82600
H  -2.23900 11.37900 24.29500
H  -3.08400 13.52600 30.51900
H  0.77700 13.21400 32.53800
H  0.26600 11.60200 32.72500
H  -0.44400 13.02800 33.67000
Mg -11.03200 16.90200 43.29300
C  -7.49500 17.19500 43.40000
C  -11.14100 20.06600 42.22900
C  -14.25700 16.33000 42.48800
C  -10.67400 13.39300 43.72600
N  -9.38900 18.37700 42.77600
C  -8.03700 18.34800 42.98100
C  -7.36800 19.63000 42.54100
C  -8.53400 20.60700 42.29900
C  -9.80000 19.65100 42.37500
C  -8.69200 21.72100 43.34000
C  -6.51700 19.40900 41.24700
C  -4.96000 19.66700 41.42100
H  -4.35400 20.42400 40.22500
N  -12.54600 18.09600 42.63300
C  -12.37500 19.40400 42.28100
C  -13.66200 19.93800 41.94000
C  -14.57600 18.79000 42.05700
C  -13.78800 17.66000 42.41300
C  -13.91600 21.40400 41.64300
C  -16.06800 18.87500 41.71400
O  -16.55400 19.94000 41.33500
C  -17.14000 17.77500 41.84000
N  -12.30500 15.14400 43.19100
C  -13.58300 15.21000 42.96900
C  -14.28900 13.84000 43.14300
C  -13.05200 12.86600 43.04900
C  -11.92500 13.87700 43.40700
C  -15.02000 13.70400 44.54400
C  -12.71600 12.17900 41.71600
C  -13.01400 10.72400 41.56600
N  -9.48300 15.51100 43.46800
C  -9.45500 14.19400 43.77100
C  -8.06200 13.68300 43.83300
C  -7.26100 14.84900 43.78100
C  -8.17800 15.93100 43.56700
C  -7.60700 12.21600 43.96600
C  -5.90900 15.27900 43.87500
O  -4.83900 14.74600 44.22800
C  -6.01800 16.84200 43.63900
C  -5.45300 17.58600 44.82200
O  -5.99800 17.64100 45.90200
O  -4.22400 18.10200 44.47500
C  -3.62400 18.78400 45.62500
H  -11.24700 21.14900 42.13800
H  -15.29900 16.05700 42.31000
H  -10.57300 12.32000 43.90200
H  -6.74000 20.01000 43.34700
H  -8.55000 21.15200 41.35500
H  -7.94700 21.55900 44.12000
H  -9.68800 21.72000 43.78200
H  -8.56700 22.69300 42.86400
H  -6.84800 20.13700 40.50600
H  -6.68700 18.40200 40.86700
H  -4.44900 18.71000 41.31800
H  -4.76800 20.23800 42.32900
H  -14.45900 21.93900 42.42300
H  -14.42800 21.41800 40.68100
H  -12.93700 21.82700 41.41700
H  -18.12800 18.23200 41.89300
H  -16.98800 17.25500 42.78600
H  -17.04000 17.25300 40.88800
H  -14.82600 13.66400 42.21100
H  -13.08500 12.07100 43.79500
H  -16.05400 13.55100 44.23300
H  -14.87500 14.57700 45.17900
H  -14.78400 12.73100 44.97400
H  -11.74400 12.42100 41.28600
H  -13.39200 12.56300 40.95200
H  -12.77300 10.11000 42.43400
H  -12.23000 10.26100 40.96600
H  -13.97800 10.36300 41.20700
H  -6.85000 12.20400 44.75000
H  -7.18700 11.84500 43.03100
H  -8.41800 11.52500 44.19700
H  -5.48100 17.12300 42.73400
H  -4.20700 19.70300 45.70300
H  -2.58400 18.92500 45.33100
H  -3.56000 18.15400 46.51200

