158

Mg 8.80700 3.39800 27.87800
C  10.21800 1.72200 30.68400
C  7.02400 5.43000 29.82600
C  7.42700 4.70100 25.07300
C  10.04800 0.64200 25.94800
N  8.56500 3.50000 29.95100
C  9.36300 2.80600 30.96100
C  9.08200 3.44200 32.36800
C  7.81300 4.35700 32.05200
C  7.80400 4.47700 30.53500
C  6.48500 3.71500 32.48000
C  10.34600 4.25700 32.84700
C  11.20600 3.59200 33.99400
H  11.27000 4.31800 35.34600
N  7.40900 4.90100 27.47100
C  6.81100 5.63700 28.45000
C  6.09100 6.76000 27.84100
C  6.25400 6.58800 26.44000
C  7.03900 5.31700 26.25200
C  5.25600 7.73000 28.64800
C  5.58400 7.43500 25.25900
O  5.85600 7.26600 24.04900
C  4.77800 8.60800 25.66700
N  8.53700 2.65100 25.82600
C  8.02400 3.47800 24.82600
C  8.37200 2.88600 23.44000
C  9.25000 1.61800 23.74500
C  9.30400 1.58000 25.24600
C  7.02100 2.51900 22.66200
C  10.76400 1.74400 23.27100
C  11.60000 0.39500 22.94000
N  9.93500 1.59400 28.18200
C  10.29600 0.63100 27.32300
C  11.18800 -0.34800 27.90500
C  11.18000 -0.01200 29.27600
C  10.37000 1.18300 29.37100
C  11.90100 -1.46600 27.21500
C  11.63300 -0.25800 30.60100
O  12.47400 -1.08700 30.96100
C  10.94000 0.78500 31.62500
C  10.05400 0.03500 32.62400
O  8.95800 -0.41400 32.35900
O  10.71800 -0.07200 33.79800
C  9.97000 -0.51400 35.01700
H  6.66100 6.12600 30.58500
H  7.06500 5.14300 24.14300
H  10.52400 -0.14800 25.36300
H  8.84800 2.58500 33.00000
H  7.91300 5.27400 32.63300
H  5.86200 3.36200 31.65800
H  5.94900 4.50800 33.00000
H  6.70900 2.94800 33.22100
H  10.08600 5.24500 33.22600
H  10.96600 4.43300 31.96800
H  12.26700 3.55700 33.74800
H  10.85500 2.57200 34.14800
H  5.73700 8.70400 28.73700
H  5.14400 7.50900 29.71000
H  4.22500 7.77900 28.29800
H  3.85200 8.47900 26.22700
H  4.69100 9.23900 24.78300
H  5.47900 9.17700 26.27900
H  8.93100 3.57300 22.80300
H  8.84400 0.65300 23.44100
H  6.15100 2.75700 23.27300
H  6.90400 1.43900 22.57200
H  6.98000 2.82100 21.61600
H  11.30500 2.33000 24.01300
H  10.75600 2.32000 22.34600
H  10.89700 -0.43100 23.04800
H  12.29400 0.23300 23.76500
H  12.07800 0.42100 21.96100
H  12.77500 -0.96800 26.79500
H  11.27900 -1.93700 26.45400
H  12.17600 -2.09000 28.06600
H  11.64200 1.37200 32.21800
H  9.86400 0.29000 35.74400
H  10.51400 -1.38400 35.38600
H  8.99500 -0.88600 34.70300
Mg -11.62600 16.25400 42.39800
C  -8.61400 14.51900 41.76900
C  -10.28700 19.05600 41.15000
C  -14.73000 17.46900 42.26800
C  -13.01500 13.06500 43.01600
N  -9.77800 16.68600 41.34600
C  -8.67500 15.87100 41.32500
C  -7.47700 16.60100 40.68000
C  -7.95100 18.08600 40.64300
C  -9.40700 17.93800 41.01500
C  -7.03500 18.83600 41.69500
C  -7.11700 16.08700 39.26100
C  -5.57200 16.10700 38.90200
H  -4.95400 17.29800 38.20200
N  -12.42800 18.10800 41.78400
C  -11.65400 19.15700 41.31500
C  -12.52200 20.29000 41.17400
C  -13.85400 19.85100 41.51100
C  -13.73700 18.43300 41.93700
C  -11.97400 21.59300 40.85500
C  -15.19100 20.63900 41.30900
O  -15.14700 21.74600 40.76400
C  -16.45600 20.10500 41.71200
N  -13.61500 15.33400 42.31900
C  -14.65700 16.11000 42.40600
C  -15.95500 15.31400 42.71200
C  -15.43500 13.79800 42.69700
C  -13.90000 14.06000 42.68300
C  -16.75200 15.70300 44.04300
C  -15.97500 12.86500 41.48200
C  -16.51300 11.59000 42.06500
N  -10.94000 14.20400 42.59100
C  -11.61400 13.10300 42.88300
C  -10.61500 11.97300 42.95900
C  -9.41500 12.54100 42.57900
C  -9.69500 13.86300 42.28300
C  -10.92400 10.59500 43.50700
C  -8.07700 12.30700 42.31200
O  -7.41900 11.24500 42.43100
C  -7.45400 13.61700 41.81500
C  -6.39500 14.07500 42.76200
O  -6.35400 13.96700 43.98600
O  -5.28400 14.55700 42.12000
C  -4.20500 15.00100 43.06700
H  -9.79400 19.96100 40.78800
H  -15.72700 17.82500 42.53400
H  -13.48800 12.12400 43.30400
H  -6.53500 16.49400 41.21800
H  -7.84000 18.52600 39.65200
H  -7.67600 19.59700 42.14200
H  -6.16700 19.30600 41.23400
H  -6.70600 18.08400 42.41200
H  -7.59700 16.72000 38.51400
H  -7.36700 15.05000 39.04100
H  -5.42700 15.22300 38.28200
H  -4.97300 15.95800 39.80000
H  -12.69700 22.37400 41.08900
H  -11.75000 21.68700 39.79300
H  -11.09900 21.79200 41.47400
H  -17.23800 20.85600 41.59200
H  -16.35400 19.83000 42.76200
H  -16.63900 19.27300 41.03100
H  -16.64300 15.45500 41.87900
H  -15.67700 13.30900 43.64100
H  -17.78800 15.77200 43.71200
H  -16.51300 16.68200 44.45800
H  -16.64900 14.91700 44.79100
H  -15.07000 12.78800 40.87800
H  -16.71700 13.53700 41.05100
H  -15.78600 10.84100 41.75100
H  -17.53600 11.30500 41.82300
H  -16.36900 11.47000 43.13900
H  -11.83100 10.28300 42.99000
H  -11.20500 10.71000 44.55400
H  -10.23300 9.75300 43.46600
H  -7.08600 13.34900 40.82500
H  -4.56400 16.00500 43.29300
H  -3.34800 15.21400 42.42800
H  -3.97300 14.44200 43.97400

