158

Mg 29.24200 58.87700 41.10300
C  26.08300 57.45600 40.46800
C  30.80600 56.20100 39.67500
C  32.04900 60.62600 41.39000
C  27.44700 61.95800 41.79800
N  28.48500 57.11100 40.04300
C  27.16300 56.66700 40.01900
C  27.10000 55.36700 39.26400
C  28.59200 54.94000 39.18100
C  29.38500 56.15400 39.64800
C  28.94300 53.73000 40.04200
C  26.40700 55.66100 37.85400
C  25.08900 55.02300 37.42300
H  25.03000 54.40500 36.05900
N  31.19200 58.43600 40.63300
C  31.67400 57.26100 40.11800
C  33.17100 57.41000 40.06100
C  33.52900 58.73300 40.56300
C  32.22800 59.31000 40.94700
C  34.09900 56.42500 39.39900
C  35.00600 59.23500 40.71000
O  35.84900 58.42200 40.53600
C  35.36400 60.61900 41.06900
N  29.64100 61.01000 41.27500
C  30.88000 61.38900 41.57900
C  30.89500 62.90100 41.94400
C  29.42000 63.34500 41.78900
C  28.75100 62.03200 41.56600
C  31.57300 63.30600 43.28000
C  29.24200 64.49500 40.75800
C  28.42500 65.64400 41.35800
N  27.21900 59.57000 41.23800
C  26.67400 60.82400 41.54600
C  25.23000 60.73600 41.64700
C  24.93700 59.44200 41.27200
C  26.21200 58.77100 41.01200
C  24.30800 61.78900 41.80500
C  23.85800 58.52700 41.03600
O  22.63000 58.69600 41.13900
C  24.58300 57.16300 40.46800
C  24.25000 56.09600 41.48600
O  24.62800 56.15400 42.62300
O  23.69900 54.96700 40.89600
C  23.68100 53.75700 41.74300
H  31.26600 55.23700 39.44700
H  32.98700 61.08900 41.70400
H  26.93600 62.89300 42.03500
H  26.46000 54.63100 39.75000
H  28.87300 54.60200 38.18400
H  29.96100 53.58100 40.40300
H  28.61900 52.73400 39.74000
H  28.26400 53.69100 40.89400
H  27.10200 55.42600 37.04800
H  26.21000 56.73200 37.82400
H  24.39700 55.86400 37.37000
H  24.79800 54.29600 38.18000
H  33.58400 55.46400 39.38900
H  34.96500 56.23800 40.03400
H  34.40000 56.71900 38.39400
H  35.01600 61.32800 40.31800
H  36.43900 60.78400 41.14200
H  35.02700 60.82100 42.08500
H  31.53500 63.33400 41.17500
H  28.96000 63.62300 42.73800
H  31.91700 62.39400 43.76900
H  30.84100 63.76000 43.94800
H  32.45800 63.89800 43.04500
H  28.75900 64.05600 39.88500
H  30.16500 64.94200 40.39100
H  28.99800 66.54000 41.12100
H  28.21300 65.67300 42.42600
H  27.48500 65.61700 40.80700
H  24.39600 62.49800 40.98200
H  24.51500 62.26000 42.76600
H  23.26900 61.46200 41.81800
H  24.12700 56.85200 39.52800
H  22.62700 53.55000 41.93100
H  24.30400 53.77800 42.63700
H  24.17300 53.00700 41.12500
Mg -8.85000 18.49800 43.27200
C  -5.44100 18.36000 43.32800
C  -8.67500 21.86000 42.45000
C  -12.32300 18.66400 43.06200
C  -9.09700 15.10200 43.73300
N  -7.15800 19.97100 42.79000
C  -5.85500 19.67100 42.97600
C  -4.92500 20.90900 42.73600
C  -6.08300 22.11000 42.76300
C  -7.42500 21.26900 42.60000
C  -6.13800 22.90000 44.09300
C  -3.98600 20.78300 41.52700
C  -4.45400 20.00400 40.26100
H  -4.33700 20.73100 38.89900
N  -10.33300 20.03200 42.73100
C  -9.99300 21.37800 42.57300
C  -11.23300 22.16300 42.40200
C  -12.31400 21.27800 42.65600
C  -11.69700 19.96500 42.87200
C  -11.25500 23.68100 42.14900
C  -13.78500 21.65600 42.84500
O  -14.16900 22.78400 42.97000
C  -14.83800 20.69200 43.11600
N  -10.48000 17.08600 43.21000
C  -11.80100 17.41700 43.22200
C  -12.77800 16.20800 43.36500
C  -11.72100 15.00100 43.41300
C  -10.35300 15.71200 43.42200
C  -13.74100 16.18500 44.52600
C  -11.89700 13.94000 42.25600
C  -11.00300 13.99200 40.96000
N  -7.61000 16.98800 43.47400
C  -7.79800 15.72600 43.77700
C  -6.53400 15.12900 44.07300
C  -5.55700 16.13900 43.95000
C  -6.30800 17.23500 43.52000
C  -6.31900 13.67700 44.40300
C  -4.11400 16.43700 44.06800
O  -3.15600 15.74900 44.29300
C  -4.02300 17.90100 43.55800
C  -3.38900 18.61500 44.73700
O  -3.95600 18.95400 45.75800
O  -2.09700 18.98100 44.31700
C  -1.52700 20.02500 45.14100
H  -8.51600 22.93100 42.59200
H  -13.41200 18.70600 42.99400
H  -9.10900 14.03200 43.94900
H  -4.38200 20.99600 43.67700
H  -5.85200 22.76200 41.92000
H  -6.89400 22.41200 44.70800
H  -6.35300 23.94700 43.87800
H  -5.22000 22.91800 44.68000
H  -3.05100 20.38100 41.91800
H  -3.79800 21.81200 41.21800
H  -5.50900 20.00300 40.53400
H  -4.00800 19.01000 40.23500
H  -11.62200 23.99200 41.17100
H  -10.24800 24.06600 42.30600
H  -11.79200 24.20700 42.93800
H  -14.57100 20.03700 43.94500
H  -14.85800 20.13900 42.17700
H  -15.77500 21.23100 43.25100
H  -13.45000 16.10300 42.51300
H  -11.83400 14.53100 44.38900
H  -14.72300 16.44000 44.12900
H  -13.50300 16.86500 45.34500
H  -13.98100 15.18300 44.88100
H  -12.86100 14.20000 41.81800
H  -11.96600 12.93700 42.67800
H  -11.00600 12.95400 40.62800
H  -9.97700 14.34900 41.04500
H  -11.60200 14.43100 40.16200
H  -5.58600 13.64300 45.20900
H  -5.92500 13.21100 43.50000
H  -7.21200 13.14200 44.72500
H  -3.42500 17.84300 42.64800
H  -0.44700 19.87300 45.15200
H  -1.83800 20.13000 46.18100
H  -1.65800 20.98900 44.65000

