158

Mg 9.26700 3.79600 26.72400
C  10.49500 2.32300 29.58400
C  7.14100 5.68200 28.61800
C  7.99900 5.07300 23.85000
C  10.82500 1.26000 24.80300
N  8.76700 3.82100 28.82600
C  9.50600 3.26600 29.86900
C  9.05800 3.75000 31.28500
C  7.96400 4.82500 30.95800
C  7.90400 4.71500 29.38800
C  6.65200 4.61300 31.71300
C  10.31100 4.14800 32.14900
C  10.24700 5.16700 33.24800
H  11.02400 4.77600 34.54000
N  7.87400 5.22400 26.30500
C  7.14700 5.94600 27.21300
C  6.38000 6.95900 26.57800
C  6.60400 6.76100 25.13900
C  7.54500 5.64600 25.07700
C  5.39800 7.88300 27.22600
C  5.88800 7.43100 23.94000
O  6.06100 7.12600 22.81100
C  4.88400 8.52500 24.10700
N  9.32000 3.16500 24.66500
C  8.81200 3.94800 23.67300
C  9.19900 3.43800 22.26300
C  10.06000 2.20400 22.59700
C  10.07700 2.20000 24.10000
C  8.00600 3.27400 21.31100
C  11.48300 2.04700 22.03800
C  11.91700 3.05100 20.92700
N  10.52100 2.13400 27.07900
C  11.03200 1.14800 26.15700
C  11.77100 0.13000 26.96300
C  11.72500 0.63400 28.30600
C  10.90600 1.74300 28.33700
C  12.41200 -1.12900 26.45700
C  12.16600 0.57900 29.72000
O  13.04300 -0.11400 30.18500
C  11.28400 1.56400 30.56400
C  10.40400 0.75000 31.49000
O  9.25200 0.48200 31.23700
O  11.06600 0.49800 32.68400
C  10.20100 -0.17500 33.67000
H  6.63900 6.43500 29.22800
H  7.63200 5.35000 22.86000
H  11.35800 0.46500 24.27800
H  8.73200 2.86100 31.82500
H  8.29400 5.85000 31.13000
H  5.87100 4.11900 31.13600
H  6.29000 5.61400 31.94600
H  6.86000 4.10900 32.65600
H  11.23600 4.32300 31.60100
H  10.51700 3.18100 32.60800
H  9.20000 5.27700 33.53000
H  10.63300 6.11700 32.88000
H  5.62200 8.12900 28.26400
H  4.41200 7.43000 27.33000
H  5.16500 8.81300 26.70600
H  4.72500 9.07500 23.18000
H  5.10600 9.38000 24.74700
H  3.96800 8.00900 24.39300
H  9.87400 4.20500 21.88400
H  9.49000 1.30400 22.36800
H  7.92200 2.21200 21.07800
H  8.21100 3.97200 20.49900
H  7.10600 3.41000 21.91000
H  11.65000 0.99000 21.83100
H  12.26300 2.22800 22.77800
H  11.13600 3.08900 20.16800
H  12.81500 2.73000 20.39900
H  12.11500 4.06100 21.28400
H  12.22500 -1.99700 27.08900
H  13.49700 -1.03100 26.41500
H  12.13200 -1.32900 25.42200
H  11.95700 2.18200 31.15800
H  9.35600 0.35900 34.10400
H  10.72700 -0.52100 34.56000
H  9.72500 -1.07800 33.28700
Mg 46.93000 16.33100 28.92500
C  44.78600 15.69500 31.56600
C  49.09600 17.62200 31.25700
C  49.01700 17.06600 26.43500
C  44.61300 15.02700 26.74300
N  46.71600 16.90800 31.06400
C  45.90700 16.33500 31.91900
C  46.18300 16.77100 33.37600
C  47.43000 17.73000 33.19400
C  47.82800 17.41900 31.73700
C  47.19600 19.25800 33.37700
C  46.53600 15.48700 34.19800
C  46.02100 15.50400 35.66400
H  46.04100 16.85300 36.36300
N  48.78700 17.22100 28.84300
C  49.56200 17.55900 29.91700
C  50.90300 17.74500 29.47900
C  50.95100 17.55300 28.01200
C  49.55800 17.23800 27.66700
C  52.06900 17.99400 30.39100
C  52.12800 17.73400 27.05700
O  51.98100 17.56500 25.86000
C  53.42500 18.31300 27.48100
N  46.82300 15.91000 26.82800
C  47.74400 16.49300 25.98800
C  47.26500 16.48900 24.53700
C  45.93200 15.62200 24.68100
C  45.74900 15.47500 26.14600
C  47.04100 17.94500 24.07600
C  46.08000 14.25100 23.93700
C  44.81400 13.80700 23.24700
N  45.04400 15.48900 29.04200
C  44.28700 14.94500 28.11100
C  43.11600 14.35900 28.74900
C  43.22000 14.63900 30.11700
C  44.45300 15.31800 30.24000
C  41.87800 13.75800 28.10000
C  42.61600 14.53400 31.45200
O  41.56700 14.05400 31.74700
C  43.63100 15.15200 32.43000
C  42.99900 16.12600 33.39700
O  42.86100 17.33800 33.12400
O  42.52500 15.48600 34.52100
C  41.78300 16.35800 35.44200
H  49.83200 17.92800 32.00400
H  49.70500 17.48500 25.69700
H  43.93800 14.59600 26.00000
H  45.37500 17.41300 33.72700
H  48.22500 17.48100 33.89700
H  46.17500 19.49100 33.68100
H  47.39100 19.88400 32.50600
H  47.83000 19.58700 34.20100
H  47.59700 15.24500 34.13500
H  46.06800 14.61600 33.74000
H  46.71500 14.85800 36.20000
H  45.04400 15.02500 35.59500
H  53.04400 18.23500 29.96700
H  52.21200 17.13400 31.04500
H  51.69000 18.85600 30.94000
H  54.02500 18.44100 26.58000
H  54.00500 17.74600 28.20900
H  53.22200 19.31200 27.86600
H  48.04700 16.03400 23.92900
H  45.08900 16.15600 24.24400
H  46.31800 17.96000 23.26000
H  48.02900 18.25400 23.73300
H  46.82600 18.64000 24.88800
H  46.54100 13.57100 24.65300
H  46.80200 14.48300 23.15400
H  44.77500 14.18400 22.22500
H  43.85600 14.02100 23.72000
H  44.82000 12.72500 23.11600
H  41.50500 14.28800 27.22400
H  41.08800 13.76900 28.85000
H  42.18400 12.73800 27.86700
H  44.02600 14.44200 33.15600
H  40.91800 16.73900 34.89800
H  42.46600 16.99700 36.00200
H  41.35600 15.64700 36.14900

