158

Mg -3.23300 17.26500 25.56500
C  -3.24600 14.82100 28.20100
C  -3.95500 19.57000 27.92100
C  -3.35700 19.41900 23.09200
C  -2.77800 14.68500 23.33000
N  -3.55300 17.13600 27.91500
C  -3.39300 16.11200 28.73000
C  -3.50500 16.53600 30.20100
C  -4.04400 18.00500 30.08100
C  -3.87200 18.30600 28.53100
C  -5.43500 18.42800 30.61200
C  -2.08500 16.32900 30.85500
C  -1.52600 17.08200 32.06300
H  -1.30600 16.17800 33.29500
N  -3.63900 19.21100 25.47100
C  -3.82700 19.99300 26.57000
C  -4.08300 21.29500 26.11600
C  -3.83300 21.38600 24.75000
C  -3.63000 19.96600 24.35700
C  -4.47400 22.45400 27.09700
C  -3.71600 22.66500 23.82500
O  -3.68500 22.56600 22.62200
C  -3.55400 24.03300 24.50500
N  -2.74600 17.11600 23.51200
C  -2.97700 18.16700 22.70800
C  -2.76700 17.82200 21.20600
C  -2.85700 16.28200 21.36800
C  -2.66600 15.98800 22.80200
C  -3.77100 18.36500 20.12400
C  -1.97000 15.43000 20.36900
C  -2.56900 14.24400 19.64100
N  -3.16400 15.23800 25.71000
C  -3.05200 14.31800 24.69100
C  -3.14700 12.97900 25.15000
C  -3.19500 13.17100 26.48800
C  -3.22400 14.56200 26.83800
C  -3.06000 11.67800 24.43800
C  -3.26200 12.39900 27.72400
O  -3.16600 11.19500 27.89300
C  -3.26100 13.49300 28.89100
C  -2.03900 13.12200 29.71500
O  -0.86100 13.31500 29.42900
O  -2.47800 12.56700 30.90900
C  -1.47700 12.48000 31.93200
H  -4.35400 20.26100 28.66700
H  -3.39400 20.10100 22.24000
H  -2.81000 13.91600 22.55600
H  -4.23500 15.84400 30.62100
H  -3.37400 18.65500 30.64300
H  -5.93700 17.59300 31.10100
H  -6.08900 18.70900 29.78700
H  -5.43500 19.23000 31.35000
H  -1.34000 16.51800 30.08200
H  -2.02100 15.24700 30.97500
H  -2.28500 17.83400 32.27900
H  -0.52100 17.43600 31.83400
H  -4.88100 22.04300 28.02100
H  -5.25900 22.96600 26.54200
H  -3.58700 23.06600 27.26300
H  -3.50800 24.80800 23.73900
H  -2.60300 24.07500 25.03700
H  -4.38600 24.22700 25.18200
H  -1.77000 18.08400 20.85000
H  -3.81800 15.80700 21.17300
H  -4.72300 18.60400 20.59700
H  -3.81500 17.66700 19.28700
H  -3.32500 19.31200 19.82100
H  -1.14900 15.05500 20.98000
H  -1.56400 16.13500 19.64400
H  -3.56800 14.09200 20.05000
H  -1.91100 13.37800 19.70700
H  -2.63600 14.54600 18.59600
H  -4.07300 11.37600 24.17000
H  -2.51500 10.87700 24.93600
H  -2.39000 11.71600 23.57900
H  -4.13100 13.29300 29.51600
H  -0.65300 13.19300 31.95100
H  -1.05500 11.48100 31.82900
H  -2.11300 12.65400 32.80100
Mg 47.95300 24.99000 29.76100
C  48.53200 27.47000 32.26000
C  47.04100 22.73900 32.24900
C  47.72600 22.52000 27.50900
C  49.36300 27.19700 27.38100
N  47.67100 25.17200 31.95500
C  47.86100 26.25900 32.75100
C  47.38200 25.99100 34.09800
C  47.00100 24.41200 34.18200
C  47.29500 24.08200 32.72400
C  47.80200 23.59500 35.16500
C  46.33500 26.98700 34.66400
C  46.29200 27.51800 36.10600
H  47.01100 26.97100 37.34300
N  47.37600 22.91500 29.87100
C  47.02400 22.22700 30.94800
C  46.79400 20.82500 30.60600
C  46.93700 20.73400 29.23700
C  47.41200 22.06400 28.80800
C  46.39600 19.71800 31.59400
C  46.73400 19.55700 28.30300
O  46.77200 19.63900 27.08000
C  46.25400 18.30500 28.86000
N  48.61900 24.86200 27.72400
C  48.21700 23.79800 27.00000
C  48.47500 24.08000 25.45800
C  48.91400 25.60200 25.45700
C  49.01000 25.91000 26.87600
C  49.55600 23.23800 24.88100
C  47.88900 26.60800 24.77900
C  46.46300 26.75500 25.36400
N  48.81700 26.94800 29.72500
C  49.43800 27.69400 28.73200
C  49.85300 28.94800 29.25900
C  49.39400 28.90600 30.58400
C  48.87300 27.64200 30.86200
C  50.57800 30.00800 28.50700
C  49.47700 29.71300 31.82700
O  49.89100 30.79100 32.06500
C  48.88000 28.78500 32.99600
C  49.98500 28.55100 33.99200
O  50.87800 27.69900 33.88800
O  49.89900 29.41200 35.03200
C  51.01000 29.29400 36.04700
H  46.69600 22.00500 32.98000
H  47.67300 21.65100 26.85000
H  49.65500 27.95900 26.65600
H  48.31300 26.16400 34.63800
H  45.92900 24.30800 34.35000
H  48.56300 23.05700 34.59900
H  47.11700 22.93800 35.70100
H  48.38900 24.16800 35.88200
H  45.32700 26.58900 34.54300
H  46.30300 27.80400 33.94200
H  45.26200 27.44200 36.45500
H  46.60200 28.55900 36.02000
H  47.23200 19.04200 31.41400
H  45.48300 19.21200 31.28300
H  46.33600 19.99500 32.64700
H  47.02600 17.80800 29.44800
H  46.02500 17.62100 28.04400
H  45.28700 18.49900 29.32400
H  47.52500 23.98400 24.93400
H  49.90400 25.68600 25.00800
H  50.44300 23.79800 24.58500
H  49.22900 22.73400 23.97200
H  49.94700 22.52600 25.60800
H  47.80100 26.31400 23.73300
H  48.31600 27.60500 24.67000
H  46.44400 26.52200 26.42900
H  45.78000 26.03200 24.91600
H  46.07200 27.75600 25.18600
H  50.96600 29.54700 27.59800
H  51.45000 30.42100 29.01400
H  49.93700 30.83300 28.19600
H  47.97800 29.28700 33.34500
H  50.76600 28.47100 36.71900
H  50.89900 30.24300 36.57100
H  52.05500 29.16000 35.76700

