158

Mg 49.66600 47.78900 43.32300
C  46.35200 48.36200 42.27200
C  49.81100 44.80900 41.38400
C  53.09600 47.65300 43.79700
C  49.81900 51.01400 44.44400
N  48.24500 46.79100 41.88100
C  46.96500 47.22300 41.73800
C  46.38900 46.16200 40.78800
C  47.31000 44.83200 40.82400
C  48.55700 45.50600 41.40500
C  46.79600 43.67800 41.72200
C  46.20700 46.64100 39.33800
C  44.78900 46.46700 38.73300
H  44.56000 45.46300 37.60800
N  51.23400 46.46100 42.66100
C  51.06100 45.23200 41.98000
C  52.29600 44.54100 41.93200
C  53.23600 45.27600 42.73800
C  52.55300 46.51800 43.12700
C  52.29300 43.09700 41.34900
C  54.63800 44.80800 43.16800
O  54.99300 43.71900 42.79900
C  55.58200 45.67300 43.95800
N  51.38000 49.17600 43.89200
C  52.54900 48.80000 44.28900
C  53.31100 49.85100 45.07600
C  52.21700 50.91600 45.40600
C  51.03600 50.39200 44.52000
C  54.15100 49.33500 46.29300
C  52.66100 52.39100 45.03000
C  52.26800 53.54600 45.99600
N  48.40300 49.30600 43.54000
C  48.53600 50.58000 44.05500
C  47.29900 51.35300 44.04700
C  46.35200 50.45900 43.38800
C  47.10200 49.28100 43.05000
C  46.89500 52.67200 44.74600
C  44.95600 50.22700 43.04500
O  44.00600 50.97600 43.20500
C  44.99900 48.95500 42.17300
C  43.84700 48.04500 42.70700
O  43.50300 47.94700 43.87300
O  43.31700 47.30500 41.69100
C  42.26800 46.37300 41.99000
H  49.79400 43.79500 40.97800
H  54.16600 47.59800 44.00700
H  49.87600 51.99200 44.92600
H  45.38400 45.98500 41.17100
H  47.42800 44.38600 39.83600
H  47.14800 42.76600 41.24000
H  45.71100 43.59000 41.76700
H  47.24000 43.69700 42.71700
H  46.96000 46.13500 38.73400
H  46.51500 47.68600 39.32300
H  44.51900 47.45100 38.35200
H  44.01300 46.15400 39.43200
H  51.65100 42.53400 42.02600
H  53.31800 42.74500 41.22800
H  51.87700 43.21400 40.34800
H  55.82800 46.55700 43.36900
H  56.41300 45.00400 44.18300
H  55.01800 45.83800 44.87600
H  54.11300 50.19600 44.42200
H  51.98800 50.88700 46.47100
H  53.97000 48.26000 46.26100
H  53.60200 49.74100 47.14200
H  55.20000 49.59000 46.14200
H  52.54500 52.65400 43.97900
H  53.74400 52.29400 45.10400
H  53.13300 53.92700 46.53800
H  51.54400 53.13300 46.69800
H  51.77700 54.38000 45.49400
H  46.16800 52.60300 45.55500
H  46.37400 53.27100 43.99800
H  47.74500 53.23400 45.13200
H  44.75600 49.26300 41.15600
H  41.30400 46.82800 42.21800
H  42.60800 45.65400 42.73400
H  42.18300 45.82600 41.05100
Mg 27.04400 49.74900 26.46000
C  25.12600 50.92000 29.00100
C  29.35200 48.59100 28.55000
C  28.96800 49.06800 23.66300
C  24.68900 51.21500 24.22800
N  27.18600 49.70600 28.49600
C  26.26200 50.16000 29.38000
C  26.61900 49.82600 30.84000
C  28.15800 49.32700 30.70600
C  28.23900 49.12600 29.18200
C  29.20200 50.23000 31.31100
C  25.69800 48.71600 31.33700
C  25.85400 48.10700 32.67900
H  26.25800 49.19300 33.75300
N  28.87200 48.97300 26.16300
C  29.70400 48.57700 27.15800
C  30.93000 48.07000 26.66100
C  30.85900 48.18200 25.24700
C  29.55900 48.83000 24.91300
C  32.21300 47.64700 27.50100
C  31.82100 47.67300 24.14400
O  31.68100 47.73500 22.95800
C  33.16300 47.12700 24.47100
N  26.79000 49.91800 24.25900
C  27.70100 49.53100 23.33000
C  27.08900 49.58600 21.87200
C  25.68900 50.21100 22.12700
C  25.68600 50.42200 23.61700
C  28.02200 50.48200 20.91000
C  24.46100 49.34900 21.57400
C  23.28700 50.01400 20.83800
N  25.20900 50.82200 26.55300
C  24.40300 51.40600 25.61200
C  23.21600 52.06400 26.26500
C  23.45300 51.88000 27.61700
C  24.65000 51.15300 27.68800
C  22.00600 52.64900 25.57800
C  23.00400 52.14700 28.98200
O  21.97000 52.70300 29.40000
C  24.10800 51.53700 29.99800
C  24.74600 52.64100 30.77400
O  25.52100 53.50900 30.36600
O  24.30000 52.69900 32.10400
C  24.64700 53.93600 32.85700
H  30.07000 48.12200 29.22500
H  29.57900 48.80400 22.79700
H  24.10700 51.77400 23.49300
H  26.64500 50.80500 31.31700
H  28.15900 48.31400 31.10800
H  29.71700 50.87200 30.59600
H  30.00100 49.70800 31.83700
H  28.69800 50.88400 32.02100
H  25.87300 47.83900 30.71300
H  24.71600 49.17800 31.44200
H  26.59800 47.31400 32.59600
H  24.89300 47.66600 32.94000
H  32.11300 48.12400 28.47600
H  33.11300 48.15300 27.15300
H  32.33600 46.58100 27.69200
H  33.00300 46.30600 25.16900
H  33.71400 48.00300 24.81500
H  33.51700 46.72300 23.52300
H  27.02600 48.58000 21.45800
H  25.55700 51.21600 21.72400
H  28.97300 50.70100 21.39600
H  27.56000 51.44300 20.68100
H  28.26200 49.99100 19.96700
H  24.14200 48.61500 22.31400
H  24.79900 48.62700 20.83200
H  22.35600 50.04600 21.40400
H  23.08500 49.63100 19.83700
H  23.61500 51.03100 20.62400
H  21.89700 52.39600 24.52300
H  22.15900 53.72800 25.55300
H  21.11100 52.45500 26.17000
H  23.61300 50.85900 30.69400
H  24.95900 54.79400 32.26000
H  25.47900 53.58700 33.46800
H  23.96000 54.37500 33.58000

