158

Mg 25.48100 0.60100 28.97000
C  27.29000 0.29600 32.08300
C  22.65800 0.67000 30.79400
C  23.94700 0.70000 26.04600
C  28.62600 -0.18600 27.40400
N  25.04300 0.34800 31.19200
C  25.93200 0.39200 32.24500
C  25.14700 0.43700 33.55400
C  23.66600 0.50200 33.04600
C  23.76300 0.43400 31.55200
C  22.66500 -0.55600 33.63700
C  25.53900 1.60800 34.50700
C  25.41300 1.29900 36.02300
H  26.48000 2.02400 36.92700
N  23.61000 0.79200 28.49100
C  22.56800 0.75900 29.38400
C  21.34000 0.86900 28.59300
C  21.67800 1.06200 27.23600
C  23.13100 0.88500 27.19700
C  20.00900 0.79600 29.19400
C  20.74800 1.35100 26.03600
O  21.13200 1.23700 24.84900
C  19.38700 1.94300 26.30500
N  26.19900 0.28000 27.01900
C  25.34200 0.39700 25.95200
C  26.13400 0.39700 24.61300
C  27.61800 0.16000 25.07100
C  27.48200 -0.02800 26.61300
C  25.53100 -0.45400 23.50500
C  28.70600 1.17700 24.55100
C  28.80100 2.39900 25.44900
N  27.58800 0.15300 29.56400
C  28.70200 -0.17400 28.81300
C  29.79100 -0.35300 29.65000
C  29.30600 -0.10100 30.89800
C  27.92000 0.11800 30.81400
C  31.23200 -0.67400 29.17700
C  29.71300 0.01200 32.26200
O  30.83700 -0.06300 32.81200
C  28.42800 0.25800 33.06000
C  28.26300 -0.88000 33.98800
O  27.83000 -1.97700 33.74100
O  28.80800 -0.51300 35.22100
C  28.59800 -1.28500 36.41100
H  21.69500 0.82500 31.28500
H  23.45600 0.94200 25.10200
H  29.58100 -0.19500 26.87400
H  25.40700 -0.47200 34.09700
H  23.28500 1.47100 33.36700
H  23.01100 -0.73900 34.65500
H  22.58500 -1.48900 33.08000
H  21.70000 -0.07900 33.80400
H  24.81000 2.41100 34.39800
H  26.48500 2.03500 34.17500
H  25.57200 0.22400 36.11700
H  24.40800 1.54300 36.36800
H  19.74300 1.80600 29.50700
H  20.06100 0.11000 30.03900
H  19.30800 0.39100 28.46400
H  18.69500 1.13900 26.55400
H  18.95100 2.38800 25.41000
H  19.40000 2.81900 26.95300
H  25.99900 1.43900 24.32400
H  27.92500 -0.84800 24.79000
H  24.45400 -0.59100 23.60300
H  26.05800 -1.39900 23.37700
H  25.65500 0.05500 22.55000
H  28.33700 1.66700 23.65000
H  29.71900 0.81400 24.38100
H  28.07500 2.37200 26.26100
H  28.62100 3.29100 24.84900
H  29.74900 2.58000 25.95600
H  31.31000 -0.59000 28.09300
H  31.48200 -1.68700 29.49500
H  31.91400 0.07900 29.57000
H  28.46800 1.20000 33.60800
H  29.58500 -1.53000 36.80200
H  28.22000 -2.28200 36.18800
H  27.98800 -0.82200 37.18700
Mg -5.54400 25.47000 26.28400
C  -4.00500 26.73200 29.14000
C  -7.44000 23.42900 28.45700
C  -6.66100 23.90000 23.65100
C  -3.55600 27.50400 24.32300
N  -5.62700 25.12200 28.49900
C  -4.97800 25.84500 29.43000
C  -5.61900 25.71400 30.79100
C  -6.45900 24.33900 30.66800
C  -6.58100 24.27200 29.09800
C  -5.77200 23.09400 31.35600
C  -6.45700 27.05900 31.28500
C  -6.15400 27.43700 32.72400
H  -5.88100 26.23600 33.61300
N  -7.06600 23.98100 26.06300
C  -7.64600 23.27700 27.09000
C  -8.52300 22.25500 26.47200
C  -8.24600 22.35600 25.02000
C  -7.24900 23.42500 24.87900
C  -9.41400 21.30400 27.26300
C  -8.70200 21.42600 23.88700
O  -8.32700 21.55200 22.69600
C  -9.69100 20.32200 24.23100
N  -5.35000 25.84300 24.25800
C  -5.86000 24.98800 23.27500
C  -5.55600 25.48500 21.84700
C  -4.48700 26.65500 22.12100
C  -4.46000 26.70500 23.71600
C  -4.99700 24.52200 20.83800
C  -4.92500 28.09200 21.55500
C  -5.68100 28.16500 20.23100
N  -3.90100 26.62700 26.60800
C  -3.30500 27.49000 25.68200
C  -2.36300 28.34300 26.45400
C  -2.60000 28.04700 27.72900
C  -3.51100 26.98300 27.85500
C  -1.52700 29.50600 25.88000
C  -2.30000 28.56600 29.05900
O  -1.52000 29.40500 29.42600
C  -3.15400 27.74300 30.05400
C  -2.24900 26.94100 30.93000
O  -1.81200 25.82100 30.75000
O  -1.96300 27.63700 32.06800
C  -1.42900 26.86300 33.20100
H  -7.96600 22.80500 29.18300
H  -6.99900 23.35800 22.76600
H  -3.08700 28.22900 23.65400
H  -4.79100 25.51600 31.47200
H  -7.47800 24.36200 31.05400
H  -5.14000 23.34600 32.20700
H  -5.24600 22.51300 30.59900
H  -6.55100 22.44200 31.75000
H  -7.53800 26.95300 31.19000
H  -6.24000 27.86800 30.58700
H  -7.02700 27.93700 33.14300
H  -5.35800 28.18200 32.71800
H  -9.36100 21.59700 28.31200
H  -9.04700 20.31500 26.98800
H  -10.43400 21.30700 26.87900
H  -9.80700 19.74000 23.31600
H  -10.59400 20.65600 24.74200
H  -9.12100 19.65500 24.87800
H  -6.49800 25.90200 21.49000
H  -3.42900 26.45800 21.94700
H  -3.97300 24.66100 20.49100
H  -5.76400 24.44700 20.06800
H  -5.06800 23.56100 21.34700
H  -3.91800 28.48800 21.42100
H  -5.44600 28.69600 22.29800
H  -6.41800 28.94000 20.01900
H  -6.05900 27.23100 19.81600
H  -4.83500 28.33200 19.56400
H  -2.04900 29.81800 24.97500
H  -0.54400 29.15800 25.56500
H  -1.51700 30.29200 26.63500
H  -3.78200 28.42100 30.63200
H  -0.35800 27.00900 33.34700
H  -1.50300 25.77600 33.17300
H  -1.99100 27.19500 34.07400

