158

Mg 24.26100 -5.99900 46.29300
C  26.38100 -3.63700 44.58800
C  21.66600 -4.75900 44.40400
C  22.60400 -8.62900 47.23300
C  27.14700 -7.04000 47.98800
N  24.12700 -4.55300 44.36200
C  25.07400 -3.59000 44.03600
C  24.53400 -2.60400 43.02700
C  22.98100 -2.92200 43.23200
C  22.87600 -4.14600 44.05300
C  22.28000 -1.72700 44.04700
C  25.06200 -2.73200 41.56500
C  25.48900 -1.39400 40.87500
H  25.53200 -1.34900 39.32300
N  22.38500 -6.69000 45.84300
C  21.42800 -6.02800 45.10600
C  20.23000 -6.85000 45.14900
C  20.41700 -8.02900 45.93600
C  21.79800 -7.81800 46.38900
C  19.08300 -6.42000 44.29400
C  19.47200 -9.14400 46.35300
O  18.35700 -9.10400 45.83800
C  19.80100 -10.13000 47.35700
N  24.84000 -7.68200 47.35300
C  23.95100 -8.55100 47.75500
C  24.52900 -9.57900 48.78000
C  26.01100 -9.11400 48.89100
C  26.05000 -7.90200 48.03000
C  23.72300 -9.55300 50.12700
C  27.01500 -10.18600 48.50200
C  28.28500 -10.08900 49.32900
N  26.33400 -5.40700 46.39200
C  27.37000 -5.94700 47.11900
C  28.59900 -5.23600 46.86200
C  28.25000 -4.29100 45.86600
C  26.87700 -4.47900 45.59300
C  29.90000 -5.45200 47.42400
C  28.84100 -3.25900 44.98300
O  29.97200 -2.87600 44.81100
C  27.62500 -2.77200 44.20000
C  27.32400 -1.33700 44.51600
O  26.79400 -0.95900 45.52300
O  27.87600 -0.57300 43.57100
C  27.84600 0.90600 43.90600
H  20.81600 -4.32700 43.87200
H  22.16400 -9.54200 47.64000
H  27.97000 -7.27000 48.66900
H  24.83200 -1.62400 43.39900
H  22.50800 -3.10100 42.26600
H  22.92700 -1.30200 44.81500
H  21.48800 -2.13700 44.67300
H  21.90900 -0.89100 43.45400
H  24.29700 -3.24100 40.97900
H  25.87100 -3.46300 41.54800
H  26.53400 -1.16200 41.08200
H  24.89800 -0.56500 41.26300
H  18.65100 -5.52900 44.74900
H  18.29800 -7.16800 44.18900
H  19.53400 -6.15100 43.33900
H  18.99000 -10.82500 47.57300
H  20.16300 -9.59000 48.23200
H  20.53200 -10.69100 46.77600
H  24.54100 -10.62900 48.48600
H  26.20800 -8.78400 49.91200
H  23.37500 -10.53100 50.46000
H  22.80300 -8.97300 50.05700
H  24.30300 -9.10600 50.93400
H  27.32200 -10.12100 47.45800
H  26.51600 -11.15200 48.57400
H  28.83500 -11.03000 49.30200
H  27.99100 -9.90400 50.36200
H  28.97400 -9.34700 48.92500
H  30.60200 -5.99500 46.79100
H  29.92800 -5.84000 48.44300
H  30.30200 -4.43900 47.44100
H  27.84800 -2.91900 43.14300
H  28.11900 1.49900 43.03300
H  28.68000 1.01300 44.59900
H  26.88600 1.29800 44.24300
Mg 26.75500 50.61700 26.21700
C  24.44200 51.53100 28.83500
C  29.07600 49.79600 28.51300
C  28.75500 49.87200 23.70400
C  24.38500 51.77200 23.97700
N  26.76900 50.83500 28.45300
C  25.70400 51.08600 29.28800
C  25.99700 50.72800 30.72000
C  27.50000 50.25700 30.62200
C  27.85400 50.31200 29.07200
C  28.65700 50.96200 31.44900
C  25.01000 49.71000 31.33900
C  24.24800 50.33700 32.57500
H  24.11500 49.49700 33.87100
N  28.68300 50.04100 26.16800
C  29.52100 49.76900 27.21500
C  30.79600 49.31400 26.76600
C  30.82300 49.43900 25.39500
C  29.35700 49.84500 24.98400
C  31.77800 48.76400 27.66000
C  31.98700 49.34300 24.47100
O  31.85300 49.47700 23.29500
C  33.34900 49.14000 25.01000
N  26.53900 50.84200 24.13900
C  27.47700 50.21900 23.29700
C  27.04800 50.27600 21.84800
C  25.63900 50.92500 21.91300
C  25.47300 51.16500 23.43300
C  28.08700 51.12100 21.04200
C  24.61400 50.00200 21.27700
C  24.22600 50.22400 19.81900
N  24.84100 51.56800 26.33600
C  24.07400 51.96500 25.30300
C  22.82700 52.46900 25.82900
C  22.86300 52.33800 27.18200
C  24.11400 51.71800 27.50300
C  21.72500 53.04800 25.08000
C  22.25600 52.55700 28.49900
O  21.11900 53.03400 28.74600
C  23.25000 52.04700 29.61400
C  23.52400 53.10100 30.55900
O  24.35600 53.90800 30.30400
O  22.77500 52.91100 31.71700
C  23.07100 53.78600 32.85300
H  29.59500 49.36900 29.37300
H  29.35500 49.54400 22.85300
H  23.62500 51.91300 23.20500
H  26.12400 51.65700 31.27600
H  27.59100 49.25100 31.03000
H  29.61500 50.98100 30.93000
H  28.79000 50.52600 32.43900
H  28.44900 52.02600 31.56600
H  25.42900 48.88500 31.91500
H  24.31400 49.32400 30.59400
H  23.20600 50.49600 32.29600
H  24.61100 51.31600 32.88900
H  32.31000 47.88800 27.29000
H  31.37500 48.32500 28.57300
H  32.45300 49.56900 27.95400
H  33.93700 49.09400 24.09300
H  33.44900 48.17700 25.51200
H  33.61000 49.94400 25.69800
H  27.06600 49.27100 21.42600
H  25.46200 51.80700 21.29700
H  27.57600 51.91000 20.49000
H  28.64400 50.41100 20.43200
H  28.79600 51.57100 21.73600
H  23.70600 50.10500 21.87100
H  24.96400 48.96900 21.29200
H  24.74900 51.06500 19.36200
H  23.16000 50.44300 19.74600
H  24.61700 49.39300 19.23200
H  20.77600 52.97300 25.61000
H  21.63100 52.69600 24.05200
H  21.91500 54.11900 25.13700
H  22.91500 51.23800 30.26400
H  23.38000 54.78400 32.54400
H  23.82200 53.29300 33.47100
H  22.17400 53.89000 33.46400

