158

Mg 36.16600 49.48200 25.98500
C  35.67600 47.61300 28.97700
C  35.84200 52.34500 27.65200
C  35.90900 51.00600 23.06700
C  36.54700 46.47200 24.26100
N  35.76500 49.93300 28.06300
C  35.64300 49.04000 29.14300
C  35.38800 49.82700 30.44100
C  35.70300 51.37800 30.01600
C  35.89200 51.17400 28.48800
C  34.53900 52.35600 30.47500
C  36.33100 49.37600 31.64000
C  35.70200 48.82000 32.86900
H  34.23700 49.17700 33.17900
N  35.85500 51.42200 25.42000
C  35.79400 52.45200 26.28900
C  35.64400 53.66800 25.55400
C  35.60100 53.34900 24.15000
C  35.83500 51.86200 24.16400
C  35.47500 55.01500 26.13700
C  35.41300 54.17600 22.90600
O  35.53800 53.78100 21.77900
C  35.33100 55.71300 23.05400
N  36.00800 48.78500 23.94700
C  35.89000 49.65500 22.94700
C  36.09000 48.97000 21.57300
C  36.50900 47.51200 21.96300
C  36.26700 47.58700 23.46500
C  34.92500 49.01800 20.50900
C  38.00400 47.15800 21.61200
C  38.12300 45.97700 20.60000
N  36.16400 47.38500 26.48200
C  36.39600 46.30900 25.65500
C  36.42600 45.10800 26.45800
C  36.13500 45.56500 27.83000
C  36.01000 46.97900 27.75000
C  36.67100 43.68300 26.08300
C  36.06200 45.12000 29.21100
O  36.27400 44.01600 29.75600
C  35.62500 46.53000 30.01600
C  34.33400 46.28700 30.66700
O  33.29300 46.69200 30.17000
O  34.49700 45.48600 31.78100
C  33.32600 45.18000 32.50000
H  35.92600 53.26500 28.23400
H  35.94400 51.52600 22.10700
H  36.75300 45.63400 23.59100
H  34.34200 49.77500 30.74500
H  36.61600 51.83500 30.39700
H  34.98900 53.16900 31.04600
H  33.93400 51.81200 31.20100
H  33.88500 52.70600 29.67700
H  36.94800 50.19900 31.99900
H  36.86700 48.52700 31.21500
H  36.23800 49.22300 33.72900
H  35.76400 47.73200 32.90100
H  36.29700 55.68100 25.87600
H  35.37700 55.02500 27.22200
H  34.59200 55.45500 25.67400
H  36.26500 56.04600 23.50500
H  34.43600 56.10500 23.53600
H  35.33900 56.05000 22.01700
H  36.94600 49.50600 21.16300
H  35.79700 46.83500 21.49000
H  34.96200 49.86600 19.82400
H  33.92200 49.07000 20.93200
H  35.00900 48.11400 19.90500
H  38.58500 46.90700 22.50000
H  38.42800 48.06600 21.18200
H  38.80700 46.36000 19.84200
H  37.20200 45.81400 20.04000
H  38.39700 45.03500 21.07700
H  37.70300 43.53200 26.40000
H  36.52900 43.48700 25.02100
H  36.04400 43.06200 26.72400
H  36.35700 46.56300 30.82300
H  32.82900 46.12100 32.73500
H  33.54300 44.59300 33.39300
H  32.60800 44.57500 31.94700
Mg -9.03500 41.15900 42.46100
C  -8.39400 37.84600 41.59800
C  -6.34400 42.22800 40.83900
C  -10.47800 44.26900 42.47600
C  -12.19400 39.91900 43.84800
N  -7.63300 40.18300 41.20200
C  -7.49100 38.76100 41.09600
C  -6.21600 38.53800 40.29100
C  -5.41600 39.85600 40.56100
C  -6.53700 40.82100 40.85800
C  -4.34500 39.88900 41.69200
C  -6.60900 38.23700 38.76400
C  -6.04400 36.89800 38.20400
H  -5.07300 37.08700 37.05900
N  -8.39600 42.97800 41.86500
C  -7.24100 43.22900 41.14100
C  -7.20700 44.64200 40.75800
C  -8.31200 45.27700 41.38700
C  -9.15400 44.19000 41.91200
C  -6.13300 45.34500 39.85000
C  -8.61100 46.79500 41.31200
O  -7.90900 47.55600 40.57800
C  -9.69700 47.38300 42.00700
N  -11.10500 41.94100 42.95100
C  -11.28300 43.29600 42.96000
C  -12.59100 43.65000 43.69000
C  -13.17800 42.29400 44.17900
C  -12.09200 41.28100 43.62000
C  -12.35500 44.78600 44.72600
C  -14.63100 42.11200 43.53300
C  -15.60700 42.76100 44.44100
N  -10.01400 39.35000 42.87700
C  -11.25600 38.99700 43.45100
C  -11.30400 37.52400 43.62800
C  -10.25200 37.11900 42.87500
C  -9.56300 38.20300 42.34900
C  -12.46400 36.68500 44.24900
C  -9.69700 35.87700 42.28700
O  -9.98200 34.71000 42.35200
C  -8.49200 36.36500 41.39900
C  -7.26300 35.66500 41.88300
O  -6.66500 35.91700 42.86800
O  -6.99400 34.62200 41.07200
C  -6.05900 33.52100 41.52100
H  -5.31500 42.53400 40.63900
H  -11.04300 45.19400 42.34200
H  -13.05900 39.48700 44.35500
H  -5.63800 37.75800 40.78700
H  -4.90000 40.08200 39.62800
H  -4.56700 40.79300 42.26000
H  -3.33300 39.94600 41.29000
H  -4.56100 38.98300 42.25700
H  -6.27500 39.11100 38.20400
H  -7.68000 38.34700 38.59600
H  -6.97800 36.42800 37.89500
H  -5.60400 36.31400 39.01200
H  -6.52900 45.84700 38.96700
H  -5.38600 44.58800 39.61500
H  -5.59400 46.02000 40.51600
H  -9.61000 48.46400 42.11700
H  -9.60800 46.99200 43.02100
H  -10.63300 47.07400 41.54200
H  -13.24800 44.14700 42.97600
H  -13.30300 42.19100 45.25700
H  -11.38300 45.27300 44.65200
H  -12.38900 44.27900 45.69000
H  -13.19100 45.48400 44.67000
H  -14.63100 41.02200 43.54300
H  -14.69000 42.49000 42.51300
H  -16.46800 43.07400 43.85000
H  -15.15700 43.53300 45.06500
H  -15.88300 41.96900 45.13600
H  -12.06400 35.73500 44.60200
H  -13.18100 36.29000 43.52900
H  -12.98600 37.30000 44.98200
H  -8.72000 36.00200 40.39600
H  -6.70700 32.80300 42.02300
H  -5.33700 33.90800 42.24000
H  -5.43300 33.04700 40.76500

