158

Mg -12.39500 37.92900 42.79700
C  -10.03400 35.46600 41.67400
C  -10.35100 40.26400 41.21100
C  -14.88600 40.00400 43.00900
C  -14.32300 35.22600 43.99100
N  -10.47700 37.80100 41.51000
C  -9.62000 36.71000 41.30200
C  -8.37200 37.04400 40.52200
C  -8.50700 38.60800 40.53200
C  -9.83000 38.94300 41.19400
C  -7.31500 39.26500 41.25700
C  -8.39000 36.32600 39.12500
C  -7.27400 35.30300 38.78100
H  -6.30600 35.56000 37.59000
N  -12.55400 39.91700 42.29400
C  -11.65000 40.75700 41.62800
C  -12.28400 42.13300 41.53800
C  -13.59200 42.02600 42.14000
C  -13.72700 40.60800 42.46200
C  -11.60500 43.34600 40.96400
C  -14.62300 43.13400 42.37300
O  -14.23000 44.27100 42.09400
C  -16.01200 43.03300 42.83500
N  -14.37800 37.60900 43.27300
C  -15.16700 38.66700 43.38000
C  -16.54900 38.16900 43.74100
C  -16.29400 36.78400 44.46300
C  -14.92500 36.45600 43.89300
C  -17.39200 39.14700 44.57600
C  -17.44700 35.73900 44.46200
C  -17.84500 35.40200 45.93100
N  -12.24000 35.75200 42.95000
C  -13.11200 34.81300 43.47600
C  -12.49800 33.47600 43.39500
C  -11.30800 33.69100 42.68400
C  -11.19900 35.09300 42.42000
C  -13.13000 32.20900 43.94300
C  -10.13800 33.01700 42.13200
O  -9.79800 31.88100 42.18900
C  -9.24600 34.15800 41.55200
C  -7.95300 34.17300 42.26200
O  -6.99300 33.52500 41.97200
O  -7.92300 35.14600 43.28700
C  -6.65500 35.59600 43.87300
H  -9.71000 40.97800 40.68800
H  -15.76200 40.65500 42.98200
H  -14.85900 34.38900 44.44200
H  -7.58600 36.63500 41.15700
H  -8.58600 38.92900 39.49400
H  -6.39300 38.69800 41.12600
H  -7.58900 39.35100 42.30800
H  -7.16500 40.19000 40.70000
H  -8.36400 37.08200 38.34000
H  -9.39600 35.90400 39.11900
H  -7.79300 34.36100 38.60500
H  -6.67900 35.17900 39.68600
H  -11.94600 43.71800 39.99800
H  -10.55000 43.10000 40.84200
H  -11.66000 44.10100 41.74800
H  -16.68500 42.64300 42.07200
H  -16.42100 44.02800 43.00800
H  -16.01900 42.52400 43.79900
H  -17.15500 37.86800 42.88700
H  -15.97000 36.95600 45.49000
H  -16.80700 40.05800 44.70400
H  -17.67900 38.69700 45.52600
H  -18.33700 39.46500 44.13500
H  -17.18900 34.79900 43.97300
H  -18.39100 36.18300 44.14800
H  -17.69100 34.35000 46.16900
H  -18.89800 35.43300 46.21300
H  -17.32900 36.04900 46.64000
H  -14.17200 32.41400 44.18700
H  -12.44900 31.86900 44.72300
H  -13.06000 31.40300 43.21200
H  -9.00800 33.91300 40.51700
H  -5.84300 34.87500 43.78600
H  -6.78000 35.85800 44.92400
H  -6.48700 36.56900 43.41100
Mg -13.77000 16.64400 42.14700
C  -10.72700 15.01200 41.34400
C  -12.42100 19.43900 40.59100
C  -16.79500 17.92400 41.96500
C  -15.06200 13.59000 42.90100
N  -11.66200 17.18700 41.17400
C  -10.64100 16.37700 40.97900
C  -9.48200 17.17200 40.38600
C  -9.93600 18.62400 40.51200
C  -11.46600 18.40500 40.73600
C  -9.18400 19.48600 41.60300
C  -9.07900 16.69600 38.94100
C  -7.62200 16.12000 38.76400
H  -6.82400 16.47700 37.46000
N  -14.50300 18.47500 41.50200
C  -13.80800 19.50800 40.90500
C  -14.64600 20.60300 40.64300
C  -15.88900 20.25200 41.14800
C  -15.77400 18.83400 41.59700
C  -14.31200 21.94800 40.03200
C  -17.15100 21.14300 41.24800
O  -17.23600 22.22700 40.71900
C  -18.22300 20.81600 42.29300
N  -15.67100 15.91900 42.43900
C  -16.77700 16.62500 42.40300
C  -17.99600 15.80800 42.63200
C  -17.36700 14.49700 43.17500
C  -15.93200 14.64800 42.82400
C  -19.09300 16.42100 43.54000
C  -17.97000 13.15400 42.70400
C  -18.34700 12.14000 43.75200
N  -13.02500 14.64700 42.27800
C  -13.69300 13.49500 42.54800
C  -12.79700 12.39000 42.51300
C  -11.56600 12.96600 42.00300
C  -11.81500 14.31700 41.89700
C  -12.94100 10.95500 42.88900
C  -10.17100 12.68600 41.74600
O  -9.66200 11.59600 41.85800
C  -9.57500 14.00300 41.15900
C  -8.51900 14.36300 42.13300
O  -8.69300 14.90400 43.22300
O  -7.30700 14.30600 41.57000
C  -6.16700 14.94400 42.28500
H  -12.07500 20.32600 40.05800
H  -17.75100 18.44500 41.89100
H  -15.49500 12.60100 43.06600
H  -8.60400 17.01900 41.01200
H  -9.79300 19.14800 39.56700
H  -8.40300 18.81200 41.95700
H  -9.96300 19.81000 42.29200
H  -8.71100 20.36300 41.16200
H  -9.29200 17.38400 38.12300
H  -9.71000 15.83000 38.74000
H  -7.79300 15.04300 38.77500
H  -7.07400 16.42000 39.65700
H  -14.36600 22.74700 40.77200
H  -15.00800 22.18100 39.22700
H  -13.25700 22.02100 39.76400
H  -18.96100 20.27700 41.69900
H  -18.57000 21.76400 42.70400
H  -17.90500 20.22900 43.15400
H  -18.46900 15.50900 41.69600
H  -17.46100 14.59300 44.25700
H  -19.36700 15.80700 44.39700
H  -19.92100 16.58700 42.85100
H  -18.81700 17.37100 43.99800
H  -17.42200 12.70300 41.87700
H  -18.80000 13.43600 42.05700
H  -18.56500 11.12800 43.41200
H  -19.28500 12.58100 44.09000
H  -17.73300 12.16700 44.65200
H  -11.92600 10.57200 42.98600
H  -13.32700 10.29400 42.11400
H  -13.47800 10.92600 43.83700
H  -9.25700 13.82000 40.13300
H  -5.47900 15.15000 41.46500
H  -5.83200 14.15700 42.96000
H  -6.56000 15.83800 42.76900

