158

Mg -11.65100 38.36400 42.46800
C  -9.03500 35.91300 41.90100
C  -9.32600 40.63800 41.56800
C  -14.14500 40.53900 42.32200
C  -13.89000 35.71600 43.02300
N  -9.46600 38.18100 41.73000
C  -8.56600 37.21800 41.56300
C  -7.22300 37.65500 41.06500
C  -7.33400 39.20700 41.44600
C  -8.83800 39.36100 41.56400
C  -6.52300 39.66300 42.71800
C  -6.97400 37.30600 39.52000
C  -5.87500 36.29800 39.28300
H  -5.92400 35.30900 38.06900
N  -11.76200 40.34800 41.97400
C  -10.61100 41.13600 41.74400
C  -11.12400 42.51300 41.70000
C  -12.53800 42.52500 42.05500
C  -12.87100 41.12100 42.08800
C  -10.14800 43.65400 41.67400
C  -13.39200 43.82700 42.20900
O  -12.81500 44.95000 42.09200
C  -14.93400 43.87000 42.47300
N  -13.77300 38.10000 42.40900
C  -14.58500 39.22300 42.45400
C  -16.01100 38.76900 42.72000
C  -15.93800 37.24500 43.02600
C  -14.45700 36.96000 42.73200
C  -16.69300 39.57500 43.91300
C  -16.94100 36.40500 42.30700
C  -16.67300 35.98800 40.82900
N  -11.50000 36.30100 42.51000
C  -12.54800 35.38900 42.85700
C  -12.06600 34.04300 42.80700
C  -10.63300 34.23700 42.52600
C  -10.39200 35.60300 42.25600
C  -12.89000 32.76200 43.05900
C  -9.36100 33.56400 42.35200
O  -9.14000 32.33700 42.39500
C  -8.25600 34.64100 41.95700
C  -7.21700 34.71100 43.05200
O  -7.30500 35.26000 44.12700
O  -6.09800 34.07600 42.60600
C  -5.10700 33.93300 43.67900
H  -8.46300 41.30400 41.50300
H  -14.95700 41.26900 42.33300
H  -14.59100 34.89100 43.16500
H  -6.39400 37.25500 41.64800
H  -7.05000 39.87000 40.62900
H  -5.77000 38.92300 42.98800
H  -7.21400 39.86100 43.53800
H  -5.96500 40.59000 42.58700
H  -6.64900 38.25600 39.09700
H  -7.90400 37.00700 39.03500
H  -5.80600 35.58900 40.10900
H  -4.91000 36.78800 39.15300
H  -10.12800 43.94100 40.62300
H  -9.14800 43.41800 42.03900
H  -10.50000 44.49200 42.27500
H  -15.46400 43.45900 41.61400
H  -15.23900 44.90600 42.62300
H  -15.23100 43.34900 43.38400
H  -16.61300 38.84300 41.81500
H  -16.17000 37.10200 44.08100
H  -16.16000 40.45500 44.27100
H  -16.92500 38.92200 44.75400
H  -17.59200 39.85400 43.36200
H  -17.93000 36.83000 42.47500
H  -16.99500 35.44700 42.82500
H  -17.56000 36.11300 40.20800
H  -16.40400 34.93300 40.87800
H  -15.97000 36.59800 40.26200
H  -12.19700 31.95800 43.30700
H  -13.44800 32.47800 42.16700
H  -13.59600 32.90900 43.87700
H  -7.72100 34.42400 41.03300
H  -5.53900 33.54900 44.60300
H  -4.76200 34.95300 43.84300
H  -4.39800 33.15700 43.38800
Mg 1.80800 41.43800 26.80200
C  3.36600 42.25200 29.92200
C  -0.79000 40.14800 28.54900
C  0.48400 40.62300 23.87100
C  4.83700 42.22400 25.28500
N  1.34700 41.25400 29.03300
C  2.07300 41.71700 30.10300
C  1.21400 41.71300 31.37200
C  -0.07600 40.84200 30.91300
C  0.14500 40.77300 29.41100
C  -0.14500 39.44400 31.63600
C  0.95600 43.15600 31.93700
C  1.31700 43.41400 33.38100
H  1.18800 42.35300 34.45200
N  0.05800 40.57300 26.21700
C  -0.85300 40.05800 27.08900
C  -1.98300 39.52500 26.22600
C  -1.53500 39.54500 24.88800
C  -0.27500 40.28500 24.97300
C  -3.18600 38.76200 26.81900
C  -2.20600 38.95100 23.64500
O  -1.63300 39.05200 22.57800
C  -3.56100 38.15200 23.76200
N  2.63000 41.32800 24.96100
C  1.84700 40.99200 23.88100
C  2.60800 41.24500 22.51100
C  3.99000 41.74800 22.95100
C  3.85900 41.68600 24.50200
C  2.63100 39.99700 21.61800
C  4.36700 43.19600 22.34900
C  3.75300 44.35200 23.05000
N  3.71000 42.12200 27.41000
C  4.81100 42.46800 26.66400
C  5.91300 42.85700 27.56300
C  5.30500 42.76800 28.82600
C  4.02000 42.35900 28.73100
C  7.33000 43.18200 27.32500
C  5.65400 42.80000 30.20500
O  6.73600 42.99500 30.66700
C  4.37600 42.57300 31.02600
C  4.75100 41.39400 31.82100
O  4.89100 40.25900 31.37200
O  4.71400 41.75800 33.11600
C  4.86700 40.69500 34.10300
H  -1.68500 39.79700 29.06800
H  0.04300 40.54200 22.87600
H  5.78200 42.53400 24.83300
H  1.69800 41.19200 32.19900
H  -1.03400 41.29200 31.17200
H  0.56100 39.35300 32.46200
H  -0.18000 38.62600 30.91700
H  -1.13400 39.19000 32.01500
H  -0.12600 43.28900 31.94500
H  1.39100 43.89500 31.26500
H  0.66200 44.24600 33.63900
H  2.37100 43.67900 33.46800
H  -3.34400 38.86300 27.89300
H  -3.13000 37.67400 26.83000
H  -4.15600 39.16500 26.52700
H  -3.57100 37.36100 24.51200
H  -3.70700 37.77600 22.74900
H  -4.43500 38.78600 23.90900
H  2.12100 42.04700 21.95600
H  4.82900 41.12500 22.64100
H  2.24100 39.17900 22.22300
H  3.67300 39.80900 21.35700
H  2.09400 40.17600 20.68600
H  3.84100 43.31700 21.40200
H  5.41300 43.36700 22.09500
H  3.05100 43.89400 23.74600
H  3.19400 45.10100 22.49000
H  4.57400 44.88200 23.53200
H  7.63600 42.84900 26.33300
H  7.82700 42.56800 28.07600
H  7.45000 44.24900 27.50800
H  4.11400 43.51900 31.50100
H  4.53000 39.76800 33.63900
H  4.40800 40.93800 35.06200
H  5.89400 40.66800 34.46700

