158

Mg 8.98700 3.97900 27.99400
C  10.34200 2.22200 30.67800
C  7.13700 5.80700 30.18200
C  7.67700 5.37700 25.33600
C  10.51400 1.46700 25.87900
N  8.75000 3.98500 30.20800
C  9.44600 3.22600 31.10600
C  9.18800 3.73100 32.57700
C  7.98700 4.78900 32.35800
C  8.02100 4.98700 30.82500
C  6.62900 4.23100 32.85500
C  10.50000 4.25800 33.39100
C  10.76600 3.71900 34.74400
H  11.10200 4.77500 35.82400
N  7.74800 5.43300 27.79900
C  7.04900 6.00200 28.81100
C  6.28100 7.11400 28.22100
C  6.58500 7.17000 26.79800
C  7.35300 5.89600 26.54200
C  5.51900 8.18100 28.98500
C  6.28700 8.21700 25.77700
O  6.71900 8.15900 24.63300
C  5.39500 9.46000 26.14900
N  8.97200 3.39300 25.90900
C  8.40800 4.21900 25.00200
C  8.68400 3.77500 23.55200
C  9.63000 2.54200 23.69400
C  9.72100 2.39900 25.24100
C  7.38700 3.54700 22.71000
C  10.99200 2.57100 22.99700
C  11.44200 1.29400 22.27100
N  10.15700 2.21000 28.15000
C  10.72900 1.31000 27.28100
C  11.37900 0.21500 27.96000
C  11.35900 0.55600 29.31800
C  10.64400 1.73500 29.36800
C  12.13000 -0.98000 27.32500
C  11.87300 0.18500 30.63500
O  12.62700 -0.74700 30.95300
C  11.17400 1.21700 31.58600
C  10.39000 0.38800 32.48700
O  9.27700 -0.07300 32.20500
O  11.04900 0.30400 33.68000
C  10.36900 -0.35300 34.76900
H  6.41800 6.32000 30.82400
H  7.33300 5.85400 24.41600
H  10.91800 0.68900 25.22900
H  8.76900 2.92800 33.18400
H  8.09000 5.72800 32.90300
H  6.48600 4.70600 33.82600
H  6.64600 3.15000 32.98800
H  5.76300 4.52900 32.26400
H  10.38000 5.33700 33.48900
H  11.41500 3.94800 32.88800
H  11.67700 3.13700 34.61200
H  9.96000 3.11900 35.16700
H  4.63800 8.38900 28.37800
H  6.04300 9.12900 29.11100
H  5.08200 7.93600 29.95400
H  4.37500 9.20500 26.43600
H  5.28500 9.98800 25.20200
H  5.83600 10.12500 26.89200
H  9.17900 4.65000 23.13100
H  9.00800 1.71600 23.34900
H  6.59100 4.13800 23.16400
H  7.11100 2.53100 22.42500
H  7.68300 4.04700 21.78800
H  11.77300 2.90200 23.68100
H  10.91800 3.30200 22.19200
H  12.12300 1.50600 21.44700
H  10.55700 0.76900 21.91100
H  11.85500 0.65900 23.05400
H  12.13200 -1.83100 28.00600
H  13.04800 -0.65500 26.83500
H  11.48600 -1.34600 26.52600
H  12.01800 1.70600 32.07300
H  11.01800 -0.85900 35.48400
H  9.62600 -1.08900 34.46200
H  9.90600 0.42800 35.37200
Mg 9.63900 48.83100 26.47200
C  7.98900 48.73400 29.52700
C  12.49900 49.62500 28.01800
C  11.13700 48.42400 23.43800
C  6.44600 48.54400 24.85900
N  10.07300 49.16100 28.56300
C  9.34300 49.07700 29.69000
C  10.19100 49.34200 30.90100
C  11.43200 50.00300 30.30400
C  11.37200 49.56400 28.86800
C  11.50300 51.58300 30.53100
C  10.46100 48.19900 31.84100
C  9.95300 48.44000 33.30900
H  9.85700 47.24700 34.25400
N  11.55900 49.02800 25.80000
C  12.62900 49.31500 26.62100
C  13.84800 49.20800 25.83900
C  13.52100 48.87100 24.53300
C  12.00300 48.75700 24.51700
C  15.12100 49.51300 26.34600
C  14.38000 48.70700 23.30100
O  13.96900 48.39600 22.19200
C  15.95200 48.85200 23.48600
N  8.80800 48.62200 24.40500
C  9.69300 48.33900 23.30200
C  8.79700 47.85000 22.14900
C  7.29500 48.20800 22.53700
C  7.47900 48.45500 24.03100
C  9.20500 48.57700 20.80400
C  6.24900 47.10800 22.11700
C  5.72500 47.12100 20.66200
N  7.67800 48.72600 26.98700
C  6.48300 48.63900 26.24100
C  5.37900 48.50200 27.15300
C  5.93000 48.51900 28.43800
C  7.32200 48.62900 28.29700
C  4.04100 48.15000 26.74000
C  5.59300 48.35400 29.91900
O  4.57400 48.11800 30.57900
C  6.92700 48.55900 30.60100
C  7.06200 47.30200 31.40500
O  7.61200 46.26800 31.06300
O  6.34500 47.51700 32.58400
C  6.13400 46.35800 33.44700
H  13.47900 49.79100 28.47100
H  11.64400 48.21800 22.49300
H  5.43300 48.43800 24.46500
H  9.62400 50.11600 31.41900
H  12.32300 49.55500 30.74400
H  10.56700 52.04800 30.84100
H  11.78400 52.02800 29.57600
H  12.20200 52.01200 31.24800
H  11.54100 48.08300 31.93900
H  10.05100 47.27800 31.42600
H  9.04000 49.01900 33.45200
H  10.69900 49.04300 33.82600
H  15.16100 49.37300 27.42600
H  15.53700 50.50300 26.16300
H  15.84000 48.74900 26.05000
H  16.24100 49.80900 23.91900
H  16.49700 48.71100 22.55200
H  16.22100 48.04300 24.16500
H  8.87700 46.77400 21.99500
H  6.94400 49.13900 22.09100
H  8.65700 49.49900 20.61200
H  9.07000 47.91500 19.94800
H  10.18800 49.04900 20.82000
H  5.46100 47.10400 22.87000
H  6.74100 46.15500 22.31200
H  6.06700 48.07600 20.26400
H  4.63500 47.10400 20.67600
H  6.06700 46.23400 20.12900
H  3.97200 47.40200 25.95100
H  3.58600 49.04100 26.30600
H  3.47200 47.82300 27.61100
H  6.98400 49.44200 31.23800
H  5.26700 45.78100 33.12400
H  5.95300 46.79700 34.42800
H  7.06400 45.79000 33.48400

