158

Mg 53.55900 24.55100 43.79500
C  50.72900 26.48500 43.30600
C  51.88800 21.96200 42.24100
C  56.30800 22.79700 43.88400
C  55.11000 27.28000 45.29700
N  51.59900 24.29000 42.80700
C  50.67500 25.25400 42.64100
C  49.43800 24.81900 41.76700
C  49.66300 23.24400 41.74700
C  51.12000 23.12000 42.22400
C  48.72900 22.28300 42.48800
C  49.40300 25.37800 40.31900
C  50.68400 26.04500 39.71700
H  51.57600 25.30200 38.79200
N  54.01000 22.53000 43.26800
C  53.14900 21.62200 42.73100
C  53.77000 20.32500 42.70400
C  55.16100 20.53200 43.11300
C  55.22700 21.95500 43.42500
C  52.91900 19.12100 42.35700
C  56.21200 19.40700 43.22700
O  55.89700 18.22900 42.87800
C  57.63100 19.63300 43.67200
N  55.53500 25.08900 44.37300
C  56.51000 24.12900 44.31800
C  57.87000 24.76800 44.79600
C  57.33900 26.08700 45.52800
C  55.91400 26.19000 45.05500
C  58.82500 23.80300 45.61000
C  58.12500 27.35100 45.14900
C  59.64600 27.21800 45.03100
N  53.07000 26.49200 44.22600
C  53.76800 27.44400 44.88700
C  52.91800 28.58400 45.17000
C  51.70400 28.23600 44.54500
C  51.83000 26.97300 44.05600
C  53.34900 29.94800 45.72000
C  50.35700 28.68800 44.31900
O  49.81700 29.69700 44.72400
C  49.73200 27.54900 43.45800
C  49.34800 28.24400 42.20200
O  50.08100 28.65500 41.30000
O  48.01500 28.45000 42.27200
C  47.36500 29.13400 41.16600
H  51.27000 21.13600 41.88600
H  57.20400 22.20400 44.08000
H  55.58000 28.14200 45.77600
H  48.46600 25.07600 42.18900
H  49.55900 22.90800 40.71500
H  49.21500 21.31900 42.63900
H  47.87600 22.13500 41.82500
H  48.57100 22.79500 43.43700
H  48.64300 26.14400 40.47900
H  48.92800 24.70900 39.60200
H  51.34000 26.18700 40.57600
H  50.42000 27.01300 39.29000
H  53.01100 18.73700 41.34100
H  51.87500 19.30800 42.60700
H  53.17400 18.35800 43.09300
H  58.13900 18.66800 43.69400
H  57.67500 20.18500 44.61100
H  58.09200 20.24700 42.89800
H  58.48800 24.96900 43.92100
H  57.26400 25.99900 46.61200
H  58.30500 22.88700 45.89300
H  59.06100 24.30000 46.55100
H  59.70700 23.46000 45.06900
H  57.91700 27.99500 46.00300
H  57.62100 27.85000 44.32100
H  59.97700 27.21500 43.99200
H  59.87200 26.28800 45.55300
H  60.23800 27.99700 45.51300
H  53.02900 30.07400 46.75400
H  52.98500 30.67500 44.99300
H  54.40700 30.17300 45.58000
H  48.84800 27.12700 43.93700
H  47.92100 28.95600 40.24500
H  47.48900 30.18200 41.43700
H  46.35700 28.74200 41.02900
Mg -1.80900 33.81000 25.95700
C  -3.77500 32.51600 28.58200
C  -0.55600 36.00700 28.07400
C  -0.40200 35.29600 23.20100
C  -3.62700 31.97900 23.65500
N  -2.14700 34.21100 28.04100
C  -2.86900 33.49900 28.96900
C  -2.63100 33.89700 30.44300
C  -1.73400 35.19500 30.26800
C  -1.44600 35.15300 28.67500
C  -2.46300 36.51000 30.62700
C  -1.92500 32.81900 31.35300
C  -2.79900 32.18900 32.46100
H  -2.06200 31.78100 33.64800
N  -0.56200 35.39100 25.67000
C  -0.08500 36.11700 26.72800
C  0.90400 37.04500 26.18000
C  0.92300 36.93600 24.81400
C  -0.05400 35.84800 24.50700
C  1.67900 37.98400 27.01400
C  1.67300 37.68600 23.77900
O  1.59600 37.37900 22.65700
C  2.55500 38.75500 24.12700
N  -1.98500 33.66800 23.66300
C  -1.27800 34.35800 22.84700
C  -1.54200 34.01500 21.41600
C  -2.43000 32.75200 21.53200
C  -2.77100 32.87500 23.03500
C  -1.98300 35.16600 20.41800
C  -1.64200 31.41800 21.31100
C  -2.46700 30.27200 20.71000
N  -3.31300 32.42400 26.04900
C  -3.92400 31.73800 25.05100
C  -4.90400 30.86100 25.67300
C  -4.84400 31.09100 27.04200
C  -3.88400 32.06400 27.21700
C  -5.82300 29.95200 24.91900
C  -5.47300 30.77400 28.23100
O  -6.33300 29.94500 28.44200
C  -4.72100 31.63000 29.37900
C  -5.82100 32.37700 30.16000
O  -6.65900 33.10200 29.73700
O  -5.70300 31.91200 31.46900
C  -6.66700 32.45000 32.49600
H  -0.17000 36.70800 28.81800
H  0.12500 35.82900 22.40600
H  -4.18500 31.38200 22.93100
H  -3.62900 34.06400 30.84900
H  -0.81000 35.13100 30.84200
H  -2.12600 36.86100 31.60200
H  -3.49500 36.33600 30.93100
H  -2.49200 37.34200 29.92300
H  -1.05300 33.28600 31.81000
H  -1.64600 32.05000 30.63200
H  -3.29000 31.26800 32.14300
H  -3.62700 32.82000 32.78400
H  1.41600 37.92400 28.07000
H  1.57900 38.99600 26.62200
H  2.71500 37.66100 26.91000
H  1.89400 39.46600 24.62300
H  3.01100 39.22400 23.25600
H  3.31000 38.47900 24.86300
H  -0.55400 33.76800 21.02700
H  -3.31800 32.74800 20.90000
H  -1.88400 36.14700 20.88200
H  -3.01900 34.96200 20.14800
H  -1.46000 35.08800 19.46500
H  -1.27800 30.94700 22.22500
H  -0.73800 31.59400 20.72800
H  -1.84800 29.52200 20.21800
H  -3.13700 30.54900 19.89600
H  -3.06700 29.81300 21.49600
H  -5.38200 29.73600 23.94600
H  -6.78600 30.36100 24.61300
H  -5.81500 29.04100 25.51800
H  -4.24500 30.89100 30.02300
H  -7.66300 32.63300 32.09400
H  -6.32000 33.38600 32.93400
H  -6.77500 31.59700 33.16700

