158

Mg 23.77500 -5.72500 45.05700
C  25.84500 -3.30700 43.68900
C  21.15700 -4.50800 43.11900
C  22.08800 -8.56100 45.57800
C  26.53700 -7.16400 46.51900
N  23.62700 -4.22400 43.35000
C  24.57200 -3.24900 43.09500
C  23.99200 -2.12800 42.14300
C  22.41500 -2.40900 42.18100
C  22.38400 -3.82900 42.90000
C  21.36500 -1.40800 42.83200
C  24.57900 -2.41000 40.69200
C  25.10300 -1.11400 40.02600
H  24.75100 -0.95000 38.46000
N  21.78200 -6.38000 44.57100
C  20.88500 -5.70200 43.79400
C  19.60400 -6.35200 43.99200
C  19.83500 -7.65300 44.51000
C  21.27000 -7.63200 44.87400
C  18.31500 -5.81600 43.40500
C  18.83500 -8.68600 44.74400
O  17.66300 -8.40100 44.49700
C  19.12800 -10.01600 45.39000
N  24.23300 -7.61600 45.84500
C  23.32900 -8.57700 46.06600
C  23.82700 -9.68000 46.91900
C  25.29200 -9.10500 47.28300
C  25.34500 -7.91700 46.45100
C  22.95800 -10.15400 48.13300
C  26.48900 -10.11200 47.04400
C  27.37500 -10.43500 48.26800
N  25.75600 -5.40900 45.12200
C  26.78300 -6.02500 45.79600
C  27.99800 -5.22700 45.74100
C  27.66100 -4.23800 44.83200
C  26.30700 -4.31500 44.53000
C  29.31800 -5.64100 46.37700
C  28.19800 -3.14800 44.08600
O  29.33600 -2.69900 44.09100
C  27.02700 -2.55700 43.23000
C  26.82500 -1.09700 43.45600
O  26.20400 -0.52000 44.39700
O  27.51500 -0.41000 42.51100
C  27.46300 1.08200 42.50100
H  20.25300 -3.98100 42.80500
H  21.69000 -9.54100 45.84700
H  27.40000 -7.48100 47.10900
H  24.14600 -1.17900 42.65700
H  22.05800 -2.60400 41.16900
H  20.96400 -0.72500 42.08300
H  21.95100 -0.83100 43.54800
H  20.52800 -1.91000 43.31600
H  23.79400 -2.78800 40.03700
H  25.31600 -3.21300 40.67300
H  26.13700 -1.05300 40.36400
H  24.65300 -0.22800 40.47600
H  18.31100 -6.08300 42.34800
H  18.29300 -4.72700 43.40300
H  17.44600 -6.13600 43.98100
H  18.28300 -10.70200 45.33700
H  19.45000 -9.82900 46.41400
H  19.98800 -10.46800 44.89500
H  23.85100 -10.54800 46.26000
H  25.36600 -8.61600 48.25400
H  23.54000 -10.28600 49.04500
H  22.59000 -11.12400 47.79800
H  22.15800 -9.41800 48.22100
H  27.18400 -9.57000 46.40300
H  26.14200 -11.06200 46.63800
H  28.34000 -9.96000 48.09400
H  27.51800 -11.48700 48.51700
H  26.93900 -10.08600 49.20400
H  29.05000 -5.97900 47.37800
H  30.07600 -4.86900 46.24600
H  29.62900 -6.46300 45.73200
H  27.21200 -2.82600 42.19000
H  28.31600 1.61100 42.92500
H  26.70300 1.39000 43.21900
H  27.18000 1.46700 41.52200
Mg 6.32400 53.83100 40.83600
C  6.23200 50.29300 40.57700
C  9.52800 53.79600 39.48900
C  6.30500 57.16100 40.87100
C  2.91200 53.68000 41.71900
N  7.60500 52.14500 39.97000
C  7.41800 50.83000 40.02900
C  8.67700 50.08200 39.63600
C  9.76500 51.20400 39.65700
C  8.88800 52.52200 39.65400
C  10.74800 51.18100 40.87500
C  8.52600 49.23500 38.32700
C  7.64900 49.80800 37.21000
H  8.23000 50.81800 36.19900
N  7.76700 55.25000 40.37400
C  8.98900 55.11800 39.80900
C  9.67900 56.37000 39.66600
C  8.79500 57.37100 40.12800
C  7.56100 56.59400 40.53300
C  11.08200 56.50200 39.21500
C  9.10100 58.83500 40.24900
O  10.15800 59.25800 39.85100
C  8.14100 59.86800 40.93500
N  4.80900 55.23900 41.19100
C  5.00800 56.59500 41.01300
C  3.70500 57.39400 41.29000
C  2.60500 56.21300 41.36600
C  3.45000 54.95600 41.51800
C  3.67700 58.35700 42.43000
C  1.63900 55.98300 40.15100
C  2.23700 55.45400 38.79800
N  4.79800 52.38800 41.16600
C  3.54500 52.44800 41.63800
C  3.01100 51.14000 41.82600
C  4.10100 50.26300 41.58800
C  5.10900 51.06100 40.98700
C  1.64200 50.81800 42.43600
C  4.62900 48.90800 41.70500
O  4.24900 47.96300 42.38700
C  5.96400 48.85100 40.84800
C  5.57700 47.93100 39.69600
O  4.87500 48.20200 38.71800
O  6.13400 46.70600 39.91500
C  5.73000 45.74300 38.92300
H  10.57900 53.71000 39.20500
H  6.37100 58.22100 41.12500
H  1.88900 53.45900 42.03100
H  8.90500 49.29900 40.35800
H  10.28400 51.08500 38.70600
H  10.67800 50.22700 41.39700
H  10.57100 52.05500 41.50100
H  11.74600 51.17400 40.43600
H  8.18000 48.23000 38.56800
H  9.53200 48.99400 37.98300
H  6.79700 50.32600 37.65000
H  7.26400 48.96000 36.64400
H  11.63700 55.60700 39.49300
H  11.67200 57.22900 39.77300
H  11.11900 56.82200 38.17300
H  7.25800 59.87200 40.29600
H  8.53400 60.88300 40.87900
H  7.76300 59.58900 41.91900
H  3.46000 57.96800 40.39600
H  2.09700 56.32200 42.32400
H  3.12000 59.20700 42.03700
H  4.64900 58.69000 42.79400
H  3.06800 57.98700 43.25500
H  1.28100 56.97700 39.88200
H  0.75900 55.36600 40.33200
H  1.81000 54.50600 38.47100
H  3.32500 55.49100 38.73200
H  2.02600 56.19000 38.02300
H  1.68300 51.24200 43.44000
H  1.74500 49.75600 42.65800
H  0.80000 51.21500 41.86900
H  6.65200 48.35200 41.53100
H  6.29300 46.01500 38.03000
H  4.64600 45.79500 38.81700
H  5.96000 44.69100 39.09500

