158

Mg 42.69700 41.80000 25.99200
C  41.56000 44.18700 28.19000
C  43.61500 39.74400 28.61400
C  43.53100 39.47800 23.75600
C  42.13000 44.11300 23.26600
N  42.66100 41.97800 28.12300
C  42.10600 43.05300 28.78800
C  42.04100 42.70600 30.24100
C  42.93200 41.41100 30.46700
C  43.13700 40.99000 28.97500
C  44.07600 41.37600 31.45500
C  40.59900 42.54800 30.79300
C  40.42900 43.29800 32.16700
H  39.81200 42.61800 33.32900
N  43.45300 39.86000 26.16900
C  43.74400 39.17200 27.34900
C  44.16400 37.79300 27.04500
C  44.16300 37.69100 25.58900
C  43.72300 39.03900 25.10000
C  44.51700 36.81800 28.12100
C  44.50400 36.56000 24.66900
O  44.63700 36.56500 23.42800
C  44.87100 35.22400 25.23600
N  42.94500 41.84400 23.81700
C  43.25200 40.72000 23.16700
C  43.12700 40.81600 21.63300
C  42.54800 42.29500 21.52200
C  42.63800 42.82100 22.97000
C  44.42000 40.56300 20.82900
C  41.22300 42.29400 20.87500
C  40.14500 41.32300 21.37900
N  42.13800 43.79700 25.70900
C  42.05200 44.63100 24.55400
C  41.66100 45.98500 25.05000
C  41.32000 45.81100 26.44300
C  41.69300 44.48600 26.79500
C  41.38000 47.21800 24.30100
C  40.88500 46.49300 27.67400
O  40.60700 47.63800 27.82600
C  41.00500 45.41000 28.78600
C  41.93300 45.98000 29.84600
O  43.14100 45.88600 29.86200
O  41.10300 46.59600 30.80500
C  41.76100 46.86800 32.13700
H  43.78200 39.06300 29.45100
H  43.78500 38.70200 23.03000
H  41.87600 44.81000 22.46500
H  42.40800 43.56900 30.79700
H  42.25800 40.68700 30.92300
H  44.29700 42.35700 31.87700
H  44.95400 41.00400 30.92500
H  43.93500 40.65900 32.26400
H  40.27300 41.51300 30.90200
H  39.86500 42.91700 30.07700
H  39.73700 44.11500 31.96400
H  41.38700 43.70600 32.49000
H  43.76400 36.03900 28.23800
H  44.59300 37.29200 29.10000
H  45.37100 36.20300 27.84000
H  44.86100 34.34200 24.59500
H  44.13800 34.97500 26.00300
H  45.86000 35.24600 25.69300
H  42.34600 40.13200 21.30300
H  43.21700 42.73600 20.78300
H  44.40500 41.25400 19.98700
H  44.44900 39.58100 20.35600
H  45.31000 40.57400 21.45800
H  41.48600 42.15800 19.82600
H  40.68100 43.24000 20.88900
H  39.20700 41.87700 21.40100
H  40.46300 41.00900 22.37300
H  40.03700 40.44500 20.74100
H  40.56200 47.05200 23.59900
H  42.23400 47.59200 23.73700
H  40.86500 47.94800 24.92600
H  40.02700 45.07300 29.13000
H  40.97900 47.29700 32.76400
H  42.60000 47.54900 31.99500
H  42.03900 45.91100 32.57800
Mg 10.27300 47.93500 25.56500
C  8.27500 48.20400 28.47600
C  12.83300 49.39600 27.21300
C  12.03700 47.89600 22.61100
C  7.41900 47.02200 23.80900
N  10.51300 48.74000 27.59400
C  9.64300 48.63900 28.65900
C  10.26400 49.13300 29.90700
C  11.43600 49.99300 29.46200
C  11.64800 49.45500 27.98800
C  11.18600 51.49800 29.58500
C  10.77400 47.93800 30.79200
C  10.96600 48.13100 32.33400
H  10.47000 47.03700 33.29000
N  12.16400 48.45200 25.02400
C  13.08800 48.88900 25.93600
C  14.37000 48.94800 25.30200
C  14.20800 48.64100 23.90100
C  12.74900 48.29300 23.77300
C  15.66600 49.46100 26.00900
C  15.14300 48.72900 22.77600
O  14.85200 48.35800 21.60000
C  16.60300 49.02100 22.96500
N  9.79200 47.70000 23.46500
C  10.65700 47.75400 22.37700
C  9.87200 47.37500 21.03900
C  8.57000 46.69800 21.61100
C  8.58600 47.16900 23.05800
C  9.43700 48.57500 20.10100
C  8.61200 45.11500 21.50600
C  9.38300 44.42900 22.64200
N  8.22900 47.64000 26.05500
C  7.16600 47.27500 25.19300
C  5.93700 47.31600 25.94900
C  6.39000 47.58800 27.22300
C  7.75900 47.82400 27.25800
C  4.50900 47.04100 25.39300
C  5.89300 47.82100 28.50800
O  4.70300 47.60000 28.95400
C  7.09400 48.12000 29.42000
C  7.08700 46.88600 30.21800
O  7.56000 45.80800 29.83500
O  6.63400 47.13600 31.46300
C  6.67000 46.08400 32.39700
H  13.67700 49.82300 27.76000
H  12.50700 47.70500 21.64400
H  6.59700 46.69600 23.16900
H  9.49200 49.64100 30.48500
H  12.39000 49.88400 29.97700
H  12.07700 51.95900 30.01200
H  10.31100 51.66300 30.21300
H  10.97100 51.93200 28.60800
H  11.78600 47.64300 30.51500
H  10.20800 47.03500 30.56200
H  10.56900 49.14400 32.40800
H  11.99700 48.30100 32.64200
H  15.57900 49.88200 27.01000
H  16.20600 50.24400 25.47700
H  16.39300 48.65300 26.10100
H  17.10100 48.88800 22.00400
H  17.03300 48.36600 23.72200
H  16.70500 50.04800 23.31400
H  10.51300 46.67900 20.49800
H  7.74400 47.00400 20.96800
H  10.08200 49.39700 20.41200
H  8.37500 48.81900 20.06400
H  9.67000 48.27200 19.08000
H  9.05100 44.90500 20.53000
H  7.65400 44.60200 21.41900
H  10.11400 44.92200 23.28300
H  9.91700 43.76800 21.96000
H  8.61000 43.95500 23.24600
H  4.21300 47.29600 24.37600
H  3.89000 47.75900 25.93100
H  4.05600 46.07400 25.61400
H  6.94900 49.00900 30.03400
H  7.67900 45.70000 32.55100
H  5.97700 45.29900 32.09700
H  6.23600 46.49400 33.30900

