158

Mg 9.02500 4.82000 27.90400
C  10.21700 3.00300 30.60300
C  7.01900 6.61200 30.08000
C  7.46500 6.26500 25.17400
C  10.68200 2.64000 25.71600
N  8.55400 4.70400 30.10800
C  9.30900 4.02300 31.02500
C  8.83600 4.33300 32.50700
C  7.89200 5.44500 32.21300
C  7.85000 5.59000 30.69000
C  6.50600 5.46200 32.90600
C  10.10500 4.47500 33.44800
C  9.75500 5.37800 34.59100
H  10.61200 5.28000 35.89800
N  7.64200 6.35700 27.68000
C  6.94500 6.99600 28.66400
C  6.16300 8.06200 28.04800
C  6.26900 7.96800 26.63100
C  7.15500 6.80600 26.44200
C  5.31400 8.95300 28.82800
C  5.80600 8.83300 25.51100
O  6.05800 8.55900 24.36500
C  5.18900 10.15800 25.82900
N  9.13100 4.59500 25.75600
C  8.39600 5.22800 24.88600
C  8.57500 4.66000 23.49300
C  9.63700 3.46600 23.59800
C  9.84800 3.59600 25.12700
C  7.29700 4.30600 22.64000
C  10.95200 3.55200 22.80200
C  11.17800 2.19800 21.94400
N  10.20800 3.26200 28.02700
C  10.84700 2.45400 27.08800
C  11.57000 1.45200 27.75600
C  11.42100 1.64200 29.11900
C  10.56400 2.75100 29.23100
C  12.28800 0.33200 27.07700
C  11.74100 1.16300 30.44000
O  12.50300 0.30300 30.84000
C  11.07200 2.13700 31.45600
C  10.42100 1.31400 32.47200
O  9.35300 0.69400 32.34800
O  11.21400 1.32000 33.68900
C  10.36300 0.93900 34.81600
H  6.45800 7.23200 30.78200
H  6.93300 6.60500 24.28200
H  11.18100 1.93400 25.04800
H  8.27200 3.48600 32.89700
H  8.47900 6.29400 32.56500
H  6.42500 4.61700 33.59000
H  5.69500 5.33900 32.18900
H  6.27900 6.36600 33.47100
H  10.92500 4.97700 32.93500
H  10.45000 3.49900 33.78800
H  8.68500 5.37100 34.80000
H  9.90500 6.39900 34.24000
H  5.23300 8.76400 29.89800
H  4.34900 8.79800 28.34600
H  5.72200 9.94400 28.63200
H  5.92300 10.92500 26.07400
H  4.50400 10.03700 26.66900
H  4.57900 10.48100 24.98500
H  9.03400 5.44000 22.88500
H  9.02900 2.58200 23.40300
H  6.35400 4.76400 22.93700
H  6.99400 3.27200 22.80900
H  7.44100 4.57700 21.59400
H  11.81400 3.74100 23.44100
H  10.85700 4.41800 22.14700
H  10.23600 1.65700 21.85400
H  11.98600 1.53900 22.26200
H  11.53300 2.52500 20.96700
H  13.05100 0.79700 26.45200
H  11.71700 -0.29800 26.39600
H  12.83200 -0.29600 27.78200
H  11.84800 2.77200 31.88300
H  10.52600 -0.13600 34.89200
H  9.30700 1.20700 34.79400
H  10.73800 1.55000 35.63800
Mg 30.12800 57.67200 40.62100
C  27.42700 55.81900 39.31300
C  32.24900 55.69600 38.90700
C  32.64700 59.99900 40.89600
C  27.77600 60.24500 41.49800
N  29.82300 56.00300 39.25200
C  28.66600 55.33500 38.92500
C  28.84800 54.09200 37.96200
C  30.38200 53.85500 38.37300
C  30.91100 55.24100 38.86000
C  30.63900 52.64100 39.36300
C  28.51800 54.47400 36.46000
C  27.70400 53.36600 35.76000
H  26.52600 53.85000 34.84700
N  32.15300 57.74100 40.16600
C  32.83600 56.80600 39.43600
C  34.26300 57.15900 39.34300
C  34.44700 58.36900 40.07800
C  33.06500 58.77000 40.37100
C  35.40200 56.20100 38.66500
C  35.75600 59.02600 40.47800
O  36.82800 58.57600 40.12300
C  35.82100 60.16800 41.55500
N  30.19600 59.94800 40.86500
C  31.37900 60.61000 41.13000
C  31.20300 61.97000 41.88500
C  29.61000 62.08100 41.71500
C  29.08800 60.69800 41.35100
C  31.74400 62.08500 43.34000
C  29.22000 63.12800 40.63500
C  28.91100 64.54900 41.27000
N  28.07100 57.94200 40.65500
C  27.22900 59.05000 41.07900
C  25.86800 58.54300 41.07100
C  25.88600 57.30400 40.37000
C  27.23400 57.00300 40.07700
C  24.64400 59.30200 41.50300
C  25.02700 56.31800 39.73100
O  23.82300 56.17100 39.66900
C  26.08000 55.20700 39.09200
C  25.79700 53.82900 39.62200
O  26.30200 53.37000 40.63800
O  24.90100 53.15300 38.77200
C  24.56900 51.73600 39.19000
H  32.99400 55.03900 38.45300
H  33.47500 60.66900 41.13400
H  26.99600 60.94100 41.81300
H  28.28400 53.23300 38.32400
H  31.01300 53.70200 37.49800
H  30.98800 53.05800 40.30700
H  31.38700 52.05700 38.82700
H  29.72300 52.07200 39.52200
H  29.48700 54.49500 35.96000
H  28.11400 55.48600 36.43500
H  27.27600 52.69500 36.50500
H  28.26300 52.85200 34.97800
H  36.04300 55.63300 39.33900
H  36.10300 56.68700 37.98600
H  34.87300 55.47900 38.04400
H  35.51500 61.06400 41.01500
H  36.84800 60.34300 41.87600
H  35.19600 59.92500 42.41500
H  31.68500 62.75600 41.30400
H  29.26300 62.41200 42.69400
H  32.34700 61.18000 43.40900
H  30.95100 62.26500 44.06700
H  32.31600 63.01300 43.35100
H  28.26000 62.85000 40.20200
H  29.92400 63.13000 39.80200
H  27.87500 64.87500 41.17700
H  29.52400 65.29800 40.76900
H  29.12500 64.48400 42.33700
H  23.91500 58.63700 41.96700
H  24.27900 59.66800 40.54300
H  24.97500 60.08000 42.19100
H  25.82200 55.17500 38.03300
H  24.81100 51.11300 38.32900
H  23.50600 51.64000 39.41100
H  25.07800 51.48300 40.12100

