158

Mg 47.43700 24.61400 28.94900
C  48.10200 26.79700 31.52900
C  46.38700 22.25600 31.14500
C  47.90300 22.19300 26.59100
C  49.18200 26.87700 26.85200
N  47.11600 24.60000 31.01000
C  47.57000 25.57200 31.91700
C  47.47200 25.13800 33.40400
C  47.06300 23.64600 33.25500
C  46.73700 23.47400 31.67800
C  48.17600 22.50400 33.75900
C  46.47500 26.03800 34.20800
C  46.72300 25.91000 35.75200
H  45.58800 26.46500 36.65800
N  46.82200 22.52900 28.82100
C  46.36300 21.79700 29.83200
C  45.96700 20.50900 29.28300
C  46.37800 20.49800 27.96600
C  47.07500 21.74300 27.70900
C  45.16600 19.42400 30.04600
C  46.32500 19.37800 26.92300
O  46.75600 19.64700 25.82300
C  45.76800 18.03100 27.26900
N  48.53100 24.57400 27.12700
C  48.47300 23.45100 26.31800
C  49.39900 23.62300 25.15300
C  49.43900 25.21300 25.02200
C  48.97200 25.63700 26.35400
C  50.77700 22.93600 25.22600
C  48.67100 25.92400 23.89200
C  47.18200 26.35700 24.19600
N  48.21800 26.54400 29.10000
C  48.79300 27.32000 28.13300
C  49.02100 28.66300 28.63700
C  48.82100 28.44600 30.03600
C  48.41800 27.17800 30.24400
C  49.40800 29.87000 27.75300
C  49.02600 29.04800 31.38300
O  49.34300 30.17500 31.71600
C  48.57900 27.97700 32.38400
C  49.71200 27.65800 33.32000
O  50.60500 26.83300 33.08000
O  49.55500 28.39700 34.47500
C  50.57500 28.03700 35.48600
H  46.07700 21.46800 31.83500
H  48.07800 21.47800 25.78400
H  49.61700 27.56400 26.12300
H  48.46600 25.01600 33.83500
H  46.24400 23.46400 33.95100
H  47.79300 21.69400 34.38000
H  49.06700 22.99500 34.15100
H  48.52200 22.12000 32.80000
H  45.50200 25.59200 33.99900
H  46.46200 27.06500 33.84300
H  47.65800 26.38400 36.05000
H  46.76800 24.85300 36.01500
H  44.91700 19.75700 31.05300
H  45.77300 18.51900 30.00300
H  44.27300 19.20800 29.46000
H  44.70700 18.17900 27.47300
H  46.36300 17.71500 28.12600
H  45.94000 17.39800 26.39900
H  48.86900 23.22400 24.28800
H  50.43400 25.64300 24.90300
H  51.59600 23.58500 25.53500
H  51.01200 22.41100 24.30000
H  50.78800 22.18300 26.01400
H  48.76000 25.36000 22.96300
H  49.13300 26.90800 23.82300
H  46.63300 26.16800 23.27300
H  47.02000 27.39500 24.48700
H  46.65500 25.79700 24.96800
H  48.94800 29.66900 26.78500
H  50.49100 29.83900 27.63200
H  49.06800 30.86000 28.05700
H  47.84200 28.57500 32.91900
H  50.67000 28.89700 36.14900
H  51.51400 27.63400 35.10600
H  50.13300 27.26900 36.12100
Mg -8.96300 41.38800 42.62100
C  -8.56400 38.12900 41.48100
C  -6.39400 42.39300 40.59000
C  -9.97200 44.62100 42.99100
C  -12.05200 40.32400 44.08900
N  -7.53000 40.35500 41.31000
C  -7.58100 39.04600 41.00600
C  -6.48200 38.65300 39.98600
C  -5.64900 39.92400 39.97400
C  -6.58600 40.98600 40.67000
C  -4.25900 39.84700 40.60800
C  -7.13700 38.21100 38.60900
C  -6.76000 36.77100 38.16600
H  -5.67100 36.69000 37.09700
N  -8.16700 43.29400 42.03000
C  -7.11400 43.45200 41.18300
C  -6.90500 44.82000 40.99800
C  -7.97900 45.56700 41.62700
C  -8.75900 44.43200 42.31600
C  -5.69900 45.42300 40.10700
C  -8.05800 47.04800 41.77600
O  -7.28500 47.84100 41.26200
C  -9.27300 47.68600 42.45600
N  -10.62700 42.40200 43.62700
C  -10.76800 43.71900 43.73200
C  -12.13100 44.14900 44.41200
C  -12.81200 42.73000 44.69200
C  -11.75600 41.69700 44.18400
C  -12.08300 45.07100 45.69300
C  -14.22200 42.69400 43.90400
C  -15.42300 42.14500 44.73800
N  -10.10900 39.61700 42.81000
C  -11.32000 39.28600 43.47600
C  -11.61800 37.90900 43.25200
C  -10.50400 37.42200 42.50800
C  -9.63900 38.46700 42.32300
C  -12.76200 37.14000 43.82900
C  -9.89800 36.14800 42.08700
O  -10.34400 34.99000 42.19100
C  -8.56200 36.57500 41.31700
C  -7.39700 35.90700 41.89800
O  -6.90600 36.14100 43.01700
O  -6.85900 34.93100 41.06600
C  -5.61300 34.27600 41.60200
H  -5.57200 42.60800 39.90400
H  -10.47700 45.58800 43.02500
H  -12.97900 40.03700 44.58900
H  -5.88200 37.80000 40.30200
H  -5.39900 40.28600 38.97700
H  -3.45600 40.29700 40.02400
H  -4.08700 38.77800 40.73300
H  -4.23500 40.33500 41.58200
H  -6.86800 38.94600 37.85000
H  -8.22500 38.23600 38.66400
H  -7.57300 36.16800 37.76100
H  -6.31200 36.14100 38.93500
H  -5.42200 44.71100 39.32900
H  -4.78000 45.46000 40.69200
H  -5.94000 46.43500 39.78200
H  -9.22300 47.35200 43.49200
H  -10.22100 47.43700 41.97900
H  -9.19100 48.77300 42.43400
H  -12.59200 44.83800 43.70500
H  -13.03600 42.58300 45.74900
H  -11.08800 45.46200 45.90300
H  -12.45300 44.54900 46.57600
H  -12.70100 45.94900 45.50300
H  -14.08900 42.15800 42.96400
H  -14.41100 43.67800 43.47500
H  -16.27300 42.82000 44.83300
H  -15.19800 41.88800 45.77400
H  -15.84400 41.26400 44.25400
H  -12.91700 36.12100 43.47500
H  -13.66800 37.71000 43.62000
H  -12.82600 37.15900 44.91700
H  -8.73300 36.34700 40.26500
H  -5.43200 33.42600 40.94400
H  -5.64100 33.99200 42.65300
H  -4.74200 34.93000 41.55200

