158

Mg 46.69000 17.13900 28.14600
C  44.70500 16.79900 31.02100
C  48.62300 19.37500 29.82200
C  48.29800 17.87300 25.28400
C  44.10600 15.63100 26.29600
N  46.74600 17.90300 30.17600
C  45.91100 17.50900 31.19100
C  46.39900 18.08300 32.54800
C  47.51300 19.13500 32.19800
C  47.66200 18.79100 30.65900
C  47.27400 20.63700 32.59100
C  46.73800 16.98800 33.61700
C  45.95100 16.96000 34.85300
H  45.78200 18.32200 35.63800
N  48.34200 18.39400 27.62000
C  48.93900 19.24200 28.48200
C  50.07000 19.84800 27.77100
C  50.00300 19.40700 26.38100
C  48.85900 18.48700 26.42300
C  51.20300 20.69300 28.45700
C  50.90400 19.78700 25.19600
O  50.74200 19.22400 24.10200
C  52.01500 20.82100 25.32500
N  46.24800 16.79600 26.13200
C  47.12000 17.15900 25.13700
C  46.73100 16.67800 23.76600
C  45.40500 15.92400 24.05900
C  45.21600 16.16000 25.59200
C  46.55800 17.79400 22.67000
C  45.37000 14.41800 23.64700
C  46.14100 13.48500 24.53700
N  44.77500 16.37600 28.53700
C  43.88300 15.71300 27.71300
C  42.73800 15.26500 28.53000
C  43.03800 15.61000 29.82700
C  44.31200 16.29900 29.76500
C  41.54800 14.41700 28.11100
C  42.59200 15.57300 31.16000
O  41.64900 15.01400 31.67500
C  43.59900 16.36700 32.01000
C  42.87300 17.47400 32.59200
O  42.39700 18.37800 31.94700
O  42.53300 17.17900 33.87000
C  41.73700 18.10700 34.62900
H  49.25400 20.14300 30.27400
H  48.80600 18.03100 24.33000
H  43.32100 15.27900 25.62300
H  45.60600 18.69200 32.98200
H  48.37500 18.80400 32.77700
H  47.14000 21.28300 31.72300
H  48.12800 21.15000 33.03400
H  46.45300 20.83000 33.28000
H  47.76200 17.02500 33.98900
H  46.43300 16.04200 33.17000
H  46.59600 16.41800 35.54500
H  45.03400 16.38000 34.75500
H  52.23600 20.37300 28.32000
H  51.11400 20.85900 29.53100
H  51.13700 21.67900 27.99600
H  52.48200 21.14200 24.39400
H  52.83000 20.59500 26.01300
H  51.62300 21.70600 25.82700
H  47.54800 16.01600 23.48000
H  44.48000 16.27000 23.59700
H  45.52700 17.88200 22.32600
H  47.18800 17.68900 21.78800
H  46.60000 18.82100 23.03500
H  45.87100 14.30900 22.68500
H  44.37700 13.97300 23.59400
H  46.95000 13.11000 23.91100
H  45.55600 12.59800 24.78300
H  46.33300 13.99400 25.48100
H  40.69900 15.09600 28.19000
H  41.35000 13.64200 28.85300
H  41.59900 14.02800 27.09500
H  44.12300 15.79900 32.77800
H  40.68600 17.82100 34.59300
H  41.88400 19.13800 34.30400
H  42.13600 18.02100 35.63900
Mg 43.04300 42.08600 26.06100
C  42.20000 44.44600 28.47400
C  44.05300 40.02700 28.54800
C  43.78900 39.91100 23.70700
C  42.49600 44.60600 23.61500
N  42.84700 42.12800 28.28300
C  42.45600 43.18600 29.04900
C  42.65700 43.04300 30.57100
C  43.34000 41.60100 30.51200
C  43.44200 41.19400 29.03200
C  44.63600 41.37500 31.22000
C  41.25000 43.02600 31.25900
C  41.32000 42.76600 32.77800
H  40.76700 43.86200 33.69500
N  43.89200 40.26900 26.10500
C  44.25200 39.60700 27.23100
C  44.62000 38.23100 26.92300
C  44.54900 38.08900 25.51900
C  44.11200 39.42300 25.04100
C  45.13400 37.15600 27.86800
C  44.80900 36.94400 24.64600
O  44.70600 37.07200 23.41500
C  45.26300 35.61600 25.26700
N  43.37200 42.31100 23.93700
C  43.51300 41.16100 23.20400
C  43.44400 41.47500 21.65200
C  42.90500 42.98500 21.63300
C  42.96100 43.32300 23.11800
C  44.84600 41.34700 20.91500
C  41.49800 43.07800 21.05800
C  40.28300 42.65000 21.98800
N  42.46200 44.01400 25.95700
C  42.36000 44.91100 24.90800
C  42.01200 46.20700 25.45600
C  41.94400 46.03100 26.83900
C  42.24500 44.71700 27.07000
C  41.87100 47.44100 24.72200
C  41.70900 46.74200 27.99700
O  41.43700 47.90500 28.22500
C  41.80100 45.76000 29.19000
C  42.61800 46.26400 30.36600
O  43.86200 46.17200 30.42200
O  41.89100 46.68300 31.36400
C  42.68000 46.91200 32.59600
H  44.42800 39.36100 29.32800
H  43.96500 39.26100 22.84800
H  42.28200 45.31900 22.81600
H  43.37300 43.70200 31.06200
H  42.65100 40.91700 31.00700
H  45.44700 40.97500 30.61100
H  44.40700 40.68300 32.03000
H  44.97600 42.26900 31.74400
H  40.77900 42.17300 30.77100
H  40.62800 43.89600 31.05200
H  42.32200 42.52000 33.13000
H  40.80300 41.81600 32.91100
H  46.13800 36.89100 27.53500
H  44.51000 36.26300 27.87700
H  45.22100 37.45300 28.91300
H  45.25700 34.99700 24.37000
H  44.52700 35.32400 26.01500
H  46.28400 35.75200 25.62500
H  42.70300 40.85000 21.15300
H  43.60700 43.48400 20.96500
H  45.03700 42.16400 20.21800
H  44.92100 40.35600 20.46800
H  45.55500 41.35900 21.74300
H  41.43800 42.51700 20.12500
H  41.22800 44.10100 20.79600
H  40.59800 41.82400 22.62500
H  39.37100 42.38800 21.45100
H  40.10300 43.40000 22.75800
H  41.06300 48.00700 25.18600
H  41.65700 47.29800 23.66300
H  42.69400 48.13300 24.89600
H  40.75300 45.68700 29.48100
H  42.89900 45.93900 33.03400
H  41.98300 47.51400 33.18000
H  43.66400 47.37400 32.67300

