158

Mg 42.25900 41.88400 26.13000
C  41.64600 44.30300 28.37600
C  43.30900 39.85300 28.69800
C  43.05900 39.73800 23.77200
C  41.71700 44.34700 23.49000
N  42.27300 42.00500 28.29700
C  41.93300 43.08900 29.00400
C  41.86900 42.80100 30.52400
C  42.78500 41.54500 30.62200
C  42.77600 41.08400 29.13100
C  44.22800 41.91300 31.05900
C  40.36300 42.68800 31.05000
C  40.15200 43.22300 32.56400
H  40.80400 42.41500 33.67000
N  42.91100 40.03200 26.26000
C  43.40100 39.38300 27.36800
C  43.90100 38.08400 26.98900
C  43.81100 38.01100 25.56700
C  43.23400 39.28500 25.13900
C  44.40800 36.97400 27.97100
C  43.91600 36.85500 24.66600
O  43.53200 36.86700 23.50400
C  44.16000 35.54600 25.27600
N  42.46500 42.08700 23.87900
C  42.66800 41.00200 23.13800
C  42.70400 41.25400 21.72700
C  42.09600 42.66000 21.64100
C  42.05800 43.05300 23.14100
C  44.11900 41.06700 21.08300
C  40.67100 42.73700 21.01900
C  39.56700 41.79300 21.61400
N  41.79600 43.91600 25.92800
C  41.62200 44.73100 24.84300
C  41.33000 46.06200 25.29900
C  41.32200 46.01300 26.68400
C  41.56100 44.63200 26.99500
C  41.08800 47.30900 24.37800
C  41.06800 46.65400 27.94000
O  40.68000 47.77400 28.20100
C  41.26200 45.59000 29.07400
C  42.10400 46.11500 30.17200
O  43.33400 46.13600 30.15600
O  41.34000 46.41900 31.26100
C  41.92600 46.95200 32.52900
H  43.66000 39.07600 29.38000
H  43.32900 39.11800 22.91500
H  41.43100 45.12000 22.77300
H  42.36700 43.61400 31.05400
H  42.38700 40.73900 31.23900
H  44.14900 42.67200 31.83700
H  44.74400 42.22100 30.15000
H  44.61300 41.04100 31.58800
H  40.07800 41.63900 30.96900
H  39.64300 43.20100 30.41200
H  39.08300 43.17600 32.77200
H  40.33900 44.29200 32.65800
H  44.66600 37.37900 28.94900
H  45.28100 36.39000 27.67700
H  43.50100 36.37200 28.02800
H  44.00200 34.76600 24.53100
H  43.47100 35.34600 26.09700
H  45.19100 35.63200 25.61800
H  42.09000 40.52600 21.19600
H  42.77000 43.37600 21.17200
H  44.44800 41.98400 20.59500
H  44.11500 40.27000 20.34000
H  44.75500 40.82900 21.93500
H  40.75100 42.42900 19.97700
H  40.39400 43.79100 21.03700
H  39.06600 41.28700 20.78900
H  38.84200 42.50200 22.01300
H  39.83600 41.06800 22.38200
H  41.84200 47.42300 23.60000
H  41.12800 48.26100 24.90600
H  40.16000 47.22400 23.81300
H  40.23600 45.56700 29.44100
H  41.82200 46.24300 33.35000
H  41.31600 47.82500 32.76200
H  42.93700 47.35900 32.52300
Mg -10.60200 16.00200 42.13500
C  -7.27000 14.92400 41.52200
C  -9.88900 18.77900 40.23400
C  -14.01000 16.53400 41.93600
C  -11.29900 12.83300 43.59500
N  -8.77900 16.64900 40.83100
C  -7.54900 16.13800 40.84700
C  -6.59000 16.98900 40.07100
C  -7.41000 18.28200 39.74900
C  -8.82300 17.87800 40.29300
C  -6.78500 19.56100 40.32000
C  -5.80700 16.36600 38.87700
C  -4.59500 17.19100 38.49200
H  -4.80000 18.00200 37.21800
N  -11.71900 17.53500 41.31200
C  -11.24600 18.69100 40.70600
C  -12.37300 19.59500 40.45500
C  -13.58900 18.94400 40.86700
C  -13.16900 17.62000 41.38300
C  -12.18000 21.04200 39.87400
C  -14.92800 19.55400 40.84000
O  -15.02400 20.69600 40.40800
C  -16.14800 18.68300 41.20500
N  -12.43200 14.79100 42.60000
C  -13.66300 15.33100 42.57000
C  -14.73900 14.46500 43.31200
C  -13.84800 13.25300 43.86700
C  -12.41300 13.67100 43.32800
C  -15.28400 15.29900 44.46700
C  -14.30700 11.85300 43.31400
C  -13.71800 10.61000 43.96300
N  -9.54600 14.26100 42.50000
C  -9.95700 13.08300 43.18100
C  -8.88400 12.10400 43.16000
C  -7.81800 12.78800 42.52200
C  -8.30300 14.09500 42.15800
C  -8.87300 10.70300 43.70700
C  -6.43200 12.69500 42.16000
O  -5.70100 11.71200 42.31300
C  -5.96500 14.07000 41.55300
C  -4.88800 14.72400 42.32900
O  -5.00400 15.08900 43.50600
O  -3.81500 14.87800 41.48100
C  -2.67600 15.66800 41.99000
H  -9.61600 19.70400 39.72200
H  -15.06700 16.76800 42.07500
H  -11.62000 11.95100 44.15300
H  -5.87300 17.39900 40.78200
H  -7.60200 18.43600 38.68700
H  -6.97000 20.24900 39.49500
H  -5.71900 19.55600 40.54500
H  -7.34800 19.99100 41.14800
H  -6.48200 16.16700 38.04500
H  -5.44600 15.34900 39.02900
H  -3.72800 16.53100 38.47000
H  -4.39700 18.00000 39.19500
H  -12.70800 21.70600 40.55800
H  -12.61600 21.23500 38.89300
H  -11.15400 21.37500 39.71800
H  -17.06100 19.25400 41.03700
H  -16.25800 18.35700 42.23900
H  -16.06000 17.81100 40.55700
H  -15.51000 14.05000 42.66300
H  -13.84800 13.21100 44.95600
H  -16.20800 14.80400 44.76400
H  -15.58200 16.31300 44.19900
H  -14.66700 15.38100 45.36100
H  -14.22600 11.78800 42.22900
H  -15.38700 11.76800 43.44000
H  -13.11800 9.99300 43.29500
H  -14.58900 10.03900 44.28500
H  -13.17900 10.91500 44.86000
H  -8.93100 9.94800 42.92300
H  -9.68400 10.41300 44.37500
H  -7.94400 10.54300 44.25600
H  -5.48900 13.79900 40.61000
H  -2.56300 15.78600 43.06800
H  -2.85300 16.61300 41.47700
H  -1.75800 15.29500 41.53500

