158

Mg 8.99600 3.26200 27.07800
C  10.13100 1.76900 30.00800
C  7.13000 5.47700 29.01500
C  7.34400 4.22000 24.27400
C  10.46700 0.69300 25.21200
N  8.52500 3.46800 29.25300
C  9.22500 2.76500 30.25400
C  8.95500 3.39000 31.62600
C  7.87600 4.38000 31.35700
C  7.81400 4.50300 29.78000
C  6.42500 4.14100 31.90100
C  10.22100 4.09500 32.18400
C  10.76100 3.58000 33.50300
H  10.94900 4.46500 34.71600
N  7.49300 4.64500 26.68400
C  6.93000 5.53800 27.59700
C  6.13300 6.54500 26.91000
C  6.34900 6.30600 25.54800
C  7.06000 5.00100 25.43900
C  5.16000 7.51500 27.53900
C  5.95700 7.19600 24.27200
O  6.20600 6.89200 23.11800
C  5.32400 8.55500 24.48000
N  8.80500 2.47200 25.01200
C  8.12600 3.10600 24.06400
C  8.29000 2.46900 22.70800
C  9.46900 1.50000 23.01000
C  9.58700 1.55000 24.46600
C  6.97200 1.66000 22.32000
C  10.78700 1.77500 22.24300
C  11.25600 0.55700 21.36600
N  10.14000 1.63100 27.47700
C  10.73100 0.72700 26.61700
C  11.48500 -0.24100 27.40600
C  11.33200 0.18700 28.76400
C  10.41300 1.27500 28.65200
C  12.39700 -1.39800 26.93700
C  11.75300 -0.04000 30.11800
O  12.70100 -0.74800 30.53900
C  10.93400 1.02800 31.00800
C  10.18100 0.30300 32.04200
O  9.06500 -0.13200 31.96700
O  10.98500 0.22200 33.15800
C  10.36600 -0.57500 34.24200
H  6.54500 6.17000 29.62300
H  6.82800 4.62600 23.40200
H  11.02400 -0.07300 24.66800
H  8.70600 2.51400 32.22500
H  8.05000 5.39500 31.71300
H  6.48000 3.14500 32.33900
H  5.68400 4.12400 31.10200
H  6.26900 4.97600 32.58400
H  10.07100 5.15000 32.41500
H  11.00200 3.93000 31.44200
H  11.79100 3.37900 33.20600
H  10.31200 2.71000 33.98100
H  4.21100 6.97900 27.53600
H  5.09600 8.47800 27.03300
H  5.42300 7.77900 28.56400
H  5.19000 9.13600 23.56700
H  5.96700 9.18600 25.09400
H  4.37000 8.45300 24.99700
H  8.61700 3.26200 22.03500
H  9.03900 0.50800 22.87300
H  6.71000 2.05900 21.34100
H  6.07200 1.84500 22.90700
H  7.11700 0.58000 22.32400
H  11.53500 1.85500 23.03200
H  10.55900 2.69000 21.69600
H  10.45400 -0.13800 21.11500
H  11.95500 0.01000 22.00000
H  11.72200 0.91800 20.44900
H  13.44000 -1.08100 26.89800
H  12.11300 -1.74900 25.94500
H  12.33600 -2.30500 27.53800
H  11.58600 1.73800 31.51600
H  9.66900 0.09700 34.74300
H  11.16200 -0.69000 34.97700
H  9.89700 -1.54500 34.07500
Mg 47.12300 24.80900 29.28700
C  47.94600 27.31800 31.68900
C  45.72100 22.97100 31.79400
C  46.60800 22.51300 27.01800
C  49.01800 26.69600 26.90800
N  46.69400 25.17000 31.46100
C  47.18900 26.29400 32.23100
C  46.62200 26.17100 33.68000
C  45.95500 24.73100 33.67800
C  46.17000 24.21900 32.24000
C  46.53700 23.76300 34.76600
C  45.57000 27.30200 33.99900
C  45.55300 28.10700 35.31200
H  46.21300 27.54200 36.50900
N  46.22500 23.00200 29.38300
C  45.67900 22.40200 30.46400
C  45.01600 21.25700 29.97300
C  45.18600 21.11900 28.60400
C  46.10200 22.20800 28.30100
C  44.36000 20.36900 30.99000
C  44.62500 20.06500 27.64900
O  44.90100 20.10500 26.48400
C  43.73700 18.94300 28.08300
N  47.75500 24.66500 27.27400
C  47.49800 23.51400 26.61000
C  48.06500 23.53100 25.16000
C  48.78300 24.87800 25.04800
C  48.57500 25.41800 26.47600
C  49.04400 22.29800 24.88600
C  48.27300 25.73200 23.90100
C  49.31800 26.50800 23.21500
N  48.17500 26.59600 29.18700
C  48.89200 27.23500 28.19900
C  49.36800 28.53900 28.66100
C  49.11300 28.55800 30.03300
C  48.39200 27.39100 30.32700
C  50.17300 29.56600 27.90900
C  49.25800 29.39100 31.18100
O  49.81600 30.44300 31.40800
C  48.45900 28.65600 32.33800
C  49.61400 28.44600 33.35400
O  50.40700 27.54600 33.31100
O  49.50600 29.46200 34.31500
C  50.48100 29.41500 35.38600
H  45.24700 22.33500 32.54400
H  46.20200 21.92300 26.19400
H  49.48100 27.33500 26.15300
H  47.47500 26.17200 34.35900
H  44.88000 24.68400 33.85000
H  45.65700 23.38300 35.28500
H  47.25600 24.36900 35.31700
H  47.11400 22.98900 34.26100
H  44.57400 26.86500 33.92400
H  45.62200 28.03800 33.19700
H  44.52500 28.36100 35.57000
H  46.03700 29.02500 34.97800
H  43.46300 19.86900 30.62400
H  44.10500 20.80100 31.95800
H  45.13700 19.65300 31.25800
H  44.09800 18.19100 28.78400
H  43.27700 18.55700 27.17300
H  42.88500 19.45800 28.52600
H  47.17000 23.51700 24.53800
H  49.82500 24.59700 24.89100
H  49.38400 21.89100 25.83900
H  49.85900 22.63100 24.24300
H  48.49400 21.62300 24.23100
H  47.55100 26.40900 24.35700
H  47.73900 25.08000 23.21000
H  50.36400 26.45600 23.51500
H  49.00400 27.53100 23.42500
H  49.25600 26.33000 22.14100
H  50.01300 29.43200 26.83900
H  51.22500 29.44100 28.16700
H  50.00300 30.62100 28.12500
H  47.62400 29.24800 32.71300
H  50.59000 30.39400 35.85300
H  51.44800 29.04900 35.04100
H  50.00700 28.69600 36.05400

