158

Mg 41.13500 8.69000 29.86700
C  43.00600 9.73600 32.45200
C  39.06000 7.15300 31.96100
C  39.43800 7.50500 27.09200
C  43.77300 9.75000 27.67100
N  40.95800 8.62000 32.00600
C  41.92000 9.01800 32.87700
C  41.41700 8.80800 34.30500
C  40.21500 7.81800 34.10300
C  40.02700 7.86000 32.61200
C  40.48000 6.35400 34.64000
C  40.94300 10.19100 34.85500
C  40.58200 10.04100 36.33200
H  41.31500 11.03300 37.36700
N  39.33300 7.67100 29.62500
C  38.61900 6.98900 30.60900
C  37.43000 6.34000 29.99500
C  37.40900 6.70100 28.61200
C  38.80500 7.33700 28.38400
C  36.37200 5.54300 30.86300
C  36.23500 6.63300 27.51700
O  36.43300 7.00300 26.35600
C  34.87400 6.09800 27.92800
N  41.65200 8.54800 27.63100
C  40.70100 8.06100 26.73700
C  41.18600 8.26600 25.32500
C  42.52300 9.14700 25.48700
C  42.64700 9.18900 27.05100
C  41.50500 6.94700 24.50200
C  42.43000 10.62800 24.89800
C  41.64700 11.61700 25.79400
N  43.01600 9.59000 29.94800
C  43.96400 10.01400 29.02700
C  44.95800 10.77900 29.67700
C  44.64900 10.66500 31.00300
C  43.50600 9.92300 31.16000
C  46.05900 11.50000 28.96100
C  45.08600 11.06000 32.24100
O  45.96600 11.86300 32.48300
C  44.06800 10.46100 33.36300
C  44.71000 9.47400 34.28400
O  45.23600 8.42100 33.95900
O  44.60200 9.95500 35.60100
C  45.20400 9.24900 36.68200
H  38.38400 6.62000 32.63300
H  38.84700 7.17900 26.23300
H  44.38700 10.32500 26.97500
H  42.21900 8.43800 34.94300
H  39.33700 8.32000 34.51000
H  39.68700 6.16400 35.36400
H  41.48500 6.29800 35.05800
H  40.49600 5.63800 33.81800
H  40.04200 10.50900 34.33000
H  41.69600 10.97500 34.77700
H  40.80700 9.07000 36.77300
H  39.51000 10.09400 36.52300
H  36.47800 5.50800 31.94700
H  36.42100 4.50300 30.54100
H  35.39200 5.96900 30.64800
H  34.19600 6.00100 27.08000
H  34.51900 6.75500 28.72200
H  35.01800 5.15500 28.45500
H  40.44900 8.91100 24.84600
H  43.37200 8.60900 25.06400
H  41.42400 6.09100 25.17300
H  42.53400 7.00100 24.14700
H  40.67500 6.85900 23.80200
H  41.87200 10.68000 23.96300
H  43.45100 10.99400 24.78800
H  41.18800 11.22200 26.70000
H  40.83200 12.02900 25.19900
H  42.28100 12.48200 25.98700
H  45.71500 12.21100 28.20900
H  46.76200 10.77500 28.55100
H  46.44200 12.16400 29.73600
H  43.77600 11.37600 33.87800
H  44.63900 9.34000 37.60900
H  46.22400 9.60900 36.82300
H  45.22400 8.18400 36.45300
Mg 47.83500 16.73400 29.37700
C  45.73800 16.14900 32.16400
C  49.96500 18.32100 31.30900
C  49.42200 17.65300 26.48200
C  45.47000 15.10600 27.34100
N  47.73200 17.23500 31.53000
C  46.89700 16.79400 32.51200
C  47.51600 17.07000 33.89700
C  48.77300 17.92600 33.58200
C  48.87400 17.79900 32.03700
C  48.60000 19.37900 34.06300
C  47.86500 15.78300 34.72300
C  47.57900 15.87600 36.19900
H  47.58100 17.30700 36.79900
N  49.40700 17.82200 28.98200
C  50.22700 18.26200 29.94000
C  51.46100 18.70000 29.24500
C  51.37300 18.57200 27.83700
C  50.02900 17.96500 27.70800
C  52.59900 19.30300 30.06600
C  52.25100 19.04600 26.66500
O  51.90100 19.08600 25.47500
C  53.59100 19.71800 26.99600
N  47.46200 16.50500 27.19600
C  48.25900 16.95700 26.18600
C  47.80100 16.57700 24.81900
C  46.66200 15.57500 25.09400
C  46.50600 15.67800 26.65800
C  47.44700 17.78300 23.91000
C  46.83600 14.10700 24.67700
C  45.63100 13.45300 24.01800
N  45.94400 15.92700 29.62000
C  45.11200 15.21300 28.73900
C  43.98100 14.59200 29.42700
C  44.23100 14.95900 30.74500
C  45.36200 15.77300 30.80900
C  43.01100 13.57200 28.91200
C  43.62900 14.79900 32.10200
O  42.68300 14.28300 32.51900
C  44.69000 15.53200 33.03500
C  44.06200 16.57900 33.83700
O  43.53400 17.63400 33.39500
O  44.14200 16.22700 35.13300
C  43.53800 17.09200 36.10200
H  50.65300 18.90300 31.92600
H  49.97700 17.82900 25.55800
H  44.76000 14.51400 26.75900
H  46.76900 17.66600 34.42100
H  49.72700 17.48200 33.86700
H  47.64200 19.81700 34.34300
H  48.95700 19.98300 33.22800
H  49.38500 19.52000 34.80600
H  48.93000 15.55600 34.67600
H  47.34400 14.96000 34.23400
H  48.25600 15.21900 36.74500
H  46.67800 15.29800 36.40500
H  52.68300 20.35700 29.80100
H  53.52000 18.78000 29.80800
H  52.40000 19.31600 31.13800
H  53.24700 20.53300 27.63200
H  54.08400 20.20800 26.15600
H  54.16800 18.95500 27.51900
H  48.65900 16.02100 24.44100
H  45.67900 15.94800 24.80800
H  47.94500 17.78000 22.94000
H  47.81900 18.67200 24.41900
H  46.37900 17.91400 23.73700
H  47.05100 13.58000 25.60700
H  47.77200 14.02400 24.12400
H  45.32700 12.52800 24.50800
H  45.96300 13.22400 23.00500
H  44.74000 14.07200 23.91300
H  42.06800 14.05600 28.65900
H  42.88200 12.97600 29.81500
H  43.42300 12.88100 28.17600
H  45.13700 14.80100 33.70900
H  42.46200 17.14600 35.93400
H  44.03900 18.05200 36.22100
H  43.59200 16.59600 37.07100

