158

Mg 53.38600 23.38000 44.91500
C  50.70800 25.65200 43.74500
C  51.35900 20.83800 43.77400
C  56.06900 21.53300 44.81500
C  55.18500 26.28700 45.57200
N  51.22000 23.36600 43.84900
C  50.34100 24.32900 43.46900
C  49.13300 23.69900 42.84000
C  49.18800 22.23200 43.38900
C  50.68600 22.10400 43.68500
C  48.24400 22.05500 44.57500
C  49.17900 23.93900 41.32400
C  47.88200 24.46900 40.55200
H  47.56700 23.65800 39.22000
N  53.63000 21.38300 44.48500
C  52.74000 20.54900 43.92600
C  53.37800 19.25000 43.77900
C  54.70200 19.41600 44.11000
C  54.83700 20.82900 44.46300
C  52.66200 17.95900 43.49600
C  55.70900 18.31400 44.08100
O  55.40100 17.35200 43.42700
C  57.12000 18.49800 44.74400
N  55.38400 23.86500 44.95800
C  56.25600 22.84800 45.16600
C  57.60500 23.44100 45.69500
C  57.27400 24.94900 45.97300
C  55.85200 25.05900 45.54300
C  58.33000 22.62200 46.79500
C  58.17500 26.02700 45.22300
C  58.53600 27.36400 45.90500
N  52.98500 25.52600 44.86600
C  53.83000 26.53300 45.29300
C  53.12100 27.79600 45.31000
C  51.89100 27.49400 44.73700
C  51.86700 26.09300 44.44600
C  53.78300 29.16600 45.51700
C  50.58200 28.04800 44.40000
O  50.14300 29.21100 44.51300
C  49.80700 26.94200 43.62400
C  49.51700 27.38500 42.23700
O  50.29800 27.48500 41.31000
O  48.09800 27.56000 42.07700
C  47.58200 28.18100 40.87200
H  50.60000 20.08400 43.55600
H  57.03200 21.01900 44.81400
H  55.76100 27.17600 45.84100
H  48.33300 24.28500 43.29100
H  48.97800 21.51200 42.59800
H  48.07000 22.98400 45.11800
H  48.75200 21.47600 45.34700
H  47.30100 21.55100 44.36500
H  49.38600 22.94900 40.91800
H  50.04100 24.53400 41.02300
H  47.98500 25.49500 40.20100
H  47.00100 24.36000 41.18500
H  51.59400 18.01200 43.70900
H  53.04100 17.07000 43.99900
H  52.74500 17.83300 42.41600
H  56.84900 19.00900 45.66800
H  57.78400 18.99100 44.03400
H  57.49700 17.47800 44.81600
H  58.40100 23.29600 44.96500
H  57.28200 25.16900 47.04000
H  58.72000 23.30100 47.55300
H  59.10500 21.95200 46.42400
H  57.70800 21.87500 47.28800
H  57.63600 26.38300 44.34500
H  59.10400 25.47900 45.06600
H  59.60200 27.33200 46.13100
H  58.04600 27.52400 46.86500
H  58.42300 28.21800 45.23700
H  53.40400 29.55900 46.46100
H  53.48500 29.86600 44.73600
H  54.85800 28.98400 45.51200
H  48.81600 26.81500 44.06100
H  47.70800 29.26200 40.92200
H  46.53600 27.89000 40.96500
H  48.00500 27.76400 39.95800
Mg 48.21900 44.34500 43.03000
C  44.76200 44.04600 42.92800
C  48.45300 40.85700 42.75200
C  51.68800 44.58200 42.59000
C  47.97200 47.77000 42.60900
N  46.75200 42.63300 42.70800
C  45.34100 42.71500 42.86400
C  44.73400 41.33600 42.89100
C  45.98600 40.46000 42.59500
C  47.12300 41.34000 42.72000
C  46.19400 39.26600 43.62400
C  43.56900 41.12500 41.84900
C  43.69400 41.81100 40.50600
H  43.73300 40.94300 39.24700
N  49.83300 42.91900 42.78800
C  49.64200 41.56600 42.61200
C  50.89800 40.94700 42.42700
C  51.91100 41.88600 42.38400
C  51.14500 43.20800 42.64100
C  51.01000 39.47600 42.51000
C  53.40900 41.77700 42.20800
O  53.89400 40.63800 42.16600
C  54.35300 42.92200 41.92100
N  49.63900 45.87400 42.71600
C  50.97200 45.73500 42.61200
C  51.69500 47.11600 42.59800
C  50.49700 48.11300 42.74000
C  49.29400 47.22900 42.64200
C  52.76900 47.24700 43.66400
C  50.57000 49.39200 41.83200
C  50.41300 50.77900 42.60300
N  46.65200 45.68600 42.81900
C  46.73100 47.02000 42.72700
C  45.35300 47.47700 42.68600
C  44.54000 46.40400 42.86300
C  45.36300 45.29200 42.83800
C  44.98400 48.90300 42.43800
C  43.18000 45.94200 42.97300
O  42.10300 46.50600 42.94200
C  43.32000 44.34900 43.01200
C  42.72600 43.92400 44.37300
O  41.74700 43.22500 44.54800
O  43.36700 44.60000 45.38700
C  42.83700 44.45000 46.78300
H  48.61000 39.78000 42.66200
H  52.78000 44.57700 42.61500
H  47.78100 48.81500 42.35700
H  44.40700 41.28100 43.92900
H  45.90600 40.07000 41.58000
H  45.25200 38.81700 43.93900
H  46.85900 39.64400 44.40100
H  46.71500 38.54300 42.99600
H  42.66300 41.48800 42.33400
H  43.40800 40.06400 41.65700
H  44.59100 42.43000 40.49900
H  42.76200 42.37000 40.42700
H  50.76200 39.28000 43.55300
H  51.99400 39.04500 42.32400
H  50.41700 38.81700 41.87500
H  54.11600 43.50100 41.02900
H  55.27400 42.38400 41.69500
H  54.59100 43.55400 42.77700
H  52.26400 47.34700 41.69700
H  50.30900 48.54000 43.72500
H  52.36500 47.72800 44.55500
H  53.48100 47.94200 43.21800
H  53.37800 46.38700 43.94100
H  49.76800 49.35300 41.09500
H  51.51600 49.53700 41.31000
H  49.86300 50.68000 43.53900
H  49.95100 51.56200 42.00200
H  51.41800 51.13500 42.82900
H  45.60900 49.32900 41.65300
H  45.12300 49.43900 43.37700
H  43.90400 48.91900 42.29400
H  42.65400 43.84100 42.31600
H  42.23200 43.55500 46.92700
H  42.20000 45.26100 47.13600
H  43.55600 44.43200 47.60200

