158

Mg 41.15500 9.68100 30.13500
C  43.13000 11.05100 32.95400
C  38.87400 8.72300 32.55600
C  39.38400 8.29300 27.74200
C  43.53600 10.60100 28.10200
N  41.04400 9.85700 32.50800
C  41.94800 10.53500 33.42200
C  41.43800 10.44700 34.83700
C  40.10200 9.53700 34.71900
C  39.96400 9.34500 33.16700
C  40.16600 8.15700 35.46300
C  41.21700 11.78200 35.54600
C  40.26300 11.77200 36.74600
H  40.71200 11.86300 38.16700
N  39.34900 8.66400 30.18300
C  38.49500 8.40400 31.23500
C  37.31900 7.82100 30.67900
C  37.47800 7.68800 29.28800
C  38.75600 8.20900 28.99500
C  36.17900 7.27600 31.56400
C  36.42400 7.20100 28.22600
O  36.65600 7.00400 27.04400
C  34.97100 6.88200 28.63600
N  41.46100 9.37600 28.23700
C  40.58900 8.81300 27.39200
C  40.99000 8.92000 25.89500
C  42.26000 9.83200 26.05200
C  42.45500 9.96500 27.58600
C  41.27500 7.55300 25.24600
C  42.03900 11.24000 25.33000
C  42.25800 11.38700 23.85700
N  43.02900 10.49900 30.36800
C  43.89400 10.86300 29.43900
C  45.13000 11.44700 29.94200
C  44.82700 11.61300 31.28400
C  43.60100 10.90400 31.55100
C  46.26200 12.01600 29.10700
C  45.23400 12.25900 32.52900
O  46.12000 13.01500 32.76400
C  44.16900 11.91000 33.63500
C  44.80600 11.25400 34.79100
O  45.30900 10.13400 34.75500
O  44.71000 11.98600 35.95900
C  45.05100 11.21800 37.22200
H  38.12200 8.54000 33.32700
H  38.77500 7.95700 26.90000
H  44.25100 10.94100 27.35000
H  42.16200 9.90400 35.44600
H  39.16900 10.02400 35.00500
H  40.16000 7.34900 34.73100
H  39.26200 8.08600 36.06700
H  41.05600 8.26600 36.08300
H  40.94300 12.62700 34.91300
H  42.17900 12.10500 35.94300
H  39.91800 10.74000 36.81500
H  39.45400 12.48400 36.58200
H  36.00500 6.22500 31.33500
H  35.21000 7.71700 31.32900
H  36.35200 7.56100 32.60100
H  34.29200 6.61400 27.82700
H  34.68300 7.85800 29.02600
H  35.03600 6.13700 29.43000
H  40.29100 9.41300 25.22000
H  43.10400 9.47700 25.46100
H  41.42000 6.81200 26.03200
H  42.24200 7.68200 24.75900
H  40.59800 7.32700 24.42300
H  42.64000 12.03800 25.76500
H  40.98400 11.43600 25.52300
H  41.44200 11.92900 23.37900
H  42.43400 10.39500 23.44200
H  43.14000 12.01900 23.74900
H  46.56400 12.99300 29.48400
H  46.04000 12.15400 28.04900
H  47.07400 11.29000 29.15800
H  43.70500 12.82000 34.01400
H  45.61300 11.92100 37.83600
H  45.66400 10.32800 37.08200
H  44.16200 10.91900 37.77800
Mg 1.15800 43.39800 26.97000
C  3.74600 43.09200 29.25400
C  -1.21700 43.00200 29.35200
C  -1.13000 42.94100 24.49100
C  3.70300 43.45500 24.35800
N  1.25700 42.89300 29.07700
C  2.37400 43.06100 29.76800
C  2.02400 43.11900 31.25500
C  0.49700 42.86200 31.32400
C  0.13100 42.98800 29.83500
C  0.06800 41.52400 31.83100
C  2.41400 44.50500 31.91100
C  2.02300 44.59000 33.38300
H  1.66300 43.27400 34.14300
N  -0.90900 42.95800 26.90500
C  -1.70400 42.97100 28.00600
C  -3.08300 42.70900 27.55300
C  -3.11800 42.61700 26.13900
C  -1.67200 42.82900 25.78500
C  -4.24200 42.55300 28.53500
C  -4.27500 42.35000 25.20000
O  -4.12100 42.24700 24.00800
C  -5.65800 42.09000 25.71600
N  1.29400 43.25700 24.75000
C  0.18000 43.08600 23.97000
C  0.47300 43.17300 22.50000
C  2.01300 43.44800 22.44400
C  2.40600 43.42300 23.90900
C  -0.04000 42.06400 21.59400
C  2.51200 44.80800 21.81600
C  1.96800 46.11100 22.47100
N  3.27800 43.31500 26.84200
C  4.16300 43.34700 25.68000
C  5.53000 43.28200 26.21600
C  5.40900 43.20800 27.61900
C  4.06500 43.22700 27.92900
C  6.75900 43.45100 25.45400
C  6.16500 43.14600 28.80100
O  7.37400 43.14500 28.90100
C  5.04800 43.16000 29.94900
C  5.32900 42.01600 30.95500
O  4.99600 40.86500 30.68700
O  5.60700 42.49900 32.27600
C  5.51500 41.50100 33.27700
H  -1.99700 43.11700 30.10700
H  -1.89900 42.87000 23.71900
H  4.40800 43.51100 23.52600
H  2.54000 42.22500 31.60300
H  -0.00100 43.68000 31.84500
H  -0.53400 40.98300 31.10200
H  -0.65500 41.48300 32.64600
H  0.95300 40.92000 32.02800
H  1.67200 45.10400 31.38300
H  3.41700 44.89000 31.72700
H  1.20400 45.30700 33.43500
H  2.96700 44.75900 33.90100
H  -3.85300 42.45600 29.54800
H  -4.51400 41.51400 28.34900
H  -5.12800 43.16000 28.35000
H  -5.97700 42.94500 26.31400
H  -5.67600 41.15800 26.28000
H  -6.27100 41.88500 24.83800
H  -0.08400 44.02200 22.10400
H  2.59300 42.61800 22.04000
H  -0.58100 41.33400 22.19600
H  0.75600 41.70000 20.94400
H  -0.74600 42.50900 20.89300
H  2.23100 44.76800 20.76400
H  3.59500 44.79500 21.69500
H  1.36700 46.59800 21.70400
H  2.81500 46.75200 22.71900
H  1.37100 45.89500 23.35800
H  6.68800 44.34000 24.82700
H  7.13700 42.63700 24.83500
H  7.49900 43.69300 26.21700
H  5.26100 44.11500 30.43000
H  4.50100 41.10300 33.23800
H  5.75900 41.94000 34.24500
H  6.11600 40.60300 33.13300

