158

Mg 25.37200 -5.76900 46.48700
C  27.13200 -2.88800 45.59500
C  22.79200 -4.84600 44.47200
C  23.98300 -8.82900 46.76600
C  28.23500 -6.84200 48.04000
N  24.97600 -4.04200 45.27600
C  25.93100 -3.04200 44.96600
C  25.44400 -2.12000 43.80200
C  23.87100 -2.57700 43.68800
C  23.82300 -3.88100 44.53600
C  22.98000 -1.51000 44.31600
C  26.22700 -2.19700 42.43500
C  26.40700 -1.01000 41.52200
H  25.55200 -1.04000 40.22600
N  23.57400 -6.69100 45.79800
C  22.57200 -6.10600 45.04800
C  21.50300 -7.03100 44.87400
C  21.79800 -8.18300 45.63800
C  23.12300 -7.89300 46.18300
C  20.21400 -6.79000 43.99300
C  20.90500 -9.31600 45.76400
O  19.87800 -9.35000 45.14400
C  21.27800 -10.46200 46.66800
N  26.06400 -7.60800 47.17100
C  25.26500 -8.74700 47.23400
C  25.90000 -9.87400 48.02900
C  27.34300 -9.23800 48.36500
C  27.24300 -7.83900 47.85300
C  25.09300 -10.50400 49.28200
C  28.53600 -10.05200 47.80500
C  29.52500 -10.77400 48.71600
N  27.25700 -5.02400 46.88500
C  28.33900 -5.55100 47.52700
C  29.47000 -4.67400 47.54900
C  28.98500 -3.60300 46.76800
C  27.61700 -3.84000 46.45300
C  30.82900 -4.87100 48.17100
C  29.41500 -2.28700 46.20500
O  30.39900 -1.63700 46.34200
C  28.24000 -1.88000 45.28900
C  27.86000 -0.53500 45.63800
O  28.23400 0.43000 45.00900
O  27.11400 -0.58300 46.80200
C  26.55100 0.65500 47.26800
H  21.91400 -4.64000 43.85600
H  23.69200 -9.88000 46.82400
H  29.13600 -7.12300 48.59000
H  25.56100 -1.09500 44.15300
H  23.48800 -2.70800 42.67600
H  23.46900 -0.54000 44.22200
H  22.81500 -1.60700 45.38900
H  22.09200 -1.40500 43.69400
H  25.77500 -3.03700 41.90700
H  27.19200 -2.62400 42.70800
H  27.45400 -1.02200 41.22000
H  26.22300 -0.14600 42.16000
H  19.99800 -7.53000 43.22200
H  20.35500 -5.89600 43.38600
H  19.40200 -6.66200 44.71000
H  21.49700 -10.04200 47.65000
H  22.03600 -11.15900 46.31000
H  20.46800 -11.16500 46.86000
H  25.92100 -10.66800 47.28300
H  27.53200 -9.22900 49.43900
H  25.43100 -9.98500 50.17900
H  25.31200 -11.57200 49.31700
H  24.05200 -10.20300 49.16500
H  29.26100 -9.43100 47.27900
H  28.16200 -10.79400 47.10000
H  29.08200 -10.94300 49.69800
H  30.30700 -10.05000 48.94000
H  29.93200 -11.64100 48.19500
H  31.42700 -3.96300 48.10300
H  31.32300 -5.74500 47.74800
H  30.77700 -5.13800 49.22700
H  28.50300 -1.85400 44.23200
H  25.48800 0.48000 47.43700
H  26.58400 1.43300 46.50400
H  27.06100 1.04700 48.14800
Mg -5.85600 25.06100 27.04100
C  -4.04600 26.71800 29.54600
C  -6.65700 22.61600 29.40700
C  -7.36900 23.49400 24.63600
C  -4.36300 27.30500 24.62200
N  -5.26600 24.67200 29.22300
C  -4.60700 25.55100 30.07400
C  -4.65100 25.05500 31.52400
C  -5.33400 23.62500 31.41200
C  -5.74700 23.58100 29.89600
C  -4.34100 22.39900 31.82400
C  -5.41900 26.07000 32.48000
C  -5.03100 26.02900 33.94100
H  -6.25100 26.28800 34.85400
N  -6.83500 23.29400 27.04800
C  -7.13100 22.46000 28.05500
C  -8.15900 21.52000 27.60500
C  -8.31700 21.71900 26.20200
C  -7.47500 22.87800 25.91400
C  -8.68700 20.52600 28.55700
C  -9.00600 20.78600 25.17600
O  -8.92500 20.93100 23.94700
C  -9.65900 19.51400 25.60700
N  -5.71300 25.27800 24.79700
C  -6.61900 24.59900 24.13500
C  -6.57000 24.92900 22.56100
C  -5.72900 26.28000 22.57300
C  -5.22700 26.30700 24.04100
C  -6.03900 23.76900 21.73600
C  -6.62400 27.41000 22.16700
C  -5.89400 28.49200 21.26800
N  -4.57700 26.67400 27.00500
C  -4.10800 27.48700 25.96700
C  -3.25300 28.53800 26.48700
C  -3.29700 28.37900 27.92300
C  -4.02200 27.12500 28.17200
C  -2.45100 29.57600 25.65800
C  -2.76900 28.82900 29.20500
O  -2.05400 29.73900 29.53300
C  -3.38500 27.85300 30.31700
C  -2.31900 27.38900 31.21400
O  -1.47100 26.53100 30.89300
O  -2.39600 28.08300 32.41800
C  -1.28000 27.76700 33.31200
H  -7.05500 21.98200 30.20300
H  -7.99400 23.00800 23.88400
H  -3.93900 28.01500 23.90900
H  -3.63900 24.98300 31.92100
H  -6.19800 23.55200 32.07400
H  -4.37100 22.19300 32.89400
H  -3.30600 22.60500 31.55400
H  -4.62100 21.43200 31.40500
H  -6.49700 26.02300 32.32700
H  -5.24000 27.07900 32.10800
H  -4.36700 26.87200 34.12600
H  -4.47000 25.13300 34.20700
H  -9.65200 20.14200 28.22600
H  -8.57400 20.84600 29.59300
H  -7.95700 19.71800 28.52100
H  -8.94400 19.05500 26.29000
H  -9.76500 18.92700 24.69500
H  -10.68000 19.69100 25.94700
H  -7.63600 25.06900 22.38500
H  -4.85500 26.03800 21.96900
H  -5.03900 23.51600 22.08900
H  -5.89300 23.97700 20.67600
H  -6.66400 22.92600 22.03200
H  -6.83800 27.96100 23.08300
H  -7.51400 27.08700 21.62700
H  -5.71100 29.43200 21.78700
H  -6.51600 28.63500 20.38400
H  -4.91000 28.14200 20.95500
H  -1.99000 30.29200 26.33800
H  -3.12300 30.13000 25.00200
H  -1.70000 29.06700 25.05300
H  -4.02500 28.42100 30.99200
H  -1.56200 28.32000 34.20800
H  -0.31900 28.14100 32.95800
H  -1.31600 26.69000 33.47300

