158

Mg 47.72200 16.63700 29.31900
C  45.87200 16.36300 32.28200
C  49.96300 18.51900 31.02600
C  49.34000 17.28500 26.43000
C  45.04100 15.32900 27.49400
N  47.81700 17.50000 31.37900
C  47.00300 17.13100 32.38100
C  47.58700 17.66400 33.73700
C  48.77700 18.59300 33.29600
C  48.86100 18.26600 31.81300
C  48.60700 20.09100 33.49300
C  48.05700 16.42100 34.65800
C  47.87800 16.73200 36.14300
H  47.53800 18.17300 36.57300
N  49.49500 17.58700 28.85400
C  50.28600 18.27400 29.70800
C  51.57100 18.64700 29.05900
C  51.44900 18.21300 27.67100
C  50.04500 17.67300 27.56700
C  52.79600 19.26900 29.77500
C  52.42200 18.28200 26.51600
O  52.04100 18.08400 25.36500
C  53.87400 18.59700 26.76600
N  47.23400 16.28000 27.23500
C  48.07900 16.67100 26.19900
C  47.37100 16.51500 24.84800
C  46.05800 15.69700 25.25100
C  46.09000 15.82200 26.73900
C  46.94700 17.84100 24.10000
C  45.98700 14.25600 24.64800
C  45.27400 14.00100 23.29300
N  45.81000 16.02700 29.69000
C  44.81500 15.47800 28.88000
C  43.74500 14.94300 29.67900
C  44.13500 15.21000 31.10500
C  45.39200 15.95300 30.98300
C  42.56800 14.14900 29.14900
C  43.73500 15.12000 32.48200
O  42.73100 14.73000 33.01600
C  44.80300 15.86100 33.30100
C  44.12900 16.91000 34.10000
O  43.72400 18.03300 33.70200
O  44.05900 16.50400 35.39900
C  43.01500 17.27000 36.10800
H  50.74300 19.09500 31.52700
H  49.81500 17.48900 25.46800
H  44.24100 15.05000 26.80500
H  46.69600 18.15700 34.12800
H  49.68200 18.28000 33.81700
H  47.90600 20.14700 34.32600
H  48.18100 20.58600 32.62000
H  49.53500 20.62200 33.70200
H  49.11000 16.23900 34.44300
H  47.43900 15.57200 34.36500
H  48.85600 16.48700 36.55700
H  47.18900 15.96200 36.49300
H  52.51000 19.59700 30.77400
H  53.25200 20.02300 29.13300
H  53.48800 18.44200 29.93300
H  54.09500 18.09400 27.70700
H  54.06400 19.65800 26.92800
H  54.41900 18.20200 25.90800
H  47.98300 16.01400 24.09800
H  45.17900 16.24000 24.90400
H  47.13500 18.66600 24.78700
H  45.94500 17.84100 23.67000
H  47.58700 17.95900 23.22600
H  45.34400 13.76400 25.37900
H  47.01100 13.88700 24.60800
H  45.94800 13.40700 22.67600
H  45.09500 14.93300 22.75600
H  44.25600 13.63600 23.43000
H  42.77100 13.62600 28.21500
H  41.86900 14.97800 29.04200
H  42.14100 13.42500 29.84400
H  45.21400 15.15800 34.02600
H  43.33000 18.23000 36.51500
H  42.80700 16.70900 37.01900
H  42.09600 17.18100 35.52900
Mg 27.50000 50.82200 25.34500
C  25.58700 51.76400 28.14200
C  29.88400 49.80800 27.62000
C  29.51300 50.14300 22.75000
C  25.25000 52.53500 23.34400
N  27.70300 50.73800 27.61600
C  26.74800 51.13200 28.53500
C  27.04000 50.66900 29.94400
C  28.57800 50.21800 29.79000
C  28.78300 50.25800 28.29400
C  29.66300 50.93500 30.59400
C  25.99700 49.52600 30.46700
C  25.32800 49.67900 31.84600
H  25.94500 50.44900 33.02700
N  29.47000 50.09000 25.23500
C  30.21800 49.69900 26.28500
C  31.40500 49.10400 25.70400
C  31.41900 49.27900 24.28900
C  30.13500 49.90200 24.03300
C  32.42900 48.42800 26.52400
C  32.46200 48.92300 23.18200
O  32.38300 49.33700 22.05000
C  33.59500 48.05900 23.55100
N  27.42500 51.31100 23.43900
C  28.29000 50.77200 22.50000
C  27.68400 50.69800 21.08500
C  26.67300 51.85700 21.25900
C  26.39800 51.89600 22.81000
C  28.62400 51.07800 19.86600
C  25.40800 51.63800 20.38700
C  24.92500 52.79600 19.45100
N  25.84500 52.06200 25.68800
C  24.97300 52.64500 24.78600
C  23.85100 53.26300 25.44700
C  24.05200 52.95200 26.80100
C  25.25800 52.20000 26.87300
C  22.66400 54.03900 24.70400
C  23.40800 53.01000 28.14500
O  22.32000 53.45000 28.49000
C  24.51800 52.29200 29.04300
C  24.92200 53.41600 29.96800
O  25.91100 54.12400 29.82000
O  24.08500 53.50600 31.07700
C  24.54200 54.46500 32.13400
H  30.55100 49.39300 28.37900
H  29.98600 49.62100 21.91500
H  24.49000 52.89700 22.64900
H  27.01000 51.53500 30.60600
H  28.68400 49.15400 30.00000
H  30.48900 51.38300 30.04200
H  30.15100 50.45800 31.44300
H  29.08000 51.75700 31.00900
H  26.58200 48.60700 30.51000
H  25.26200 49.39700 29.67300
H  25.13000 48.68500 32.24600
H  24.36500 50.15500 31.66000
H  32.14000 47.38400 26.64800
H  32.45200 48.85400 27.52600
H  33.43100 48.45300 26.09600
H  33.85000 47.47400 22.66700
H  33.16600 47.23400 24.12000
H  34.40600 48.61800 24.01800
H  27.22200 49.71600 20.98200
H  27.19600 52.78900 21.04800
H  28.39600 50.34500 19.09200
H  29.67700 51.15900 20.13700
H  28.35800 52.04100 19.43000
H  24.64100 51.33800 21.10100
H  25.55700 50.80000 19.70500
H  25.04100 52.31700 18.47900
H  25.54300 53.69400 19.43700
H  23.84800 52.91600 19.57000
H  23.20800 54.75900 24.09300
H  21.96900 54.54900 25.37100
H  21.95600 53.49300 24.08100
H  24.11900 51.47900 29.65000
H  24.56100 55.48100 31.73900
H  25.52800 54.35500 32.58500
H  23.80000 54.42500 32.93100

