158

Mg 41.54200 40.65600 27.68500
C  40.87200 43.28800 29.84200
C  42.72200 38.71700 30.36300
C  42.31300 38.20200 25.50400
C  40.74000 42.70800 24.98900
N  41.78900 41.02500 29.80900
C  41.36600 42.16700 30.51600
C  41.40700 41.90500 32.01900
C  42.34000 40.61400 32.15800
C  42.29000 40.02700 30.66400
C  43.75900 40.82200 32.54900
C  39.93400 41.84100 32.57100
C  39.39600 42.88600 33.64800
H  38.97900 42.29200 35.00800
N  42.30900 38.74200 27.86500
C  42.73600 38.14600 29.07300
C  43.32200 36.83400 28.70900
C  43.06300 36.58000 27.31300
C  42.59900 37.89400 26.80400
C  43.90300 35.94900 29.75100
C  43.35700 35.35000 26.57800
O  42.99100 35.07600 25.40000
C  43.98000 34.15300 27.24400
N  41.48400 40.51300 25.55300
C  41.81700 39.33100 24.88700
C  41.60100 39.45400 23.31200
C  41.02600 40.82100 23.22100
C  41.05000 41.38400 24.65000
C  42.92100 39.23500 22.54000
C  39.62000 40.89100 22.55000
C  38.48000 40.33500 23.42500
N  41.00300 42.58400 27.39200
C  40.77200 43.33500 26.25500
C  40.40300 44.74000 26.58100
C  40.41900 44.72800 28.01700
C  40.79500 43.37000 28.44100
C  40.09200 45.77900 25.55000
C  40.23000 45.54400 29.17300
O  39.89300 46.72800 29.30500
C  40.47700 44.58700 30.42900
C  41.51800 45.21600 31.22000
O  42.70000 45.17000 30.93500
O  40.98400 45.69700 32.38600
C  41.99800 46.18700 33.34900
H  43.17500 38.15600 31.18300
H  42.52000 37.36300 24.83600
H  40.43900 43.39800 24.19800
H  41.85000 42.74700 32.55100
H  41.89300 39.79100 32.71700
H  44.04000 41.84900 32.31900
H  44.34400 40.07300 32.01500
H  43.90900 40.60300 33.60600
H  39.75600 40.86300 33.01800
H  39.34100 41.77700 31.65900
H  38.50900 43.38400 33.25800
H  40.18000 43.62800 33.79700
H  43.36900 35.04900 30.05700
H  44.35400 36.40200 30.63300
H  44.72700 35.38300 29.31600
H  43.38300 33.82700 28.09600
H  44.99800 34.41800 27.52900
H  44.03700 33.38100 26.47700
H  40.83800 38.71000 23.08100
H  41.66100 41.48500 22.63400
H  43.68900 39.86100 22.99400
H  42.76100 39.54300 21.50600
H  43.23900 38.19300 22.49200
H  39.69500 40.28500 21.64700
H  39.37200 41.92600 22.31900
H  37.69900 41.06000 23.65300
H  38.74200 39.78500 24.32800
H  37.98300 39.59400 22.79800
H  40.15900 46.78300 25.96800
H  39.06600 45.76700 25.18000
H  40.75500 45.59200 24.70500
H  39.58900 44.42800 31.04100
H  42.45100 45.34400 33.87200
H  41.64500 46.85700 34.13200
H  42.77900 46.78100 32.87500
Mg -9.78000 17.10500 41.57800
C  -6.28700 17.02900 41.27900
C  -9.65400 20.50600 40.79800
C  -13.07600 16.91600 40.95700
C  -9.70900 13.60500 41.84700
N  -8.04900 18.56400 41.08300
C  -6.67600 18.32500 41.05700
C  -5.93900 19.61600 40.55800
C  -7.05200 20.68300 40.90600
C  -8.37000 19.90900 40.88300
C  -6.77200 21.42600 42.22400
C  -5.72600 19.44800 38.95900
C  -4.30600 19.44800 38.50600
H  -3.78800 18.10000 37.97600
N  -11.21800 18.57800 40.99000
C  -11.00700 19.91300 40.72900
C  -12.30400 20.49600 40.45800
C  -13.27700 19.47400 40.25300
C  -12.55700 18.21500 40.72200
C  -12.42600 21.93000 40.33100
C  -14.79200 19.69000 39.88300
O  -15.14500 20.83500 39.61100
C  -15.87500 18.56400 39.87600
N  -11.23700 15.52100 41.34500
C  -12.54700 15.68100 41.22800
C  -13.27500 14.43100 41.53600
C  -12.20200 13.30600 41.27400
C  -10.96700 14.16600 41.56300
C  -13.84600 14.43200 42.95500
C  -12.21800 12.60200 39.86400
C  -12.76900 13.42700 38.64800
N  -8.30300 15.56000 41.59800
C  -8.40500 14.16000 41.79300
C  -7.12000 13.62700 42.00400
C  -6.21600 14.71400 41.77000
C  -7.03000 15.86000 41.55000
C  -6.84500 12.11600 42.15400
C  -4.83100 15.03200 41.61000
O  -3.78500 14.35900 41.63300
C  -4.91900 16.54300 41.45800
C  -4.16000 17.23800 42.50400
O  -4.65100 18.06600 43.28100
O  -2.81400 16.88100 42.43900
C  -2.09500 17.61800 43.49400
H  -9.53100 21.58000 40.64100
H  -14.16300 16.81900 40.92700
H  -9.64800 12.52000 41.95700
H  -5.03500 19.77000 41.14800
H  -7.10400 21.37200 40.06400
H  -7.15600 21.01500 43.15800
H  -7.16200 22.43700 42.11000
H  -5.69100 21.45100 42.36100
H  -6.26200 20.17900 38.35500
H  -6.27200 18.53200 38.73000
H  -3.71800 19.85900 39.32600
H  -4.22000 20.20700 37.72900
H  -13.28100 22.23900 39.73100
H  -11.52900 22.40500 39.93400
H  -12.70100 22.39300 41.27900
H  -16.78100 19.09700 39.58800
H  -15.97500 18.12200 40.86700
H  -15.66400 17.80900 39.11800
H  -14.12900 14.33800 40.86600
H  -12.24300 12.57300 42.07900
H  -13.55400 15.34900 43.46700
H  -13.62100 13.53200 43.52700
H  -14.92900 14.38300 42.84300
H  -12.74600 11.65300 39.95900
H  -11.15500 12.44600 39.67900
H  -13.50300 14.21200 38.82600
H  -13.31800 12.72600 38.01900
H  -11.92600 13.86800 38.11600
H  -7.75300 11.55200 41.94200
H  -6.56800 11.85500 43.17600
H  -6.06200 11.77200 41.47800
H  -4.29400 16.75100 40.59000
H  -1.88200 18.64600 43.20200
H  -1.12500 17.12300 43.53900
H  -2.56800 17.61900 44.47500

