158

Mg 23.93300 -8.33000 47.48100
C  26.81700 -6.25100 46.39400
C  22.38400 -7.16100 44.65800
C  21.75100 -10.64400 47.93900
C  26.12200 -9.79600 49.70000
N  24.56200 -6.81300 45.78000
C  25.68200 -6.05200 45.60000
C  25.58400 -5.06900 44.42500
C  24.09100 -5.37900 43.98300
C  23.62600 -6.45900 44.88500
C  23.22600 -4.17700 43.93800
C  26.58000 -5.47100 43.19300
C  27.41100 -4.25800 42.61200
H  27.16800 -3.89300 41.22100
N  22.23800 -8.69400 46.59700
C  21.77800 -8.13400 45.43800
C  20.44500 -8.57400 45.21700
C  20.19800 -9.61800 46.11800
C  21.45900 -9.72600 46.93500
C  19.49000 -8.04900 44.12000
C  18.88600 -10.42800 46.32900
O  17.99100 -10.19900 45.60000
C  18.62800 -11.30300 47.48700
N  23.92400 -9.93500 48.82000
C  22.85000 -10.80800 48.78500
C  23.02200 -11.88800 49.79900
C  24.52100 -11.66400 50.28500
C  24.86200 -10.40900 49.51700
C  21.92700 -11.94400 50.90200
C  25.53400 -12.77800 49.84400
C  26.38200 -13.48900 50.87600
N  26.03000 -8.19300 47.91100
C  26.69500 -8.80000 48.93000
C  27.98100 -8.27000 49.10300
C  28.04000 -7.18900 48.21000
C  26.85000 -7.24700 47.41600
C  29.13100 -8.81100 50.01400
C  28.82000 -6.05000 47.73100
O  29.92500 -5.70400 48.16800
C  28.14200 -5.47600 46.42600
C  27.90100 -3.99600 46.56600
O  26.93200 -3.43700 47.15500
O  28.73300 -3.26700 45.79300
C  28.41300 -1.87400 45.59800
H  21.85600 -6.77400 43.78400
H  20.89800 -11.30300 48.11600
H  26.73900 -10.33500 50.42200
H  25.72500 -4.00300 44.60100
H  24.11100 -5.86900 43.01000
H  22.33100 -4.33100 44.54100
H  22.79800 -3.98600 42.95400
H  23.75700 -3.29600 44.29900
H  26.00800 -5.89900 42.37000
H  27.31900 -6.22200 43.47100
H  28.44300 -4.58900 42.72500
H  27.46100 -3.40500 43.28800
H  19.78400 -7.09000 43.69300
H  18.45900 -8.02900 44.47500
H  19.67400 -8.71600 43.27900
H  18.87100 -10.87900 48.46100
H  19.23200 -12.20900 47.44000
H  17.59400 -11.63500 47.58000
H  22.93400 -12.84700 49.28900
H  24.53600 -11.60700 51.37300
H  22.29900 -11.52000 51.83500
H  21.67500 -13.00300 50.96600
H  21.01700 -11.37400 50.71900
H  26.21300 -12.51500 49.03300
H  24.90800 -13.49800 49.31700
H  25.89200 -14.38300 51.26100
H  26.67700 -12.85200 51.71000
H  27.37600 -13.67500 50.46800
H  29.23000 -9.89400 49.94700
H  29.16300 -8.35800 51.00600
H  30.05400 -8.43400 49.57400
H  28.77900 -5.80200 45.60300
H  28.56200 -1.68900 44.53400
H  28.88700 -1.11100 46.21400
H  27.34500 -1.74900 45.77300
Mg 47.47600 24.18300 27.76400
C  47.91400 26.48700 30.50100
C  46.72500 21.84800 30.12000
C  47.41600 21.93200 25.34800
C  48.59300 26.64000 25.58700
N  47.44200 24.20200 30.09400
C  47.42300 25.24800 30.95200
C  47.09300 24.86100 32.39700
C  46.74300 23.27600 32.25800
C  46.95200 23.10000 30.72700
C  47.42100 22.28500 33.30500
C  46.00600 25.73200 33.07300
C  46.33900 26.06700 34.58600
H  45.16000 26.11800 35.52200
N  47.05700 22.18100 27.66300
C  46.78200 21.40900 28.77600
C  46.45000 20.08900 28.33600
C  46.59400 20.04800 26.92400
C  47.03600 21.38500 26.55300
C  46.03900 18.88000 29.29000
C  46.41300 18.86300 25.93100
O  46.50600 18.94800 24.72500
C  46.08000 17.45700 26.43600
N  47.95600 24.27000 25.80200
C  47.79900 23.25300 24.97400
C  48.36000 23.58100 23.53200
C  48.51800 25.12900 23.62300
C  48.33800 25.37900 25.06900
C  49.67300 22.86900 23.07700
C  47.41500 25.85300 22.78600
C  46.06600 26.01200 23.46600
N  48.33300 26.07100 27.94700
C  48.60300 27.00100 26.94700
C  49.05200 28.21000 27.57200
C  48.81100 28.09600 28.97400
C  48.33700 26.75000 29.14000
C  49.61100 29.44900 26.97000
C  48.79800 28.76700 30.31900
O  49.19700 29.90900 30.66800
C  48.18500 27.76400 31.33600
C  49.03200 27.47400 32.53000
O  49.94500 26.73700 32.56700
O  48.66200 28.19100 33.60900
C  49.46400 28.25700 34.82100
H  46.29200 21.13500 30.82400
H  47.39500 21.18100 24.55500
H  48.85900 27.43400 24.88700
H  48.02600 24.85100 32.96000
H  45.67500 23.06400 32.31500
H  46.52700 21.76200 33.64700
H  48.09500 22.58000 34.10900
H  47.90800 21.55200 32.66300
H  45.04400 25.22300 33.12300
H  45.71300 26.64600 32.55800
H  46.81500 27.03400 34.75000
H  47.02000 25.28700 34.92800
H  46.60900 18.00300 28.98400
H  44.96200 18.72100 29.22800
H  46.34500 19.11600 30.30900
H  45.93200 16.72900 25.63800
H  45.15800 17.56700 27.00700
H  47.00000 17.21000 26.96600
H  47.61400 23.26700 22.80100
H  49.47500 25.48400 23.24300
H  49.58500 22.08700 22.32300
H  50.05200 22.36300 23.96500
H  50.38800 23.61800 22.73900
H  47.34200 25.15200 21.95500
H  47.87500 26.82800 22.61900
H  45.99300 25.23300 24.22500
H  45.34600 25.69000 22.71400
H  45.82100 27.00400 23.84400
H  48.93000 30.28800 27.11600
H  49.93500 29.41600 25.93000
H  50.47200 29.76400 27.56100
H  47.22500 28.11300 31.71800
H  50.39000 27.69000 34.72000
H  48.93700 27.63600 35.54500
H  49.68100 29.24200 35.23500

