158

Mg 23.34600 -6.39200 46.89800
C  25.73000 -3.95900 45.86100
C  21.07000 -4.84100 44.80200
C  21.51800 -9.20700 47.11800
C  25.94200 -7.97400 48.60700
N  23.45500 -4.55200 45.50400
C  24.49100 -3.67500 45.35000
C  24.07400 -2.60000 44.41500
C  22.48800 -2.73500 44.45600
C  22.32800 -4.14900 44.94100
C  21.72900 -1.73000 45.42200
C  24.69700 -2.73300 43.05900
C  25.01400 -1.45900 42.31400
H  24.23400 -1.28300 40.99700
N  21.48700 -6.88800 46.08300
C  20.68900 -6.11100 45.28100
C  19.48300 -6.86400 45.02800
C  19.53600 -8.09700 45.69300
C  20.91900 -8.09800 46.34900
C  18.35100 -6.30400 44.11300
C  18.47300 -9.13400 45.80900
O  17.43000 -8.91900 45.23700
C  18.66400 -10.38800 46.44200
N  23.72300 -8.25200 47.73800
C  22.73700 -9.28500 47.76400
C  23.15600 -10.50300 48.65000
C  24.57400 -10.07000 49.07900
C  24.81100 -8.67100 48.43300
C  22.21600 -10.64000 49.85700
C  25.60700 -11.19200 48.75200
C  26.14900 -11.25100 47.22900
N  25.44200 -5.97200 47.26200
C  26.29100 -6.73400 47.95600
C  27.56700 -6.02600 48.05600
C  27.40300 -4.89500 47.21300
C  26.09000 -5.01100 46.69500
C  28.77200 -6.55900 48.72000
C  28.07400 -3.74300 46.65900
O  29.19100 -3.29200 46.84400
C  26.96500 -3.09400 45.71500
C  26.66200 -1.66700 46.07700
O  26.43800 -1.20900 47.20700
O  26.71500 -0.86300 44.95100
C  26.44500 0.51600 45.26600
H  20.19500 -4.30000 44.43700
H  21.03300 -10.18300 47.05300
H  26.73500 -8.46100 49.17800
H  24.30700 -1.67000 44.93400
H  22.02800 -2.68700 43.46900
H  22.45200 -1.13400 45.97800
H  21.16700 -2.28700 46.17100
H  20.94200 -1.24000 44.84800
H  24.05000 -3.31800 42.40500
H  25.67600 -3.16900 43.25600
H  26.06600 -1.30000 42.07800
H  24.76400 -0.67500 43.02900
H  17.88700 -7.15400 43.61300
H  18.70700 -5.59700 43.36500
H  17.58700 -5.84300 44.73900
H  19.38000 -11.00100 45.89400
H  17.66600 -10.82700 46.45600
H  18.92300 -10.09500 47.45900
H  23.12600 -11.44600 48.10400
H  24.66100 -9.97600 50.16100
H  21.94100 -11.69200 49.93900
H  21.29100 -10.07900 49.72300
H  22.54900 -10.32100 50.84400
H  25.24300 -12.21300 48.86900
H  26.47800 -11.05400 49.39400
H  27.20900 -11.49600 47.16800
H  26.05500 -10.27800 46.74600
H  25.57900 -11.99100 46.66800
H  28.78100 -6.82700 49.77600
H  29.38800 -5.67400 48.55700
H  29.21400 -7.38300 48.16000
H  27.48400 -3.25000 44.76900
H  25.35900 0.60100 45.21200
H  26.97200 1.15200 44.55600
H  26.77000 1.07500 46.14300
Mg 35.83600 1.46200 30.32700
C  33.43100 2.53000 32.76900
C  38.07500 1.24100 32.80400
C  37.88800 0.61100 27.94900
C  33.28700 2.02800 27.89600
N  35.71800 1.65200 32.58600
C  34.68100 2.16300 33.29100
C  35.03400 2.24500 34.78500
C  36.62400 2.16800 34.74300
C  36.85200 1.66800 33.30700
C  37.41000 3.47600 35.01200
C  34.35500 1.16000 35.63600
C  34.84000 1.00900 37.11900
H  35.47800 2.19100 37.96800
N  37.69500 0.98500 30.37400
C  38.46900 0.88000 31.49800
C  39.80000 0.36600 31.21600
C  39.82500 0.31500 29.77900
C  38.42200 0.69800 29.26500
C  40.89400 -0.09600 32.20700
C  40.97800 -0.00600 28.81900
O  40.82100 -0.01800 27.61200
C  42.31100 -0.44500 29.43600
N  35.56400 1.20000 28.23800
C  36.60500 0.80000 27.42300
C  36.18300 0.70200 25.93600
C  34.68500 1.23800 25.91200
C  34.44900 1.47900 27.44100
C  37.20100 1.55300 25.00000
C  33.62300 0.39100 25.21700
C  32.61400 1.10600 24.27000
N  33.77600 2.16400 30.27900
C  32.93200 2.31700 29.25200
C  31.67900 2.71600 29.77900
C  31.80900 2.82000 31.15700
C  33.12700 2.46500 31.42900
C  30.43800 3.05600 28.97200
C  31.04300 3.04600 32.32500
O  29.85100 3.32300 32.46000
C  32.13300 2.96400 33.49700
C  32.25600 4.32800 34.28000
O  32.40300 5.39600 33.71900
O  31.89400 4.14100 35.61500
C  31.90400 5.40200 36.45300
H  38.86600 1.15500 33.55200
H  38.59200 0.37700 27.14800
H  32.49300 2.32500 27.20800
H  34.78300 3.22300 35.19500
H  36.94700 1.43600 35.48300
H  38.39600 3.18300 35.37200
H  36.89500 4.19300 35.65200
H  37.60100 3.94800 34.04900
H  34.75300 0.30000 35.09800
H  33.26900 1.07300 35.61100
H  35.55100 0.18400 37.10100
H  34.05900 0.66500 37.79800
H  41.82700 0.39500 31.93100
H  41.11800 -1.15600 32.08600
H  40.61400 0.12800 33.23600
H  42.91700 -1.05300 28.76400
H  42.22000 -1.30100 30.10500
H  42.81700 0.38700 29.92600
H  36.18200 -0.33000 25.58500
H  34.73900 2.24500 25.49800
H  37.53300 0.87000 24.21800
H  38.08600 1.95100 25.49700
H  36.65900 2.39400 24.57000
H  33.06300 -0.03600 26.04800
H  34.09700 -0.41900 24.66200
H  32.84700 2.16300 24.15000
H  31.66800 1.08600 24.81100
H  32.55100 0.58800 23.31300
H  29.99100 2.10300 28.69100
H  30.61900 3.54900 28.01700
H  29.78800 3.68900 29.57700
H  31.83800 2.17300 34.18700
H  32.13000 5.18200 37.49600
H  30.93900 5.89200 36.32400
H  32.73100 6.06500 36.19600

