158

Mg 46.77100 5.29900 47.94700
C  44.76600 8.16600 47.43500
C  44.11500 3.36400 46.92500
C  48.89600 2.77600 47.55300
C  49.43300 7.58500 48.36900
N  44.70400 5.75100 47.37600
C  44.08600 6.99100 47.32900
C  42.61700 6.76800 46.94100
C  42.43400 5.22900 46.83700
C  43.79300 4.73900 47.12200
C  41.27200 4.63600 47.67600
C  42.00400 7.51300 45.69200
C  40.45300 7.69100 45.71800
H  39.61000 7.42500 44.44600
N  46.53000 3.34800 47.45500
C  45.36900 2.73100 47.08300
C  45.64800 1.37800 46.67700
C  47.01600 1.13200 46.91400
C  47.54500 2.47100 47.37300
C  44.53800 0.43100 46.11000
C  47.71700 -0.22000 46.79500
O  47.07300 -1.19000 46.43700
C  49.16600 -0.42500 47.09200
N  48.87100 5.29100 47.86700
C  49.47900 4.09100 47.79000
C  50.92500 4.13400 48.16100
C  51.09200 5.61700 48.53900
C  49.74400 6.25500 48.18300
C  51.42900 3.08600 49.25500
C  52.35700 6.28600 47.87600
C  53.14100 7.28300 48.77300
N  47.10500 7.46700 48.04700
C  48.19500 8.18500 48.16700
C  47.93100 9.59000 48.30500
C  46.57200 9.68000 47.89200
C  46.15100 8.32500 47.78100
C  48.87900 10.67200 48.70600
C  45.45900 10.58800 47.66000
O  45.35600 11.80700 47.56500
C  44.27000 9.62300 47.19400
C  43.08900 9.97800 47.96100
O  42.79700 9.54000 49.05800
O  42.28800 10.74100 47.10500
C  41.01600 11.15400 47.62800
H  43.25300 2.77300 46.61100
H  49.61800 1.96000 47.47500
H  50.29600 8.22300 48.57000
H  42.05100 7.15500 47.78900
H  42.28300 4.94400 45.79600
H  40.56100 3.99800 47.15200
H  40.67500 5.44800 48.09100
H  41.64300 4.01800 48.49300
H  42.27900 6.93200 44.81100
H  42.40100 8.50600 45.48100
H  40.15700 8.70400 45.99000
H  40.03400 7.09800 46.53200
H  44.85400 0.22300 45.08800
H  43.50400 0.77000 46.05900
H  44.52600 -0.58400 46.50600
H  49.41900 -1.48200 47.01000
H  49.38700 -0.09800 48.10700
H  49.77100 0.21200 46.44700
H  51.46700 3.95000 47.23300
H  51.12500 5.80100 49.61300
H  50.69800 2.28300 49.35100
H  51.51300 3.66400 50.17500
H  52.34900 2.65000 48.86500
H  51.92800 6.78200 47.00500
H  53.14300 5.68000 47.42500
H  54.16500 6.90800 48.77400
H  52.77800 7.41000 49.79200
H  53.19700 8.23400 48.24200
H  49.75400 10.38500 49.29000
H  48.27300 11.33500 49.32400
H  49.24800 11.27300 47.87500
H  44.13500 9.87100 46.14200
H  40.45000 11.70100 46.87500
H  41.22000 11.82200 48.46500
H  40.54400 10.27500 48.06700
Mg 48.12700 16.36300 29.00500
C  46.13900 16.11300 31.88700
C  50.51200 17.84200 30.80500
C  49.77700 16.81400 26.12000
C  45.43900 14.95800 27.19600
N  48.24300 16.97500 31.15700
C  47.38400 16.74200 32.15000
C  47.82300 17.24300 33.43900
C  49.20900 18.01300 33.09000
C  49.34800 17.58800 31.59700
C  49.29900 19.53500 33.23200
C  47.92200 16.26800 34.64800
C  47.31400 16.84700 35.98200
H  47.05400 18.27500 36.22900
N  49.97500 17.19000 28.52400
C  50.77300 17.83700 29.43500
C  52.00800 18.18800 28.74100
C  51.82300 17.99900 27.36100
C  50.52200 17.25700 27.27500
C  53.12300 18.84800 29.41800
C  52.72400 18.39800 26.15600
O  52.43800 17.92700 25.06200
C  54.02900 19.20800 26.29400
N  47.63900 16.00700 26.94500
C  48.48600 16.21700 25.93300
C  48.08900 15.59500 24.61100
C  46.73600 14.86200 25.02900
C  46.60800 15.21000 26.52800
C  47.76000 16.53100 23.45000
C  46.86600 13.28900 24.90400
C  45.83300 12.71700 23.89600
N  46.18100 15.63300 29.40700
C  45.21800 15.15600 28.54700
C  44.05000 14.82200 29.29800
C  44.36600 15.13400 30.59400
C  45.67900 15.63800 30.64300
C  42.81100 14.10300 28.76500
C  43.89800 15.08100 31.90800
O  42.92400 14.58300 32.42700
C  45.02900 15.77000 32.81000
C  44.39600 16.95800 33.50500
O  44.34700 18.10400 33.15500
O  43.79000 16.45900 34.65700
C  42.70100 17.31100 35.27900
H  51.17800 18.46400 31.40800
H  50.37900 16.82300 25.20900
H  44.67700 14.44000 26.61100
H  47.07700 17.99800 33.68700
H  49.99900 17.53400 33.66900
H  49.38200 19.89200 32.20500
H  50.22800 19.60700 33.79700
H  48.37200 19.90300 33.67200
H  48.94300 16.02300 34.94000
H  47.32000 15.39700 34.38700
H  48.07200 16.54000 36.70100
H  46.42100 16.27300 36.23000
H  54.03400 18.33300 29.11500
H  53.10500 18.89800 30.50700
H  53.16400 19.85800 29.01000
H  54.14600 19.75600 27.22900
H  54.20200 19.75200 25.36600
H  54.78500 18.42800 26.38900
H  48.88600 14.89200 24.36800
H  45.82000 15.22200 24.56100
H  48.36300 16.56700 22.54200
H  47.92600 17.55900 23.77100
H  46.74200 16.39400 23.08600
H  46.80400 12.83000 25.89100
H  47.78500 13.08600 24.35500
H  46.48300 12.38400 23.08700
H  45.07300 13.41200 23.54000
H  45.37400 11.88300 24.42500
H  42.58000 13.19900 29.33000
H  42.98300 13.73000 27.75600
H  41.98900 14.81600 28.82900
H  45.26900 15.19800 33.70700
H  42.03500 16.76400 35.94600
H  42.01100 17.65200 34.50700
H  43.21100 18.12300 35.79700

