158

Mg 9.17100 4.86800 27.73000
C  10.62900 3.28000 30.49100
C  7.11100 6.62000 29.88600
C  7.74600 6.13200 25.03500
C  10.89300 2.63400 25.68800
N  8.80600 4.85500 29.95100
C  9.58000 4.21000 30.85100
C  9.06900 4.50900 32.27900
C  7.86900 5.52000 32.03800
C  7.91500 5.70500 30.54000
C  6.50300 5.22200 32.48200
C  10.24100 5.04400 33.12000
C  10.02200 6.02800 34.28600
H  10.87600 5.76300 35.52000
N  7.62200 6.07300 27.47300
C  6.89800 6.70600 28.43500
C  5.94300 7.62000 27.84200
C  6.18600 7.56800 26.44500
C  7.26200 6.57100 26.29500
C  4.96600 8.45800 28.52800
C  5.56300 8.27000 25.28700
O  6.03400 8.24700 24.20100
C  4.29600 9.01900 25.46500
N  9.27100 4.46300 25.60000
C  8.54000 5.05500 24.72100
C  9.03500 4.75600 23.26800
C  10.00800 3.58700 23.44600
C  10.07000 3.49200 25.01300
C  7.79200 4.50200 22.34200
C  11.36300 3.74400 22.72600
C  11.95800 2.53900 22.11200
N  10.52600 3.24900 27.95100
C  11.10400 2.42900 27.07200
C  11.93000 1.41600 27.76200
C  11.74400 1.71600 29.13600
C  10.96700 2.86100 29.16700
C  12.68200 0.27400 27.08800
C  12.09700 1.39400 30.48100
O  12.92400 0.54400 30.81000
C  11.47400 2.42000 31.44100
C  10.67200 1.54200 32.29800
O  9.64500 0.96800 32.03400
O  11.19200 1.43700 33.56600
C  10.33200 1.01900 34.65700
H  6.50400 7.26100 30.53000
H  7.58800 6.80100 24.18600
H  11.30700 1.90500 24.98700
H  8.83200 3.52500 32.68200
H  8.06800 6.51700 32.43000
H  6.07100 4.66700 31.64900
H  5.98900 6.18200 32.54000
H  6.55100 4.66300 33.41600
H  10.92900 5.60200 32.48500
H  10.64000 4.11800 33.53400
H  8.97000 5.84500 34.50600
H  10.21700 7.03500 33.91800
H  3.95400 8.22100 28.20000
H  5.34500 9.46300 28.33700
H  4.87900 8.22500 29.59000
H  3.93000 9.42300 24.52200
H  4.46700 9.87800 26.11400
H  3.59300 8.30400 25.89300
H  9.53500 5.65900 22.91700
H  9.55200 2.64600 23.13700
H  6.82600 4.41700 22.84000
H  7.94800 3.46800 22.03600
H  7.72000 5.28200 21.58400
H  12.02000 4.05000 23.54100
H  11.25300 4.52200 21.97100
H  11.72300 2.63600 21.05200
H  11.42300 1.64000 22.41700
H  13.03300 2.43700 22.25900
H  11.98400 -0.55800 26.99700
H  13.50400 -0.15900 27.65900
H  12.93100 0.51700 26.05500
H  12.18200 3.02600 32.00600
H  10.14900 1.95100 35.19400
H  10.85700 0.33700 35.32600
H  9.40100 0.58800 34.29100
Mg -0.41900 43.98000 26.03000
C  1.53100 43.61100 28.84100
C  -3.22400 42.88800 27.96400
C  -2.29200 43.57100 23.21100
C  2.43100 44.50600 24.18200
N  -0.82000 43.26500 28.05400
C  0.15400 43.43600 29.07800
C  -0.44400 43.26400 30.46400
C  -1.90700 42.84500 30.13700
C  -1.97000 42.92600 28.60600
C  -2.28900 41.38000 30.66200
C  -0.27000 44.54300 31.34600
C  0.21800 44.33800 32.80000
H  -0.10600 43.08000 33.51400
N  -2.53500 43.52700 25.64900
C  -3.50800 43.20000 26.58600
C  -4.78000 43.03200 25.88900
C  -4.53000 43.23300 24.54000
C  -3.03700 43.45700 24.36200
C  -6.04700 42.75200 26.57900
C  -5.40900 43.16900 23.36600
O  -5.03000 43.44400 22.20500
C  -6.83500 42.80400 23.61300
N  0.00100 44.06400 24.07700
C  -0.89600 43.91900 23.08700
C  -0.25900 44.10800 21.71400
C  1.09600 44.66600 22.05900
C  1.22800 44.33700 23.57700
C  -0.22900 42.83500 20.89700
C  1.22600 46.16200 21.84300
C  1.31700 46.53100 20.36300
N  1.59700 44.11800 26.42400
C  2.65100 44.39600 25.62200
C  3.84100 44.63500 26.36200
C  3.42400 44.29400 27.67200
C  2.10800 43.95800 27.63700
C  5.08200 45.15200 25.85700
C  3.92700 44.14300 29.03100
O  4.99900 44.29600 29.55900
C  2.60100 43.86200 29.89000
C  2.87100 42.62000 30.78700
O  2.56300 41.45900 30.56000
O  3.70000 42.95100 31.85900
C  4.13300 41.84000 32.77100
H  -4.14800 42.55700 28.44300
H  -2.60800 43.48700 22.16900
H  3.41400 44.63200 23.72300
H  -0.06300 42.34600 30.91400
H  -2.59300 43.57200 30.57200
H  -2.98600 41.71000 31.43200
H  -1.48800 40.93400 31.25100
H  -2.75000 40.68000 29.96500
H  -1.25300 45.01300 31.39000
H  0.43200 45.23000 30.87400
H  -0.23600 45.14700 33.37200
H  1.28100 44.56600 32.87100
H  -6.95400 43.25900 26.25000
H  -6.07200 43.03400 27.63200
H  -6.17600 41.67300 26.66600
H  -7.07500 42.01600 24.32700
H  -7.24500 42.58700 22.62600
H  -7.37400 43.65600 24.02700
H  -0.92800 44.76400 21.15800
H  1.95300 44.23600 21.54000
H  -0.92800 42.09800 21.29300
H  0.69700 42.26100 20.91900
H  -0.54300 43.13200 19.89700
H  2.10500 46.56700 22.34500
H  0.39000 46.68300 22.30900
H  0.63200 47.34100 20.11200
H  1.21900 45.69700 19.66700
H  2.31400 46.91700 20.15100
H  4.93500 45.50200 24.83600
H  5.85300 44.38300 25.90800
H  5.48800 45.91500 26.52100
H  2.57700 44.79600 30.45000
H  4.84600 42.43500 33.34100
H  4.59200 41.06900 32.15200
H  3.39300 41.36200 33.41300

