158

Mg 35.84900 49.22000 25.47800
C  35.87400 47.56900 28.54800
C  34.73000 52.14200 27.20000
C  35.34700 50.75000 22.54200
C  36.28800 46.14300 23.84100
N  35.35400 49.74200 27.61200
C  35.53400 48.94700 28.64800
C  35.47800 49.74200 30.02200
C  35.07900 51.21100 29.52400
C  35.00700 51.00700 27.96400
C  33.73600 51.75000 30.11100
C  36.84200 49.86400 30.79200
C  36.84400 49.59100 32.27800
H  35.45400 49.57200 33.04200
N  35.23100 51.19300 24.89200
C  34.87600 52.24100 25.74900
C  34.46100 53.38800 24.95900
C  34.68000 53.01700 23.60100
C  35.09900 51.61100 23.61200
C  33.92600 54.68600 25.55500
C  34.48100 53.88100 22.35700
O  34.56600 53.43900 21.20700
C  34.18100 55.41100 22.48200
N  35.85700 48.58000 23.54200
C  35.64800 49.36800 22.45800
C  35.79600 48.70800 21.10800
C  36.43400 47.37300 21.60000
C  36.19700 47.33800 23.11100
C  34.44800 48.65700 20.25500
C  37.93600 47.33600 21.25600
C  38.44600 46.36300 20.21000
N  36.07000 47.24700 26.03500
C  36.23700 46.04600 25.29200
C  36.47200 44.96900 26.16100
C  36.36900 45.53800 27.49200
C  36.14100 46.87200 27.36600
C  36.94200 43.58500 25.77300
C  36.44400 45.19700 28.87900
O  36.63400 44.10300 29.42400
C  36.18500 46.58700 29.62800
C  35.05100 46.21300 30.59300
O  33.87400 46.30800 30.43000
O  35.60200 45.82400 31.77100
C  34.64000 45.34900 32.81500
H  34.46000 53.05100 27.74000
H  35.38300 51.20800 21.55100
H  36.57700 45.22500 23.32400
H  34.67700 49.32400 30.63200
H  35.88000 51.93900 29.65700
H  32.89300 51.33900 29.55400
H  33.76200 52.83100 29.97300
H  33.51700 51.32800 31.09200
H  37.30400 50.84700 30.69000
H  37.55300 49.15900 30.36100
H  37.54000 50.24500 32.80300
H  37.28000 48.59900 32.39300
H  34.07900 54.70900 26.63400
H  32.84300 54.75400 25.45800
H  34.37700 55.54600 25.05900
H  33.21700 55.43500 22.99000
H  34.10500 55.83600 21.48100
H  35.05000 55.80200 23.01100
H  36.49300 49.29900 20.51400
H  35.78100 46.62400 21.15200
H  34.11600 47.62200 20.18600
H  34.72800 49.09000 19.29400
H  33.75600 49.31600 20.77900
H  38.39000 47.22800 22.24200
H  38.16800 48.32800 20.87000
H  37.60000 46.02700 19.60900
H  38.97200 45.55700 20.72200
H  39.15600 46.96800 19.64700
H  37.72100 43.23300 26.45000
H  37.28400 43.47900 24.74300
H  36.11200 42.89200 25.91600
H  37.11000 46.90200 30.11100
H  33.80100 46.03900 32.90600
H  35.15200 45.33600 33.77700
H  34.20300 44.38100 32.57200
Mg -10.54100 17.27800 42.69600
C  -7.08600 16.64700 42.53000
C  -9.95800 20.40100 41.39200
C  -13.78600 17.83900 42.65200
C  -11.14000 13.82000 43.09600
N  -8.71600 18.26200 41.90800
C  -7.40800 17.91600 42.19500
C  -6.32300 19.05100 41.91000
C  -7.35500 20.30900 41.72900
C  -8.75800 19.66500 41.63600
C  -7.20700 21.54100 42.66100
C  -5.34200 18.85900 40.70400
C  -5.77500 18.10100 39.43700
H  -5.54400 18.86600 38.11100
N  -11.69900 18.92500 42.04500
C  -11.29700 20.11000 41.56000
C  -12.39700 20.97400 41.39200
C  -13.59100 20.24300 41.69200
C  -13.08200 18.96200 42.13500
C  -12.18900 22.38700 40.96900
C  -15.01300 20.78800 41.56200
O  -15.18600 21.96100 41.22100
C  -16.12100 19.96400 42.04200
N  -12.24900 15.99200 42.61900
C  -13.47100 16.55100 42.92500
C  -14.48000 15.50400 43.43600
C  -13.71900 14.15000 43.12900
C  -12.24300 14.65800 42.93100
C  -14.93000 15.73400 44.92200
C  -14.21800 13.40400 41.89200
C  -15.19600 12.22500 42.25900
N  -9.38000 15.55000 42.91400
C  -9.73000 14.22600 43.03900
C  -8.49600 13.42600 43.36200
C  -7.42800 14.32300 43.11700
C  -8.02200 15.59900 42.82700
C  -8.46400 11.96400 43.76200
C  -5.99100 14.53600 43.14600
O  -5.02200 13.76100 43.34000
C  -5.73300 16.02100 42.65400
C  -4.80300 16.65200 43.75200
O  -3.61100 17.00700 43.53100
O  -5.47500 16.74900 44.88200
C  -4.74300 17.48000 45.96100
H  -9.66100 21.43100 41.18800
H  -14.85400 17.81500 42.88100
H  -11.29800 12.77400 43.36800
H  -5.68400 19.14300 42.78800
H  -7.25100 20.78600 40.75500
H  -8.19000 21.82400 43.03800
H  -6.83400 22.38900 42.08700
H  -6.53400 21.38800 43.50400
H  -4.37400 18.52800 41.08000
H  -5.20600 19.90300 40.42100
H  -6.78000 17.68800 39.52900
H  -5.16700 17.21200 39.27300
H  -13.04900 23.00300 41.23000
H  -12.09400 22.39900 39.88300
H  -11.38300 22.96100 41.42400
H  -15.97200 18.94000 41.69900
H  -16.96000 20.37100 41.47700
H  -16.21700 20.16100 43.10900
H  -15.36700 15.58700 42.80700
H  -13.68600 13.60100 44.07000
H  -15.93200 16.16100 44.88600
H  -14.24200 16.44500 45.37900
H  -15.00600 14.75800 45.40100
H  -13.38500 12.97500 41.33500
H  -14.75600 14.10000 41.24800
H  -14.79200 11.28300 41.88700
H  -16.16000 12.44100 41.79800
H  -15.21900 12.03300 43.33200
H  -7.63900 11.94200 44.47400
H  -8.28100 11.32800 42.89600
H  -9.33400 11.57000 44.28700
H  -5.25800 15.95100 41.67500
H  -3.77600 17.96300 45.81500
H  -4.51100 16.79300 46.77400
H  -5.44000 18.17400 46.43200

