158

Mg 46.45400 25.97400 28.19600
C  47.13600 28.09100 30.85300
C  45.58000 23.50100 30.62000
C  46.02400 23.88300 25.70900
C  48.02800 28.15800 26.09000
N  46.28100 25.87100 30.50000
C  46.57600 26.91700 31.33200
C  46.30300 26.54600 32.77800
C  46.06500 25.03100 32.67400
C  45.99500 24.70600 31.20500
C  47.11100 24.15100 33.41700
C  45.13800 27.44200 33.38100
C  44.84600 27.12700 34.80500
H  44.90300 28.24400 35.80900
N  45.86500 23.97300 28.13500
C  45.58400 23.16500 29.22200
C  45.35000 21.84600 28.65000
C  45.47500 21.89900 27.21400
C  45.75600 23.30000 26.97500
C  45.12200 20.60700 29.58100
C  45.44100 20.82700 26.18900
O  45.76400 20.99200 25.00400
C  45.01600 19.50200 26.61900
N  47.00200 25.99400 26.23200
C  46.54600 25.05300 25.35500
C  46.60800 25.50100 23.86100
C  47.27000 26.95500 23.97100
C  47.37800 27.06800 25.53700
C  47.32500 24.57900 22.86900
C  46.48800 28.12100 23.27700
C  47.40800 29.07800 22.39100
N  47.34500 27.79900 28.33700
C  48.05900 28.56800 27.42000
C  48.56200 29.72800 28.03400
C  48.22900 29.65700 29.37800
C  47.54100 28.40400 29.53500
C  49.42000 30.75700 27.35000
C  48.35500 30.27200 30.67800
O  48.85200 31.31300 31.09500
C  47.69500 29.20700 31.73700
C  48.81300 28.68600 32.64000
O  49.67600 27.93400 32.28100
O  48.80400 29.39500 33.79000
C  49.95400 29.13400 34.67000
H  45.13500 22.75700 31.28400
H  45.97200 23.31500 24.77800
H  48.33600 28.85400 25.30700
H  47.18400 26.78300 33.37500
H  45.06900 24.95100 33.10900
H  47.75800 24.68300 34.11500
H  47.71000 23.65300 32.65400
H  46.56900 23.40300 33.99500
H  44.21300 27.15900 32.87800
H  45.42300 28.48900 33.27900
H  45.65100 26.47400 35.14300
H  43.91300 26.56300 34.81000
H  44.20400 20.11000 29.26700
H  44.91800 20.77600 30.63800
H  45.94100 19.89800 29.46200
H  45.83300 19.09100 27.21100
H  45.00100 18.78700 25.79700
H  44.05300 19.56200 27.12600
H  45.61600 25.64800 23.43400
H  48.26000 26.83800 23.53200
H  46.51600 23.91500 22.56600
H  48.13300 24.06600 23.39000
H  47.75800 25.10600 22.01900
H  46.12300 28.69600 24.12800
H  45.65400 27.61000 22.79700
H  47.21400 29.03000 21.32000
H  48.45700 28.78500 22.43800
H  47.33400 30.08800 22.79400
H  49.71100 30.61400 26.31000
H  50.36100 30.92600 27.87200
H  48.81900 31.65700 27.48400
H  47.05200 29.92400 32.24700
H  50.31100 28.10500 34.62700
H  49.67400 29.48500 35.66300
H  50.73600 29.86500 34.46300
Mg 48.46400 35.57100 27.55100
C  46.09400 34.10900 29.75200
C  48.83200 38.08000 29.73300
C  50.26200 37.06800 25.17500
C  47.58100 33.17200 25.26100
N  47.73000 35.83000 29.60900
C  46.84800 35.15300 30.38600
C  46.95000 35.56500 31.82400
C  47.43500 37.01700 31.64000
C  48.06800 36.98500 30.25800
C  46.35400 38.11000 31.78100
C  47.83200 34.62900 32.70700
C  48.23000 35.07300 34.15400
H  47.35600 36.09500 34.82800
N  49.41900 37.26300 27.50800
C  49.51400 38.24000 28.48600
C  50.36200 39.38500 28.05500
C  50.81400 39.04800 26.77900
C  50.12300 37.78300 26.39900
C  50.70700 40.58900 28.97400
C  51.64000 39.90500 25.79600
O  52.07900 39.52400 24.66900
C  52.21800 41.28800 26.25000
N  48.83400 35.20800 25.43800
C  49.66000 35.91200 24.70900
C  49.95600 35.26800 23.31000
C  49.35400 33.90200 23.44100
C  48.53300 34.10400 24.79700
C  49.50600 36.13000 22.14000
C  50.36000 32.69300 23.51600
C  50.03000 31.60400 22.45500
N  47.14700 34.01500 27.42600
C  46.87200 33.07300 26.42000
C  45.87900 32.15000 26.82000
C  45.50400 32.50400 28.16600
C  46.25900 33.57600 28.53500
C  45.32600 30.96500 26.12500
C  44.67600 32.20900 29.32000
O  43.86500 31.26100 29.47800
C  44.90700 33.33800 30.35700
C  44.93300 32.71600 31.74900
O  45.38400 31.57300 31.99100
O  44.26400 33.54700 32.61900
C  44.33500 33.10000 34.00600
H  48.82200 38.91100 30.44200
H  50.88700 37.58500 24.44400
H  47.41900 32.31800 24.60000
H  45.89700 35.49500 32.09700
H  48.18900 37.20200 32.40500
H  45.66000 37.85200 32.58100
H  45.72500 38.44800 30.95800
H  46.88800 38.99000 32.14100
H  48.72400 34.41200 32.12000
H  47.34600 33.65400 32.74100
H  49.24100 35.47900 34.17100
H  48.32500 34.13500 34.69900
H  50.02500 41.41600 28.78100
H  51.75400 40.85100 28.82800
H  50.67900 40.20400 29.99400
H  51.54700 41.81600 26.92700
H  52.35800 42.01100 25.44600
H  53.21200 41.09200 26.65200
H  51.04200 35.20200 23.23700
H  48.64200 33.66300 22.65000
H  48.52100 35.92600 21.72000
H  50.26000 36.29400 21.37000
H  49.45200 37.14800 22.52600
H  50.56200 32.41600 24.55100
H  51.37300 32.91800 23.18100
H  50.46400 30.63200 22.68800
H  50.57900 31.87900 21.55400
H  48.96200 31.46800 22.28500
H  44.85900 31.32800 25.21000
H  44.54000 30.46200 26.68800
H  46.17600 30.30800 25.94200
H  44.08500 34.05100 30.42200
H  45.38900 33.23200 34.25000
H  44.23400 32.03400 34.20900
H  43.81400 33.70600 34.74700

