158

Mg -1.74200 17.39400 26.06200
C  -1.81700 15.27200 28.84300
C  -2.34500 20.12100 28.08200
C  -1.42800 19.35000 23.28300
C  -0.91700 14.60200 24.06100
N  -2.30200 17.62200 28.21600
C  -2.16700 16.64100 29.20900
C  -2.45100 17.24100 30.56900
C  -2.87000 18.70200 30.20300
C  -2.47100 18.87200 28.73200
C  -4.40100 18.95700 30.43400
C  -1.26300 17.21300 31.63400
C  -1.62100 16.63600 32.99300
H  -2.30200 17.58600 34.07700
N  -1.93100 19.45600 25.74800
C  -2.15000 20.42300 26.69300
C  -2.17800 21.69000 26.01400
C  -1.87500 21.49500 24.59200
C  -1.72000 20.04200 24.46500
C  -2.38800 23.01700 26.81500
C  -1.77700 22.44200 23.44300
O  -1.42400 22.08200 22.27600
C  -1.88400 23.97700 23.68400
N  -1.34600 16.96000 23.97300
C  -1.37100 17.96100 23.01900
C  -0.97200 17.44800 21.57800
C  -0.47500 15.91700 21.95100
C  -0.92100 15.84100 23.43000
C  -2.17100 17.43800 20.58700
C  1.00100 15.62000 21.68100
C  2.09300 16.60900 22.18100
N  -1.75200 15.38500 26.26200
C  -1.40700 14.36200 25.38500
C  -1.45000 13.10400 26.10000
C  -1.60700 13.42600 27.43300
C  -1.70900 14.78700 27.51300
C  -1.23800 11.76600 25.47300
C  -1.67400 12.80300 28.71500
O  -1.57900 11.61900 29.05800
C  -1.94200 13.99800 29.68100
C  -0.94000 13.83400 30.76500
O  0.21200 14.19200 30.70900
O  -1.54900 13.22900 31.88900
C  -0.66000 13.01600 33.07100
H  -2.55000 21.02900 28.65400
H  -1.21000 19.90800 22.37100
H  -0.56200 13.73900 23.49400
H  -3.32100 16.82800 31.08100
H  -2.38600 19.45800 30.82100
H  -4.84400 19.42100 29.55300
H  -4.51100 19.62900 31.28500
H  -4.92200 18.01000 30.57300
H  -0.94300 18.23600 31.82800
H  -0.37400 16.70600 31.25900
H  -0.69400 16.16000 33.31400
H  -2.35400 15.84100 32.85600
H  -2.38300 22.89400 27.89800
H  -3.39400 23.29600 26.50100
H  -1.72700 23.83600 26.53300
H  -2.11200 24.45600 22.73200
H  -0.98800 24.39800 24.13900
H  -2.73900 24.06800 24.35400
H  -0.16400 18.04700 21.15600
H  -0.98200 15.10200 21.43600
H  -2.91100 18.11600 21.01200
H  -2.72000 16.49800 20.53900
H  -1.78200 17.70800 19.60600
H  1.01800 15.66500 20.59200
H  1.14300 14.58800 22.00100
H  1.57000 17.47100 22.59600
H  2.68400 16.76100 21.27700
H  2.73200 16.17900 22.95200
H  -1.14300 11.01500 26.25700
H  -0.41500 11.80500 24.75900
H  -2.18500 11.47500 25.01800
H  -2.84800 13.89000 30.27700
H  0.41100 12.97700 32.87100
H  -1.04700 12.13000 33.57300
H  -0.82300 13.85200 33.75200
Mg 35.91900 1.01100 29.61400
C  33.57500 2.06000 31.93300
C  38.30400 0.95300 32.12000
C  38.13700 -0.05200 27.29800
C  33.52400 1.38400 27.21500
N  35.99400 1.44100 31.80400
C  34.87100 1.75400 32.51500
C  35.18400 1.78400 33.98200
C  36.80100 1.93500 33.96200
C  37.11700 1.43700 32.54100
C  37.31900 3.43900 34.16900
C  34.48100 0.52900 34.63100
C  34.15300 0.81100 36.18100
H  34.99700 1.83600 36.92200
N  37.93200 0.45600 29.71100
C  38.73200 0.45300 30.82900
C  39.93800 -0.24600 30.53300
C  39.97200 -0.42700 29.13500
C  38.64000 0.05200 28.62400
C  41.02100 -0.49200 31.58000
C  41.10100 -0.93200 28.26300
O  41.15200 -0.90200 27.00400
C  42.36800 -1.51100 28.95800
N  35.89300 0.90300 27.54300
C  36.88500 0.36300 26.80800
C  36.52200 0.11400 25.34100
C  34.99300 0.59500 25.28800
C  34.77600 0.99400 26.75800
C  37.43300 0.82700 24.27100
C  33.93000 -0.47600 24.78900
C  33.54700 -1.52500 25.84800
N  33.99100 1.75600 29.51400
C  33.09600 1.85700 28.46200
C  31.80000 2.30400 28.91400
C  31.98200 2.39500 30.26100
C  33.29800 1.99400 30.56900
C  30.61700 2.43100 28.14600
C  31.28200 2.73200 31.53600
O  30.09300 3.04500 31.80600
C  32.34600 2.50000 32.67700
C  32.42400 3.72800 33.49800
O  33.16500 4.67600 33.34100
O  31.72600 3.51600 34.66200
C  32.02400 4.50900 35.74300
H  39.04900 0.92200 32.91800
H  38.67200 -0.66500 26.57000
H  32.80700 1.52600 26.40400
H  34.69200 2.66300 34.39900
H  37.37900 1.33900 34.66700
H  37.90100 3.41300 35.09000
H  36.63000 4.28100 34.24000
H  37.98600 3.66500 33.33700
H  35.01200 -0.41300 34.49400
H  33.53100 0.47400 34.09900
H  34.22700 -0.21400 36.54300
H  33.11000 1.12700 36.21000
H  41.57600 -1.43000 31.55600
H  40.54400 -0.35400 32.55100
H  41.66500 0.38000 31.46800
H  43.07200 -0.73100 29.24700
H  42.96200 -1.92500 28.14300
H  42.14400 -2.27600 29.70000
H  36.59000 -0.96700 25.22000
H  34.81100 1.48400 24.68400
H  38.08100 1.53700 24.78500
H  36.78900 1.39100 23.59700
H  38.01400 0.08700 23.72100
H  34.21300 -0.84900 23.80500
H  32.99500 0.03300 24.55300
H  34.12000 -1.56600 26.77400
H  33.65300 -2.53000 25.44000
H  32.48600 -1.48200 26.09400
H  29.67100 2.31000 28.67400
H  30.62100 1.72200 27.31900
H  30.65400 3.46300 27.79600
H  31.96100 1.76000 33.37900
H  31.19500 4.34500 36.43200
H  32.09600 5.54700 35.41800
H  32.99700 4.33300 36.20200

