158

Mg 1.72700 8.12100 25.33000
C  2.13900 10.11300 28.20800
C  1.80600 5.30900 27.42000
C  1.68200 6.22500 22.67800
C  1.87400 11.01200 23.35300
N  2.04000 7.76400 27.64700
C  2.13000 8.73800 28.57800
C  2.12500 8.04100 29.97800
C  2.32400 6.51700 29.68600
C  2.00100 6.50000 28.16300
C  3.76600 5.89600 30.00100
C  0.85600 8.31700 30.86500
C  1.21400 8.73500 32.29300
H  2.41400 7.96300 32.91100
N  1.65200 6.06300 25.08600
C  1.58900 5.08500 26.07100
C  1.27500 3.78700 25.49300
C  1.24800 4.03900 24.05600
C  1.61300 5.42500 23.90100
C  1.23900 2.57900 26.40500
C  0.88000 3.03800 23.02200
O  1.01600 3.26700 21.83400
C  0.40900 1.71300 23.39300
N  1.80600 8.58900 23.29100
C  1.75500 7.57600 22.45700
C  1.82000 8.04100 20.95300
C  1.59600 9.60700 21.13000
C  1.83100 9.77900 22.67000
C  3.17700 7.69600 20.26400
C  0.26000 10.17100 20.73400
C  0.41700 11.53300 20.02600
N  2.02100 10.21500 25.59300
C  1.96700 11.31500 24.70300
C  2.12100 12.52800 25.49900
C  2.23300 12.09000 26.81600
C  2.08100 10.67900 26.82900
C  2.36000 13.92800 24.94200
C  2.39700 12.57000 28.12200
O  2.68700 13.67300 28.55700
C  2.20600 11.34500 29.05700
C  3.29600 11.39700 30.10600
O  4.49500 11.29800 29.90800
O  2.66700 11.60900 31.33300
C  3.49600 11.87100 32.50800
H  1.92100 4.45000 28.08400
H  1.44000 5.63000 21.79600
H  1.97800 11.89000 22.71300
H  2.99300 8.35600 30.55700
H  1.60500 5.95900 30.28500
H  4.36600 6.68400 30.45700
H  4.25400 5.46000 29.12900
H  3.54800 4.98600 30.56000
H  0.30300 7.37800 30.85800
H  0.19100 9.06800 30.43800
H  0.37400 8.40600 32.90400
H  1.26800 9.81500 32.42500
H  2.22600 2.11500 26.40900
H  0.39900 1.92000 26.18400
H  1.18600 2.75800 27.47900
H  -0.39700 1.85900 24.11100
H  1.33900 1.21100 23.66200
H  -0.01000 1.09800 22.59600
H  0.92900 7.56400 20.54500
H  2.47700 10.14300 20.77600
H  3.85300 7.24000 20.98800
H  3.70300 8.60000 19.95500
H  3.08000 7.02000 19.41400
H  -0.45400 10.18400 21.55800
H  -0.16800 9.49100 19.99700
H  1.39000 12.02300 20.07900
H  -0.29300 12.14200 20.58500
H  0.17300 11.41200 18.97100
H  2.26500 14.02500 23.86000
H  3.34600 14.27400 25.24900
H  1.71500 14.72400 25.31300
H  1.25800 11.40500 29.59200
H  2.92400 11.71000 33.42200
H  3.72100 12.92700 32.66300
H  4.39900 11.27200 32.40000
Mg -11.25300 18.28400 42.23300
C  -7.86000 17.39000 41.79500
C  -10.42500 21.53300 41.22200
C  -14.53600 19.14700 42.27800
C  -12.03400 14.89900 42.35300
N  -9.41200 19.28800 41.58600
C  -8.09000 18.75000 41.56100
C  -7.04100 19.72300 40.90000
C  -7.86300 21.08600 40.97500
C  -9.31600 20.60300 41.32400
C  -7.34800 22.12500 42.02500
C  -6.73000 19.23500 39.38500
C  -5.22100 19.13000 39.01300
H  -4.89100 19.27000 37.49400
N  -12.38000 20.15600 41.86700
C  -11.85400 21.37100 41.44500
C  -12.88500 22.39800 41.47300
C  -14.04500 21.73400 41.92600
C  -13.68300 20.22700 41.97600
C  -12.63200 23.79800 41.13800
C  -15.42800 22.36300 42.20700
O  -15.57500 23.53400 42.16900
C  -16.62700 21.58600 42.58500
N  -13.03800 17.17300 42.44100
C  -14.29400 17.76600 42.40400
C  -15.35600 16.62600 42.55000
C  -14.58500 15.31600 42.73000
C  -13.11900 15.79200 42.37800
C  -16.33300 16.80000 43.65400
C  -15.13300 14.23300 41.76900
C  -14.72400 14.34800 40.29800
N  -10.19700 16.51200 42.13800
C  -10.67100 15.24900 42.21300
C  -9.52200 14.30900 42.23000
C  -8.39100 15.13800 42.13000
C  -8.84900 16.41700 41.93800
C  -9.54300 12.88600 42.48800
C  -6.93200 15.12900 42.02200
O  -6.19300 14.17300 42.22800
C  -6.57800 16.61100 41.74300
C  -5.50400 17.10300 42.69000
O  -4.46000 17.58100 42.37200
O  -5.83200 16.87100 44.05800
C  -4.74500 17.12900 45.00100
H  -9.97600 22.45500 40.84700
H  -15.61200 19.28300 42.40500
H  -12.30000 13.84300 42.43700
H  -6.11700 19.88600 41.45500
H  -7.88500 21.53900 39.98400
H  -8.19500 22.34700 42.67500
H  -6.98900 23.03400 41.54300
H  -6.64600 21.68300 42.73200
H  -7.13700 19.96800 38.68900
H  -7.24600 18.30500 39.15000
H  -5.05200 18.06800 39.18700
H  -4.57600 19.78300 39.60200
H  -12.98400 24.37700 41.99200
H  -13.23100 23.91600 40.23500
H  -11.61200 24.09900 40.90100
H  -17.08500 20.93000 41.84400
H  -17.38200 22.22900 43.03700
H  -16.29100 21.02500 43.45700
H  -15.84300 16.62200 41.57500
H  -14.58600 14.84400 43.71300
H  -17.35400 16.71200 43.28200
H  -16.25400 17.79200 44.09700
H  -16.33900 16.10100 44.49000
H  -16.21600 14.20700 41.88900
H  -14.84800 13.22300 42.06300
H  -15.49700 14.12800 39.56300
H  -13.89800 13.64600 40.18200
H  -14.28400 15.30800 40.02600
H  -10.46800 12.51700 42.04300
H  -9.44100 12.66900 43.55100
H  -8.71800 12.38600 41.98100
H  -6.00900 16.61100 40.81300
H  -4.47900 16.15100 45.40300
H  -5.14400 17.77400 45.78500
H  -3.83700 17.63900 44.67700

