158

Mg 48.41200 35.25200 27.71600
C  46.14500 33.67700 29.90600
C  48.49700 38.03100 29.99100
C  50.16300 37.10200 25.43000
C  47.48500 33.02200 25.23900
N  47.45500 35.71500 29.71000
C  46.70900 34.90900 30.45300
C  46.70400 35.28700 31.88300
C  46.84300 36.89000 31.63600
C  47.69000 36.92500 30.39800
C  45.44400 37.65700 31.52800
C  47.75700 34.62600 32.81300
C  47.63100 34.78900 34.32600
H  46.80400 35.98400 34.84300
N  49.41900 37.15800 27.82400
C  49.33200 38.12300 28.81500
C  50.25800 39.17500 28.48500
C  50.81300 38.91500 27.17000
C  50.16300 37.65900 26.72200
C  50.41100 40.37000 29.35200
C  51.74900 39.75100 26.32900
O  52.19100 39.33300 25.24800
C  52.31100 41.05500 26.79600
N  48.79800 35.09500 25.58400
C  49.59500 35.90600 24.91100
C  49.77300 35.41100 23.47500
C  49.03500 34.07000 23.47100
C  48.38300 34.07300 24.87600
C  49.34300 36.44400 22.47700
C  49.89300 32.86800 23.13100
C  49.97900 32.41700 21.60700
N  47.06600 33.68800 27.52900
C  46.80500 32.85700 26.49500
C  45.86600 31.80000 26.87200
C  45.54100 32.12700 28.20300
C  46.28700 33.34300 28.54700
C  45.40700 30.69200 26.04900
C  44.77900 31.71700 29.42800
O  44.06600 30.74800 29.59600
C  45.00400 32.85200 30.46300
C  45.11100 32.35900 31.80700
O  45.92400 31.55700 32.19300
O  44.26000 32.93100 32.68900
C  44.16300 32.46600 34.06600
H  48.43400 38.86800 30.69000
H  50.74300 37.65100 24.68500
H  47.33500 32.21000 24.52400
H  45.71700 35.08000 32.29600
H  47.47600 37.28900 32.42900
H  44.58700 37.04100 31.80000
H  45.40600 37.95500 30.48000
H  45.37700 38.49400 32.22200
H  48.72700 35.07900 32.60900
H  47.83000 33.61500 32.41100
H  48.63400 34.90900 34.73400
H  47.20400 33.85400 34.69100
H  51.38400 40.31300 29.84000
H  49.68800 40.34400 30.16700
H  50.45500 41.35100 28.87900
H  53.02400 41.39200 26.04400
H  52.78200 41.02500 27.77800
H  51.61300 41.89200 26.83000
H  50.86200 35.36700 23.44700
H  48.15300 34.11800 22.83300
H  48.35700 36.84900 22.70800
H  49.29400 36.13100 21.43400
H  49.94900 37.34500 22.56000
H  49.75500 31.94200 23.69000
H  50.95400 33.07600 23.26900
H  49.35800 33.14000 21.07900
H  49.71200 31.38500 21.37700
H  50.90900 32.38200 21.03800
H  44.60600 31.17900 25.49200
H  45.10900 29.89000 26.72300
H  46.22600 30.41100 25.38600
H  44.09200 33.44800 30.50000
H  44.85600 31.67100 34.34200
H  43.11500 32.17200 34.10600
H  44.25400 33.27700 34.78900
Mg 1.40800 42.37900 27.03100
C  2.71900 42.28300 30.34500
C  -1.46100 40.79400 28.36400
C  0.26500 41.73100 23.90000
C  4.34900 43.39600 25.83200
N  0.65100 41.82400 29.13900
C  1.36000 41.93900 30.33400
C  0.49900 41.56900 31.51100
C  -0.80700 41.01500 30.90700
C  -0.56800 41.22000 29.33800
C  -1.19300 39.56900 31.36300
C  0.39200 42.74700 32.57500
C  0.98800 42.41300 34.00100
H  0.13800 42.08400 35.20500
N  -0.35000 41.39500 26.25200
C  -1.41600 40.88500 26.93900
C  -2.42700 40.45000 25.97500
C  -1.96600 40.68600 24.71200
C  -0.62000 41.29500 24.87900
C  -3.71200 39.84200 26.47900
C  -2.67400 40.56400 23.41900
O  -2.18700 40.80700 22.30100
C  -4.08100 40.04700 23.48600
N  2.16900 42.53900 25.19400
C  1.51200 42.31100 24.02800
C  2.32400 42.80200 22.81000
C  3.55900 43.52000 23.41500
C  3.33700 43.08600 24.91000
C  2.72900 41.64600 21.83400
C  3.39500 45.01900 23.23900
C  3.77200 45.46300 21.85400
N  3.19200 42.80600 27.88900
C  4.32200 43.20200 27.21300
C  5.38100 43.39500 28.20300
C  4.77900 43.04300 29.40600
C  3.43500 42.69400 29.18000
C  6.77900 43.86300 28.00800
C  4.98500 42.86100 30.82500
O  6.02600 43.02200 31.44000
C  3.68800 42.38500 31.51400
C  3.98000 41.04800 32.17700
O  4.02300 39.96600 31.64700
O  4.42400 41.31800 33.40900
C  4.73700 40.10400 34.19300
H  -2.39400 40.40300 28.77500
H  -0.09500 41.56500 22.88300
H  5.22000 43.87700 25.38400
H  1.04500 40.76400 32.00200
H  -1.56800 41.74400 31.18700
H  -0.58000 39.26700 32.21200
H  -1.16900 38.82600 30.56600
H  -2.20000 39.79400 31.71500
H  -0.62500 43.10000 32.74300
H  0.84200 43.64700 32.15500
H  1.53200 43.34100 34.18000
H  1.81000 41.71000 33.86600
H  -3.80600 39.66700 27.55100
H  -3.74500 38.81500 26.11500
H  -4.59400 40.40500 26.17200
H  -4.46000 39.93700 22.47000
H  -4.64700 40.77100 24.07200
H  -4.03500 39.03500 23.88700
H  1.60300 43.42500 22.28200
H  4.56200 43.31100 23.04200
H  3.44800 41.02300 22.36600
H  3.19100 42.18200 21.00500
H  1.86100 41.02600 21.61300
H  3.86000 45.63400 24.01000
H  2.34100 45.28200 23.32600
H  4.05900 44.62100 21.22400
H  4.64000 46.12200 21.87300
H  2.96500 46.04100 21.40100
H  7.06500 44.68000 28.67000
H  6.84000 44.33400 27.02700
H  7.44200 42.99800 28.02400
H  3.49800 43.16300 32.25300
H  5.77700 40.32200 34.43600
H  4.81400 39.15500 33.66300
H  4.10900 39.95300 35.07100

