158

Mg -0.01800 7.86700 27.08500
C  0.99000 10.23500 29.64600
C  0.33000 5.52400 29.68300
C  -0.33600 5.65800 24.71300
C  0.43800 10.50100 24.69000
N  0.76700 7.92800 29.37200
C  0.93200 8.99600 30.14800
C  0.91700 8.72200 31.64900
C  0.90500 7.11300 31.65200
C  0.56200 6.80400 30.14500
C  2.19300 6.39600 32.10500
C  -0.38800 9.21300 32.22400
C  -0.76700 8.97800 33.69300
H  0.33500 8.42800 34.61500
N  -0.13800 5.91800 27.22800
C  0.04300 5.09900 28.37900
C  -0.17300 3.80700 27.94700
C  -0.45600 3.80200 26.53500
C  -0.25700 5.18200 26.07300
C  0.02300 2.65200 28.86600
C  -0.66800 2.59700 25.61500
O  -0.86800 2.68000 24.39300
C  -0.77300 1.18800 26.14200
N  0.09200 8.07800 24.95900
C  -0.13900 6.93000 24.19500
C  -0.18300 7.32200 22.70400
C  -0.25700 8.88900 22.78700
C  0.07700 9.22700 24.22400
C  1.03300 6.88200 21.88100
C  -1.54300 9.64600 22.19800
C  -1.19200 10.65400 21.10200
N  0.51700 9.98800 27.11700
C  0.68100 10.91900 26.03700
C  1.05100 12.16300 26.57500
C  1.13600 11.90500 28.00100
C  0.80500 10.55400 28.26500
C  1.24800 13.44900 25.79900
C  1.54800 12.57600 29.29300
O  1.97500 13.76500 29.54600
C  1.40700 11.48200 30.39200
C  2.65700 11.29400 31.15900
O  3.64600 10.58000 30.87700
O  2.62800 12.09700 32.29900
C  3.46900 11.78900 33.46700
H  0.30600 4.87100 30.55800
H  -0.58400 4.96500 23.90600
H  0.61000 11.29200 23.95700
H  1.78300 9.02600 32.23800
H  0.05500 6.83200 32.27400
H  2.66100 6.02600 31.19200
H  1.97000 5.54200 32.74500
H  2.92100 6.98800 32.66000
H  -1.16800 8.68100 31.68000
H  -0.36500 10.28600 32.02900
H  -1.64900 8.33700 33.71400
H  -1.11500 9.89300 34.17300
H  0.91800 2.04200 28.75200
H  -0.80400 1.97100 28.66600
H  -0.03200 2.91400 29.92200
H  -0.99700 0.43400 25.38700
H  -1.61900 1.05200 26.81600
H  0.24000 0.90900 26.43400
H  -1.10100 6.96600 22.23600
H  0.61900 9.30300 22.28700
H  1.85600 6.68400 22.56700
H  1.13500 7.63400 21.09900
H  0.97700 5.90800 21.39400
H  -1.99200 10.16800 23.04400
H  -2.31700 8.99200 21.79700
H  -1.13400 11.59600 21.64700
H  -2.00600 10.72100 20.38100
H  -0.35900 10.35400 20.46700
H  0.32100 13.63800 25.25800
H  2.11000 13.27000 25.15500
H  1.40800 14.24500 26.52600
H  0.61300 11.83000 31.05300
H  2.84400 11.85300 34.35800
H  4.16700 12.62400 33.51500
H  4.01600 10.84700 33.41800
Mg 42.30500 41.74000 26.55000
C  41.31600 44.26000 28.78900
C  43.41600 39.93200 29.06000
C  43.51400 39.59500 24.31600
C  41.48200 44.08200 23.92800
N  42.28600 42.12100 28.62600
C  41.81100 43.14800 29.38200
C  41.89500 42.86900 30.87700
C  42.39600 41.38400 30.93600
C  42.70800 41.06900 29.44700
C  43.54400 41.08200 31.93600
C  40.56500 43.17400 31.69400
C  40.06800 42.31800 32.84900
H  39.41500 43.15800 33.98500
N  43.35200 39.98800 26.64100
C  43.60600 39.31700 27.78300
C  44.16500 37.98800 27.54200
C  44.17800 37.86700 26.07300
C  43.69200 39.16300 25.61600
C  44.52600 36.95700 28.66300
C  44.60900 36.74300 25.18600
O  44.50000 36.70900 23.93600
C  45.14500 35.57200 25.84100
N  42.69500 41.96700 24.44900
C  43.07200 40.78900 23.75100
C  42.75800 41.03200 22.24600
C  41.98300 42.35600 22.19600
C  42.09400 42.86600 23.63700
C  44.05200 40.98900 21.41400
C  40.53500 42.23700 21.78000
C  39.58900 41.45200 22.67700
N  41.56200 43.78400 26.35700
C  41.31500 44.57300 25.25600
C  40.77600 45.81100 25.70500
C  40.76300 45.77200 27.09000
C  41.22600 44.50400 27.44600
C  40.47900 46.95300 24.83500
C  40.53400 46.56100 28.23900
O  40.19100 47.73800 28.36300
C  40.87700 45.55700 29.47900
C  41.98200 46.13300 30.24100
O  43.15400 46.18000 29.91500
O  41.46000 46.76200 31.39400
C  42.45500 47.23700 32.35800
H  43.66700 39.31000 29.92100
H  43.81100 38.81700 23.60900
H  40.90300 44.71100 23.24900
H  42.69600 43.53600 31.19400
H  41.63600 40.66100 31.23300
H  43.49000 41.66100 32.85800
H  44.44900 41.24900 31.35200
H  43.40300 40.01900 32.13300
H  39.74100 43.20300 30.98100
H  40.66600 44.20200 32.04200
H  40.87300 41.74500 33.31000
H  39.29100 41.66000 32.46100
H  45.54500 36.61400 28.48500
H  43.84200 36.10900 28.61800
H  44.73700 37.39600 29.63900
H  44.36700 35.19200 26.50300
H  46.05300 35.83600 26.38300
H  45.36600 34.71900 25.19900
H  42.09700 40.21000 21.97000
H  42.37400 43.12600 21.53100
H  44.88200 41.22700 22.07900
H  44.05600 41.76000 20.64300
H  44.33900 40.07600 20.89100
H  40.67800 41.80400 20.79000
H  40.22000 43.27500 21.66500
H  39.03700 42.11500 23.34400
H  40.03500 40.68000 23.30400
H  38.86900 41.06100 21.95900
H  39.65800 46.62100 24.19900
H  41.43700 47.27900 24.43200
H  40.04500 47.81400 25.34400
H  40.05500 45.42500 30.18200
H  42.00500 48.04200 32.93800
H  43.40400 47.69900 32.08500
H  42.50300 46.36400 33.00900

