158

Mg 47.78700 15.58100 28.77800
C  45.77000 15.52300 31.65300
C  50.03700 17.44100 30.49600
C  49.54300 15.93700 25.93900
C  45.18900 14.02400 27.04600
N  47.78200 16.52500 30.82300
C  46.93500 16.20800 31.87700
C  47.58300 16.70200 33.23600
C  48.83000 17.50900 32.82200
C  48.91800 17.14200 31.27800
C  48.82500 19.09400 33.18900
C  47.94100 15.52100 34.30600
C  48.06700 15.84600 35.79000
H  47.73000 17.23800 36.23100
N  49.57900 16.50500 28.25900
C  50.35300 17.22900 29.12200
C  51.61100 17.49900 28.48500
C  51.59000 17.05300 27.17300
C  50.19800 16.46400 27.05500
C  52.64000 18.25700 29.29500
C  52.69500 17.00700 26.03900
O  52.57500 16.34300 25.00000
C  53.95700 17.71000 26.30700
N  47.50400 15.01600 26.77200
C  48.28700 15.35200 25.74600
C  47.74300 14.96400 24.33900
C  46.35900 14.32200 24.72800
C  46.32600 14.42600 26.29400
C  47.62700 16.22700 23.35300
C  46.13400 12.80200 24.37800
C  45.31300 12.50300 23.17500
N  45.85800 14.88000 29.20100
C  44.98600 14.23700 28.42100
C  43.79700 13.96200 29.18300
C  44.04600 14.33400 30.49800
C  45.31500 14.96400 30.44200
C  42.62500 13.22600 28.60300
C  43.62200 14.31700 31.94000
O  42.58900 13.81500 32.44100
C  44.71400 15.12400 32.73400
C  44.00500 16.23600 33.39800
O  43.71700 17.26700 32.87200
O  43.61200 15.83000 34.61900
C  42.85400 16.84700 35.34000
H  50.72600 18.11900 31.00400
H  50.07300 16.21900 25.02700
H  44.33300 13.65500 26.47700
H  46.87300 17.42300 33.64100
H  49.71500 17.08300 33.29500
H  49.62500 19.51100 33.80100
H  47.94200 19.33500 33.78000
H  48.86200 19.55800 32.20400
H  48.82000 15.02100 33.90000
H  47.19300 14.74600 34.13800
H  49.06200 15.44000 35.97600
H  47.26000 15.25400 36.22200
H  53.00500 17.66200 30.13300
H  52.14600 19.16600 29.63800
H  53.54600 18.51200 28.74500
H  53.88200 18.79600 26.36800
H  54.62200 17.47400 25.47600
H  54.41300 17.26300 27.19000
H  48.46100 14.27500 23.89500
H  45.53900 14.84900 24.24000
H  48.50500 16.37400 22.72300
H  47.53600 17.19200 23.85000
H  46.66300 16.18800 22.84600
H  45.81200 12.21200 25.23600
H  47.11400 12.41100 24.10400
H  45.76500 11.89700 22.39100
H  44.95800 13.43400 22.73200
H  44.44600 11.96900 23.56500
H  42.47700 13.20100 27.52400
H  41.66300 13.53800 29.01100
H  42.81400 12.19300 28.89400
H  45.10700 14.35000 33.39300
H  42.07400 17.26500 34.70300
H  43.57100 17.63300 35.57700
H  42.38100 16.29200 36.15100
Mg 29.80900 57.60800 40.66400
C  26.92500 55.89600 39.63200
C  31.75400 55.07700 39.19700
C  32.52900 59.57200 41.02000
C  27.78000 60.26400 41.70500
N  29.33800 55.77000 39.48100
C  28.12400 55.26600 39.22800
C  28.27400 53.94300 38.49200
C  29.77100 53.57500 38.65600
C  30.34600 54.84000 39.20700
C  29.95200 52.35700 39.67800
C  27.70500 53.91500 37.03800
C  27.74800 55.19000 36.23600
H  26.73400 55.34500 35.05300
N  31.86600 57.33200 40.20900
C  32.43300 56.23600 39.58600
C  33.87600 56.52500 39.43200
C  34.10900 57.81900 39.93800
C  32.83300 58.28300 40.51200
C  34.82900 55.57600 38.66700
C  35.52500 58.43400 40.07700
O  36.47100 57.78500 39.63400
C  35.88100 59.72700 40.80800
N  30.03700 59.64800 41.19900
C  31.28000 60.15300 41.29400
C  31.20900 61.66400 41.64200
C  29.67200 61.91000 42.02100
C  29.11000 60.54100 41.58600
C  32.17700 62.21300 42.66700
C  28.87500 63.12600 41.47300
C  28.31500 63.99300 42.51700
N  27.81400 58.00700 40.90800
C  27.12400 59.06600 41.38200
C  25.68600 58.85100 41.35900
C  25.55500 57.60000 40.78100
C  26.90300 57.08200 40.50800
C  24.55300 59.82200 41.68200
C  24.65000 56.68300 40.17200
O  23.44100 56.70200 40.00300
C  25.47000 55.51600 39.56300
C  25.17100 54.24600 40.31400
O  25.46700 54.01500 41.46700
O  24.34600 53.39200 39.58900
C  24.06400 52.06200 40.26700
H  32.40500 54.23200 38.96400
H  33.33000 60.29200 40.84300
H  27.19900 61.15000 41.97300
H  27.66600 53.15600 38.93900
H  30.24900 53.20800 37.74800
H  30.26100 51.47300 39.11900
H  29.04900 52.07200 40.21800
H  30.69800 52.64800 40.41700
H  26.74400 53.40800 36.95200
H  28.29900 53.18800 36.48500
H  28.73800 55.19900 35.78100
H  27.58300 56.10200 36.81000
H  34.26900 54.76400 38.20300
H  35.51800 55.10700 39.36900
H  35.44800 56.06900 37.91700
H  35.66400 60.52800 40.10000
H  36.95800 59.82400 40.94400
H  35.31700 59.78000 41.73900
H  31.45200 62.15400 40.69900
H  29.69600 61.96200 43.10900
H  31.66500 62.84000 43.39800
H  33.00100 62.71500 42.16000
H  32.48700 61.31400 43.20000
H  27.99900 62.83100 40.89500
H  29.38800 63.78500 40.77300
H  27.24000 63.87500 42.65300
H  28.65000 65.02300 42.39000
H  28.75200 63.86800 43.50800
H  24.69500 60.44000 42.56900
H  23.58100 59.34000 41.58200
H  24.69700 60.47300 40.81900
H  25.25000 55.38400 38.50400
H  23.70800 52.21800 41.28500
H  24.96400 51.45800 40.38300
H  23.30300 51.50200 39.72400

