158

Mg 50.42000 46.03800 41.47700
C  47.41500 47.44800 40.52200
C  49.43600 43.04400 40.27300
C  53.62300 44.81000 42.00400
C  51.65400 49.20800 42.08500
N  48.69900 45.38200 40.31900
C  47.47300 46.06500 40.23400
C  46.27000 45.08500 39.87500
C  46.98000 43.72900 39.99700
C  48.49100 44.05600 40.25300
C  46.42800 42.65000 41.01100
C  45.70200 45.44700 38.50800
C  44.18700 45.01700 38.30400
H  44.00500 43.98900 37.14300
N  51.36100 44.15200 41.15300
C  50.72800 43.05700 40.72100
C  51.70900 42.00200 40.79100
C  52.98700 42.55700 41.03000
C  52.67400 43.89900 41.43100
C  51.33900 40.57700 40.19400
C  54.32900 41.85200 40.89400
O  54.38900 40.66100 40.61900
C  55.64300 42.56800 41.11100
N  52.40000 46.92700 42.04200
C  53.46400 46.14300 42.25500
C  54.66000 47.02800 42.61900
C  53.97800 48.39700 42.79800
C  52.56700 48.19400 42.25200
C  55.60800 46.53100 43.75400
C  54.80500 49.58800 42.21800
C  55.58300 50.53800 43.20400
N  49.76000 47.88700 41.27900
C  50.31200 49.07300 41.63700
C  49.38800 50.18000 41.56200
C  48.16700 49.58400 41.13100
C  48.47900 48.20900 41.02700
C  49.57100 51.59300 42.11700
C  46.76100 49.78000 40.89900
O  46.02500 50.73500 41.09300
C  46.28700 48.40800 40.38300
C  45.03600 47.89800 41.18600
O  44.96700 47.55600 42.35000
O  43.95900 48.00600 40.36500
C  42.72300 47.36100 40.92700
H  49.01700 42.04800 40.11500
H  54.62600 44.44700 42.23600
H  51.90900 50.22400 42.39200
H  45.50800 45.20200 40.64600
H  47.13600 43.21800 39.04700
H  46.34600 41.63500 40.62100
H  45.49600 43.00100 41.45300
H  47.20300 42.46800 41.75600
H  46.30600 44.99000 37.72400
H  45.91100 46.50100 38.32300
H  43.64700 45.93500 38.07200
H  43.84200 44.53100 39.21600
H  51.36700 40.70500 39.11200
H  50.33600 40.30100 40.52200
H  51.99400 39.76200 40.50400
H  56.04100 42.37300 42.10700
H  55.75800 43.63600 40.92700
H  56.38500 42.01700 40.53300
H  55.28200 47.01400 41.72400
H  53.90100 48.53100 43.87700
H  55.64500 47.13100 44.66300
H  56.63300 46.65500 43.40500
H  55.42700 45.52500 44.13400
H  54.13000 50.24600 41.67200
H  55.57300 49.21800 41.53900
H  55.44900 51.58700 42.94000
H  56.61700 50.20800 43.29500
H  55.12100 50.33700 44.17100
H  49.63700 52.25300 41.25100
H  50.49900 51.74400 42.66700
H  48.73200 51.97000 42.70300
H  46.02600 48.44800 39.32500
H  43.06600 46.40100 41.31400
H  42.11100 47.16400 40.04800
H  42.15700 47.93200 41.66300
Mg -10.05900 39.81200 40.29800
C  -9.27800 36.55400 39.40500
C  -7.02100 40.95800 39.24600
C  -11.27600 43.03600 40.36900
C  -13.48100 38.75200 40.62000
N  -8.36500 38.88200 39.24100
C  -8.24800 37.50300 39.13000
C  -6.74000 37.12800 38.97200
C  -6.02300 38.49200 39.11200
C  -7.13300 39.53500 39.23100
C  -4.90500 38.58800 40.26700
C  -6.50500 36.33500 37.65400
C  -6.98200 37.05200 36.39900
H  -7.69900 36.25500 35.32400
N  -9.26900 41.81700 39.83300
C  -7.98600 41.98300 39.34500
C  -7.76200 43.43600 39.11000
C  -9.06200 44.07700 39.39900
C  -9.97600 42.97100 39.89700
C  -6.41800 44.04300 38.59400
C  -9.44700 45.50000 39.30300
O  -8.56600 46.34700 39.06400
C  -10.87600 46.05300 39.57900
N  -12.10400 40.72500 40.58500
C  -12.24300 42.04600 40.58500
C  -13.75600 42.41900 40.85100
C  -14.51900 41.05500 41.00000
C  -13.27500 40.13800 40.77800
C  -13.93100 43.46100 42.00100
C  -15.61700 40.78600 39.99400
C  -16.99400 40.68100 40.48700
N  -11.17200 38.00800 40.22800
C  -12.51000 37.77200 40.31400
C  -12.71600 36.41700 40.09100
C  -11.46300 35.87200 39.84600
C  -10.54400 36.91700 39.87100
C  -14.01700 35.72000 40.11500
C  -10.78400 34.65600 39.53100
O  -11.23300 33.47700 39.36400
C  -9.24600 35.00200 39.43700
C  -8.60000 34.38900 40.59700
O  -9.06800 34.23800 41.72600
O  -7.29700 34.07700 40.34800
C  -6.53200 33.56000 41.50000
H  -6.09700 41.49900 39.46200
H  -11.55600 44.07900 40.52800
H  -14.47100 38.30400 40.51000
H  -6.31600 36.56600 39.80400
H  -5.41800 38.75000 38.24300
H  -5.22600 39.32300 41.00600
H  -3.99900 38.92400 39.76400
H  -4.68100 37.61200 40.69700
H  -6.87800 35.31800 37.77400
H  -5.41500 36.29700 37.64000
H  -6.07900 37.45500 35.94000
H  -7.59600 37.91100 36.67000
H  -6.53200 44.99400 38.07300
H  -5.89000 43.39400 37.89500
H  -5.70800 44.17500 39.41000
H  -11.06600 46.15300 40.64800
H  -11.68300 45.53600 39.06000
H  -10.90400 47.04800 39.13600
H  -14.18900 42.88700 39.96700
H  -14.91500 41.00200 42.01500
H  -14.53700 43.12400 42.84300
H  -14.37700 44.32700 41.51300
H  -12.96400 43.76900 42.39700
H  -15.36900 39.90700 39.39900
H  -15.48700 41.57100 39.25000
H  -16.93800 40.90300 41.55200
H  -17.50800 39.75000 40.24600
H  -17.59500 41.50100 40.09300
H  -14.33300 35.81500 41.15400
H  -13.99800 34.70300 39.72300
H  -14.64600 36.38900 39.52700
H  -9.02700 34.59900 38.44800
H  -5.58500 33.12000 41.18800
H  -7.15400 32.75200 41.88500
H  -6.30200 34.32000 42.24800

