158

Mg 24.35700 -5.77800 45.52500
C  26.55700 -3.36700 44.27400
C  21.89300 -4.54300 43.44200
C  22.64000 -8.75800 45.97800
C  27.04600 -7.22200 47.22900
N  24.30900 -4.13700 44.06600
C  25.29600 -3.21200 43.72500
C  24.80700 -2.23700 42.66900
C  23.27500 -2.54600 42.68000
C  23.14500 -3.87300 43.40600
C  22.29500 -1.49200 43.23900
C  25.48000 -2.51700 41.29600
C  25.55800 -1.36200 40.34400
H  26.28300 -1.56100 38.97800
N  22.47400 -6.49100 44.94000
C  21.58700 -5.76600 44.18500
C  20.35000 -6.42800 44.19300
C  20.48100 -7.69700 44.84800
C  21.94000 -7.73100 45.31700
C  19.07000 -5.95100 43.42400
C  19.29000 -8.64500 45.06300
O  18.14100 -8.38400 44.71300
C  19.49600 -9.93000 45.86700
N  24.81500 -7.76100 46.29800
C  23.96500 -8.81100 46.39800
C  24.58300 -10.02800 47.07400
C  25.97800 -9.47500 47.52900
C  25.91900 -8.05100 47.03600
C  23.82700 -10.64400 48.27500
C  27.18000 -10.26900 46.94500
C  27.50600 -11.54700 47.69500
N  26.31600 -5.38900 45.90600
C  27.27400 -5.96700 46.67900
C  28.48300 -5.14400 46.71600
C  28.21900 -4.09600 45.78600
C  26.90500 -4.30700 45.29400
C  29.77500 -5.38500 47.49800
C  28.88000 -2.98700 45.13900
O  29.99100 -2.49500 45.14900
C  27.73400 -2.48400 44.14400
C  27.60600 -1.02100 44.28800
O  28.03700 -0.23600 43.49900
O  26.91700 -0.72900 45.48700
C  26.39500 0.62700 45.68500
H  20.95000 -4.14700 43.05800
H  21.99300 -9.63600 46.04000
H  27.71800 -7.60700 47.99900
H  25.00200 -1.19200 42.91000
H  22.91300 -2.57700 41.65200
H  21.49900 -1.93900 43.83400
H  21.82000 -0.91800 42.44300
H  22.88900 -0.89800 43.93300
H  24.99000 -3.34600 40.78500
H  26.49600 -2.86000 41.49400
H  25.82100 -0.43500 40.85300
H  24.50000 -1.16900 40.17000
H  19.28400 -5.18500 42.67900
H  18.49500 -5.32100 44.10300
H  18.62100 -6.71500 42.78900
H  19.90100 -10.69100 45.20000
H  18.56500 -10.28800 46.30600
H  20.08600 -9.61600 46.72800
H  24.73900 -10.86200 46.39000
H  26.01600 -9.39700 48.61600
H  24.46400 -10.70500 49.15700
H  23.49500 -11.67200 48.13300
H  22.91000 -10.09500 48.48900
H  28.07800 -9.65700 46.85200
H  26.88900 -10.68800 45.98200
H  28.55000 -11.57200 48.00700
H  27.30100 -12.30500 46.94000
H  26.89800 -11.82500 48.55600
H  30.19700 -4.38200 47.56700
H  30.33300 -6.15200 46.96000
H  29.55400 -5.70400 48.51600
H  28.27900 -2.60200 43.20800
H  26.36700 0.82200 46.75700
H  25.35900 0.61900 45.34300
H  26.96300 1.42700 45.21000
Mg 52.48500 23.54500 43.89100
C  49.94500 25.83400 43.41900
C  50.51900 21.16700 42.40000
C  55.15900 21.54500 43.56700
C  54.62800 26.22700 45.00800
N  50.49400 23.59900 42.94400
C  49.60300 24.61800 42.90500
C  48.43000 24.28500 41.99400
C  48.43900 22.70600 42.02500
C  49.92000 22.45100 42.56500
C  47.34500 22.05900 42.87000
C  48.55700 25.10200 40.60100
C  48.73700 24.32400 39.33100
H  49.12300 25.11000 38.03800
N  52.77600 21.64200 43.15300
C  51.80600 20.79300 42.67700
C  52.38200 19.49800 42.28400
C  53.74300 19.56200 42.70100
C  54.00200 20.95600 43.10100
C  51.62000 18.36800 41.74900
C  54.78600 18.49100 42.58500
O  54.45400 17.39300 42.09800
C  56.17400 18.53100 43.03900
N  54.54600 23.91200 44.11900
C  55.39600 22.84200 43.99400
C  56.79300 23.28200 44.52800
C  56.69700 24.78700 44.77000
C  55.24400 25.02000 44.56500
C  57.16400 22.48500 45.83300
C  57.63800 25.62000 43.73500
C  58.64500 26.58300 44.33900
N  52.33200 25.52600 44.29600
C  53.20200 26.48800 44.87800
C  52.50700 27.72900 45.26200
C  51.23300 27.50000 44.63100
C  51.19900 26.12900 44.10500
C  53.07800 28.96300 46.00700
C  49.92300 28.11800 44.31900
O  49.58600 29.26100 44.55900
C  49.11000 27.06000 43.54100
C  48.77100 27.69400 42.22200
O  49.67800 28.06400 41.42400
O  47.41200 27.78200 41.98700
C  46.96400 28.14000 40.61600
H  50.02100 20.46200 41.73000
H  56.04700 20.91600 43.65000
H  55.22900 27.00900 45.47600
H  47.49700 24.72500 42.34400
H  48.32400 22.28100 41.02800
H  47.61700 21.86000 43.90700
H  46.87200 21.20100 42.39100
H  46.53900 22.79200 42.90400
H  49.32200 25.87800 40.56200
H  47.54600 25.50700 40.54300
H  47.76300 23.90700 39.07200
H  49.54500 23.62100 39.53400
H  51.39000 18.60000 40.71000
H  50.69400 18.36800 42.32500
H  52.05300 17.37800 41.89300
H  56.16200 18.84700 44.08200
H  56.62700 19.21000 42.31600
H  56.66900 17.56000 43.04300
H  57.54400 23.03200 43.77800
H  56.99800 25.07400 45.77700
H  56.33600 21.82000 46.07800
H  57.32000 23.16800 46.66800
H  58.12900 22.02600 45.61700
H  56.94500 26.19000 43.11600
H  58.13400 24.97500 43.00900
H  58.77800 26.53000 45.41900
H  58.26700 27.58800 44.15200
H  59.61700 26.47500 43.85600
H  54.15900 28.98100 45.87000
H  52.77700 28.87100 47.05000
H  52.62000 29.92700 45.78500
H  48.20000 26.88200 44.11500
H  46.47400 29.11200 40.67400
H  46.18400 27.45400 40.28400
H  47.63100 28.13000 39.75400

