158

Mg 2.13000 -3.43800 45.32700
C  4.72900 -1.61100 44.12800
C  0.06200 -1.70400 43.09100
C  -0.33800 -5.69900 46.00700
C  4.42600 -5.59200 46.92400
N  2.44900 -1.97100 43.57600
C  3.58200 -1.27500 43.42400
C  3.38700 -0.02500 42.46400
C  1.86500 -0.06900 42.19300
C  1.42500 -1.35800 42.95000
C  1.08200 1.21000 42.63800
C  4.28300 -0.14500 41.17500
C  5.49400 0.78200 40.80700
H  5.50400 1.33700 39.37100
N  0.11600 -3.62700 44.77200
C  -0.53800 -2.73700 43.90400
C  -1.94900 -3.04400 43.92700
C  -2.07800 -4.23900 44.73500
C  -0.75500 -4.63800 45.16900
C  -3.01000 -2.27000 43.15600
C  -3.40200 -5.06300 44.95200
O  -4.42700 -4.77100 44.36400
C  -3.42300 -6.28300 45.92300
N  2.08000 -5.45800 46.28000
C  0.94600 -6.09600 46.51000
C  1.18200 -7.49100 47.20500
C  2.65100 -7.41500 47.45000
C  3.06900 -6.10000 46.86700
C  0.39800 -7.86200 48.50400
C  3.56000 -8.61900 47.01700
C  3.62900 -8.96300 45.56100
N  4.18200 -3.60200 45.57100
C  4.95900 -4.50000 46.29900
C  6.22700 -3.95700 46.36600
C  6.26000 -2.85100 45.47300
C  4.93000 -2.69700 45.01200
C  7.53500 -4.51500 46.98600
C  7.12700 -1.86800 44.90700
O  8.28000 -1.62800 44.99600
C  6.11900 -0.93400 44.03700
C  6.10200 0.40700 44.65000
O  5.50400 0.68200 45.65900
O  6.67300 1.37600 43.90600
C  6.43000 2.76500 44.18700
H  -0.62600 -1.07500 42.52100
H  -1.09200 -6.34200 46.46700
H  5.16900 -6.22300 47.41500
H  3.71400 0.88300 42.97000
H  1.62700 -0.20100 41.13700
H  0.72700 1.07200 43.65900
H  0.30300 1.50700 41.93500
H  1.81100 2.02000 42.60800
H  3.57900 -0.05300 40.34800
H  4.64100 -1.17400 41.14600
H  6.39500 0.20100 41.00300
H  5.52600 1.65200 41.46300
H  -2.69500 -1.49000 42.46300
H  -3.66900 -1.85200 43.91700
H  -3.64400 -2.94800 42.58500
H  -2.82200 -7.13000 45.59100
H  -4.44300 -6.64200 46.05800
H  -3.05700 -6.00500 46.91200
H  0.93100 -8.31600 46.53900
H  2.73500 -7.14200 48.50200
H  -0.25800 -7.08000 48.88700
H  1.15600 -8.14900 49.23300
H  -0.38700 -8.61700 48.47000
H  3.14700 -9.58000 47.32300
H  4.61800 -8.50400 47.25200
H  4.70000 -9.03900 45.37400
H  3.06600 -8.23800 44.97400
H  3.11300 -9.85600 45.20900
H  8.09500 -3.72700 47.49100
H  8.02500 -5.13600 46.23600
H  7.26100 -5.25400 47.73900
H  6.46400 -0.86900 43.00500
H  6.96100 3.38500 43.46500
H  6.82400 3.05900 45.16000
H  5.35600 2.90000 44.05700
Mg 17.51100 50.69800 26.57500
C  19.65600 49.42300 29.07600
C  15.23300 51.52900 28.93700
C  15.81800 51.98000 24.09500
C  19.99700 49.59100 24.19800
N  17.35600 50.20500 28.71000
C  18.35700 49.87500 29.56300
C  18.04600 50.16700 31.07400
C  16.53800 50.55500 30.90800
C  16.39500 50.85400 29.40200
C  15.50600 49.54400 31.50500
C  18.87200 51.39300 31.65600
C  19.04600 51.49700 33.18600
H  18.11800 50.77200 34.10500
N  15.70800 51.53700 26.53800
C  14.95200 51.85600 27.59400
C  13.88600 52.64000 27.09600
C  14.09700 52.93800 25.76800
C  15.31000 52.13700 25.41800
C  12.79000 53.08800 27.96600
C  13.35800 53.85300 24.83100
O  13.72300 54.02300 23.67700
C  12.14200 54.53900 25.29800
N  17.92400 50.72400 24.39200
C  16.93400 51.27100 23.61100
C  17.28000 51.08500 22.14300
C  18.59700 50.27800 22.14200
C  18.84900 50.16600 23.67700
C  16.14500 50.50100 21.25700
C  19.82900 50.92600 21.44900
C  20.51600 50.15800 20.26200
N  19.35200 49.60100 26.59900
C  20.28500 49.31500 25.58500
C  21.55800 48.87400 26.13200
C  21.31600 48.88200 27.53400
C  20.01400 49.34600 27.75600
C  22.74000 48.62700 25.34800
C  21.90700 48.46100 28.80500
O  23.00600 47.93100 28.99200
C  20.87500 48.88400 29.94700
C  20.55300 47.62100 30.60100
O  19.85500 46.72100 30.09500
O  21.02300 47.62100 31.89800
C  20.23600 46.79200 32.80200
H  14.59600 51.90100 29.74300
H  15.21200 52.34100 23.26100
H  20.69000 49.29300 23.40800
H  18.20600 49.29100 31.70300
H  16.31200 51.47600 31.44500
H  15.97000 48.82000 32.17400
H  14.97200 49.12200 30.65300
H  14.77700 50.08200 32.11100
H  18.37500 52.30800 31.33700
H  19.88600 51.31700 31.26400
H  19.06400 52.50900 33.58900
H  19.98600 51.03500 33.49000
H  11.82400 52.72200 27.61900
H  12.99700 54.15000 28.09300
H  12.84200 52.61100 28.94500
H  11.51700 53.75900 25.73200
H  11.63500 55.01600 24.45900
H  12.28700 55.29500 26.07000
H  17.45000 52.09400 21.76900
H  18.47700 49.32200 21.63200
H  16.00200 51.18500 20.42000
H  15.17100 50.54400 21.74400
H  16.44200 49.52800 20.86500
H  20.58500 51.20200 22.18500
H  19.52200 51.89200 21.04800
H  20.83800 49.14400 20.49900
H  21.37800 50.72500 19.91100
H  19.85900 50.24200 19.39600
H  22.69000 49.35400 24.53700
H  22.62400 47.66300 24.85200
H  23.66100 48.66900 25.93000
H  21.33500 49.61200 30.61500
H  20.72400 45.84900 33.04800
H  19.28300 46.47500 32.37800
H  20.11900 47.43200 33.67600

