158

Mg -2.11900 17.57100 26.62100
C  -2.31900 15.12400 29.19700
C  -2.59300 19.92300 29.01200
C  -2.34200 19.85700 23.99800
C  -2.47100 15.03600 24.30500
N  -2.22500 17.53600 28.94600
C  -2.27900 16.47500 29.77400
C  -2.39500 16.85300 31.26500
C  -2.80400 18.34500 31.08300
C  -2.53200 18.68200 29.57500
C  -4.24200 18.62200 31.53300
C  -1.17200 16.54400 32.17900
C  -1.01300 17.30500 33.47000
H  -0.64400 16.57500 34.80400
N  -2.31900 19.58100 26.61700
C  -2.47800 20.41200 27.68000
C  -2.60500 21.75800 27.26700
C  -2.70100 21.66200 25.82800
C  -2.47100 20.29600 25.44400
C  -2.67600 22.99100 28.20700
C  -2.92700 22.82500 24.88400
O  -2.87900 22.71400 23.63100
C  -3.06100 24.22500 25.35900
N  -2.29200 17.41500 24.52900
C  -2.22300 18.50200 23.64500
C  -2.21300 18.00700 22.19700
C  -2.52400 16.46900 22.27200
C  -2.33800 16.27200 23.77000
C  -3.13900 18.81300 21.18600
C  -1.50900 15.60800 21.42200
C  -2.16100 14.59200 20.45300
N  -2.19800 15.54900 26.69100
C  -2.37300 14.67100 25.66500
C  -2.41300 13.31600 26.15000
C  -2.46000 13.50500 27.57300
C  -2.36000 14.83100 27.83400
C  -2.45100 12.12900 25.29400
C  -2.59600 12.74800 28.79400
O  -2.68300 11.55100 28.96600
C  -2.50300 13.78300 29.93300
C  -1.33300 13.45000 30.76800
O  -0.22500 13.84700 30.52200
O  -1.64600 12.60300 31.85300
C  -0.50100 12.16800 32.67300
H  -2.81700 20.63200 29.81200
H  -2.57100 20.51200 23.15500
H  -2.60700 14.33300 23.48000
H  -3.19500 16.23000 31.66700
H  -2.22000 19.03500 31.69200
H  -4.60300 17.95200 32.31300
H  -5.00300 18.52900 30.75800
H  -4.34600 19.64300 31.90100
H  -0.28600 16.56800 31.54400
H  -1.22800 15.49600 32.47400
H  -1.92900 17.87900 33.60500
H  -0.14200 17.93600 33.29000
H  -3.66800 23.43300 28.10500
H  -1.95000 23.79000 28.05700
H  -2.53600 22.50300 29.17100
H  -4.01400 24.18300 25.88600
H  -2.98900 24.97100 24.56700
H  -2.18600 24.38000 25.99000
H  -1.18100 18.16200 21.88000
H  -3.54800 16.25900 21.96200
H  -3.79400 19.49300 21.73100
H  -3.65500 18.07100 20.57800
H  -2.47500 19.48900 20.64700
H  -0.77500 15.25000 22.14500
H  -1.09900 16.30300 20.69000
H  -2.02000 15.04300 19.47100
H  -3.23000 14.55500 20.66100
H  -1.62300 13.66300 20.64700
H  -1.69500 12.18500 24.51100
H  -3.46500 11.98000 24.92500
H  -2.24000 11.24800 25.90000
H  -3.41000 13.77300 30.53700
H  -0.90400 11.68600 33.56400
H  0.16800 13.02100 32.78500
H  0.06600 11.41500 32.12600
Mg -11.56400 38.52300 42.37500
C  -9.50600 35.81200 41.86900
C  -9.08100 40.50300 40.95900
C  -13.70200 41.17700 42.22100
C  -14.08500 36.40100 43.33000
N  -9.66700 38.16100 41.18700
C  -9.00900 36.95000 41.23000
C  -7.68600 37.01000 40.48200
C  -7.40700 38.52400 40.53100
C  -8.80600 39.09700 40.88300
C  -6.23300 38.98600 41.63000
C  -7.92000 36.35000 39.07900
C  -6.81400 35.64200 38.23800
H  -6.32600 36.36500 36.96300
N  -11.38000 40.60900 41.87500
C  -10.23100 41.19200 41.36900
C  -10.52900 42.60700 41.06600
C  -11.90600 42.86300 41.35600
C  -12.35800 41.55800 41.83100
C  -9.49600 43.57800 40.29400
C  -12.72800 44.07300 41.19600
O  -12.21400 45.15500 40.72900
C  -14.27200 44.16700 41.29300
N  -13.62700 38.74800 42.57300
C  -14.25100 39.94000 42.61300
C  -15.56000 39.81900 43.34400
C  -15.78000 38.25800 43.45900
C  -14.42000 37.73300 43.02000
C  -15.49200 40.64400 44.68500
C  -17.02900 37.64200 42.65200
C  -17.79700 36.66900 43.39900
N  -11.84100 36.51500 42.66600
C  -12.85700 35.80800 43.11200
C  -12.41900 34.51800 43.46400
C  -11.06300 34.38000 42.98600
C  -10.81900 35.69200 42.41100
C  -13.30900 33.39600 44.09200
C  -9.93100 33.58500 42.82900
O  -9.88500 32.41900 43.09900
C  -8.85200 34.43000 41.98500
C  -7.62900 34.44500 42.92300
O  -7.61100 34.62400 44.11700
O  -6.55000 34.10400 42.19600
C  -5.32600 33.89800 43.00000
H  -8.37600 41.22100 40.53500
H  -14.39700 41.99800 42.40900
H  -14.80100 35.75300 43.84000
H  -6.85700 36.49100 40.96200
H  -7.01600 38.88200 39.57900
H  -5.26600 39.14000 41.15200
H  -6.12400 38.23600 42.41300
H  -6.42400 39.94800 42.10500
H  -8.22500 37.22500 38.50600
H  -8.84500 35.77400 39.10500
H  -7.22400 34.65800 38.01100
H  -5.94900 35.62000 38.90100
H  -8.64900 43.01300 39.90300
H  -9.33600 44.43600 40.94800
H  -10.00300 43.98500 39.42000
H  -14.63100 43.35200 40.66500
H  -14.70600 45.14000 41.06700
H  -14.53000 44.06100 42.34700
H  -16.30300 40.18500 42.63500
H  -15.94800 38.07400 44.52000
H  -15.93400 40.14700 45.54900
H  -15.99000 41.61300 44.65100
H  -14.43900 40.85200 44.87300
H  -16.61100 37.16800 41.76400
H  -17.74600 38.39100 42.31600
H  -18.84500 36.93900 43.27400
H  -17.70200 36.75700 44.48100
H  -17.69000 35.64700 43.03500
H  -12.71200 32.53500 44.39200
H  -14.17200 33.08100 43.50600
H  -13.81800 33.83100 44.95200
H  -8.83900 34.03500 40.97000
H  -5.48200 33.02500 43.63300
H  -5.09500 34.65400 43.75100
H  -4.47200 33.67700 42.36100

