158

Mg 0.51600 42.64300 26.22400
C  2.62200 42.56600 28.94200
C  -1.95000 41.27800 28.35800
C  -1.54200 42.46100 23.54500
C  3.20100 43.37300 24.12700
N  0.40000 41.99100 28.40700
C  1.30600 42.26300 29.37600
C  0.69400 42.00000 30.79500
C  -0.36200 40.92600 30.44600
C  -0.66600 41.41300 28.97800
C  0.14300 39.54100 30.51300
C  0.21400 43.30500 31.59600
C  0.89900 43.56000 33.01800
H  0.69300 42.46400 34.02100
N  -1.44400 42.15100 26.06600
C  -2.23900 41.51200 26.99500
C  -3.52600 41.25000 26.39300
C  -3.46600 41.64800 25.07000
C  -2.11400 42.11100 24.84200
C  -4.65300 40.63100 27.24800
C  -4.63900 41.58600 24.11600
O  -4.62300 42.06500 23.00400
C  -5.94200 40.86300 24.37200
N  0.76600 43.06200 24.13200
C  -0.23700 42.80100 23.20300
C  0.27700 43.07700 21.77800
C  1.74900 43.37400 22.00200
C  1.95000 43.35700 23.49800
C  -0.11500 41.96500 20.76500
C  2.14200 44.72600 21.28400
C  2.48500 46.01600 22.10700
N  2.45300 42.85500 26.43400
C  3.45200 43.17600 25.48600
C  4.72000 43.33000 26.16100
C  4.44600 43.06000 27.52300
C  3.04000 42.77500 27.64400
C  6.04100 43.65300 25.63800
C  5.06100 42.91100 28.76700
O  6.25300 42.86300 29.04500
C  3.89600 42.68500 29.79400
C  4.22100 41.41700 30.58400
O  4.30100 40.29800 30.08900
O  4.60600 41.75300 31.89600
C  5.14500 40.74300 32.68300
H  -2.69100 40.75100 28.96300
H  -2.21000 42.24900 22.70800
H  4.17500 43.52200 23.65800
H  1.46800 41.58900 31.44300
H  -1.25800 41.01300 31.06100
H  -0.11100 39.00500 31.42700
H  1.20200 39.53400 30.25500
H  -0.40200 39.05800 29.70200
H  -0.82300 43.11500 31.87200
H  0.28700 44.16900 30.93500
H  0.49300 44.49600 33.40000
H  1.97900 43.64800 32.89600
H  -4.52300 40.88600 28.30000
H  -4.72400 39.55100 27.11500
H  -5.58600 41.12700 26.97900
H  -5.70700 39.85200 24.70400
H  -6.36900 40.81500 23.37000
H  -6.63200 41.39500 25.02700
H  -0.29200 43.94500 21.44400
H  2.29600 42.47300 21.72400
H  0.70300 41.81600 20.06000
H  -1.04700 42.28600 20.29800
H  -0.32900 40.99700 21.21700
H  1.31900 44.99800 20.62400
H  2.99000 44.46200 20.65200
H  3.57200 46.09400 22.12200
H  2.11800 45.84000 23.11800
H  2.05300 46.80900 21.49500
H  5.91100 44.20300 24.70600
H  6.57900 42.76200 25.31500
H  6.63900 44.34200 26.23500
H  3.93900 43.49800 30.51900
H  4.84700 41.06500 33.68100
H  6.23000 40.80400 32.60700
H  4.72500 39.74500 32.56200
Mg -6.51600 24.92400 25.06300
C  -4.62400 26.22500 27.58100
C  -8.31300 23.00500 27.39500
C  -8.22300 23.48800 22.43300
C  -4.36200 26.47000 22.72300
N  -6.33500 24.60500 27.24500
C  -5.48600 25.25900 28.06900
C  -5.79800 24.93000 29.50100
C  -6.75200 23.64600 29.37300
C  -7.19200 23.73900 27.90000
C  -6.23400 22.24700 29.81200
C  -6.47500 26.11100 30.26100
C  -5.98600 26.31000 31.71600
H  -5.41300 25.07800 32.47900
N  -8.14600 23.48900 24.91100
C  -8.75300 22.86800 26.03600
C  -9.84700 22.14100 25.47700
C  -9.89100 22.30700 24.00000
C  -8.70100 23.09900 23.73100
C  -10.74800 21.51100 26.45900
C  -10.98000 21.90700 23.02200
O  -11.01500 22.37100 21.87300
C  -11.96500 20.87300 23.30200
N  -6.17000 24.85400 22.83800
C  -7.18600 24.36800 21.98100
C  -6.68300 24.62100 20.48700
C  -5.76500 25.82200 20.75200
C  -5.34000 25.65700 22.16400
C  -6.06800 23.39500 19.86600
C  -6.40800 27.21700 20.51600
C  -5.73500 28.02800 19.32900
N  -4.87500 26.13900 25.04800
C  -4.10700 26.69900 24.08500
C  -3.10900 27.61800 24.71900
C  -3.27000 27.43900 26.08000
C  -4.38200 26.58900 26.21900
C  -2.20100 28.46400 23.93100
C  -2.85400 27.87000 27.33300
O  -2.07100 28.76200 27.66400
C  -3.55400 26.95100 28.34800
C  -2.56000 26.08000 29.01500
O  -2.33800 24.91400 28.71400
O  -2.09000 26.68000 30.17000
C  -1.32600 25.90600 31.19200
H  -8.87700 22.48600 28.17300
H  -8.70100 22.94100 21.61800
H  -3.71400 26.82700 21.91900
H  -4.81100 24.74500 29.92500
H  -7.59700 23.80200 30.04300
H  -6.01300 21.73100 28.87700
H  -7.06100 21.67800 30.23600
H  -5.35900 22.25300 30.46200
H  -7.56400 26.10700 30.20600
H  -6.11100 26.97600 29.70700
H  -6.65400 26.77900 32.43800
H  -5.18600 27.04400 31.61700
H  -11.04800 20.58000 25.97900
H  -11.64600 22.12900 26.46800
H  -10.45500 21.20800 27.46400
H  -12.83300 21.38200 23.72000
H  -11.51400 20.14800 23.98000
H  -12.38500 20.37200 22.43000
H  -7.47300 25.05400 19.87400
H  -4.96300 25.70600 20.02300
H  -6.11600 22.48300 20.46100
H  -5.03400 23.57200 19.56900
H  -6.59500 23.20200 18.93200
H  -6.34900 27.92400 21.34300
H  -7.47300 27.06100 20.34100
H  -5.88400 29.10500 19.24900
H  -6.18300 27.56900 18.44800
H  -4.64900 27.93500 19.32000
H  -2.21700 28.42800 22.84100
H  -1.26500 28.10000 24.35400
H  -2.32500 29.51100 24.20700
H  -3.94500 27.67000 29.06800
H  -1.67200 24.87400 31.12600
H  -1.54000 26.35900 32.16100
H  -0.30400 25.90600 30.81600

