158

Mg 35.30700 3.13500 30.31000
C  32.82200 4.04700 32.68100
C  37.69700 3.28600 32.78200
C  37.75300 2.61500 27.92100
C  32.97700 3.51900 27.77700
N  35.18900 3.52600 32.46800
C  34.09900 3.90200 33.24500
C  34.48400 3.91800 34.74100
C  36.06200 4.00700 34.67300
C  36.36500 3.60700 33.23700
C  36.57400 5.41000 34.98200
C  34.04900 2.61100 35.54000
C  33.73900 2.81600 37.07800
H  34.58100 3.86500 37.91300
N  37.45500 2.88400 30.35500
C  38.21000 2.96100 31.50400
C  39.56500 2.67000 31.16500
C  39.64800 2.47700 29.73700
C  38.25600 2.65600 29.27000
C  40.71100 2.66400 32.15900
C  40.82000 2.05700 28.82100
O  40.69000 1.84200 27.63000
C  42.15600 1.83100 29.36300
N  35.35000 3.13900 28.20200
C  36.48700 2.82800 27.40800
C  36.16000 2.69100 25.93700
C  34.66100 2.84400 25.95100
C  34.24300 3.14100 27.43500
C  36.96400 3.64100 24.99700
C  33.82200 1.71500 25.16500
C  33.98400 1.55800 23.65100
N  33.29900 3.56200 30.20100
C  32.49300 3.76600 29.07200
C  31.08600 4.07500 29.50600
C  31.15200 4.16100 30.95100
C  32.53800 3.94000 31.25900
C  29.91700 4.30500 28.65300
C  30.47400 4.41100 32.14400
O  29.29800 4.75500 32.40100
C  31.48900 4.17800 33.29700
C  31.46000 5.26000 34.22900
O  31.88800 6.36200 34.00300
O  31.00700 4.79100 35.47500
C  31.02800 5.97000 36.39800
H  38.53800 3.25000 33.47800
H  38.48200 2.40500 27.13500
H  32.24900 3.67100 26.97700
H  34.05400 4.83500 35.14300
H  36.61400 3.28000 35.26900
H  35.82400 6.02200 35.48300
H  36.97600 5.94300 34.12100
H  37.35500 5.19700 35.71200
H  34.74000 1.79900 35.31600
H  33.09600 2.26200 35.14200
H  33.95100 1.84500 37.52600
H  32.67500 3.02700 37.19100
H  41.62300 3.02000 31.67800
H  40.75200 1.79200 32.81200
H  40.52100 3.36600 32.97000
H  42.74600 1.35900 28.57800
H  42.25700 1.31800 30.32000
H  42.65000 2.80100 29.41500
H  36.36700 1.65200 25.67800
H  34.39000 3.81000 25.52400
H  37.20600 4.47300 25.65800
H  36.32400 3.98600 24.18500
H  37.87200 3.25500 24.53400
H  32.78500 1.89700 25.44500
H  34.01100 0.71200 25.54800
H  34.49000 0.60200 23.51200
H  34.37600 2.36400 23.03100
H  33.01000 1.35100 23.20600
H  29.68400 5.26800 28.20000
H  29.00900 3.92900 29.12400
H  29.94500 3.67900 27.76100
H  31.23200 3.26000 33.82600
H  30.79300 5.65000 37.41300
H  30.29200 6.71000 36.08300
H  32.05300 6.34000 36.37900
Mg 1.30700 42.65000 26.80800
C  2.63600 42.44400 30.07800
C  -1.73100 41.88300 28.14700
C  0.26300 42.36600 23.78200
C  4.64000 43.24800 25.66100
N  0.50200 42.42400 28.86300
C  1.22500 42.45300 30.00900
C  0.25000 42.26400 31.21200
C  -0.96700 41.66600 30.57100
C  -0.75100 42.06900 29.13200
C  -1.21900 40.16900 30.79600
C  0.06000 43.59300 31.92500
C  0.36200 43.72100 33.47200
H  0.14500 42.60000 34.44100
N  -0.52000 42.37000 26.02400
C  -1.68300 42.04300 26.73700
C  -2.77600 41.82100 25.80700
C  -2.20200 41.95300 24.51100
C  -0.77900 42.21400 24.74300
C  -4.19700 41.63900 26.20900
C  -2.78300 41.63600 23.12800
O  -2.11100 41.63200 22.09800
C  -4.20700 41.07800 23.02700
N  2.37000 42.65300 25.03800
C  1.66100 42.57300 23.85800
C  2.58300 42.53600 22.63700
C  3.88900 43.07000 23.22900
C  3.62600 43.05900 24.76700
C  2.60600 41.13200 22.00100
C  4.55800 44.44600 22.71100
C  3.65900 45.72200 22.54600
N  3.25700 42.91100 27.65900
C  4.55800 43.13400 27.04100
C  5.55900 43.17300 28.04800
C  4.87500 42.82100 29.28200
C  3.49900 42.66000 28.94900
C  6.98800 43.60500 27.97500
C  5.03300 42.62200 30.73300
O  6.07400 42.57000 31.41000
C  3.50400 42.50700 31.31300
C  3.53600 41.25000 32.20000
O  3.45100 40.08400 31.83500
O  3.62600 41.66000 33.48700
C  3.89000 40.63400 34.52100
H  -2.64300 41.49700 28.60600
H  -0.02000 42.33200 22.72800
H  5.58800 43.50700 25.18500
H  0.69200 41.57400 31.93000
H  -1.92600 42.12600 30.81100
H  -0.45500 39.69500 31.41300
H  -1.33000 39.62900 29.85600
H  -2.10500 40.12900 31.43000
H  -0.99100 43.88100 31.89600
H  0.45400 44.40100 31.30900
H  -0.24100 44.51500 33.91200
H  1.41800 43.98600 33.42200
H  -4.44400 40.57900 26.16200
H  -4.96500 42.18300 25.65800
H  -4.18400 41.95600 27.25200
H  -4.45700 40.67900 22.04400
H  -4.85400 41.92500 23.25700
H  -4.28000 40.38800 23.86700
H  2.15000 43.25800 21.94400
H  4.52900 42.18900 23.18000
H  1.84400 40.51800 22.48100
H  3.56700 40.61900 22.04200
H  2.39100 41.32200 20.95000
H  5.27700 44.28000 21.90800
H  5.19700 44.68500 23.56100
H  3.93600 46.36300 23.38400
H  2.60000 45.50300 22.68700
H  3.84000 46.22800 21.59800
H  7.16800 44.01300 26.98100
H  7.69800 42.84400 28.29800
H  7.05600 44.55400 28.50700
H  3.35000 43.47900 31.78100
H  4.67000 39.94600 34.19600
H  2.94600 40.09200 34.57200
H  4.09000 41.06200 35.50300

