158

Mg 17.39200 52.21200 25.15700
C  18.83900 50.95000 28.16600
C  14.84500 53.56400 27.11500
C  16.36300 53.47400 22.45600
C  19.92900 50.47200 23.39100
N  16.85600 52.11500 27.37200
C  17.67100 51.68700 28.35700
C  17.15100 52.14900 29.68800
C  15.76100 52.73300 29.36800
C  15.80300 52.84100 27.87400
C  14.57400 51.81500 29.88900
C  18.24100 53.07000 30.46500
C  18.53600 52.74900 31.97900
H  17.41700 52.02600 32.88200
N  15.75700 53.28200 24.79700
C  14.79800 53.70300 25.68000
C  13.83500 54.47700 24.97100
C  14.22300 54.47900 23.57300
C  15.47800 53.67000 23.52300
C  12.79400 55.26300 25.72100
C  13.52800 55.09700 22.43600
O  14.03100 55.17600 21.28800
C  12.11400 55.52200 22.69600
N  18.17200 52.07300 23.25100
C  17.54800 52.78600 22.29200
C  18.22800 52.56300 20.92400
C  19.44400 51.76700 21.30000
C  19.15600 51.34500 22.72300
C  17.23900 51.81200 19.90600
C  20.77700 52.65100 21.27800
C  21.56300 52.45000 19.99700
N  19.00500 50.82400 25.62500
C  19.90600 50.25100 24.75900
C  20.83700 49.47000 25.59400
C  20.39600 49.68100 26.94800
C  19.35400 50.53200 26.91900
C  22.10500 48.70700 25.12400
C  20.81200 49.38700 28.29800
O  21.79100 48.78100 28.76600
C  19.89400 50.33900 29.18700
C  19.27500 49.36400 30.15600
O  18.40000 48.49500 29.88400
O  19.98800 49.48900 31.28700
C  19.58900 48.62700 32.38900
H  14.03900 53.99700 27.71200
H  16.11800 54.04900 21.56100
H  20.63700 49.88200 22.80500
H  17.10700 51.26500 30.32300
H  15.47300 53.73000 29.70100
H  14.06800 51.55800 28.95800
H  13.92800 52.45600 30.49000
H  14.91600 50.99400 30.51800
H  18.00000 54.12700 30.35300
H  19.12200 53.00800 29.82600
H  18.68700 53.67000 32.54100
H  19.43900 52.13900 32.00100
H  12.85200 56.27900 25.33000
H  12.81500 55.32900 26.80800
H  11.84300 54.82600 25.41400
H  11.86000 56.48200 23.14400
H  11.53400 54.71400 23.14100
H  11.64900 55.59500 21.71200
H  18.44500 53.55300 20.52200
H  19.69800 50.95000 20.62500
H  17.34100 52.26100 18.91700
H  16.25100 51.78900 20.36700
H  17.49600 50.76200 19.76900
H  21.37500 52.22500 22.08500
H  20.59100 53.72300 21.34100
H  20.95300 52.56600 19.10100
H  21.88200 51.40800 19.96900
H  22.41600 53.12800 20.03300
H  22.62700 49.16700 24.28500
H  21.97100 47.66200 24.84500
H  22.77700 48.64900 25.98100
H  20.46300 51.02900 29.81100
H  18.50100 48.57600 32.33100
H  19.86100 49.16300 33.29800
H  20.00500 47.62100 32.33700
Mg -1.64200 35.06600 27.23300
C  -3.39800 33.26300 29.86300
C  -0.30500 37.07800 29.65600
C  -0.29100 36.92500 24.75100
C  -3.25700 33.10500 24.91800
N  -1.90200 35.19600 29.56500
C  -2.62200 34.35700 30.38300
C  -2.30800 34.73000 31.85400
C  -1.51200 36.14300 31.75400
C  -1.26800 36.20600 30.20600
C  -2.18200 37.56100 32.26200
C  -1.63400 33.59400 32.63300
C  -2.11800 33.39800 34.10000
H  -1.10200 33.62700 35.21800
N  -0.34600 36.50900 27.22300
C  0.18300 37.12400 28.30800
C  1.24000 37.99500 27.95200
C  1.27700 37.97800 26.51300
C  0.17300 37.09400 26.08100
C  2.09600 38.88400 28.91300
C  2.14400 38.87300 25.54600
O  1.98200 38.87100 24.32800
C  3.19900 39.88600 26.08500
N  -1.93900 35.16500 25.15000
C  -1.22500 35.97700 24.33400
C  -1.74000 35.76500 22.88500
C  -2.39200 34.36400 22.90800
C  -2.58600 34.22000 24.39200
C  -2.64800 36.89900 22.25000
C  -1.49300 33.31200 22.22100
C  -0.16200 32.90700 22.83700
N  -3.14100 33.55200 27.27300
C  -3.60600 32.74600 26.24700
C  -4.38200 31.68100 26.75000
C  -4.28200 31.83800 28.17700
C  -3.52700 32.96600 28.44800
C  -5.13900 30.64200 25.99400
C  -4.69800 31.31000 29.49300
O  -5.30700 30.29300 29.69600
C  -4.19000 32.22500 30.62700
C  -5.25600 32.77300 31.38400
O  -6.09400 33.54000 30.89200
O  -5.20300 32.35000 32.64300
C  -6.20400 33.02300 33.57200
H  0.26900 37.61100 30.41800
H  0.21700 37.52800 23.99500
H  -3.68400 32.48300 24.12800
H  -3.25200 34.94900 32.35500
H  -0.58400 36.02700 32.31600
H  -2.80300 38.09800 31.54500
H  -1.39800 38.23300 32.61200
H  -2.85000 37.39900 33.10800
H  -0.55800 33.74400 32.54600
H  -1.83200 32.61800 32.19100
H  -2.49700 32.38600 34.24300
H  -3.02400 33.99000 34.23600
H  2.10800 38.56900 29.95700
H  1.77200 39.92300 28.96300
H  3.13800 38.76700 28.61600
H  2.60900 40.48100 26.78300
H  3.54200 40.44400 25.21400
H  4.00000 39.45800 26.68800
H  -0.85700 35.69200 22.25000
H  -3.34000 34.58400 22.41600
H  -2.32800 37.81800 22.74100
H  -3.71300 36.72400 22.40300
H  -2.48400 36.87300 21.17300
H  -1.16800 33.62500 21.22900
H  -2.10700 32.41600 22.12900
H  -0.34900 31.84200 22.98000
H  0.08300 33.37500 23.79000
H  0.55700 33.15100 22.05500
H  -4.55600 30.17200 25.20200
H  -5.94300 31.11100 25.42800
H  -5.54600 29.86300 26.63900
H  -3.58000 31.63700 31.31300
H  -5.52600 33.55400 34.24100
H  -6.71900 32.27500 34.17300
H  -7.05200 33.57500 33.16700

