158

Mg 47.33300 15.81900 27.33300
C  45.56100 16.07600 30.35700
C  49.94500 17.68500 28.90000
C  49.10200 15.89400 24.50400
C  44.68000 14.33400 25.80600
N  47.80100 16.52500 29.56400
C  46.84700 16.56200 30.56100
C  47.49200 17.11400 31.82600
C  48.79000 17.83200 31.23200
C  48.88600 17.31500 29.79000
C  48.84100 19.42500 31.30500
C  47.69700 16.10400 33.01300
C  47.24400 16.54200 34.42600
H  47.23300 18.04600 34.85700
N  49.31600 16.71500 26.77300
C  50.13900 17.40500 27.54800
C  51.37300 17.59700 26.85700
C  51.15100 17.17600 25.50900
C  49.81400 16.60600 25.48500
C  52.53600 18.28700 27.51300
C  52.08900 17.21800 24.31400
O  51.77900 16.72900 23.21800
C  53.40900 17.96500 24.41500
N  46.97800 15.03700 25.45700
C  47.93300 15.20600 24.45300
C  47.33700 14.49100 23.16300
C  45.90500 13.89900 23.54500
C  45.84100 14.38100 25.03500
C  47.16900 15.32600 21.85500
C  45.84200 12.34400 23.54800
C  45.34000 11.71000 22.23600
N  45.50200 15.30300 27.89100
C  44.50500 14.73300 27.14800
C  43.27900 14.68800 27.96000
C  43.67000 15.05500 29.25600
C  45.02100 15.53100 29.15400
C  41.88800 14.24400 27.48600
C  43.25500 15.29600 30.56700
O  42.16200 14.99300 31.04700
C  44.48300 15.80500 31.35200
C  44.10500 16.93200 32.22400
O  44.16600 18.11100 31.92000
O  43.54700 16.46500 33.38300
C  43.36400 17.50100 34.42100
H  50.63900 18.39500 29.35500
H  49.66100 15.86500 23.56600
H  43.78100 13.97600 25.30100
H  46.94200 17.95600 32.24700
H  49.66800 17.60000 31.83500
H  47.97000 19.80700 31.83800
H  48.91600 19.80800 30.28700
H  49.76400 19.79900 31.74700
H  48.74000 15.78800 33.00700
H  47.10400 15.26100 32.66000
H  47.84100 15.98000 35.14400
H  46.25500 16.17900 34.70700
H  52.77600 17.55200 28.28200
H  52.27900 19.27500 27.89500
H  53.43500 18.59200 26.97800
H  53.31300 18.98200 24.79500
H  53.80600 18.04900 23.40400
H  54.14400 17.36200 24.95000
H  47.95000 13.64800 22.84600
H  45.06400 14.39700 23.06200
H  47.87300 16.15800 21.89400
H  46.23200 15.88200 21.85400
H  47.40300 14.77400 20.94400
H  45.22900 11.99300 24.37800
H  46.83900 11.94100 23.72500
H  44.40600 11.18400 22.43400
H  46.07900 11.04300 21.79100
H  45.06900 12.47300 21.50600
H  41.06600 14.50800 28.15100
H  42.03400 13.16400 27.44400
H  41.66100 14.66500 26.50700
H  44.76100 14.96900 31.99400
H  44.20200 17.25800 35.07300
H  42.40900 17.41900 34.94000
H  43.42500 18.56700 34.20100
Mg 47.97900 24.85800 27.77500
C  49.24100 27.12900 30.31300
C  47.20000 22.75600 30.35300
C  47.40900 22.64000 25.49200
C  49.15600 27.22500 25.46300
N  48.23700 24.94400 30.14000
C  48.63600 25.96700 30.92300
C  48.42700 25.62700 32.37500
C  47.79600 24.16300 32.31000
C  47.81600 23.89600 30.85200
C  48.42400 23.07000 33.13100
C  47.39800 26.68100 32.88700
C  46.78000 26.30600 34.25700
H  46.82400 27.32700 35.39900
N  47.31200 22.96900 27.89500
C  46.95800 22.24900 29.03200
C  46.37000 20.97100 28.59500
C  46.57600 20.87300 27.21500
C  47.15700 22.16600 26.78100
C  45.93800 19.95500 29.59300
C  46.46000 19.56900 26.32100
O  46.60800 19.60500 25.12200
C  45.93300 18.32100 26.86000
N  48.43700 24.81400 25.82900
C  47.96900 23.79200 25.02600
C  48.10500 24.11300 23.58900
C  48.56900 25.60700 23.57800
C  48.72400 25.93000 25.05700
C  49.12600 23.13300 22.83900
C  47.67300 26.56100 22.70100
C  48.45400 27.72300 22.04700
N  48.97600 26.83500 27.84500
C  49.37200 27.64700 26.77800
C  50.19800 28.70800 27.24400
C  50.05800 28.62000 28.59900
C  49.34700 27.40300 28.98300
C  50.97300 29.74800 26.44700
C  50.37500 29.26900 29.86600
O  50.99700 30.29000 30.05900
C  49.73100 28.35900 31.01200
C  50.80100 28.01200 31.93500
O  51.82500 27.42500 31.64100
O  50.51700 28.51000 33.21600
C  51.38200 28.00000 34.31700
H  46.80100 22.05800 31.09100
H  47.15000 21.91900 24.71400
H  49.29800 28.06100 24.77400
H  49.29600 25.72500 33.02600
H  46.74400 24.22200 32.58800
H  49.03500 23.45800 33.94700
H  49.14100 22.50300 32.53800
H  47.62500 22.42900 33.50300
H  46.51500 26.76000 32.25400
H  47.77200 27.70400 32.92500
H  47.30000 25.40500 34.58300
H  45.72100 26.14600 34.05000
H  44.89000 19.83500 29.31800
H  45.97300 20.34000 30.61200
H  46.42200 18.98000 29.52700
H  45.68900 17.52600 26.15500
H  44.95300 18.57300 27.26500
H  46.64500 18.00700 27.62300
H  47.13300 24.12200 23.09600
H  49.61200 25.64600 23.26200
H  49.53800 22.37200 23.50200
H  49.88700 23.80100 22.43500
H  48.71300 22.57600 21.99800
H  46.91100 26.92300 23.39200
H  47.10300 26.08900 21.90100
H  48.13000 27.83400 21.01300
H  49.54400 27.71200 22.01600
H  48.03200 28.63900 22.46000
H  50.17300 30.26600 25.91700
H  51.70100 29.34800 25.74200
H  51.52100 30.36800 27.15600
H  49.03800 29.03100 31.51700
H  50.68000 28.05000 35.14900
H  52.27400 28.57400 34.56900
H  51.65200 26.95300 34.18600

