158

Mg 35.92000 49.35100 25.01200
C  36.36700 47.43200 27.90200
C  34.69900 51.83400 26.86000
C  35.54600 51.06100 22.07500
C  37.01100 46.53800 23.19700
N  35.50700 49.58600 27.20300
C  35.82900 48.68100 28.21600
C  35.52800 49.32300 29.53200
C  34.92600 50.72900 29.14600
C  35.00200 50.67800 27.65900
C  33.45800 51.12100 29.70200
C  36.78200 49.41700 30.47400
C  36.77600 48.87600 31.89500
H  35.58000 49.16900 32.79900
N  35.13400 51.19100 24.51300
C  34.68900 52.12300 25.48100
C  34.29900 53.29900 24.83200
C  34.54100 53.12300 23.43100
C  35.16600 51.78100 23.28200
C  33.79800 54.49400 25.62000
C  34.46100 54.08200 22.32100
O  35.02900 53.80100 21.27400
C  33.89600 55.57900 22.46400
N  36.30700 48.89300 22.98000
C  36.05700 49.74200 21.94500
C  36.26400 49.08000 20.53700
C  36.82800 47.62300 20.91700
C  36.75800 47.70200 22.46800
C  35.05600 49.07200 19.61300
C  38.30000 47.33900 20.31700
C  39.43900 48.19000 20.80200
N  36.55100 47.36400 25.38900
C  36.87100 46.33700 24.51000
C  37.26300 45.15900 25.27300
C  37.09500 45.57400 26.60500
C  36.61200 46.91300 26.59000
C  37.68400 43.79200 24.81300
C  37.28500 45.18100 28.00000
O  37.70200 44.11400 28.47100
C  36.82700 46.40000 28.91500
C  35.74000 45.78000 29.75500
O  34.57800 45.55800 29.47700
O  36.22500 45.59200 31.01500
C  35.32100 44.97000 31.99000
H  34.33900 52.65900 27.47800
H  35.35700 51.50300 21.09500
H  37.24900 45.57200 22.74700
H  34.83400 48.75800 30.15400
H  35.46600 51.51200 29.67800
H  33.15200 50.43200 30.48900
H  32.64800 51.08100 28.97400
H  33.43100 52.04000 30.28700
H  37.06100 50.47100 30.47500
H  37.64600 48.94700 30.00500
H  37.68100 49.28400 32.34600
H  36.89900 47.80500 31.73500
H  32.96600 55.00500 25.13600
H  34.65000 55.16900 25.69900
H  33.42200 54.38200 26.63700
H  34.15600 56.08900 23.39200
H  32.80700 55.61000 22.45200
H  34.27600 56.25800 21.70000
H  37.02100 49.62700 19.97600
H  36.05000 46.95000 20.55600
H  34.51900 48.12600 19.54500
H  35.28100 49.39000 18.59500
H  34.34500 49.80400 19.99600
H  38.15000 47.58300 19.26500
H  38.44900 46.26400 20.41500
H  39.98900 48.52400 19.92200
H  40.16000 47.69600 21.45300
H  39.00600 49.12700 21.15000
H  38.19400 43.91200 23.85700
H  36.81100 43.17100 24.61200
H  38.28400 43.34600 25.60600
H  37.60600 46.67700 29.62500
H  34.38300 45.48200 32.20800
H  35.95800 44.80000 32.85800
H  35.17400 43.97800 31.56400
Mg -5.46800 25.16300 25.64400
C  -3.98400 26.69100 28.41700
C  -6.81000 22.77600 27.77100
C  -6.49200 23.56900 23.03100
C  -3.48000 27.24100 23.54600
N  -5.30600 24.72100 27.81600
C  -4.77300 25.61800 28.76000
C  -5.20900 25.26200 30.19900
C  -5.79500 23.81100 29.96000
C  -6.01800 23.72600 28.44500
C  -4.86400 22.59200 30.41700
C  -6.30900 26.23800 30.76400
C  -6.34900 26.58600 32.24500
H  -5.89700 25.49300 33.24700
N  -6.51500 23.39200 25.44100
C  -7.02700 22.55900 26.39000
C  -7.79500 21.50700 25.76500
C  -7.89800 21.80600 24.36600
C  -6.94700 22.95000 24.19900
C  -8.47700 20.35400 26.57100
C  -8.68700 21.19400 23.26200
O  -8.72200 21.66900 22.14500
C  -9.42000 19.94200 23.47400
N  -4.90400 25.28200 23.60100
C  -5.56200 24.47100 22.69400
C  -5.17800 24.79700 21.21200
C  -4.12100 26.01500 21.47400
C  -4.17300 26.22400 22.90400
C  -4.73700 23.62600 20.31800
C  -4.39600 27.21800 20.48500
C  -5.66000 28.04300 20.84300
N  -4.12100 26.64500 25.96100
C  -3.39600 27.46700 24.97400
C  -2.75800 28.51300 25.65700
C  -2.94500 28.29900 27.01800
C  -3.73900 27.13400 27.16200
C  -2.08300 29.71100 25.10900
C  -2.65400 28.80400 28.36300
O  -2.16800 29.84300 28.75000
C  -3.42300 27.80300 29.35900
C  -2.39900 27.14600 30.23800
O  -1.41700 26.55600 29.84700
O  -2.65600 27.37700 31.57900
C  -1.71100 26.80500 32.56200
H  -7.19100 22.09600 28.53600
H  -6.89300 23.03000 22.17000
H  -2.94600 27.92800 22.88600
H  -4.35800 25.28100 30.88000
H  -6.73000 23.76600 30.51700
H  -4.60700 21.97400 29.55600
H  -5.36000 22.03500 31.21200
H  -3.93900 22.97600 30.84800
H  -7.27300 25.88000 30.40500
H  -6.16700 27.14000 30.16900
H  -7.37600 26.70100 32.59400
H  -5.74900 27.47200 32.45400
H  -7.91200 19.51100 26.17400
H  -9.53400 20.35200 26.30300
H  -8.33300 20.35300 27.65200
H  -8.92900 19.26100 24.16800
H  -9.24200 19.40400 22.54200
H  -10.48800 20.00400 23.68400
H  -6.05700 25.25900 20.76300
H  -3.07500 25.79300 21.26400
H  -5.15700 23.65100 19.31200
H  -5.04800 22.65900 20.71300
H  -3.68600 23.76000 20.06300
H  -4.62800 26.67100 19.57200
H  -3.45400 27.76400 20.43900
H  -6.15000 27.51100 21.65900
H  -6.35900 28.02800 20.00700
H  -5.42900 29.07700 21.09700
H  -1.01200 29.58500 25.26700
H  -2.48500 30.60800 25.58100
H  -2.25100 29.76500 24.03400
H  -4.15100 28.35400 29.95600
H  -0.73400 27.28200 32.49400
H  -1.60100 25.72100 32.52600
H  -2.17400 26.95200 33.53800

