158

Mg 1.86200 -1.21000 44.27200
C  5.23400 -0.19100 43.47900
C  0.83700 1.62100 42.41400
C  -1.22500 -2.49000 44.02800
C  3.15300 -4.22300 45.22300
N  2.95800 0.43500 42.81700
C  4.27800 0.69600 42.92200
C  4.60800 2.08800 42.33300
C  3.19000 2.78200 42.21300
C  2.28200 1.61200 42.52500
C  3.01200 4.01300 43.12700
C  5.41700 2.02900 41.02100
C  6.88600 2.49800 41.07300
H  7.92300 1.60200 40.36800
N  -0.01800 -0.45400 43.45000
C  -0.21400 0.75700 42.80900
C  -1.63000 0.95200 42.62200
C  -2.27900 -0.26200 43.04600
C  -1.15400 -1.16400 43.52300
C  -2.29000 2.20500 42.05600
C  -3.73600 -0.59800 42.96600
O  -4.54100 0.25900 42.67500
C  -4.30700 -1.93100 43.33900
N  1.06500 -3.06300 44.69400
C  -0.24100 -3.38900 44.54700
C  -0.50500 -4.81400 44.93800
C  0.95300 -5.46300 45.10900
C  1.78500 -4.15300 44.99600
C  -1.49200 -5.05900 46.18500
C  1.44400 -6.53700 44.03600
C  1.66000 -7.91300 44.68200
N  3.71300 -2.08200 44.37000
C  4.08200 -3.29800 44.87600
C  5.49100 -3.38800 45.13600
C  5.93900 -2.15500 44.64400
C  4.85500 -1.45000 44.07300
C  6.26600 -4.41000 45.87900
C  7.05700 -1.28000 44.61100
O  8.18100 -1.48300 45.09000
C  6.67300 0.01000 43.73500
C  6.86400 1.12300 44.73400
O  6.09000 1.36300 45.65800
O  8.04800 1.78300 44.47100
C  8.28500 3.18000 45.07500
H  0.43200 2.53500 41.97400
H  -2.17000 -3.03200 44.10100
H  3.47200 -5.15100 45.70200
H  5.18400 2.65800 43.06100
H  3.10200 3.14100 41.18700
H  2.06500 3.90700 43.65500
H  2.92700 4.77500 42.35100
H  3.87200 4.15800 43.78100
H  4.83400 2.66600 40.35600
H  5.48700 1.00900 40.64300
H  7.24700 2.72000 42.07800
H  6.82700 3.49100 40.62700
H  -2.83300 2.07400 41.12100
H  -1.56300 2.96900 41.78100
H  -2.95100 2.65000 42.80000
H  -5.35000 -2.04100 43.04400
H  -4.17100 -2.12800 44.40200
H  -3.86900 -2.62200 42.61700
H  -1.01900 -5.27400 44.09400
H  1.05200 -5.75100 46.15600
H  -2.15200 -5.92400 46.11400
H  -2.12200 -4.19100 46.37700
H  -0.90200 -5.34300 47.05700
H  2.38300 -6.30700 43.53200
H  0.63500 -6.61000 43.30900
H  1.18900 -8.74700 44.16200
H  1.23700 -7.91800 45.68600
H  2.71000 -8.05400 44.93900
H  6.53000 -5.31100 45.32500
H  5.74400 -4.76200 46.76900
H  7.22700 -4.01300 46.20600
H  7.36200 0.17300 42.90700
H  7.59200 3.51800 45.84600
H  8.09600 3.87500 44.25700
H  9.34300 3.14400 45.33500
Mg 35.07600 2.16200 30.42100
C  32.80300 3.10400 32.87600
C  37.60600 2.24800 32.77000
C  37.47900 1.77500 27.85200
C  32.62800 2.83600 27.93300
N  35.19900 2.59600 32.56800
C  34.11900 2.92700 33.40400
C  34.57000 2.86200 34.83600
C  36.09700 2.86900 34.76800
C  36.37900 2.59100 33.31000
C  36.79500 4.29500 35.22500
C  34.02900 1.54500 35.57000
C  33.41000 1.70000 36.98300
H  33.88100 2.70500 38.09200
N  37.17100 1.97100 30.36000
C  37.99500 2.02100 31.41400
C  39.38900 1.68700 30.97500
C  39.39200 1.40400 29.55300
C  37.96200 1.64900 29.20900
C  40.56700 1.61600 31.87700
C  40.47900 0.91800 28.62000
O  40.27000 0.99900 27.44800
C  41.84800 0.48800 29.04100
N  35.04400 2.21100 28.24500
C  36.16100 2.06200 27.37800
C  35.72800 2.43000 25.96000
C  34.16000 2.53500 25.97000
C  33.92200 2.59000 27.49400
C  36.48600 3.73500 25.43100
C  33.47000 1.29300 25.28100
C  32.52700 1.41700 24.05000
N  33.12900 2.77900 30.35300
C  32.24200 2.96500 29.28700
C  30.89100 3.31000 29.78900
C  31.10800 3.32600 31.20400
C  32.49700 3.09200 31.46000
C  29.65600 3.62900 28.98100
C  30.43800 3.66200 32.41300
O  29.31200 4.08100 32.64700
C  31.47400 3.38900 33.53600
C  31.63600 4.63700 34.41000
O  32.35100 5.60100 34.17300
O  30.70500 4.64800 35.44000
C  30.74500 5.80900 36.35800
H  38.41400 2.30300 33.50200
H  38.23500 1.75500 27.06400
H  31.93400 3.06800 27.12300
H  34.14500 3.69400 35.39800
H  36.54900 2.09700 35.39000
H  35.97400 4.91000 35.59400
H  37.43300 4.79300 34.49500
H  37.50000 4.01200 36.00700
H  34.91600 0.91800 35.65300
H  33.35700 0.99600 34.91100
H  33.41200 0.72500 37.47000
H  32.33800 1.80300 36.81000
H  40.77100 0.54700 31.82600
H  40.30400 1.90500 32.89500
H  41.44700 2.19400 31.59800
H  41.84400 -0.19800 29.88800
H  42.46700 1.36200 29.23900
H  42.46000 -0.02000 28.29500
H  36.10300 1.56600 25.41300
H  33.88500 3.47200 25.48700
H  37.27500 3.52500 24.70900
H  37.06000 4.17500 26.24500
H  35.76300 4.43700 25.01400
H  32.91200 0.72900 26.02800
H  34.23700 0.60400 24.92700
H  32.61500 2.41500 23.62100
H  31.54700 1.08900 24.39600
H  32.76200 0.60700 23.36000
H  29.71400 3.30900 27.94000
H  29.41700 4.69100 29.01200
H  28.80700 3.03600 29.32000
H  31.05900 2.63500 34.20500
H  30.52200 5.46100 37.36700
H  30.02100 6.50400 35.93200
H  31.64300 6.41800 36.24900

