158

Mg 44.61800 3.18400 47.09600
C  42.44500 5.87700 46.89700
C  41.74500 1.03100 46.87900
C  46.60600 0.58300 46.66700
C  47.29800 5.35100 46.83300
N  42.39800 3.39700 46.85900
C  41.77300 4.63300 46.82400
C  40.23000 4.51600 46.65100
C  40.12000 2.92600 46.91300
C  41.52500 2.39500 46.75600
C  39.49400 2.58300 48.25500
C  39.73700 5.01100 45.28200
C  38.36800 5.72800 45.25400
H  37.67400 6.03200 43.93400
N  44.24100 1.05500 46.81300
C  42.99100 0.35300 46.76100
C  43.20500 -1.05800 46.47500
C  44.61000 -1.15600 46.19900
C  45.25600 0.21800 46.64100
C  42.11000 -2.12500 46.32700
C  45.27800 -2.36400 45.58900
O  44.76500 -3.46900 45.47900
C  46.76700 -2.38200 45.26100
N  46.66500 2.99700 46.93200
C  47.29900 1.78000 46.77900
C  48.79800 1.94700 46.54400
C  49.03000 3.53200 46.77300
C  47.56800 3.99100 46.86700
C  49.59300 0.96500 47.49000
C  49.83400 4.19800 45.63000
C  51.08800 4.89700 46.09200
N  44.87500 5.23000 46.96300
C  46.05600 5.95200 46.81000
C  45.66000 7.31100 46.73500
C  44.24800 7.37000 46.79900
C  43.84800 6.04700 46.88300
C  46.60000 8.49600 46.62800
C  43.08500 8.24900 46.85900
O  43.01800 9.46300 46.90500
C  41.83700 7.29100 46.71400
C  41.00000 7.55900 47.90300
O  41.30100 7.26900 49.08200
O  39.76500 8.15700 47.49500
C  38.87400 8.32200 48.62400
H  40.86100 0.41700 46.69400
H  47.24800 -0.29100 46.54500
H  48.08400 6.08700 46.64700
H  39.72800 5.16100 47.37100
H  39.42300 2.44800 46.22500
H  39.44800 3.45300 48.91100
H  40.19500 1.89600 48.72900
H  38.55100 2.04200 48.18100
H  39.58500 4.10700 44.69200
H  40.54300 5.61500 44.86500
H  38.41900 6.68800 45.76800
H  37.66200 5.16300 45.86100
H  42.29900 -3.17700 46.54000
H  41.91700 -2.10100 45.25500
H  41.18500 -1.89300 46.85400
H  47.12500 -1.45300 44.81800
H  46.92700 -3.14300 44.49700
H  47.40900 -2.71300 46.07700
H  49.09400 1.78300 45.50800
H  49.36600 3.79600 47.77600
H  48.99500 0.48100 48.26200
H  50.37600 1.56500 47.95400
H  49.92100 0.17300 46.81700
H  49.28600 4.82700 44.92900
H  50.27000 3.44600 44.97400
H  51.93500 4.23300 45.91800
H  51.03000 5.13700 47.15300
H  51.23800 5.74800 45.42800
H  47.26300 8.58500 47.48900
H  45.96700 9.38200 46.58100
H  47.17000 8.42100 45.70200
H  41.43200 7.45900 45.71700
H  37.97400 8.90200 48.41800
H  39.15200 8.73200 49.59500
H  38.54500 7.34200 48.97100
Mg 30.35100 57.59300 41.16400
C  27.34200 55.89800 40.21200
C  32.07200 54.81900 40.16800
C  32.95500 59.53100 41.42600
C  28.23500 60.50700 41.64100
N  29.74200 55.57800 40.27800
C  28.48500 55.16200 39.92500
C  28.58800 53.95100 39.15200
C  30.01600 53.35500 39.46900
C  30.68100 54.61000 40.08200
C  30.07500 52.21200 40.53200
C  28.26300 54.18700 37.61700
C  27.00800 53.50200 36.96400
H  26.47700 54.22200 35.65700
N  32.29000 57.24500 40.84200
C  32.83700 56.02300 40.45900
C  34.24400 56.16400 40.60900
C  34.52400 57.49700 41.14600
C  33.25600 58.13800 41.20100
C  35.33200 55.18500 40.06100
C  35.89700 58.04900 41.51000
O  36.87400 57.37800 41.30900
C  36.16100 59.40400 42.09400
N  30.53000 59.77000 41.54500
C  31.79500 60.27200 41.57300
C  31.76700 61.87300 41.60500
C  30.20500 62.16500 41.80600
C  29.62800 60.75000 41.66400
C  32.78100 62.58300 42.61500
C  29.50800 63.23000 40.87000
C  28.81600 64.43600 41.56100
N  28.24600 58.09300 41.15500
C  27.57000 59.26300 41.42200
C  26.12600 59.06700 41.48700
C  26.00200 57.72300 40.99000
C  27.33300 57.23700 40.78300
C  25.07200 60.09400 41.90000
C  25.04200 56.62400 40.60200
O  23.82900 56.55400 40.65400
C  25.82500 55.49500 39.98000
C  25.49100 54.16000 40.54600
O  25.96400 53.78400 41.64900
O  24.43800 53.49300 39.91300
C  24.21000 52.15800 40.44900
H  32.72500 53.96100 39.99200
H  33.79900 60.22200 41.47500
H  27.70700 61.43400 41.87500
H  27.90700 53.15000 39.43900
H  30.66500 53.00600 38.66600
H  30.94300 51.56600 40.40500
H  29.21200 51.55200 40.43700
H  30.16600 52.61100 41.54200
H  29.12900 53.71900 37.14700
H  28.31100 55.27400 37.56300
H  26.24900 53.50900 37.74600
H  27.28900 52.46600 36.77700
H  34.88500 54.45000 39.39300
H  35.95900 54.64300 40.76900
H  36.05300 55.71800 39.44100
H  35.41000 59.63000 42.85100
H  36.10100 60.18000 41.33100
H  37.17200 59.52700 42.48000
H  32.07100 62.13800 40.59300
H  29.99700 62.42100 42.84500
H  32.57000 62.36000 43.66100
H  32.65900 63.66600 42.59300
H  33.78100 62.23400 42.35700
H  28.77900 62.69000 40.26500
H  30.32100 63.61600 40.25600
H  27.74700 64.23000 41.50400
H  28.95500 65.39400 41.06000
H  29.12700 64.53200 42.60200
H  24.53000 60.51700 41.05400
H  25.55900 60.99200 42.28000
H  24.37200 59.63700 42.60000
H  25.67100 55.34800 38.91100
H  23.14000 52.11800 40.24600
H  24.23000 52.02000 41.53000
H  24.71900 51.40600 39.84700

