158

Mg 49.61600 46.17100 41.98100
C  46.17000 46.49400 41.05700
C  49.66400 43.22100 40.19600
C  52.81400 46.09800 42.47800
C  49.45500 49.62500 42.75200
N  48.07600 45.18200 40.61800
C  46.78400 45.38800 40.52400
C  46.14400 44.32500 39.60100
C  47.18000 43.20400 39.54300
C  48.40900 43.93600 40.12600
C  46.71100 42.01200 40.48500
C  45.67100 44.89700 38.22400
C  44.33300 44.32900 37.60700
H  44.42400 43.39800 36.44900
N  51.09800 44.73200 41.53700
C  50.95900 43.55100 40.84600
C  52.19300 42.82200 40.86400
C  53.13000 43.63000 41.58200
C  52.39500 44.90900 41.85100
C  52.25400 41.38000 40.38400
C  54.53600 43.26700 41.94200
O  54.98100 42.19100 41.52600
C  55.34300 44.00600 42.92200
N  50.90300 47.64200 42.67900
C  52.24000 47.33400 42.74900
C  53.05300 48.63300 42.98200
C  51.96900 49.76400 42.89300
C  50.72400 49.01300 42.70300
C  53.77600 48.47000 44.39600
C  52.16300 50.81000 41.70900
C  51.79300 52.30800 41.96400
N  48.16100 47.74600 41.99600
C  48.21200 49.05100 42.43300
C  46.87200 49.69900 42.34000
C  46.05200 48.61700 41.97500
C  46.87600 47.54300 41.63000
C  46.46500 51.16500 42.58300
C  44.64500 48.37700 41.62400
O  43.61700 49.02800 41.68000
C  44.68200 46.94000 40.98200
C  43.73300 46.12600 41.91500
O  44.15800 45.62800 42.97400
O  42.57000 45.91100 41.29100
C  41.51400 45.20800 42.06300
H  49.71900 42.29000 39.62700
H  53.90600 46.12100 42.48600
H  49.32800 50.69300 42.94000
H  45.28500 44.00500 40.19100
H  47.41400 42.84400 38.54200
H  45.71800 41.68000 40.18200
H  46.71600 42.34200 41.52300
H  47.45700 41.21700 40.48100
H  46.48200 44.71900 37.51700
H  45.59400 45.98400 38.26800
H  43.84900 45.27300 37.35700
H  43.89600 43.85700 38.48600
H  52.60600 41.44300 39.35400
H  51.29500 40.91100 40.60400
H  53.01400 40.77500 40.87900
H  54.82800 44.32700 43.82700
H  55.86400 44.81200 42.40500
H  56.00300 43.26900 43.37900
H  53.87900 48.87400 42.31300
H  51.89100 50.12100 43.92000
H  53.35200 49.16300 45.12300
H  54.81400 48.80000 44.36200
H  53.71300 47.50400 44.89800
H  51.52100 50.47900 40.89200
H  53.20800 50.92400 41.42200
H  51.45900 52.30400 43.00200
H  50.88300 52.70200 41.51100
H  52.57200 53.06800 42.01100
H  46.14700 51.57500 41.62500
H  47.33000 51.72200 42.94400
H  45.63200 51.01100 43.26900
H  44.27100 46.95400 39.97200
H  41.96300 44.46300 42.72100
H  40.86600 44.65700 41.38200
H  41.08700 45.99400 42.68500
Mg 26.74000 49.29100 26.51900
C  24.72200 50.81300 28.97800
C  28.88400 48.42100 29.02900
C  28.74900 48.25100 24.18000
C  24.56700 50.86400 24.13800
N  26.80200 49.69500 28.66700
C  25.79100 50.10100 29.43000
C  25.97600 49.93700 30.96800
C  27.38800 49.33100 30.95300
C  27.70800 49.07800 29.44500
C  28.58300 50.09800 31.59500
C  24.86200 49.00600 31.60000
C  24.09300 49.47700 32.89000
H  23.93500 48.48800 34.06400
N  28.58800 48.34100 26.63000
C  29.32800 48.05700 27.73300
C  30.59000 47.41400 27.31000
C  30.52900 47.34500 25.86400
C  29.28300 48.01900 25.46400
C  31.64000 46.89300 28.21900
C  31.54300 46.78100 24.95200
O  31.39400 46.88900 23.74800
C  32.76600 46.00600 25.41700
N  26.62200 49.49000 24.43700
C  27.68700 48.95700 23.71000
C  27.50200 49.25200 22.21500
C  26.05300 49.83500 22.20900
C  25.67800 50.09700 23.66700
C  28.51800 50.27300 21.57300
C  25.06600 48.90100 21.53500
C  24.14200 47.98000 22.37800
N  25.03400 50.64100 26.47000
C  24.32500 51.19300 25.48800
C  23.24800 52.03600 26.03600
C  23.30800 51.74200 27.41700
C  24.43700 51.00900 27.62200
C  22.17200 52.86900 25.28300
C  22.65100 52.04000 28.67300
O  21.59400 52.68300 28.89900
C  23.52200 51.38500 29.74800
C  23.99400 52.44600 30.73200
O  24.79100 53.32300 30.52100
O  23.36600 52.26800 31.93700
C  23.56800 53.33800 32.91200
H  29.60200 48.13500 29.80100
H  29.22300 47.78800 23.31200
H  23.76500 51.19800 23.47700
H  25.99900 50.92900 31.42000
H  27.29100 48.36000 31.43700
H  29.42000 50.46400 31.00000
H  29.15500 49.53000 32.32900
H  28.21000 50.97300 32.12700
H  25.42100 48.09500 31.81300
H  24.20600 48.80900 30.75200
H  23.11800 49.88300 32.62000
H  24.67600 50.29300 33.31800
H  31.85500 45.82400 28.22500
H  31.37700 47.11400 29.25400
H  32.51800 47.49000 27.97600
H  33.41300 46.79500 25.80200
H  33.18500 45.58400 24.50300
H  32.65200 45.20800 26.15000
H  27.60500 48.27200 21.75000
H  26.06300 50.82400 21.75200
H  29.28000 50.45000 22.33200
H  27.88300 51.07600 21.19600
H  28.95500 49.75200 20.72100
H  25.54000 48.31400 20.74800
H  24.37000 49.55600 21.01100
H  24.48200 47.70300 23.37500
H  24.22000 47.04400 21.82500
H  23.14100 48.41100 22.36400
H  21.98500 53.73600 25.91700
H  21.29900 52.25000 25.07700
H  22.62700 53.30100 24.39200
H  22.98000 50.58100 30.24700
H  23.46500 54.35600 32.53500
H  24.56600 53.21800 33.33400
H  22.85500 53.18400 33.72200

