158

Mg 44.60200 3.82900 47.35500
C  43.49000 7.00000 46.33100
C  41.75200 2.32800 46.16300
C  46.07800 0.63900 47.51400
C  47.91300 5.27700 48.04100
N  42.90300 4.52600 46.35700
C  42.61300 5.87500 46.11000
C  41.21500 6.02900 45.47300
C  40.55900 4.65500 45.89500
C  41.80700 3.76600 46.13300
C  39.56600 4.62700 47.16600
C  41.36900 6.24200 43.95200
C  40.76000 7.58900 43.34200
H  40.13100 7.52400 41.88900
N  43.94500 1.80100 47.07500
C  42.70000 1.44800 46.63400
C  42.56600 0.02000 46.69000
C  43.79100 -0.48600 47.10200
C  44.66900 0.64400 47.23100
C  41.24900 -0.66300 46.32900
C  44.08300 -1.99000 47.44800
O  43.26200 -2.82700 47.19100
C  45.29900 -2.38400 48.20800
N  46.74500 3.10100 47.52700
C  46.97400 1.72800 47.64800
C  48.53200 1.54900 47.97900
C  49.07400 2.98700 48.22600
C  47.81800 3.85900 47.94900
C  48.95800 0.65700 49.18800
C  50.27900 3.47700 47.43200
C  51.24700 4.46900 48.16700
N  45.54700 5.74700 47.35200
C  46.85500 6.19300 47.73600
C  46.88400 7.60800 47.55700
C  45.63500 8.00900 46.91400
C  44.82400 6.80200 46.88900
C  48.10400 8.41200 47.93900
C  44.82300 9.07000 46.46900
O  44.97300 10.27200 46.58800
C  43.39600 8.46300 46.01600
C  42.41400 9.10400 46.94400
O  42.20200 8.78200 48.08600
O  41.75400 10.25000 46.44500
C  40.69300 10.85500 47.32700
H  40.85800 1.89800 45.70500
H  46.50400 -0.35900 47.63200
H  48.87700 5.71800 48.30500
H  40.59200 6.76000 45.98900
H  40.06000 4.20100 45.03900
H  40.04900 4.13700 48.01100
H  38.67800 4.03600 46.94000
H  39.21200 5.61700 47.45300
H  40.85800 5.41600 43.45800
H  42.37300 6.07300 43.56400
H  41.49100 8.39700 43.37200
H  40.02800 7.87200 44.09900
H  41.29200 -1.24600 45.40900
H  40.46600 0.09300 46.25600
H  40.91300 -1.33600 47.11700
H  45.47900 -1.77900 49.09700
H  46.19700 -2.21900 47.61200
H  45.26500 -3.43000 48.51100
H  48.87800 0.97000 47.12300
H  49.26200 3.00200 49.29900
H  48.08300 0.24500 49.68900
H  49.71700 1.11500 49.82200
H  49.38100 -0.25000 48.75600
H  49.94600 3.82900 46.45600
H  50.94600 2.66200 47.14900
H  52.11800 3.88600 48.46500
H  50.73700 4.71100 49.09900
H  51.34900 5.43700 47.67700
H  48.58100 7.91700 48.78500
H  47.74000 9.39800 48.22800
H  48.86200 8.40300 47.15600
H  43.12600 8.69200 44.98500
H  39.96000 11.42500 46.75500
H  41.18800 11.41900 48.11700
H  40.13200 10.03200 47.77000
Mg 30.29600 58.96800 40.59400
C  27.31600 57.53700 39.29800
C  32.03700 56.38400 39.38100
C  33.06600 60.92500 40.91000
C  28.28900 61.94000 41.06300
N  29.73900 57.16400 39.57000
C  28.53900 56.80600 39.07900
C  28.62800 55.49300 38.27900
C  30.06200 55.03700 38.54600
C  30.68200 56.23900 39.24700
C  30.32400 53.72700 39.32900
C  28.15300 55.67200 36.77500
C  27.01800 54.75400 36.23300
H  26.13600 55.43300 35.30400
N  32.31900 58.54200 40.35900
C  32.86600 57.41700 39.92700
C  34.24500 57.43300 40.17600
C  34.62400 58.80800 40.63000
C  33.32200 59.53600 40.63300
C  35.10300 56.26200 40.07500
C  35.94300 59.27800 41.15000
O  36.94600 58.59700 41.14800
C  36.10700 60.67500 41.68300
N  30.64400 61.18400 40.73800
C  31.90600 61.65500 40.92500
C  31.89900 63.17000 41.13900
C  30.36200 63.51500 41.27100
C  29.70500 62.12900 41.07200
C  32.80000 63.86300 42.23100
C  29.92900 64.52000 40.20600
C  29.50100 65.94000 40.74600
N  28.17000 59.60900 40.45000
C  27.58000 60.78100 40.70000
C  26.11800 60.63700 40.48700
C  25.98400 59.31500 40.01700
C  27.26300 58.77700 39.97800
C  25.11400 61.73400 40.63900
C  25.05500 58.40900 39.42100
O  23.87100 58.59700 39.09900
C  25.86800 57.16100 38.95200
C  25.39500 56.02700 39.77200
O  25.55800 55.81500 40.93500
O  24.80600 55.13200 38.84900
C  24.15200 53.97400 39.39800
H  32.58200 55.48100 39.09800
H  33.82800 61.63900 41.23000
H  27.74700 62.88700 41.10500
H  27.99000 54.84500 38.88100
H  30.61400 54.81600 37.63300
H  30.92000 53.94200 40.21600
H  30.90300 53.02200 38.73200
H  29.31500 53.36300 39.52400
H  29.04700 55.32100 36.25900
H  27.88900 56.70500 36.54700
H  26.50500 54.28200 37.07100
H  27.54100 53.92800 35.75100
H  35.08700 55.87700 39.05500
H  34.87900 55.44400 40.75900
H  36.13000 56.56600 40.27700
H  37.02700 60.66400 42.26800
H  35.34600 60.62600 42.46200
H  36.07700 61.49000 40.96100
H  32.22200 63.55500 40.17200
H  30.20700 63.89400 42.28200
H  32.15500 64.33200 42.97500
H  33.36400 64.68700 41.79500
H  33.52000 63.15500 42.64100
H  29.00400 64.16100 39.75400
H  30.62700 64.60900 39.37400
H  29.58500 65.92000 41.83300
H  28.48900 66.18200 40.42200
H  30.10300 66.71500 40.27100
H  24.62800 62.06300 39.72000
H  25.51200 62.61300 41.14600
H  24.30800 61.30500 41.23400
H  25.68000 56.95000 37.89900
H  23.60000 54.31100 40.27500
H  25.00900 53.36400 39.68400
H  23.63500 53.56100 38.53300

