158

Mg 40.46900 9.06500 29.27800
C  42.14800 10.47500 32.10800
C  38.23800 7.62700 31.54500
C  38.86600 8.02900 26.63300
C  43.03000 10.45600 27.20700
N  40.28300 9.06500 31.67300
C  40.95600 9.82100 32.56200
C  40.38800 9.76700 33.98600
C  39.10600 8.87800 33.75800
C  39.21900 8.43100 32.27900
C  38.89200 7.61700 34.64600
C  40.17100 11.16300 34.60800
C  39.16400 11.31500 35.73100
H  39.52300 12.02700 37.03200
N  38.78000 8.04700 29.09900
C  38.03900 7.40700 30.18100
C  37.05600 6.55200 29.52500
C  37.18500 6.75500 28.13300
C  38.30800 7.63200 27.90200
C  36.12000 5.69700 30.27700
C  36.40300 6.06800 27.00300
O  36.49100 6.46300 25.88000
C  35.54700 4.93000 27.36200
N  40.86500 9.33100 27.21900
C  39.97600 8.76500 26.28800
C  40.38400 9.09000 24.85100
C  41.72900 9.92800 25.11900
C  41.88900 9.91000 26.58700
C  40.49600 7.81100 23.99000
C  41.70700 11.40700 24.50000
C  41.58200 12.68900 25.40700
N  42.30900 10.06500 29.58000
C  43.26200 10.51600 28.63300
C  44.29600 11.11000 29.34200
C  43.92900 11.11400 30.70100
C  42.69200 10.47200 30.78500
C  45.49800 11.74000 28.88900
C  44.38100 11.59900 32.07100
O  45.31100 12.28600 32.42500
C  43.14100 11.18400 32.96300
C  43.58600 10.28300 34.10200
O  43.98700 9.16600 33.99600
O  43.55700 10.98900 35.26500
C  43.90200 10.34300 36.51300
H  37.55600 7.08500 32.20200
H  38.24200 7.84200 25.75600
H  43.73000 10.88300 26.48700
H  41.15900 9.28600 34.59000
H  38.20800 9.49000 33.84300
H  37.94900 7.97000 35.06400
H  39.63300 7.56200 35.44300
H  38.80000 6.66200 34.12800
H  39.97800 11.92300 33.85100
H  41.12500 11.49100 35.02000
H  38.71200 10.35500 35.98100
H  38.25800 11.79100 35.35700
H  35.12600 5.97600 29.92900
H  36.19300 5.79600 31.36000
H  36.30100 4.63700 30.09800
H  35.21800 4.53300 26.40100
H  34.61200 5.11100 27.89200
H  36.17600 4.15900 27.80700
H  39.55000 9.70000 24.50300
H  42.52700 9.37700 24.62100
H  39.79700 7.86200 23.15500
H  40.30300 6.90300 24.56300
H  41.49100 7.85800 23.54900
H  40.97700 11.71900 23.75400
H  42.64700 11.57700 23.97500
H  41.36200 12.40200 26.43600
H  40.77000 13.35500 25.11500
H  42.54400 13.20000 25.46000
H  45.33400 12.27000 27.95100
H  46.11000 10.90400 28.54900
H  45.95800 12.35600 29.66100
H  42.74200 12.11800 33.36000
H  43.49100 9.35500 36.72300
H  43.52200 10.99400 37.30100
H  44.98200 10.21700 36.58200
Mg 27.02000 50.18200 27.34600
C  24.82400 51.07600 29.98900
C  29.43000 49.71800 29.76500
C  29.12400 49.83000 24.90900
C  24.43100 51.04600 25.10300
N  27.08400 50.32400 29.68900
C  26.03700 50.60200 30.52000
C  26.49100 50.35800 31.99300
C  28.05900 50.23100 31.86900
C  28.22900 50.07300 30.33600
C  28.80700 51.35600 32.48900
C  25.84400 49.11000 32.79600
C  24.64800 49.46000 33.76600
H  24.58300 48.85400 35.16300
N  28.99400 49.74000 27.29700
C  29.86000 49.54400 28.38400
C  31.13800 49.20400 27.84500
C  31.07200 49.40900 26.40400
C  29.70700 49.71200 26.16000
C  32.35600 49.09100 28.80300
C  32.14600 49.27800 25.37600
O  31.94700 49.51600 24.17200
C  33.50300 48.94300 25.77800
N  26.81200 50.46400 25.26600
C  27.79500 50.07800 24.45400
C  27.41600 50.04600 22.95000
C  25.87400 50.30500 23.10300
C  25.64600 50.58600 24.55500
C  28.12900 51.00000 22.00600
C  24.89600 49.26100 22.53600
C  24.67400 49.48800 21.02000
N  25.04800 51.00200 27.45700
C  24.13800 51.30500 26.47500
C  22.96400 51.79300 27.05600
C  23.17100 51.70100 28.44300
C  24.45400 51.16500 28.63500
C  21.78600 52.45200 26.40700
C  22.59300 52.01500 29.78000
O  21.48600 52.41400 30.07700
C  23.71000 51.56000 30.80100
C  24.23900 52.78300 31.56400
O  24.95900 53.70600 31.14300
O  23.78700 52.70500 32.86300
C  24.33600 53.61500 33.85100
H  30.22500 49.61500 30.50700
H  29.68500 49.58400 24.00500
H  23.72300 51.22900 24.29300
H  26.22700 51.26800 32.53200
H  28.47400 49.28900 32.22800
H  29.49500 51.04000 33.27300
H  28.09300 52.01100 32.98700
H  29.41000 51.84400 31.72300
H  26.70900 48.60500 33.22700
H  25.49000 48.46100 31.99500
H  23.79200 49.04400 33.23400
H  24.41600 50.52400 33.80600
H  32.08300 49.77300 29.60900
H  33.33300 49.36100 28.40300
H  32.35700 48.03800 29.08300
H  33.81100 49.82500 26.34000
H  34.00700 48.78700 24.82500
H  33.61900 48.16500 26.53300
H  27.51600 49.03800 22.54700
H  25.59000 51.26600 22.67500
H  28.93700 51.45900 22.57700
H  27.51900 51.81800 21.62300
H  28.54200 50.46300 21.15200
H  23.92900 49.07400 23.00500
H  25.44200 48.32200 22.62900
H  25.38300 50.12800 20.49600
H  23.67500 49.86500 20.79800
H  24.78200 48.48100 20.61700
H  20.91900 52.03800 26.92000
H  21.92000 52.16700 25.36400
H  21.86400 53.50200 26.68900
H  23.40300 50.90700 31.61700
H  25.27300 54.02800 33.47500
H  24.71700 53.06100 34.70900
H  23.68400 54.46400 34.05600

