158

Mg -1.58800 18.21200 27.76100
C  -2.03500 15.94300 30.35100
C  -2.39900 20.75200 29.74400
C  -1.32500 20.20700 24.91200
C  -1.32600 15.41400 25.63500
N  -2.03000 18.27100 29.81000
C  -2.13800 17.28400 30.76500
C  -2.56200 17.88500 32.17800
C  -2.89300 19.34800 31.86700
C  -2.49100 19.47600 30.38800
C  -4.42300 19.68500 31.99800
C  -1.42900 17.75200 33.25700
C  -1.83300 17.31900 34.61500
H  -0.69000 17.09100 35.67000
N  -1.85000 20.25900 27.39200
C  -2.13500 21.10400 28.36600
C  -2.04500 22.49100 27.83700
C  -1.74500 22.37400 26.45700
C  -1.63600 20.86800 26.19000
C  -2.36100 23.79600 28.58600
C  -1.53000 23.42100 25.42200
O  -1.33800 23.08800 24.25300
C  -1.40900 24.87100 25.78300
N  -1.20400 17.89300 25.64400
C  -1.10200 18.87600 24.68100
C  -0.69000 18.25800 23.28800
C  -0.61700 16.70900 23.58000
C  -1.11300 16.65900 25.05400
C  -1.73100 18.59300 22.18300
C  0.72900 16.09100 23.38700
C  1.96600 16.78100 24.12000
N  -1.65800 16.10800 27.92400
C  -1.58500 15.10000 26.96000
C  -1.84500 13.83400 27.61200
C  -1.97200 14.12300 28.89600
C  -1.85800 15.44800 29.02900
C  -1.86000 12.49800 26.85300
C  -2.17500 13.56100 30.26200
O  -2.21400 12.40800 30.65400
C  -2.18400 14.68100 31.23300
C  -1.04300 14.42700 32.10900
O  0.13400 14.72500 31.89800
O  -1.53100 13.66000 33.09500
C  -0.45300 13.18000 33.95800
H  -2.61400 21.62100 30.36900
H  -1.16600 20.74300 23.97400
H  -1.34400 14.60200 24.90600
H  -3.44700 17.36400 32.54300
H  -2.35400 20.03900 32.51600
H  -4.57600 20.42200 32.78600
H  -4.98600 18.79300 32.27400
H  -4.87700 20.14300 31.11900
H  -0.88000 18.68500 33.38800
H  -0.70000 17.03500 32.87900
H  -2.57700 16.52700 34.53000
H  -2.31000 18.20700 35.02900
H  -1.51600 24.46800 28.73300
H  -2.58200 23.46200 29.59900
H  -3.29500 24.24900 28.25200
H  -0.43900 24.95800 26.27200
H  -2.23800 25.23900 26.38900
H  -1.44100 25.34100 24.80000
H  0.32200 18.48400 22.95200
H  -1.29100 16.23600 22.86500
H  -2.53500 19.14300 22.67300
H  -2.03700 17.62500 21.78700
H  -1.40600 19.30100 21.42000
H  0.85600 16.18800 22.30900
H  0.59700 15.01500 23.49400
H  1.62100 17.19900 25.06600
H  2.29300 17.62400 23.51100
H  2.78600 16.08200 24.28600
H  -0.99200 12.39800 26.20100
H  -2.79200 12.46300 26.28900
H  -1.79500 11.65800 27.54400
H  -3.17200 14.54900 31.67300
H  0.31700 12.74200 33.32400
H  -0.86800 12.39600 34.59300
H  0.05200 13.84500 34.65900
Mg -2.03000 35.48200 26.73600
C  -3.72400 33.72600 29.31700
C  -0.84900 37.66100 29.16900
C  -0.48000 37.03100 24.38200
C  -3.62400 33.22500 24.48100
N  -2.24200 35.66700 28.97100
C  -2.90500 34.79500 29.81100
C  -2.82800 35.19800 31.27200
C  -2.03100 36.53700 31.11100
C  -1.71300 36.67600 29.69300
C  -2.69000 37.75500 31.74000
C  -1.99600 34.18000 32.12700
C  -1.85500 34.54000 33.53800
H  -2.66500 33.64000 34.44900
N  -0.84700 37.17800 26.76400
C  -0.46500 37.96600 27.86300
C  0.40300 39.04100 27.37600
C  0.54100 38.86800 25.97000
C  -0.37400 37.64900 25.61000
C  1.07700 40.03000 28.26700
C  1.33500 39.57400 24.84900
O  1.47100 39.11300 23.74100
C  2.20800 40.78600 25.30800
N  -2.06700 35.19900 24.78300
C  -1.16100 35.85800 24.07600
C  -0.97000 35.15800 22.64200
C  -2.00300 33.95200 22.63200
C  -2.58700 34.09400 24.02500
C  -1.09400 36.21300 21.50500
C  -1.31500 32.54100 22.36100
C  -2.14000 31.59300 21.40200
N  -3.48800 33.90400 26.82300
C  -4.03200 33.11600 25.83800
C  -4.98900 32.20200 26.41600
C  -4.85100 32.42300 27.80700
C  -3.97000 33.41200 28.00300
C  -5.77900 31.17500 25.67900
C  -5.23000 31.91400 29.13600
O  -5.78900 30.87000 29.43800
C  -4.63300 32.87500 30.15500
C  -5.71200 33.67100 30.75400
O  -6.55700 34.17500 30.04900
O  -5.77300 33.54600 32.13000
C  -6.91600 34.20400 32.81200
H  -0.58000 38.38800 29.93700
H  0.05600 37.51600 23.56300
H  -3.94300 32.46200 23.76800
H  -3.82000 35.36000 31.69500
H  -1.05300 36.37900 31.56700
H  -3.72500 37.52200 31.98900
H  -2.64600 38.64700 31.11600
H  -2.31500 38.06800 32.71400
H  -0.98200 34.32200 31.75300
H  -2.47300 33.20100 32.10900
H  -2.08000 35.57800 33.78200
H  -0.80500 34.48300 33.82400
H  0.55200 40.98000 28.16800
H  2.09400 40.17500 27.90200
H  1.15200 39.82500 29.33400
H  2.42500 41.41100 24.44200
H  3.07200 40.40100 25.84900
H  1.63300 41.38600 26.01300
H  0.08300 34.88100 22.70300
H  -2.63600 34.21100 21.78400
H  -1.63500 37.09400 21.85200
H  -1.69400 35.84400 20.67400
H  -0.12200 36.51900 21.11700
H  -1.03500 32.08800 23.31200
H  -0.36000 32.73500 21.87300
H  -1.54700 31.10000 20.63100
H  -2.98100 32.12400 20.95600
H  -2.53100 30.79900 22.03700
H  -5.67300 31.32900 24.60500
H  -6.73900 31.19700 26.19400
H  -5.40400 30.18400 25.93800
H  -4.17500 32.23700 30.91100
H  -7.77800 34.15400 32.14700
H  -6.61100 35.22800 33.02800
H  -7.11000 33.63500 33.72200

