158

Mg 25.37700 0.99700 29.92300
C  27.56200 0.70400 32.53400
C  22.85700 1.73900 32.06500
C  23.29100 1.03200 27.36600
C  27.99700 0.17900 27.66800
N  25.16800 1.02500 32.14600
C  26.27100 1.12700 32.95500
C  25.81000 1.62400 34.31000
C  24.19400 1.70500 34.26500
C  24.00600 1.50800 32.75200
C  23.32100 0.84300 35.16400
C  26.49900 2.86800 34.75600
C  27.24600 2.70700 36.09600
H  26.90700 3.78900 37.15500
N  23.28600 1.26700 29.69900
C  22.46200 1.56800 30.72700
C  21.09700 1.69000 30.25100
C  21.17900 1.50000 28.79500
C  22.65700 1.29300 28.54300
C  19.93600 1.89200 31.12600
C  20.06500 1.54000 27.77300
O  20.21400 1.29600 26.59900
C  18.67400 1.79600 28.21900
N  25.60200 0.87300 27.82300
C  24.55300 0.89500 26.98100
C  25.10300 0.89300 25.54000
C  26.62800 0.58600 25.63700
C  26.76100 0.58800 27.13000
C  24.37400 -0.09100 24.60000
C  27.56300 1.66600 24.90800
C  28.37000 1.16300 23.73100
N  27.34900 0.46600 30.04400
C  28.33500 0.17100 29.07100
C  29.55500 -0.11800 29.78100
C  29.30500 0.14300 31.18400
C  27.97800 0.44200 31.22100
C  30.84100 -0.41400 29.09100
C  29.95900 0.24700 32.44700
O  31.11800 0.11200 32.73400
C  28.79000 0.58300 33.46200
C  28.67800 -0.55300 34.41000
O  27.77300 -1.41200 34.45700
O  29.60700 -0.35800 35.43800
C  29.54100 -1.14700 36.68300
H  22.20600 2.13400 32.84700
H  22.58700 1.05300 26.53100
H  28.74800 -0.14200 26.94300
H  26.07000 0.81700 34.99600
H  23.80300 2.70400 34.45900
H  22.70000 1.39700 35.86700
H  23.96100 0.12800 35.68200
H  22.63300 0.38200 34.45600
H  25.75200 3.66200 34.73100
H  27.31200 3.10100 34.06800
H  28.30300 2.93200 35.95200
H  27.15000 1.67300 36.42600
H  19.41200 2.77800 30.76800
H  20.29100 2.01900 32.14900
H  19.31000 1.00000 31.13000
H  17.96800 1.70800 27.39400
H  18.76400 2.77900 28.68200
H  18.37600 1.12600 29.02500
H  24.90100 1.88500 25.13800
H  26.90900 -0.36700 25.18700
H  23.72500 -0.76600 25.15900
H  25.03500 -0.74300 24.02900
H  23.75200 0.46100 23.89500
H  28.23800 2.06700 25.66400
H  26.94900 2.38000 24.35900
H  27.80900 1.34500 22.81500
H  28.62300 0.13100 23.97200
H  29.31100 1.71300 23.69500
H  31.67200 0.18100 29.47000
H  30.75400 -0.14200 28.03900
H  31.01000 -1.49000 29.07900
H  29.02500 1.48800 34.02200
H  30.49800 -1.01700 37.18800
H  29.39800 -2.20600 36.46700
H  28.70200 -0.83400 37.30500
Mg 39.63400 9.22500 30.09200
C  41.45800 10.45200 32.82600
C  37.21600 8.17500 32.28300
C  38.01700 7.86600 27.56000
C  42.25100 10.34200 27.93000
N  39.46400 9.20700 32.34200
C  40.23400 9.90500 33.21600
C  39.64600 9.86800 34.65900
C  38.30800 9.06600 34.43400
C  38.33700 8.78400 32.96700
C  38.18400 7.73400 35.28800
C  39.54400 11.34900 35.24300
C  40.35900 11.58700 36.51500
H  39.58000 12.15600 37.66300
N  37.98200 8.03300 29.97500
C  37.08800 7.66700 30.96600
C  35.95400 7.02800 30.43700
C  36.25200 6.74000 29.12100
C  37.48100 7.54600 28.83200
C  34.75300 6.68700 31.32000
C  35.49600 6.15100 27.98000
O  35.92400 5.85500 26.86300
C  34.10100 5.71300 28.35200
N  40.21100 9.01700 28.03800
C  39.27100 8.46400 27.13600
C  39.58200 8.88900 25.67900
C  40.94500 9.58100 25.85600
C  41.22500 9.64500 27.34900
C  39.72700 7.70300 24.70500
C  40.96800 11.01800 25.18300
C  39.84000 12.02400 25.52700
N  41.49900 10.20300 30.34200
C  42.46400 10.59200 29.35700
C  43.56800 11.22400 30.03200
C  43.22600 11.21800 31.41100
C  41.96300 10.52100 31.51500
C  44.84600 11.91900 29.50700
C  43.60700 11.67200 32.73100
O  44.58400 12.32500 33.09900
C  42.45000 11.17400 33.73600
C  43.11000 10.11900 34.63100
O  43.16800 8.92100 34.43300
O  43.76500 10.80200 35.65200
C  44.22900 10.07100 36.89000
H  36.37600 8.08500 32.97300
H  37.44500 7.52200 26.69600
H  43.17100 10.57700 27.39000
H  40.27500 9.22500 35.27500
H  37.40600 9.64600 34.63400
H  38.21400 6.89300 34.59500
H  37.21600 7.68500 35.78700
H  39.03400 7.54700 35.94300
H  38.50400 11.63600 35.39800
H  40.07200 11.98000 34.52800
H  41.03300 12.42000 36.31600
H  41.04100 10.77300 36.76000
H  33.91400 7.37900 31.23700
H  34.99900 6.63200 32.38000
H  34.38300 5.68300 31.11200
H  33.52800 6.38400 28.99200
H  34.32700 4.81700 28.93100
H  33.49800 5.47500 27.47600
H  38.80800 9.47200 25.18100
H  41.80700 9.02600 25.48400
H  40.07900 6.79300 25.19000
H  40.49000 7.84600 23.94000
H  38.78300 7.55000 24.18300
H  40.84100 10.74000 24.13600
H  41.98700 11.38300 25.30800
H  39.21500 12.16300 24.64500
H  40.34200 12.94700 25.81500
H  39.21000 11.78200 26.38300
H  45.14700 11.35300 28.62500
H  45.66200 11.82400 30.22300
H  44.64400 12.97800 29.34200
H  42.14200 11.90200 34.48600
H  44.90600 10.76100 37.39400
H  44.58300 9.09200 36.56900
H  43.32500 9.86800 37.46300

