158

Mg 40.74100 8.15600 29.53500
C  42.21800 9.91600 32.35400
C  38.48000 6.82900 31.77500
C  39.35500 6.40600 27.06400
C  43.58300 8.97300 27.77900
N  40.33400 8.43600 31.75200
C  41.04700 9.27200 32.68500
C  40.41800 9.15200 34.11800
C  39.35600 8.00900 33.94400
C  39.34700 7.74500 32.36800
C  39.62000 6.72400 34.78800
C  39.81000 10.54900 34.58700
C  39.32800 10.43400 36.08000
H  40.05500 11.35400 37.06000
N  39.06500 6.86200 29.37000
C  38.26300 6.52600 30.41200
C  37.17700 5.70600 29.91900
C  37.37800 5.57400 28.49300
C  38.59900 6.27400 28.26000
C  36.06600 5.17600 30.87000
C  36.53600 4.92200 27.42300
O  36.75400 4.91900 26.18200
C  35.25500 4.37200 27.82300
N  41.45300 7.67200 27.73200
C  40.62900 7.02200 26.82700
C  41.33200 6.87700 25.47000
C  42.44400 7.99000 25.57700
C  42.52400 8.22800 27.16100
C  41.95900 5.56500 25.11700
C  42.04100 9.22900 24.69400
C  41.20600 10.36000 25.32100
N  42.55100 9.24400 29.89900
C  43.61600 9.43900 29.11600
C  44.64400 10.18600 29.83500
C  44.19200 10.40700 31.13300
C  42.85200 9.81300 31.14000
C  45.92200 10.47400 29.15600
C  44.47000 10.87600 32.45300
O  45.45400 11.43100 32.94300
C  43.17300 10.55200 33.32400
C  43.59900 9.75600 34.51500
O  44.38700 8.85400 34.52700
O  43.10500 10.34000 35.66500
C  43.56200 9.82700 36.91900
H  37.75500 6.49500 32.52000
H  38.98400 5.92300 26.15800
H  44.41100 9.34900 27.17500
H  41.07800 8.79500 34.90800
H  38.38100 8.37400 34.26600
H  39.62200 5.81600 34.18500
H  38.84000 6.62200 35.54200
H  40.55000 6.81200 35.35100
H  38.86600 10.84600 34.13000
H  40.48200 11.38600 34.39600
H  39.47400 9.42300 36.46000
H  38.25400 10.60700 36.15100
H  35.27300 5.65800 30.29800
H  36.10400 5.38100 31.94000
H  35.88000 4.10400 30.80300
H  34.75200 5.24300 28.24300
H  35.47500 3.66400 28.62200
H  34.67200 3.95900 27.00000
H  40.56400 7.12600 24.73800
H  43.47000 7.75900 25.29200
H  41.68200 4.82400 25.86700
H  43.04300 5.53500 25.22400
H  41.68200 5.41200 24.07400
H  41.47600 8.88100 23.82900
H  42.93000 9.70700 24.28200
H  40.94400 10.26400 26.37400
H  40.25900 10.25800 24.79100
H  41.65600 11.32900 25.10500
H  46.23000 9.62000 28.55300
H  46.66900 10.60500 29.93900
H  45.97000 11.30400 28.45100
H  42.67900 11.45400 33.68400
H  43.88800 8.79300 36.80900
H  42.79900 9.81100 37.69700
H  44.49700 10.31900 37.18900
Mg 47.31800 24.59000 28.66800
C  47.98100 26.76700 31.15900
C  46.46300 22.21800 30.86000
C  46.55700 22.74200 26.00000
C  48.49600 27.04300 26.27900
N  47.37700 24.53400 30.84800
C  47.50400 25.55000 31.69600
C  47.34500 25.05200 33.19400
C  46.93300 23.59000 32.97900
C  46.89300 23.38300 31.46300
C  47.85200 22.62800 33.71700
C  46.31000 25.93500 33.93000
C  46.77500 26.47600 35.38400
H  45.70000 26.50300 36.34700
N  46.69200 22.75900 28.44500
C  46.24900 21.92500 29.47900
C  45.94000 20.67300 28.91600
C  46.00400 20.72200 27.52200
C  46.38200 22.16800 27.29000
C  45.77400 19.42100 29.85900
C  45.87000 19.63500 26.43600
O  46.22200 19.85800 25.30600
C  45.32100 18.32600 26.68100
N  47.45800 24.79900 26.44200
C  47.13200 23.90400 25.58200
C  47.35400 24.26100 24.11300
C  47.73700 25.77900 24.27500
C  47.95800 25.84000 25.78700
C  48.48900 23.35300 23.50100
C  46.66400 26.79800 23.70100
C  45.43700 27.18800 24.53600
N  48.11600 26.46700 28.69000
C  48.45600 27.35600 27.70400
C  48.87200 28.67700 28.20300
C  48.70000 28.50000 29.60300
C  48.25500 27.13900 29.83200
C  49.48500 29.88900 27.40100
C  48.79000 29.10600 30.89300
O  49.11000 30.24500 31.20200
C  48.27400 28.04700 31.87800
C  49.26800 27.89800 32.98800
O  50.20100 27.15800 32.82600
O  49.04900 28.82700 33.97000
C  49.81600 28.75300 35.22300
H  46.17100 21.49100 31.62100
H  46.17500 22.03400 25.26200
H  49.01500 27.72900 25.60700
H  48.28700 25.16300 33.73100
H  45.91900 23.41800 33.33900
H  47.23000 21.92300 34.26900
H  48.44200 23.12700 34.48700
H  48.55500 21.98000 33.19300
H  45.35500 25.47100 34.17800
H  46.09600 26.83900 33.36100
H  47.22400 27.45100 35.19700
H  47.51100 25.73900 35.70700
H  46.46600 18.62600 29.58000
H  44.76400 19.04600 29.69600
H  45.92600 19.59300 30.92500
H  44.47100 18.27700 27.36200
H  46.20900 17.80100 27.03500
H  45.15400 17.75000 25.77100
H  46.43100 24.08000 23.56300
H  48.68600 25.91700 23.75600
H  48.38300 22.35200 23.92000
H  49.44900 23.70200 23.88200
H  48.54000 23.30900 22.41300
H  46.30200 26.25500 22.82800
H  47.30900 27.59600 23.33300
H  45.50500 26.53100 25.40300
H  44.60800 26.93800 23.87300
H  45.55900 28.21000 24.89700
H  48.88800 30.12600 26.52000
H  50.46600 29.50300 27.12600
H  49.51700 30.85300 27.90900
H  47.36900 28.54300 32.22900
H  49.25500 28.26800 36.02300
H  49.95600 29.77100 35.58400
H  50.77800 28.26300 35.07500

