158

Mg 1.91100 -1.63000 45.15600
C  5.25700 -0.73100 44.62500
C  0.95200 1.28500 43.51500
C  -1.23200 -2.84800 45.22700
C  3.13200 -4.79000 46.42800
N  3.03300 0.03600 44.10900
C  4.37400 0.25400 44.14300
C  4.74700 1.68300 43.46200
C  3.34400 2.29900 43.36700
C  2.34300 1.19000 43.74700
C  3.12900 3.65400 44.08600
C  5.40100 1.55500 42.11100
C  6.03400 2.93800 41.55300
H  5.79200 3.31200 40.03900
N  0.17300 -0.90500 44.33900
C  -0.04600 0.34200 43.75700
C  -1.44800 0.43100 43.51900
C  -2.14900 -0.72400 43.98300
C  -1.06600 -1.58400 44.48800
C  -2.04200 1.77000 42.97900
C  -3.59300 -0.94800 43.85600
O  -4.23400 -0.01200 43.40400
C  -4.28900 -2.20000 44.37900
N  1.10500 -3.54100 45.66600
C  -0.23400 -3.65500 45.78600
C  -0.67000 -4.94700 46.46100
C  0.69700 -5.64800 46.81100
C  1.75100 -4.67900 46.22300
C  -1.64700 -4.85400 47.62100
C  0.77100 -7.06200 46.18200
C  1.40500 -8.14400 47.03600
N  3.77900 -2.56700 45.56100
C  4.08900 -3.80800 46.07600
C  5.49900 -4.03300 46.02000
C  6.00600 -2.80300 45.50900
C  4.90500 -1.92700 45.20000
C  6.19300 -5.24100 46.48200
C  7.22500 -2.08200 45.15400
O  8.42400 -2.44600 45.35100
C  6.80900 -0.75200 44.47900
C  7.46700 0.41700 45.13400
O  7.73300 0.52200 46.32400
O  7.91700 1.25800 44.14100
C  8.65300 2.37200 44.74100
H  0.68700 2.33900 43.41000
H  -2.26000 -3.16100 45.42300
H  3.45900 -5.76500 46.79500
H  5.30700 2.33300 44.13500
H  3.11800 2.60800 42.34700
H  2.43000 4.35600 43.63200
H  4.09400 4.16000 44.10000
H  2.89500 3.51100 45.14100
H  4.66400 1.04900 41.48700
H  6.21800 0.84200 42.22100
H  7.07100 2.60300 41.54800
H  5.85300 3.76000 42.24500
H  -2.49500 1.58700 42.00500
H  -1.26400 2.51800 42.82800
H  -2.81200 2.28600 43.55400
H  -4.09000 -2.37700 45.43600
H  -3.82500 -3.02800 43.84200
H  -5.36900 -2.10500 44.27200
H  -1.23200 -5.52200 45.72500
H  0.75500 -5.72800 47.89600
H  -1.69200 -3.81100 47.93600
H  -1.33100 -5.54200 48.40600
H  -2.65800 -5.16400 47.35400
H  1.38200 -7.00700 45.28000
H  -0.25700 -7.34900 45.96400
H  1.81000 -7.73700 47.96200
H  2.23300 -8.69300 46.58800
H  0.58000 -8.81600 47.27200
H  7.16600 -4.81100 46.71800
H  6.26400 -5.91500 45.62900
H  5.70500 -5.71800 47.33200
H  7.09400 -0.85700 43.43200
H  7.92700 3.05000 45.19100
H  9.26300 2.92300 44.02600
H  9.34300 2.00300 45.49900
Mg 16.33600 -1.95200 28.42400
C  15.39700 -0.17600 31.31500
C  18.59200 -3.70300 30.48600
C  17.55100 -3.42300 25.80700
C  14.55200 0.34700 26.42200
N  16.92000 -1.98000 30.68600
C  16.46500 -1.08200 31.59500
C  17.25200 -1.25800 32.90500
C  18.26000 -2.44600 32.60600
C  17.91100 -2.73300 31.22800
C  19.76100 -2.13000 32.88600
C  16.21400 -1.61300 34.05000
C  16.43800 -0.83100 35.30700
H  17.87100 -0.29200 35.73700
N  17.74100 -3.40300 28.20800
C  18.51700 -3.98400 29.13200
C  19.19400 -5.10500 28.52400
C  18.84800 -5.13900 27.14500
C  17.98800 -3.96300 26.99200
C  19.99000 -6.07200 29.46500
C  19.33200 -6.08800 26.04600
O  19.06500 -5.92000 24.87500
C  20.22000 -7.11800 26.41500
N  16.15300 -1.56700 26.40000
C  16.72400 -2.35600 25.49000
C  16.63900 -1.68200 24.13600
C  15.69600 -0.47900 24.29800
C  15.36200 -0.57300 25.79700
C  18.08400 -1.34700 23.63000
C  14.49400 -0.53300 23.37000
C  14.87500 -0.61000 21.87900
N  15.16900 -0.28500 28.73300
C  14.38600 0.43300 27.80300
C  13.49800 1.26200 28.55200
C  13.91300 1.13600 29.92000
C  14.89000 0.12500 29.96800
C  12.52500 2.19600 27.91400
C  13.69000 1.63100 31.30800
O  13.00400 2.51700 31.73100
C  14.75300 0.88200 32.17400
C  15.68900 1.90200 32.69900
O  16.62500 2.42100 32.13800
O  15.33000 2.22600 34.00100
C  15.89400 3.49900 34.59000
H  19.16500 -4.35100 31.15400
H  17.94000 -3.97100 24.94700
H  13.98700 1.01900 25.77200
H  17.69300 -0.30900 33.21100
H  18.02100 -3.36800 33.13500
H  20.31100 -2.90000 33.42600
H  19.73300 -1.24200 33.51800
H  20.31700 -1.99200 31.95900
H  16.32000 -2.65300 34.36100
H  15.19700 -1.39900 33.72400
H  16.00800 -1.47200 36.07600
H  15.85700 0.08000 35.16200
H  20.63000 -6.78200 28.94100
H  19.25000 -6.69200 29.97100
H  20.66400 -5.48700 30.09000
H  19.71800 -7.91100 26.97000
H  20.98800 -6.60400 26.99300
H  20.73300 -7.53000 25.54600
H  16.22400 -2.33300 23.36600
H  16.26100 0.43100 24.09900
H  18.70000 -1.16300 24.51000
H  18.13000 -0.51000 22.93300
H  18.52200 -2.16500 23.05700
H  13.94000 0.39700 23.49400
H  13.96300 -1.42700 23.69700
H  15.92000 -0.34700 21.71500
H  14.32400 0.04500 21.20400
H  14.82000 -1.61300 21.45500
H  12.27900 1.80400 26.92800
H  13.04700 3.15300 27.88500
H  11.59700 2.28800 28.48000
H  14.26900 0.43000 33.04000
H  15.75000 4.26000 33.82300
H  16.95800 3.51400 34.82600
H  15.41200 3.64900 35.55600

