158

Mg -0.21800 7.52400 26.92500
C  0.73400 9.48600 29.75000
C  -0.84500 4.96100 28.98900
C  -0.65700 5.56900 24.15700
C  0.69800 10.17700 24.83200
N  0.01000 7.26600 29.15200
C  0.26500 8.21400 30.10200
C  -0.09900 7.73300 31.54600
C  -0.41000 6.21000 31.27900
C  -0.37700 6.05700 29.69800
C  0.71800 5.24200 31.82900
C  -1.30600 8.41600 32.31400
C  -1.19800 8.61100 33.83000
H  -0.40900 7.61300 34.72100
N  -0.73800 5.49100 26.64200
C  -1.06000 4.57500 27.64000
C  -1.52500 3.33000 27.05000
C  -1.46700 3.47800 25.63800
C  -0.92000 4.87100 25.43000
C  -1.75700 2.12400 27.94400
C  -1.92700 2.51900 24.61700
O  -1.79700 2.79300 23.38900
C  -2.42400 1.10400 24.89700
N  -0.00000 7.85400 24.77900
C  -0.25000 6.88800 23.86500
C  -0.04700 7.52400 22.38200
C  -0.07600 9.09200 22.63300
C  0.22200 9.06700 24.17900
C  1.19200 6.93700 21.75600
C  -1.41100 9.80100 22.34300
C  -1.39100 11.22200 21.75500
N  0.69800 9.42800 27.15700
C  0.92600 10.43800 26.19000
C  1.42300 11.59500 26.95500
C  1.37300 11.34200 28.33900
C  0.92800 9.96400 28.40800
C  1.85600 12.86200 26.26000
C  1.61700 11.81800 29.76400
O  2.01700 12.84000 30.25800
C  0.95400 10.69100 30.67800
C  1.87400 10.51100 31.81300
O  2.87300 9.80700 31.83100
O  1.54300 11.42800 32.80200
C  2.28600 11.18400 34.05500
H  -1.02200 4.05200 29.56900
H  -0.83900 4.99200 23.24900
H  0.90500 11.08900 24.26800
H  0.87400 7.71900 32.03600
H  -1.34200 5.94600 31.77900
H  1.53500 5.82100 32.25900
H  1.09500 4.67800 30.97600
H  0.28600 4.55800 32.55900
H  -2.19600 7.81500 32.12500
H  -1.46700 9.35900 31.79100
H  -2.19700 8.67400 34.26100
H  -0.70800 9.56300 34.03200
H  -2.73400 1.78100 27.60400
H  -1.92000 2.31800 29.00400
H  -1.06300 1.28900 27.84800
H  -2.78700 0.57700 24.01400
H  -3.29000 1.27200 25.53900
H  -1.67400 0.53500 25.44600
H  -0.99900 7.19100 21.96700
H  0.73500 9.52400 22.04700
H  1.05500 6.38000 20.82900
H  1.65500 6.17600 22.38500
H  1.92300 7.68500 21.45200
H  -1.87800 9.95900 23.31500
H  -2.08100 9.10400 21.83900
H  -1.64200 11.28300 20.69600
H  -0.43200 11.73100 21.85500
H  -1.94200 11.87600 22.43100
H  2.42500 12.55800 25.38200
H  2.54500 13.32900 26.96300
H  0.98100 13.48800 26.08200
H  0.02700 11.15600 31.01200
H  3.00400 10.36400 34.09700
H  1.68300 11.18500 34.96300
H  2.72600 12.18100 34.02000
Mg 40.44700 10.06500 29.46300
C  42.17300 11.22900 32.09400
C  37.84500 9.02100 31.63600
C  38.70700 8.63000 26.95700
C  42.94200 11.05400 27.27300
N  39.96500 10.26600 31.60600
C  40.90700 10.73700 32.48600
C  40.34300 10.61900 33.98400
C  39.24700 9.60600 33.78000
C  38.95100 9.63800 32.28700
C  39.42200 8.24000 34.55100
C  39.86400 11.96100 34.50900
C  39.18300 12.08400 35.92500
H  39.81000 12.92500 37.01400
N  38.50200 9.02100 29.28000
C  37.62200 8.71000 30.32000
C  36.46500 8.01300 29.79700
C  36.69000 7.99200 28.41000
C  38.00200 8.59500 28.16300
C  35.26600 7.53700 30.72100
C  35.92200 7.26000 27.46400
O  36.34100 6.90600 26.35000
C  34.64800 6.87200 27.78900
N  40.86700 9.68400 27.40400
C  39.97100 9.15500 26.56000
C  40.31600 9.37000 25.09100
C  41.63500 10.23500 25.17500
C  41.77300 10.36900 26.74500
C  40.41100 8.11200 24.20000
C  41.76500 11.63400 24.39500
C  41.00700 12.79700 24.98000
N  42.24200 10.85500 29.59900
C  43.13500 11.33600 28.64200
C  44.23100 11.99600 29.32300
C  43.89800 12.05900 30.68500
C  42.69100 11.36600 30.76200
C  45.46300 12.39500 28.71500
C  44.36100 12.46200 32.00100
O  45.39800 13.02100 32.34900
C  43.22600 12.00000 33.01200
C  43.76900 11.17100 34.14200
O  44.08500 10.00000 34.23000
O  43.86600 12.06800 35.25300
C  44.50300 11.42900 36.47000
H  37.06900 8.72500 32.34500
H  38.13200 8.21400 26.12600
H  43.69600 11.53300 26.64500
H  41.22400 10.26700 34.52100
H  38.37800 10.08200 34.23400
H  40.43600 8.17100 34.94600
H  39.34200 7.36000 33.91300
H  38.71900 8.27700 35.38400
H  39.28100 12.43700 33.71900
H  40.81300 12.49400 34.56800
H  39.08300 11.04300 36.23100
H  38.15900 12.45400 35.87500
H  35.50500 7.66400 31.77700
H  35.31400 6.44800 30.72300
H  34.25200 7.71800 30.36300
H  34.59600 6.04200 28.49300
H  34.11600 6.65600 26.86200
H  34.18200 7.69900 28.32500
H  39.63500 10.08700 24.63300
H  42.48700 9.58700 24.96900
H  40.12400 7.27400 24.83700
H  41.34000 7.95500 23.65200
H  39.61200 8.31600 23.48800
H  41.46400 11.46200 23.36200
H  42.81900 11.91000 24.44400
H  41.75000 13.52300 25.30700
H  40.47300 12.41900 25.85200
H  40.26800 13.09800 24.23700
H  45.44300 13.46800 28.52500
H  45.63300 11.74500 27.85600
H  46.19600 12.15900 29.48600
H  42.81600 12.93300 33.40000
H  43.87200 11.48300 37.35700
H  45.49700 11.77500 36.75100
H  44.61300 10.34500 36.43900

