158

Mg 35.87000 49.10500 25.85000
C  36.45600 47.06600 28.58900
C  34.67600 51.57400 27.90600
C  35.07000 50.63600 23.15800
C  36.66600 46.26100 23.75800
N  35.65300 49.30700 28.00300
C  35.94300 48.32700 28.97400
C  35.76200 48.94100 30.36200
C  34.88700 50.25000 30.15200
C  35.06200 50.44400 28.60100
C  33.34900 50.15200 30.53800
C  37.12700 49.20000 31.13900
C  37.00700 49.08100 32.69600
H  36.72600 50.29600 33.53100
N  35.13400 50.89200 25.54400
C  34.76300 51.75700 26.53600
C  34.40200 53.00300 25.87200
C  34.44200 52.78900 24.45400
C  34.91100 51.38100 24.34800
C  34.05400 54.30500 26.72500
C  34.00200 53.67100 23.42400
O  34.05800 53.29000 22.26900
C  33.56100 55.05000 23.75800
N  36.11600 48.57400 23.68500
C  35.71900 49.43200 22.82700
C  35.83400 48.95200 21.37200
C  36.63100 47.57000 21.63500
C  36.39400 47.44300 23.10600
C  34.44600 48.65200 20.68900
C  38.21700 47.76900 21.35500
C  38.87500 46.84500 20.32200
N  36.42700 47.03600 26.09700
C  36.61200 45.97100 25.14800
C  37.02400 44.75700 25.88900
C  36.98000 45.13400 27.21600
C  36.58700 46.52000 27.29700
C  37.58900 43.40500 25.34200
C  37.26600 44.69600 28.57600
O  37.62600 43.64600 28.96800
C  36.84200 45.87800 29.50300
C  35.66700 45.29900 30.30300
O  34.62300 44.93200 29.83700
O  35.90800 45.35500 31.66900
C  34.77500 45.14800 32.60900
H  34.18600 52.21000 28.64500
H  34.86900 51.16700 22.22500
H  36.88500 45.37000 23.16600
H  35.23100 48.16300 30.91000
H  35.31500 51.12100 30.64800
H  32.71900 50.50200 29.72100
H  33.07500 50.77900 31.38700
H  33.11000 49.11600 30.78100
H  37.63700 50.14200 30.93800
H  37.86400 48.51000 30.72900
H  38.02900 48.76600 32.90800
H  36.19500 48.39500 32.93400
H  32.98100 54.43700 26.59000
H  34.74700 55.02100 26.28400
H  34.36600 54.16300 27.76000
H  33.77300 55.55500 22.81600
H  34.31300 55.48600 24.41600
H  32.59100 55.29100 24.19200
H  36.42800 49.67400 20.81200
H  36.28300 46.71100 21.06200
H  34.47600 47.71200 20.13900
H  34.25200 49.52400 20.06400
H  33.60100 48.60500 21.37600
H  38.75400 47.81500 22.30300
H  38.41600 48.76900 20.96900
H  38.26500 46.06800 19.86100
H  39.69200 46.40200 20.89100
H  39.29100 47.49100 19.54900
H  38.18000 43.56900 24.44100
H  36.77100 42.69300 25.23200
H  38.23500 42.95800 26.09700
H  37.71000 45.90800 30.16100
H  33.80200 45.10900 32.12000
H  34.70000 45.96500 33.32600
H  34.87500 44.18100 33.10300
Mg 17.09600 52.00200 26.55000
C  19.42200 50.76000 28.90500
C  15.06400 52.82200 29.12100
C  14.89500 53.22700 24.32000
C  19.28900 50.89700 24.02600
N  17.22400 51.80000 28.78600
C  18.29000 51.31300 29.50500
C  18.10700 51.57300 30.94800
C  16.57800 51.86800 31.02900
C  16.26300 52.20800 29.60200
C  15.80300 50.61500 31.43600
C  18.94400 52.79600 31.45200
C  19.11000 52.88000 32.98800
H  18.07400 52.24100 33.87400
N  15.16300 52.81800 26.66800
C  14.55900 53.13900 27.82000
C  13.30200 53.89700 27.61800
C  13.19000 54.00000 26.15900
C  14.44300 53.32400 25.63000
C  12.43900 54.46000 28.68700
C  12.17900 54.70600 25.30900
O  12.15800 54.55200 24.07500
C  11.19200 55.65400 25.86400
N  16.96600 51.84400 24.48100
C  16.05300 52.63800 23.81800
C  16.20200 52.44300 22.25900
C  17.68200 51.88000 22.11900
C  18.04500 51.55700 23.61400
C  15.15800 51.43200 21.70100
C  18.74800 52.88200 21.50300
C  20.04800 52.23500 21.06500
N  18.91800 51.05400 26.42500
C  19.70700 50.59000 25.34400
C  20.95200 49.97400 25.78200
C  20.88600 50.08500 27.17800
C  19.61900 50.66500 27.49700
C  21.96200 49.35800 24.83400
C  21.64500 49.85500 28.41000
O  22.73900 49.39900 28.59300
C  20.64700 50.25600 29.63800
C  20.39300 49.14100 30.56100
O  19.93500 48.07300 30.28800
O  20.88200 49.58000 31.80100
C  20.66200 48.60700 32.87600
H  14.38300 53.13900 29.91400
H  14.31700 53.79100 23.58600
H  19.91000 50.54100 23.20200
H  18.37500 50.69900 31.54000
H  16.37200 52.71300 31.68600
H  14.79000 50.46400 31.06400
H  15.78200 50.51500 32.52200
H  16.30800 49.76400 30.97800
H  18.45000 53.70100 31.10000
H  19.90900 52.84800 30.94800
H  19.36200 53.91500 33.22000
H  20.03000 52.33200 33.19500
H  11.65500 53.75700 28.96700
H  12.13000 55.48600 28.48500
H  12.98900 54.61500 29.61500
H  10.58500 56.17300 25.12200
H  11.63000 56.43800 26.48100
H  10.52300 54.97000 26.38800
H  16.13200 53.34700 21.65400
H  17.67900 51.06600 21.39500
H  15.57800 50.51000 21.29900
H  14.71400 52.05200 20.92200
H  14.40500 51.34400 22.48400
H  19.12100 53.66400 22.16400
H  18.32300 53.27100 20.57800
H  20.84000 52.46300 21.77900
H  20.40500 52.71100 20.15100
H  19.83300 51.16800 21.02100
H  22.17400 50.10600 24.06900
H  21.44600 48.51300 24.37900
H  22.87200 49.10700 25.37800
H  21.13600 51.07800 30.15900
H  20.20600 47.64600 32.63600
H  20.08100 48.98200 33.71800
H  21.64100 48.37900 33.29600

