158

Mg 9.20800 3.72400 27.47700
C  10.42300 2.15600 30.46300
C  7.58000 5.96100 29.58100
C  8.00100 5.00400 24.85500
C  10.48500 0.92800 25.61300
N  8.91900 3.92700 29.82700
C  9.67200 3.31200 30.77400
C  9.47700 3.97200 32.17300
C  8.37100 5.07000 31.86100
C  8.25700 4.96400 30.34600
C  6.98100 4.69600 32.51200
C  10.83100 4.67800 32.62900
C  10.93300 5.37800 33.95300
H  10.22200 4.79600 35.22300
N  7.96200 5.20000 27.26400
C  7.41900 6.06300 28.19700
C  6.53500 7.09800 27.54500
C  6.71600 6.85000 26.18400
C  7.59000 5.65500 26.03100
C  5.77500 8.21900 28.21700
C  6.14900 7.68200 24.97600
O  6.44800 7.36200 23.83500
C  5.27200 8.87700 25.22700
N  9.47000 3.14100 25.42100
C  8.72400 3.86300 24.57200
C  8.78100 3.15600 23.17400
C  9.72000 1.89600 23.33600
C  9.90900 1.97200 24.82200
C  7.46700 2.85800 22.55100
C  11.06200 2.00900 22.53900
C  11.08700 1.11100 21.29400
N  10.29900 1.95500 27.87700
C  10.74800 0.93600 27.01800
C  11.40400 -0.11500 27.80500
C  11.38600 0.39000 29.11900
C  10.63800 1.59700 29.16200
C  12.01000 -1.35400 27.20700
C  11.82200 0.07300 30.48700
O  12.51800 -0.80900 30.85500
C  11.17800 1.20200 31.39600
C  10.27800 0.57900 32.39500
O  9.44900 -0.18100 32.06700
O  10.59600 0.90600 33.70900
C  9.91000 0.10600 34.71200
H  7.15500 6.78700 30.15600
H  7.68000 5.42000 23.89800
H  10.96700 0.06500 25.14800
H  9.21400 3.28700 32.97800
H  8.73500 6.06600 32.11200
H  7.05100 3.90000 33.25300
H  6.43800 4.38500 31.61900
H  6.65900 5.68300 32.84500
H  11.24100 5.24400 31.79300
H  11.39800 3.74800 32.64800
H  10.86800 6.46600 33.95600
H  11.98000 5.29800 34.24700
H  5.95100 8.36100 29.28400
H  4.72200 7.96200 28.11000
H  5.95300 9.20600 27.79000
H  5.95800 9.70600 25.39800
H  4.53400 8.62100 25.98800
H  4.74200 9.04600 24.29000
H  9.33100 3.76800 22.45900
H  9.14800 1.02000 23.03100
H  7.31100 1.81400 22.27900
H  7.39700 3.41000 21.61400
H  6.66000 3.15800 23.21800
H  11.84500 1.59600 23.17400
H  11.32800 3.05200 22.36400
H  10.04900 0.93400 21.01400
H  11.70900 0.22500 21.41900
H  11.48300 1.68900 20.45900
H  12.08800 -2.13500 27.96200
H  13.02200 -1.14100 26.86000
H  11.37500 -1.74100 26.41000
H  12.00900 1.66400 31.92900
H  9.09100 -0.54200 34.40000
H  9.47800 0.81900 35.41400
H  10.66200 -0.41500 35.30400
Mg 36.06500 0.32700 28.83400
C  33.97500 1.16600 31.51900
C  38.71600 0.45800 30.88700
C  37.84100 -0.60400 26.17700
C  33.11600 0.69000 26.71400
N  36.20900 0.64100 30.97400
C  35.27700 0.95300 31.89400
C  35.87400 1.06600 33.32800
C  37.37800 1.30400 33.00600
C  37.42900 0.65400 31.56400
C  37.88700 2.72700 32.97700
C  35.47800 -0.16100 34.16500
C  35.09600 0.02800 35.61900
H  35.36000 1.32600 36.48900
N  38.01800 -0.14900 28.61500
C  38.95100 -0.03600 29.52100
C  40.26200 -0.45500 28.96000
C  40.03200 -0.70000 27.58300
C  38.56100 -0.54500 27.40600
C  41.52600 -0.30100 29.79000
C  40.96300 -0.89100 26.46200
O  40.58300 -0.82200 25.31300
C  42.44300 -1.15400 26.69600
N  35.46000 -0.02600 26.70500
C  36.42300 -0.40400 25.79100
C  35.86900 -0.22600 24.38400
C  34.37500 0.09700 24.52900
C  34.27800 0.30000 26.07600
C  36.59600 0.78200 23.48600
C  33.38600 -0.93900 23.98000
C  32.26800 -0.42500 23.01100
N  33.98600 0.69700 29.02100
C  32.92400 0.76700 28.09200
C  31.73600 1.18600 28.80400
C  32.08200 1.23800 30.09500
C  33.43500 0.99400 30.19600
C  30.35500 1.56000 28.20600
C  31.53700 1.60500 31.41800
O  30.45100 1.96000 31.75000
C  32.76200 1.46300 32.37200
C  32.96800 2.72600 33.07800
O  33.57000 3.68000 32.60400
O  32.24200 2.89000 34.23600
C  32.11500 4.30500 34.81000
H  39.61100 0.73200 31.44900
H  38.37400 -0.99800 25.31000
H  32.29100 0.97000 26.05500
H  35.49000 1.94500 33.84500
H  38.05800 0.72500 33.63100
H  38.43200 2.71700 33.92000
H  37.02000 3.38700 32.99800
H  38.47700 2.95400 32.08900
H  36.10800 -1.03000 33.97400
H  34.58900 -0.47000 33.61600
H  35.51300 -0.79900 36.19400
H  34.03300 -0.20400 35.69100
H  42.00600 0.60000 29.40700
H  42.27800 -1.04900 29.53900
H  41.39100 -0.30700 30.87200
H  42.86300 -1.46700 25.74000
H  42.47900 -1.85300 27.53100
H  42.84100 -0.18500 26.99800
H  36.00100 -1.14200 23.80900
H  34.00100 1.05200 24.16100
H  36.20500 1.79300 23.61000
H  36.48000 0.50500 22.43900
H  37.65000 0.96400 23.69600
H  32.87500 -1.48600 24.77200
H  33.98500 -1.65600 23.42000
H  31.32300 -0.87500 23.31700
H  32.51700 -0.60800 21.96600
H  32.14500 0.65000 23.14400
H  30.46800 2.05600 27.24200
H  29.79900 2.26100 28.82800
H  29.88600 0.62800 27.88900
H  32.64100 0.59500 33.02000
H  32.47000 5.09600 34.14800
H  32.79900 4.37300 35.65600
H  31.15100 4.54600 35.25700

