158

Mg 9.14200 47.47200 28.33900
C  7.35000 47.12100 31.38000
C  11.94900 48.21200 30.15200
C  10.74100 48.52300 25.53700
C  6.05700 48.28200 26.72900
N  9.52600 47.60900 30.52400
C  8.73500 47.34600 31.63300
C  9.49400 47.61800 32.97400
C  10.84600 48.05500 32.45800
C  10.77100 48.04100 30.90100
C  11.29600 49.48900 32.94200
C  9.37800 46.41700 33.88700
C  10.51900 46.09400 34.86500
H  10.10500 45.20600 36.08900
N  11.15800 47.77700 27.91100
C  12.13800 48.02200 28.80900
C  13.42400 48.14900 28.17300
C  13.11600 48.31400 26.75600
C  11.60600 48.21900 26.63300
C  14.80300 48.28600 28.84400
C  14.03800 48.56000 25.55600
O  13.61600 48.75100 24.45400
C  15.46700 48.51300 25.82500
N  8.49700 48.21000 26.35700
C  9.32700 48.51200 25.40600
C  8.73600 49.09100 24.16300
C  7.22900 48.84200 24.49100
C  7.21100 48.35600 25.94900
C  9.08600 50.59700 23.92700
C  6.49300 47.78700 23.57600
C  7.30000 46.42700 23.60700
N  7.12400 47.54300 28.81500
C  5.98600 47.83500 28.06500
C  4.79000 47.55700 28.89500
C  5.29700 47.21000 30.23000
C  6.71900 47.29900 30.06900
C  3.31600 47.67200 28.43100
C  4.91500 46.92900 31.57600
O  3.80700 46.79700 32.03300
C  6.20900 47.07300 32.36700
C  6.33000 45.89000 33.17900
O  6.52300 44.75800 32.71100
O  6.26200 46.13300 34.52900
C  6.49500 44.91700 35.35100
H  12.81200 48.38100 30.79800
H  11.33800 48.83100 24.67600
H  5.09300 48.39100 26.22800
H  8.94500 48.49700 33.31100
H  11.48300 47.20100 32.68800
H  12.38200 49.52800 33.02400
H  10.80000 49.63300 33.90200
H  10.87900 50.28300 32.32400
H  8.98400 45.52900 33.39100
H  8.61300 46.72700 34.59800
H  10.78500 47.05800 35.29900
H  11.43300 45.72200 34.40200
H  15.64800 47.74900 28.41200
H  14.81900 48.05400 29.90900
H  15.09100 49.33800 28.83900
H  15.97900 48.81600 24.91300
H  15.64100 47.45700 26.02900
H  15.77700 49.19100 26.62100
H  9.04000 48.49700 23.30100
H  6.74200 49.81000 24.37300
H  9.93200 50.57800 23.24000
H  9.43900 51.01200 24.87100
H  8.23700 51.15500 23.53200
H  6.43000 48.08500 22.52900
H  5.50100 47.60700 23.99200
H  8.07800 46.41900 24.37000
H  7.75900 46.27100 22.63100
H  6.74100 45.52000 23.83900
H  3.25000 48.43500 27.65500
H  2.60400 48.01700 29.18100
H  2.97200 46.66700 28.18900
H  6.06900 47.90900 33.05300
H  6.41000 45.31700 36.36100
H  7.42000 44.40000 35.09300
H  5.68500 44.21100 35.17000
Mg -0.26900 43.42500 26.85700
C  1.71800 43.35700 29.77200
C  -2.95100 42.27700 28.76100
C  -2.17100 43.55600 24.09500
C  2.57600 44.06300 24.90200
N  -0.55600 42.93100 29.04400
C  0.35600 43.00700 30.04100
C  -0.27200 42.76800 31.35600
C  -1.63600 42.05700 30.96800
C  -1.74800 42.47100 29.50600
C  -1.60700 40.50200 31.00000
C  -0.39600 44.10900 32.15700
C  0.17800 44.11800 33.66200
H  -0.20100 42.89300 34.58600
N  -2.31100 43.01200 26.46100
C  -3.16400 42.54200 27.40600
C  -4.46100 42.40600 26.71600
C  -4.30600 42.82100 25.34700
C  -2.90200 43.23100 25.26400
C  -5.72400 41.87400 27.43000
C  -5.28000 42.87000 24.24300
O  -4.99400 43.26900 23.10200
C  -6.64600 42.36900 24.37600
N  0.08700 43.75700 24.75300
C  -0.85600 43.78000 23.83100
C  -0.32300 44.41000 22.46800
C  1.15800 44.50300 22.83300
C  1.29500 44.04200 24.28100
C  -0.53100 43.49900 21.26900
C  1.76000 45.86500 22.39900
C  1.73600 47.02400 23.45700
N  1.74900 43.71900 27.18000
C  2.81700 43.90300 26.29700
C  4.02500 44.03200 27.07600
C  3.65100 43.80500 28.39100
C  2.26700 43.58400 28.43200
C  5.39700 44.37500 26.50900
C  4.12900 43.69300 29.77200
O  5.27200 43.68700 30.21800
C  2.87300 43.51600 30.71100
C  3.23900 42.35300 31.60500
O  2.93300 41.16700 31.39700
O  3.88900 42.77800 32.72200
C  4.37300 41.77800 33.64400
H  -3.68700 41.66300 29.28400
H  -2.80600 43.77100 23.23300
H  3.46400 44.46200 24.40700
H  0.32700 42.06700 31.93800
H  -2.47900 42.37600 31.58100
H  -2.07200 40.11500 31.90700
H  -0.57600 40.15200 30.95100
H  -2.16300 40.09600 30.15500
H  -1.41400 44.49600 32.19900
H  0.08400 44.83200 31.49700
H  -0.15800 45.03100 34.15400
H  1.25800 44.25700 33.61300
H  -6.59600 42.52400 27.35900
H  -5.46500 41.62800 28.46000
H  -5.76100 40.95100 26.85100
H  -6.46600 41.36500 24.75900
H  -7.29300 42.63400 23.54000
H  -7.06000 42.92700 25.21600
H  -0.83800 45.36700 22.38500
H  1.64000 43.73000 22.23500
H  -1.59600 43.49700 21.03900
H  -0.29200 42.46200 21.50600
H  0.01000 43.72100 20.35000
H  1.28400 46.22700 21.48800
H  2.75100 45.60700 22.02400
H  1.38700 47.90700 22.92200
H  2.80200 47.16100 23.64000
H  1.15800 46.81300 24.35700
H  5.90700 43.41100 26.52300
H  5.91400 45.03600 27.20500
H  5.32600 44.83800 25.52500
H  2.70400 44.42900 31.28100
H  3.58900 41.41000 34.30500
H  5.19300 42.20700 34.22100
H  4.82900 40.96200 33.08300

