158

Mg 48.25400 35.47000 28.12900
C  46.19100 33.52700 30.21000
C  48.43700 37.73100 30.79800
C  49.29600 37.96500 26.02100
C  47.34700 33.42800 25.47600
N  47.49900 35.55300 30.22800
C  46.82600 34.59800 30.88300
C  46.73400 34.89600 32.37500
C  47.04200 36.40100 32.39100
C  47.83700 36.58600 31.07200
C  45.77300 37.33000 32.39900
C  47.60700 33.95500 33.26500
C  49.01300 34.47400 33.77700
H  49.10600 34.85600 35.24800
N  49.02000 37.47700 28.33100
C  48.91100 38.22600 29.51200
C  49.49800 39.52200 29.31900
C  49.90500 39.55200 27.95600
C  49.41800 38.28600 27.34500
C  49.56700 40.48400 30.45100
C  50.72100 40.56500 27.16800
O  50.91100 40.42400 25.97000
C  51.37900 41.80300 27.88800
N  48.55100 35.58200 26.09300
C  48.88800 36.77500 25.43600
C  48.58700 36.62500 23.89000
C  48.40700 35.11700 23.75400
C  48.11300 34.66400 25.20300
C  47.29700 37.47400 23.38400
C  49.53500 34.29100 23.03500
C  49.32700 34.00000 21.55000
N  47.20400 33.66900 27.86300
C  46.87500 32.99700 26.73300
C  46.10700 31.81700 27.02900
C  45.71000 32.03800 28.37200
C  46.38900 33.18100 28.78300
C  45.78600 30.67400 26.05100
C  44.83300 31.66700 29.51100
O  43.97200 30.79100 29.56500
C  45.02200 32.62700 30.72200
C  45.29300 31.73900 31.83000
O  46.00800 30.68600 31.90700
O  44.55000 32.20300 32.85100
C  44.54900 31.37300 34.04100
H  48.61600 38.34900 31.68100
H  49.46900 38.75100 25.28200
H  46.87500 32.88500 24.65300
H  45.69500 34.78700 32.68500
H  47.55700 36.79900 33.26500
H  44.91300 36.69400 32.60900
H  45.71100 37.89800 31.47100
H  45.65400 37.96000 33.28100
H  47.72200 33.00400 32.74600
H  47.01900 33.80600 34.17000
H  49.54200 35.22000 33.18200
H  49.62900 33.57800 33.69300
H  50.34400 41.22100 30.25000
H  49.76200 40.02600 31.42100
H  48.67000 41.09800 30.36400
H  50.51100 42.34700 28.26200
H  52.04900 42.26400 27.16300
H  52.10900 41.54400 28.65400
H  49.47200 37.05600 23.42100
H  47.48400 34.83900 23.24500
H  46.76600 38.03700 24.15200
H  46.56900 36.82300 22.90000
H  47.65800 38.19000 22.64500
H  49.76800 33.35600 23.54500
H  50.43000 34.91000 23.09400
H  48.38300 34.39600 21.17500
H  49.29900 32.92400 21.38200
H  50.15800 34.37400 20.95200
H  44.98300 30.94300 25.36500
H  45.51000 29.83800 26.69400
H  46.68000 30.40800 25.48600
H  44.15000 33.26100 30.88400
H  44.97500 30.37700 33.91700
H  43.50600 31.22400 34.32000
H  45.03700 31.83600 34.90000
Mg 9.89700 48.28400 26.01200
C  7.92100 48.33600 28.91700
C  12.51700 49.65400 27.94300
C  11.79700 48.25800 23.32600
C  6.94300 47.87200 24.03900
N  10.19200 48.93400 28.15900
C  9.21500 48.83500 29.13300
C  9.75300 49.21500 30.48500
C  11.05800 49.98800 30.01900
C  11.31700 49.48500 28.60100
C  11.21900 51.55800 30.06400
C  10.05300 48.04500 31.45300
C  10.19200 48.65500 32.95100
H  9.58700 47.75700 34.06000
N  11.97100 48.61700 25.67900
C  12.87200 49.14500 26.62300
C  14.21500 49.12200 26.09400
C  14.02400 48.77900 24.73100
C  12.52700 48.57600 24.48500
C  15.47500 49.43200 26.93400
C  15.09000 48.75600 23.57600
O  14.77500 48.57300 22.42100
C  16.59100 48.78500 23.85800
N  9.45100 48.08600 24.05200
C  10.44300 48.08000 23.09700
C  9.78200 47.93600 21.64400
C  8.32200 47.57800 21.92500
C  8.17900 47.84400 23.44300
C  9.82000 49.10200 20.71700
C  8.01500 46.06300 21.73700
C  8.67600 45.00500 22.68800
N  7.82900 48.13000 26.40100
C  6.79100 47.90400 25.51100
C  5.59700 47.74100 26.27000
C  5.97500 47.82400 27.59400
C  7.36900 48.04700 27.62500
C  4.27600 47.42700 25.64100
C  5.47900 47.69500 28.92800
O  4.34900 47.42100 29.31400
C  6.75100 47.90900 29.89500
C  7.02200 46.59400 30.56800
O  7.80300 45.75000 30.11400
O  6.35600 46.44800 31.68900
C  6.64900 45.24800 32.45300
H  13.33100 50.11100 28.50900
H  12.31000 48.39400 22.37200
H  6.02500 47.58800 23.52100
H  9.22800 50.02400 30.99400
H  11.93800 49.67500 30.58100
H  12.28900 51.76600 30.08700
H  10.73800 51.89300 30.98300
H  10.69100 52.04700 29.24500
H  11.05000 47.69500 31.18200
H  9.30700 47.25100 31.43500
H  9.77600 49.65100 33.10600
H  11.27500 48.64600 33.06900
H  15.60200 50.50700 27.06400
H  16.28400 48.82300 26.53100
H  15.39400 49.03200 27.94400
H  17.01300 47.80900 24.09700
H  16.76700 49.55800 24.60600
H  17.02200 49.05700 22.89500
H  10.23800 47.12800 21.07200
H  7.59500 48.22400 21.43300
H  9.47800 48.77800 19.73400
H  10.84400 49.46900 20.65400
H  9.24100 49.94800 21.08900
H  8.46700 45.66900 20.82700
H  6.95500 45.83700 21.62400
H  8.26900 45.20300 23.68000
H  9.75200 45.17900 22.69600
H  8.31000 44.01200 22.42700
H  4.17800 48.00400 24.72100
H  3.56000 47.50400 26.45900
H  4.18000 46.38000 25.35300
H  6.49000 48.63900 30.66100
H  7.72300 45.07700 32.37900
H  6.07800 44.38200 32.11800
H  6.44900 45.37700 33.51700

