158

Mg 1.28300 -2.83000 44.01800
C  4.55800 -2.30000 43.27200
C  0.35500 -0.13800 42.04100
C  -1.93300 -3.62700 44.41800
C  2.28100 -5.76600 45.71500
N  2.33100 -1.46200 42.75900
C  3.67100 -1.38900 42.72200
C  4.13500 -0.29700 41.75700
C  2.76500 0.54400 41.52500
C  1.74600 -0.42300 42.09400
C  2.77100 1.88900 42.30100
C  4.75500 -0.82400 40.44000
C  5.91500 0.04900 39.97400
H  5.80400 0.59100 38.52500
N  -0.59100 -2.01300 43.19800
C  -0.76400 -0.86900 42.46900
C  -2.16300 -0.60400 42.23400
C  -2.89400 -1.62200 42.96400
C  -1.83000 -2.52300 43.51500
C  -2.64800 0.60400 41.58300
C  -4.44400 -1.65500 43.17100
O  -5.20600 -0.79700 42.72000
C  -5.20300 -2.72000 43.96600
N  0.33200 -4.51300 44.95900
C  -1.02000 -4.53800 44.98000
C  -1.52000 -5.85200 45.66900
C  -0.13300 -6.51100 46.18800
C  0.92700 -5.60300 45.64200
C  -2.82700 -5.75900 46.63200
C  0.10300 -7.92200 45.62800
C  0.84500 -8.92500 46.56400
N  3.08200 -3.79200 44.55800
C  3.33300 -4.97400 45.28300
C  4.74500 -5.23800 45.31800
C  5.26300 -4.14700 44.60200
C  4.22000 -3.34300 44.11700
C  5.38300 -6.40700 46.03000
C  6.49000 -3.54100 44.25300
O  7.65300 -3.79900 44.64100
C  6.12100 -2.36200 43.24900
C  6.75200 -1.02600 43.66400
O  7.40500 -0.31500 42.85100
O  6.49500 -0.64500 44.98900
C  6.84000 0.70900 45.31800
H  0.00800 0.67800 41.40400
H  -2.98700 -3.90600 44.47500
H  2.53100 -6.68800 46.24500
H  4.86900 0.37600 42.20000
H  2.52600 0.81300 40.49600
H  3.72800 2.03700 42.80100
H  1.94700 1.84700 43.01200
H  2.67500 2.71700 41.59800
H  3.96500 -0.77400 39.69100
H  5.15600 -1.82300 40.61200
H  6.82400 -0.55000 40.03000
H  6.10900 0.90900 40.61500
H  -3.72100 0.77700 41.49600
H  -2.10000 0.65200 40.64200
H  -2.25400 1.48800 42.08400
H  -4.80900 -3.04300 44.92900
H  -5.16300 -3.61500 43.34500
H  -6.26600 -2.50400 44.07800
H  -2.02200 -6.36900 44.85100
H  -0.05500 -6.38100 47.26700
H  -2.49000 -6.23700 47.55200
H  -3.71600 -6.19400 46.17600
H  -2.92500 -4.70000 46.87200
H  0.72300 -7.78200 44.74200
H  -0.89900 -8.29800 45.41800
H  0.18600 -9.65600 47.03200
H  1.09200 -8.34500 47.45400
H  1.72900 -9.38800 46.12500
H  6.24900 -6.04200 46.58300
H  5.61500 -7.25700 45.38800
H  4.74700 -6.67900 46.87200
H  6.47100 -2.63700 42.25400
H  6.03100 0.86600 46.03200
H  6.65100 1.41800 44.51300
H  7.80700 0.72700 45.82100
Mg 37.13600 49.70500 24.76100
C  37.28100 47.86600 27.85800
C  35.68600 52.22900 26.44400
C  36.26000 51.25200 21.69000
C  38.10500 46.97600 23.03200
N  36.46700 49.88300 26.92700
C  36.67500 49.11900 28.04500
C  36.15700 49.69100 29.28600
C  35.63000 51.07400 28.76300
C  35.90200 51.06200 27.22000
C  34.15600 51.42700 28.95700
C  37.27500 49.85600 30.40200
C  36.94500 49.42200 31.84500
H  35.42300 49.32300 32.22100
N  36.25400 51.60300 24.18500
C  35.77700 52.52200 25.06600
C  35.24600 53.69700 24.29500
C  35.33300 53.35900 22.96000
C  35.95700 51.96500 22.85800
C  34.69400 54.95500 24.98200
C  34.95200 54.24000 21.77300
O  35.18300 53.83600 20.66300
C  34.39500 55.57500 21.91700
N  37.29100 49.32000 22.76500
C  36.83900 50.02300 21.67500
C  37.08900 49.29400 20.41700
C  38.00000 48.10800 20.83200
C  37.77800 48.12700 22.33000
C  35.68500 48.82100 19.84800
C  39.52800 48.30400 20.59400
C  40.37300 47.09000 20.13600
N  37.61300 47.84500 25.23000
C  37.96300 46.80000 24.43400
C  38.52400 45.65000 25.29100
C  38.27200 46.06100 26.62100
C  37.72000 47.40500 26.54600
C  39.19900 44.45000 24.75300
C  38.36200 45.56500 28.04900
O  38.84400 44.63100 28.62000
C  37.65600 46.78100 28.82900
C  36.49700 46.33100 29.72100
O  35.28300 46.30800 29.41000
O  36.97300 45.85700 30.97500
C  36.03100 45.11700 31.77100
H  35.32500 53.12100 26.96100
H  35.94300 51.63500 20.71800
H  38.44700 46.13600 22.42300
H  35.32200 49.18100 29.76600
H  36.27200 51.90200 29.06400
H  33.50500 50.57000 29.13200
H  33.73000 52.03900 28.16200
H  34.05000 51.87000 29.94700
H  37.48900 50.91800 30.51800
H  38.23400 49.42400 30.11600
H  37.51100 49.97700 32.59300
H  37.34700 48.43400 32.06700
H  35.29300 55.82000 24.69800
H  34.76300 54.92100 26.06900
H  33.63200 55.12200 24.79900
H  33.61500 55.64100 22.67600
H  33.86700 55.73900 20.97800
H  35.14200 56.35200 22.08000
H  37.61000 49.87800 19.65900
H  37.61700 47.19300 20.38000
H  35.54800 49.33200 18.89500
H  34.84400 49.07600 20.49200
H  35.72300 47.73500 19.76300
H  40.02000 48.87300 21.38300
H  39.59100 48.96000 19.72500
H  41.07800 46.62600 20.82500
H  40.98900 47.35600 19.27700
H  39.63800 46.40700 19.70900
H  39.99400 44.60400 24.02300
H  38.51500 43.69700 24.36200
H  39.69600 43.99000 25.60800
H  38.41500 47.05800 29.56000
H  35.69700 45.79800 32.55400
H  36.44900 44.21500 32.21900
H  35.11800 44.84600 31.24100

