158

Mg 16.96700 -2.85900 27.04200
C  16.07200 -0.94500 30.00800
C  18.76000 -4.86300 28.97800
C  18.33400 -4.04400 24.23500
C  15.29200 -0.33700 25.19400
N  17.24300 -2.92600 29.29400
C  16.84200 -2.12500 30.31500
C  17.56400 -2.50500 31.64400
C  18.61500 -3.63400 31.21700
C  18.20500 -3.79400 29.75600
C  20.06900 -3.24800 31.31500
C  16.58100 -2.84700 32.75200
C  16.78700 -2.35300 34.19900
H  18.10000 -1.59800 34.62300
N  18.17400 -4.37200 26.62900
C  18.77400 -5.10700 27.57400
C  19.47300 -6.20500 26.96400
C  19.38000 -6.04800 25.57000
C  18.62700 -4.81800 25.41500
C  20.45900 -7.16100 27.72100
C  19.90000 -6.85700 24.39100
O  19.83700 -6.47300 23.19700
C  20.33000 -8.27300 24.64000
N  16.89300 -2.17000 25.02600
C  17.57700 -2.91300 24.08600
C  17.43500 -2.12700 22.70900
C  16.30900 -1.02400 23.01900
C  16.03900 -1.27300 24.47100
C  18.63600 -1.57600 21.92300
C  15.00000 -1.07400 22.07700
C  14.85300 0.11800 21.11700
N  15.88800 -0.99000 27.41900
C  15.18200 -0.15100 26.54500
C  14.47900 0.81500 27.34300
C  14.81800 0.55800 28.67600
C  15.70500 -0.55700 28.70400
C  13.51800 1.85700 26.72500
C  14.59100 0.98200 30.04400
O  14.01700 2.00600 30.41800
C  15.43600 -0.02500 30.95800
C  16.53400 0.80800 31.62600
O  17.62800 1.05000 31.14600
O  16.04400 1.40600 32.77500
C  16.87200 2.53200 33.25500
H  19.38700 -5.51800 29.58600
H  18.79900 -4.34800 23.29400
H  14.76600 0.46100 24.66500
H  18.00500 -1.61000 32.08200
H  18.41000 -4.55700 31.75900
H  20.41400 -2.80100 30.38300
H  20.65100 -4.14300 31.54000
H  20.14900 -2.51100 32.11400
H  16.63800 -3.93400 32.69800
H  15.56100 -2.62600 32.43700
H  16.85900 -3.26100 34.79800
H  15.95100 -1.67600 34.37100
H  20.35300 -8.15600 27.28900
H  20.41900 -7.25400 28.80700
H  21.42800 -6.73900 27.45500
H  21.33300 -8.30000 25.06600
H  20.39300 -8.70900 23.64300
H  19.62400 -8.81000 25.27300
H  16.89900 -2.81200 22.05100
H  16.86700 -0.08800 22.97200
H  19.57800 -2.06800 22.16700
H  18.94300 -0.65200 22.41300
H  18.40700 -1.42900 20.86800
H  14.04200 -1.23600 22.57100
H  15.13500 -1.92300 21.40800
H  15.76300 0.71600 21.11800
H  14.04200 0.77000 21.44200
H  14.61100 -0.23500 20.11400
H  13.04200 1.42400 25.84500
H  14.12500 2.73500 26.50600
H  12.77800 1.99000 27.51400
H  14.83900 -0.57600 31.68600
H  17.89900 2.23900 33.47600
H  16.37800 2.86800 34.16600
H  16.87100 3.27800 32.46000
Mg 25.70300 51.36600 26.50000
C  23.59600 52.15600 29.28300
C  28.14600 50.53900 28.84600
C  27.88000 50.88300 24.00500
C  23.24600 52.43900 24.35200
N  25.81800 51.28000 28.83600
C  24.85900 51.72000 29.74800
C  25.46200 51.81700 31.17700
C  26.89100 51.15300 31.01200
C  26.95300 51.00200 29.44200
C  28.07400 52.05800 31.49900
C  24.60100 51.02400 32.22800
C  25.18600 50.76900 33.69200
H  24.41100 51.43800 34.81700
N  27.72100 50.82000 26.44800
C  28.53900 50.48400 27.48600
C  29.86000 50.09900 26.98300
C  29.85000 50.37600 25.58600
C  28.44200 50.68300 25.28900
C  30.92300 49.46100 27.81400
C  30.98600 50.16300 24.63700
O  30.79700 50.37300 23.44800
C  32.33700 49.97200 25.15800
N  25.66400 51.72800 24.47600
C  26.65000 51.41600 23.66200
C  26.16400 51.43400 22.17600
C  24.68400 51.95500 22.22400
C  24.46700 52.02300 23.77700
C  27.05300 52.19800 21.27200
C  23.75100 50.99200 21.43600
C  23.77700 49.43400 21.69800
N  23.82900 52.12900 26.71400
C  22.90400 52.48600 25.73900
C  21.62300 52.90600 26.47700
C  21.92300 52.75400 27.78900
C  23.22500 52.23500 27.91000
C  20.46000 53.39500 25.80600
C  21.30700 53.01600 29.04100
O  20.22000 53.38700 29.33900
C  22.46000 52.79300 30.07500
C  22.84000 54.12900 30.51400
O  23.65800 54.82900 29.97000
O  22.23500 54.38500 31.70000
C  22.55400 55.62700 32.46800
H  28.87700 50.38400 29.64200
H  28.49900 50.74600 23.11700
H  22.47100 52.74100 23.64500
H  25.48000 52.85100 31.52300
H  27.11000 50.16400 31.41500
H  28.81000 51.48900 32.06600
H  27.52000 52.74400 32.14100
H  28.66400 52.51500 30.70500
H  24.54000 49.99600 31.87000
H  23.62600 51.49700 32.34600
H  26.22500 50.99100 33.93500
H  25.03400 49.71600 33.92500
H  30.67400 49.28800 28.86100
H  31.80600 50.08900 27.68800
H  31.15700 48.56800 27.23500
H  32.37200 48.92100 25.44500
H  32.66100 50.64400 25.95400
H  33.02600 50.10400 24.32300
H  26.15800 50.41100 21.80100
H  24.62300 52.97100 21.83300
H  27.90500 51.53000 21.14800
H  27.22200 52.99900 21.99200
H  26.58500 52.72800 20.44200
H  24.07600 51.10500 20.40100
H  22.76600 51.45700 21.40900
H  22.75400 49.09800 21.86500
H  24.46700 49.15800 22.49500
H  24.17800 48.93500 20.81500
H  20.73000 53.86200 24.85900
H  20.09600 54.20400 26.43900
H  19.77400 52.54800 25.79100
H  22.18100 52.15800 30.91500
H  22.59300 56.47500 31.78500
H  23.47500 55.56200 33.04800
H  21.69400 55.87600 33.09100

