158

Mg 48.73500 46.78700 42.61600
C  45.47300 47.39800 41.60500
C  48.59000 43.78900 41.19400
C  52.06800 46.69600 43.17400
C  48.80400 50.25900 43.57500
N  47.16600 45.72500 41.59000
C  45.93500 46.16400 41.26700
C  45.18300 45.14100 40.47400
C  46.07700 43.87600 40.61500
C  47.35300 44.49900 41.12500
C  45.62200 42.67200 41.55000
C  44.83900 45.54400 39.04400
C  43.43600 45.13500 38.52700
H  43.42300 44.67600 37.00200
N  50.22300 45.42900 42.10000
C  49.91400 44.27400 41.51500
C  51.17400 43.61000 41.27900
C  52.23100 44.50500 41.73700
C  51.55700 45.60800 42.42600
C  51.39000 42.24700 40.63400
C  53.72700 44.43700 41.44100
O  54.18000 43.51300 40.76200
C  54.73000 45.45200 41.96100
N  50.21700 48.23700 43.44400
C  51.55200 47.91900 43.60400
C  52.38900 49.08800 44.19000
C  51.34400 50.30200 44.20000
C  50.07400 49.59900 43.66600
C  53.14600 48.99100 45.67800
C  51.87000 51.49300 43.36200
C  52.00400 52.82200 44.07900
N  47.39800 48.46100 42.74300
C  47.59700 49.79600 43.18800
C  46.42500 50.56800 43.03600
C  45.53600 49.63400 42.44700
C  46.20100 48.38000 42.26200
C  46.15200 51.97600 43.42400
C  44.15000 49.49400 42.05500
O  43.17100 50.22600 42.17300
C  44.07800 48.09000 41.39100
C  42.96300 47.36800 42.08900
O  42.97700 47.03900 43.25400
O  41.96700 47.05700 41.20100
C  40.73400 46.41400 41.61400
H  48.42700 42.78500 40.79700
H  53.08600 46.77000 43.56400
H  48.80000 51.28800 43.94000
H  44.30800 44.73700 40.98300
H  46.21000 43.39000 39.64800
H  44.62500 42.91700 41.91700
H  46.34600 42.55200 42.35600
H  45.52100 41.80100 40.90300
H  45.55500 44.99400 38.43300
H  45.05700 46.59000 38.83100
H  42.88300 46.07000 38.43600
H  42.86200 44.40200 39.09500
H  51.91800 41.55000 41.28500
H  51.94400 42.30500 39.69700
H  50.38800 41.89000 40.39300
H  54.25400 46.37200 41.62100
H  55.72600 45.32500 41.53700
H  54.84700 45.45500 43.04500
H  53.13800 49.23700 43.41200
H  51.28100 50.65100 45.23100
H  53.93000 49.73600 45.54600
H  53.68500 48.06000 45.84900
H  52.58800 49.15200 46.60000
H  51.16800 51.55400 42.53000
H  52.85000 51.32300 42.91500
H  51.49200 53.66300 43.61100
H  53.06800 53.05900 44.07000
H  51.65900 52.70000 45.10600
H  46.40900 52.74800 42.69800
H  46.70200 52.13100 44.35300
H  45.09600 52.16400 43.61700
H  43.87000 48.18300 40.32600
H  40.33500 46.93500 42.48400
H  40.91500 45.35800 41.81900
H  39.96900 46.59100 40.85900
Mg 16.86100 52.55300 26.52800
C  18.80200 50.95000 28.92600
C  14.45100 53.13400 28.77000
C  15.18700 54.35600 24.07000
C  19.14000 51.39700 24.04000
N  16.67900 52.05700 28.55500
C  17.63600 51.49800 29.46900
C  17.21300 51.61300 30.94400
C  15.74100 52.13400 30.74500
C  15.59900 52.44100 29.25900
C  14.71900 51.21500 31.34400
C  18.27500 52.47300 31.69900
C  18.66000 51.86900 33.12100
H  17.94200 52.29300 34.43200
N  15.07000 53.63600 26.44800
C  14.20000 53.76500 27.48600
C  13.07400 54.56900 27.07700
C  13.26400 54.93400 25.70900
C  14.56400 54.28900 25.35000
C  11.96500 54.93200 28.04800
C  12.34100 55.75000 24.82000
O  12.59600 55.89900 23.58800
C  11.18800 56.57700 25.33100
N  17.02800 52.71600 24.36600
C  16.28900 53.58300 23.62600
C  16.61200 53.46600 22.16100
C  18.01600 52.71200 22.18600
C  18.05200 52.16500 23.61800
C  15.38600 52.81600 21.42600
C  19.20700 53.49500 21.66700
C  20.01700 52.86500 20.54200
N  18.58100 51.36600 26.36600
C  19.38700 50.97900 25.33900
C  20.46000 50.15400 25.79800
C  20.31000 50.21400 27.14300
C  19.12700 50.91300 27.47800
C  21.66100 49.59000 24.98200
C  20.97500 49.74500 28.41900
O  21.99400 49.08600 28.62500
C  20.05300 50.29300 29.59800
C  19.75600 49.09500 30.46400
O  19.10100 48.11500 30.14500
O  20.59200 49.19400 31.59600
C  20.56600 48.10500 32.55600
H  13.64900 53.34000 29.48200
H  14.81400 55.00700 23.27700
H  19.90800 51.17800 23.29600
H  17.22800 50.60400 31.35500
H  15.60300 53.10100 31.22900
H  15.15400 50.25000 31.60400
H  13.99400 51.03100 30.55100
H  14.16000 51.56900 32.21000
H  18.04800 53.50600 31.96500
H  19.24000 52.39300 31.19700
H  19.67700 52.20200 33.32300
H  18.64500 50.77900 33.12900
H  10.99800 54.70800 27.59700
H  11.87600 56.00000 28.24400
H  11.91500 54.35500 28.97100
H  11.52800 57.38200 25.98300
H  10.42900 55.91900 25.75300
H  10.68800 56.97900 24.44900
H  16.68400 54.48100 21.77100
H  17.89200 51.93700 21.42900
H  15.71400 52.13300 20.64300
H  14.71500 53.53800 20.96100
H  14.90200 52.10500 22.09600
H  19.82600 53.55500 22.56200
H  19.01300 54.51300 21.33000
H  20.27300 53.57400 19.75400
H  19.37400 52.18400 19.98500
H  20.86900 52.28400 20.89600
H  21.29200 48.76800 24.36900
H  22.45900 49.30200 25.66600
H  22.04000 50.34300 24.29100
H  20.69400 50.91500 30.22300
H  19.66700 48.02700 33.16600
H  21.44800 48.32000 33.16000
H  20.76700 47.19700 31.98700

