158

Mg 25.30700 1.67000 30.66000
C  27.58500 1.73200 33.40800
C  22.68800 2.09500 32.86400
C  23.18100 1.45700 28.11000
C  27.91300 0.79900 28.60800
N  25.17600 2.04600 32.84800
C  26.23500 1.94600 33.77100
C  25.71900 2.24800 35.17700
C  24.11900 2.23000 35.02500
C  23.96100 2.03700 33.51900
C  23.45900 1.15800 35.87500
C  26.44800 3.54700 35.68500
C  27.51100 3.49300 36.76600
H  27.37900 4.30800 38.07500
N  23.22300 1.86000 30.49300
C  22.35200 2.04900 31.52600
C  21.04300 2.19300 30.99800
C  21.16200 2.06800 29.57900
C  22.56700 1.80600 29.27200
C  19.81900 2.63100 31.74900
C  20.14600 2.03100 28.51600
O  20.41800 1.99000 27.34800
C  18.67700 1.99800 28.92100
N  25.45200 0.80100 28.74300
C  24.42400 0.98100 27.86200
C  24.87000 0.77000 26.35700
C  26.44500 0.63700 26.55900
C  26.63500 0.65000 28.09400
C  24.22700 -0.35700 25.50700
C  27.12900 1.59200 25.58900
C  27.46600 3.04900 26.03500
N  27.37600 1.35800 30.79800
C  28.34200 0.97500 29.93900
C  29.63800 0.99500 30.53500
C  29.39500 1.19300 31.92100
C  27.99000 1.44000 32.09100
C  30.91100 0.68000 29.86800
C  30.06900 1.36700 33.23500
O  31.23700 1.20800 33.65000
C  28.90600 1.62400 34.24900
C  28.82200 0.44000 35.17900
O  28.18800 -0.61400 35.06600
O  29.67600 0.67600 36.20600
C  29.71500 -0.38400 37.30700
H  21.92200 2.24600 33.62700
H  22.60400 1.62300 27.19700
H  28.74700 0.67100 27.91500
H  25.97300 1.47900 35.90600
H  23.73300 3.19900 35.34400
H  22.64600 1.67400 36.38700
H  24.12200 0.70400 36.61200
H  23.03400 0.42100 35.19300
H  25.63200 4.18700 36.02100
H  26.76700 4.04100 34.76800
H  28.46900 3.76300 36.32100
H  27.64000 2.48600 37.16300
H  19.12100 1.79400 31.75800
H  19.42700 3.48400 31.19500
H  20.01500 2.75400 32.81500
H  18.53000 1.24100 29.69100
H  18.08500 1.76600 28.03600
H  18.33100 2.87500 29.46700
H  24.69700 1.72500 25.86200
H  26.86300 -0.36200 26.43500
H  24.74900 -1.31400 25.52400
H  24.15600 0.16600 24.55300
H  23.26100 -0.59100 25.95400
H  26.39100 1.71200 24.79500
H  28.05000 1.18200 25.17500
H  27.23500 3.68500 25.18100
H  28.53500 3.02500 26.24500
H  26.86600 3.28300 26.91400
H  30.79800 1.04800 28.84900
H  31.06200 -0.39900 29.89400
H  31.69600 1.19900 30.41800
H  29.23500 2.48200 34.83500
H  29.31700 0.06700 38.21600
H  30.77100 -0.54800 37.52200
H  29.34800 -1.40800 37.24600
Mg -0.71800 33.79000 25.87300
C  -2.67200 32.42000 28.31000
C  0.46000 36.19200 28.29900
C  0.78900 35.50600 23.41300
C  -2.34700 31.79600 23.50400
N  -1.07200 34.24000 28.08600
C  -1.91100 33.41900 28.85300
C  -1.72800 33.92900 30.33100
C  -0.93700 35.29300 30.27100
C  -0.48300 35.25900 28.79200
C  -1.77300 36.58800 30.56800
C  -1.23700 32.92600 31.32700
C  -1.86000 33.05300 32.74700
H  -0.87500 32.93800 33.92800
N  0.39100 35.50000 25.88200
C  0.81100 36.30900 26.90000
C  1.66300 37.37100 26.41700
C  1.76300 37.20000 25.02200
C  0.94700 36.02800 24.67400
C  2.24600 38.35700 27.35700
C  2.59900 38.01100 24.01300
O  2.43900 37.95200 22.79700
C  3.69100 38.91600 24.51300
N  -0.73000 33.60300 23.71200
C  -0.04800 34.41600 22.92300
C  -0.18500 34.06600 21.43000
C  -1.03100 32.81800 21.50400
C  -1.36500 32.66600 22.96900
C  -0.65100 35.27300 20.53100
C  -0.26400 31.56900 20.96900
C  0.49100 30.55300 21.86800
N  -2.16000 32.34700 25.84700
C  -2.75300 31.62900 24.80700
C  -3.81200 30.75200 25.43200
C  -3.71200 31.03800 26.78300
C  -2.74700 32.02000 26.96100
C  -4.58400 29.64500 24.79500
C  -4.37000 30.66300 27.99300
O  -5.27000 29.87700 28.19400
C  -3.67500 31.47600 29.06000
C  -4.60400 32.14800 29.90700
O  -5.18500 33.13400 29.55100
O  -4.96000 31.43500 31.05600
C  -5.85600 32.02600 32.05000
H  0.89100 36.88000 29.02900
H  1.29900 36.10700 22.65900
H  -2.91400 31.19100 22.79400
H  -2.74300 34.29100 30.49700
H  -0.03500 35.26200 30.88200
H  -2.60500 36.28900 31.20500
H  -2.16000 36.95300 29.61700
H  -1.19400 37.42400 30.96200
H  -0.16100 33.07300 31.42300
H  -1.28700 31.90300 30.95400
H  -2.55200 32.21300 32.80100
H  -2.46700 33.95700 32.78500
H  2.96200 37.85100 28.00500
H  1.45900 38.59800 28.07100
H  2.69500 39.22500 26.87400
H  4.19500 38.39300 25.32600
H  3.43500 39.89300 24.92200
H  4.40200 39.07700 23.70200
H  0.86400 33.89800 21.18500
H  -1.93000 32.87800 20.89100
H  -1.57300 35.01400 20.00900
H  0.17700 35.55400 19.88000
H  -0.95800 36.08200 21.19300
H  0.41000 31.82500 20.15100
H  -0.94800 30.84200 20.53200
H  1.46900 30.27500 21.47400
H  -0.04100 29.60200 21.90900
H  0.70500 30.92900 22.86900
H  -4.61000 29.93000 23.74400
H  -5.61200 29.60000 25.15700
H  -4.12000 28.66200 24.88300
H  -3.10700 30.88300 29.77600
H  -5.22700 32.61100 32.72100
H  -6.24300 31.18400 32.62300
H  -6.76500 32.51900 31.70500

