158

Mg 16.75100 51.54200 26.40400
C  18.67500 49.99900 29.02000
C  14.36000 52.30400 28.60100
C  15.03000 52.45100 23.72700
C  19.38500 50.30900 24.13600
N  16.59600 51.16600 28.52600
C  17.48800 50.63300 29.41500
C  17.02500 50.84000 30.89600
C  15.51100 51.32300 30.68700
C  15.47200 51.64100 29.16000
C  14.41500 50.34800 31.17400
C  17.99500 51.88500 31.61600
C  18.45700 51.52700 32.97300
H  17.36000 50.76900 33.89800
N  14.98700 52.31600 26.17300
C  14.12600 52.64200 27.24000
C  12.99000 53.33000 26.69800
C  13.20000 53.43700 25.28700
C  14.49900 52.79100 24.98100
C  11.88500 53.78900 27.58300
C  12.45500 54.21400 24.26300
O  12.82800 54.39400 23.10000
C  11.10400 54.87800 24.67000
N  17.21900 51.32800 24.25300
C  16.25300 51.81200 23.39000
C  16.57200 51.26100 21.97600
C  18.10200 50.99600 22.04500
C  18.33300 50.93400 23.58200
C  15.62800 50.11300 21.58400
C  19.09900 51.99500 21.35500
C  18.76200 53.50100 21.54000
N  18.64700 50.48900 26.53100
C  19.60600 50.07900 25.57000
C  20.69200 49.34500 26.15800
C  20.35400 49.31900 27.51900
C  19.10600 49.94100 27.68200
C  22.01600 48.77100 25.46200
C  20.83200 48.83500 28.74300
O  21.86300 48.21800 28.90400
C  19.86700 49.36000 29.82400
C  19.38300 48.27100 30.51800
O  18.99100 47.27300 29.98900
O  19.45600 48.45500 31.88200
C  18.93400 47.31600 32.62000
H  13.61700 52.58500 29.35100
H  14.35100 52.69600 22.90700
H  20.11400 49.95400 23.40500
H  17.06400 49.92000 31.47800
H  15.28400 52.18000 31.32000
H  13.90900 50.59400 32.10800
H  14.86100 49.36500 31.32400
H  13.76000 50.28200 30.30500
H  17.48300 52.84200 31.71200
H  18.91900 52.06400 31.06600
H  18.78100 52.38800 33.55800
H  19.24200 50.79500 32.78400
H  11.18000 52.98900 27.81000
H  11.38500 54.69200 27.23200
H  12.28600 54.03500 28.56600
H  10.37200 54.17800 25.07300
H  10.77700 55.34100 23.73900
H  11.34200 55.66400 25.38800
H  16.50600 52.12700 21.31700
H  18.32600 50.08900 21.48300
H  15.17200 50.46100 20.65700
H  14.85000 49.92200 22.32300
H  16.23900 49.34800 21.10400
H  18.93900 51.76400 20.30200
H  20.10000 51.66100 21.62700
H  19.64400 54.14000 21.51300
H  18.50600 53.60600 22.59400
H  18.02400 53.90600 20.84700
H  22.21500 49.06200 24.43000
H  21.86000 47.70300 25.31200
H  22.91500 48.90900 26.06200
H  20.34000 50.01200 30.55800
H  17.94300 46.96600 32.33100
H  18.83100 47.64700 33.65400
H  19.70400 46.54500 32.58100
Mg -12.07400 37.73900 41.24900
C  -9.62100 35.41300 40.38100
C  -10.31400 40.11700 39.33500
C  -14.77300 39.63300 41.03300
C  -13.78900 35.18700 42.87400
N  -10.24200 37.73900 39.92000
C  -9.42500 36.62500 39.77600
C  -8.20900 36.94900 38.98800
C  -8.24600 38.54200 38.84200
C  -9.67000 38.85600 39.35300
C  -7.26500 39.34400 39.67100
C  -8.31500 36.26100 37.58300
C  -7.06700 35.42100 37.05900
H  -5.94100 36.26300 36.41300
N  -12.51300 39.66900 40.32500
C  -11.63800 40.50400 39.69300
C  -12.36600 41.72600 39.37300
C  -13.66400 41.63400 39.90100
C  -13.70600 40.29800 40.47500
C  -11.67500 42.83500 38.56200
C  -14.73200 42.62600 39.77000
O  -14.45900 43.60400 39.07200
C  -16.13900 42.48500 40.28800
N  -14.00600 37.47900 41.89100
C  -14.98300 38.37100 41.56800
C  -16.34800 37.93900 42.10000
C  -15.99200 36.57900 42.75600
C  -14.50800 36.34400 42.45400
C  -17.16000 38.99800 42.98100
C  -16.87300 35.40800 42.16000
C  -17.56900 34.50600 43.17100
N  -11.75800 35.68700 41.70800
C  -12.47400 34.80500 42.45400
C  -11.69300 33.63700 42.61800
C  -10.56100 33.73300 41.85600
C  -10.67500 35.04600 41.26300
C  -12.08700 32.41200 43.45000
C  -9.40600 33.14600 41.30400
O  -9.01700 31.98700 41.42200
C  -8.65000 34.14900 40.41300
C  -7.39700 34.36000 41.27400
O  -6.40800 33.65200 41.40600
O  -7.46400 35.60400 41.91000
C  -6.26600 36.15500 42.61000
H  -9.67000 40.85600 38.85300
H  -15.73600 40.14700 41.03100
H  -14.22800 34.29100 43.31600
H  -7.25700 36.70000 39.45600
H  -8.06400 38.80900 37.80100
H  -6.35600 39.49000 39.08700
H  -6.91500 38.73800 40.50700
H  -7.68400 40.29900 39.98800
H  -8.69800 36.94700 36.82700
H  -9.14100 35.55000 37.58700
H  -7.48200 34.65800 36.40000
H  -6.69600 34.88300 37.93100
H  -12.24900 43.41100 37.83600
H  -10.65000 42.69400 38.21800
H  -11.39800 43.59500 39.29200
H  -16.61600 43.45200 40.12900
H  -16.24800 42.10200 41.30300
H  -16.61200 41.79500 39.58900
H  -17.05000 37.89900 41.26700
H  -16.06400 36.43700 43.83400
H  -17.84500 39.64100 42.42800
H  -16.51300 39.71200 43.49100
H  -17.68400 38.45200 43.76600
H  -16.39100 34.66900 41.52000
H  -17.65400 35.80000 41.50800
H  -18.08400 33.67100 42.69500
H  -18.23500 35.18100 43.70800
H  -16.88200 34.12100 43.92600
H  -12.36600 32.80600 44.42700
H  -11.18500 31.81700 43.59600
H  -12.93900 31.90800 42.99300
H  -8.32700 33.65000 39.49900
H  -6.56900 36.98500 43.24900
H  -5.64900 36.41500 41.75100
H  -5.83000 35.46300 43.33100

