158

Mg 25.96100 2.12500 29.85600
C  27.91800 1.92500 32.77500
C  23.17200 2.57600 31.83100
C  24.24600 2.03900 27.16100
C  28.88400 1.19400 28.04400
N  25.60800 2.26600 32.14900
C  26.58300 2.23200 33.11900
C  25.98300 2.50800 34.56200
C  24.47100 2.61700 34.22200
C  24.36600 2.42500 32.65300
C  23.56800 1.78700 35.11800
C  26.62300 3.75200 35.26100
C  27.20500 3.51800 36.78300
H  26.77700 4.49500 37.93000
N  24.00300 2.40300 29.51600
C  23.01100 2.52000 30.39700
C  21.78400 2.80300 29.69600
C  22.04000 2.61800 28.31300
C  23.45600 2.32400 28.25800
C  20.46500 3.18600 30.38000
C  21.07700 2.68300 27.19700
O  21.38800 2.69600 25.95900
C  19.62700 2.68800 27.54400
N  26.52800 1.80300 27.87500
C  25.58600 1.88600 26.92300
C  26.18200 1.52500 25.53500
C  27.77700 1.50000 25.89900
C  27.74200 1.45400 27.34500
C  25.65000 0.11000 25.17400
C  28.52500 2.72500 25.20000
C  29.78400 2.30800 24.33300
N  27.92200 1.58800 30.27200
C  29.01000 1.31600 29.48700
C  30.14400 0.96300 30.27700
C  29.77100 1.23700 31.54200
C  28.45000 1.59700 31.51600
C  31.51100 0.40200 29.80000
C  30.29900 1.23500 32.90700
O  31.41400 0.93100 33.33600
C  29.02200 1.61200 33.80300
C  28.66100 0.44800 34.71700
O  28.02900 -0.53800 34.41500
O  29.00300 0.78300 36.02000
C  28.33500 -0.04200 36.99900
H  22.25700 2.85500 32.35700
H  23.71100 1.92500 26.21600
H  29.83700 1.06700 27.52500
H  26.26000 1.65200 35.17700
H  24.21900 3.64000 34.50000
H  22.97800 2.39500 35.80400
H  24.14000 1.09800 35.74000
H  22.90100 1.25100 34.44300
H  25.91600 4.57600 35.17100
H  27.52000 3.90900 34.66200
H  28.29100 3.56300 36.86400
H  26.92600 2.49400 37.03400
H  20.22100 4.18700 30.02200
H  20.60400 3.17400 31.46100
H  19.67400 2.44800 30.24900
H  19.27900 1.98200 28.29800
H  19.03100 2.60000 26.63500
H  19.32900 3.62600 28.01300
H  25.84600 2.26600 24.81000
H  28.19500 0.60000 25.44900
H  24.73300 -0.12100 25.71500
H  26.26200 -0.75400 25.43200
H  25.38200 0.06800 24.11800
H  28.90700 3.40700 25.96000
H  27.85700 3.30600 24.56300
H  30.65900 2.67300 24.87000
H  29.77000 2.85200 23.38900
H  29.94400 1.23500 24.22500
H  31.62900 -0.53900 30.33800
H  32.27100 1.15500 30.00800
H  31.42500 0.01700 28.78400
H  29.29600 2.48400 34.39600
H  28.64200 -1.08400 37.08800
H  27.26900 0.07200 36.80300
H  28.34500 0.47900 37.95600
Mg 28.43500 56.17200 40.14300
C  26.18500 53.58800 40.04700
C  30.95700 53.94000 39.17900
C  30.50600 58.67100 39.85300
C  25.64100 58.52000 40.24100
N  28.53400 53.95300 39.79000
C  27.45500 53.12400 39.67800
C  27.79500 51.79300 38.93900
C  29.36700 51.77600 39.16900
C  29.70600 53.28100 39.36700
C  29.79100 50.79800 40.23500
C  27.32900 51.85400 37.45600
C  27.11300 53.29000 36.85100
H  26.51800 53.26800 35.46000
N  30.38700 56.31000 39.58700
C  31.29300 55.27900 39.30500
C  32.61800 55.84700 39.04200
C  32.50700 57.25300 39.16500
C  31.11000 57.44100 39.68700
C  33.90100 55.04100 38.61900
C  33.67300 58.29400 38.89900
O  34.79200 57.91500 38.68100
C  33.47700 59.79800 38.96600
N  28.05100 58.30200 40.16500
C  29.22000 59.11100 40.06000
C  28.87600 60.63500 40.13300
C  27.31300 60.53800 40.17300
C  26.94200 59.04500 40.13700
C  29.58000 61.43500 41.17900
C  26.60700 61.20800 38.95000
C  25.38200 62.11000 39.37000
N  26.32500 56.13100 40.09500
C  25.32300 57.09100 40.19500
C  24.03700 56.44300 40.30100
C  24.34600 55.05700 40.30400
C  25.71800 54.90500 40.07500
C  22.73700 57.05000 40.46400
C  23.78300 53.76000 40.41400
O  22.61100 53.43800 40.69000
C  24.90800 52.77700 40.07100
C  24.99900 51.62600 41.08200
O  24.12800 50.76500 41.27700
O  26.06100 51.70500 41.91600
C  26.23000 50.63500 42.89700
H  31.69700 53.19200 38.88800
H  31.18900 59.51700 39.95000
H  24.75500 59.15800 40.24500
H  27.28900 50.92800 39.37000
H  29.80000 51.44300 38.22600
H  30.30400 51.34400 41.02700
H  30.25600 50.02100 39.63000
H  28.90000 50.35400 40.68000
H  26.49700 51.15600 37.36900
H  28.12400 51.40000 36.86400
H  28.02100 53.87200 36.68900
H  26.35700 53.85300 37.39900
H  33.88200 53.99300 38.91800
H  34.67700 55.42500 39.28100
H  34.13200 55.22900 37.57000
H  33.34200 60.17800 39.97900
H  32.65400 60.09700 38.31800
H  34.33500 60.29600 38.51300
H  29.13100 61.03300 39.15100
H  26.93700 60.91600 41.12300
H  30.10900 60.73000 41.81900
H  28.92200 61.99100 41.84700
H  30.20200 62.16300 40.65800
H  26.22100 60.42300 38.30000
H  27.24000 61.88000 38.36900
H  24.46100 61.66500 38.99400
H  25.51300 63.13900 39.03600
H  25.11400 62.08000 40.42700
H  22.70300 58.13800 40.51700
H  22.27900 56.71000 41.39200
H  22.07900 56.70700 39.66500
H  24.47300 52.42000 39.13800
H  26.00700 50.92200 43.92500
H  27.29700 50.41800 42.84900
H  25.82700 49.66400 42.61000

