158

Mg 36.54200 49.98100 24.20300
C  36.73900 48.24100 27.35200
C  34.87000 52.56100 26.06000
C  36.01700 51.47200 21.41000
C  37.55600 47.18000 22.67500
N  35.85600 50.31700 26.52900
C  36.18500 49.50100 27.55100
C  35.80600 50.19900 28.85800
C  35.18400 51.57200 28.41100
C  35.31600 51.50600 26.87700
C  33.64800 51.70800 28.76000
C  36.97600 50.26500 29.88400
C  36.68600 49.84700 31.34400
H  35.29500 49.51000 31.70700
N  35.55400 51.75800 23.78200
C  35.01100 52.66700 24.65800
C  34.62300 53.83300 23.83400
C  34.85600 53.46800 22.45400
C  35.45600 52.15700 22.49500
C  34.02400 55.06100 24.50700
C  34.37500 54.07600 21.11600
O  34.48700 53.58800 19.98200
C  33.59800 55.40600 21.18500
N  36.62000 49.33800 22.24500
C  36.56100 50.23200 21.23400
C  36.92000 49.55100 19.91700
C  37.44600 48.13500 20.31500
C  37.24500 48.21000 21.79300
C  35.77900 49.63100 18.86900
C  38.94100 47.93200 19.86300
C  39.99700 48.56900 20.77800
N  37.27400 48.24000 24.77200
C  37.62200 47.08000 24.06600
C  37.87200 45.93900 24.92200
C  37.63600 46.40400 26.20300
C  37.17500 47.76500 26.08100
C  38.28900 44.56400 24.50400
C  37.63800 45.94500 27.65300
O  37.98800 44.85300 28.07800
C  37.09100 47.22000 28.38500
C  35.94900 46.65100 29.11700
O  34.83100 46.50300 28.72700
O  36.43600 46.14800 30.32800
C  35.58100 45.14500 31.02100
H  34.59600 53.38100 26.72600
H  35.98700 51.99600 20.45200
H  38.01000 46.30200 22.20900
H  34.89900 49.70600 29.20700
H  35.80400 52.39800 28.76200
H  33.07500 51.66100 27.83400
H  33.49000 52.69800 29.18500
H  33.27900 50.99200 29.49400
H  37.56600 51.18100 29.84500
H  37.79200 49.62500 29.54600
H  37.01700 50.68500 31.95800
H  37.32200 49.00500 31.62100
H  33.06400 55.27200 24.03600
H  34.63800 55.87600 24.12200
H  34.08900 55.21300 25.58400
H  33.49100 55.81400 20.18000
H  34.15700 56.13300 21.77400
H  32.62400 55.16900 21.61300
H  37.66800 50.20700 19.47200
H  36.84300 47.36500 19.83500
H  34.89800 50.03500 19.36800
H  35.52300 48.60800 18.59200
H  36.09500 50.33400 18.09800
H  38.97500 48.41600 18.88700
H  39.14400 46.86800 19.73900
H  40.99700 48.63000 20.35000
H  39.96700 47.99000 21.70100
H  39.82800 49.62400 20.99500
H  37.88800 43.88200 25.25400
H  39.37600 44.49000 24.47700
H  37.96100 44.44900 23.47100
H  37.84200 47.57500 29.09100
H  35.26800 45.67500 31.92000
H  36.09200 44.21000 31.25500
H  34.72600 44.91500 30.38600
Mg -12.23000 15.92600 41.77700
C  -9.22200 14.05200 41.27600
C  -10.81200 18.44800 39.89900
C  -15.22100 17.34200 41.59500
C  -13.69900 12.94800 43.10400
N  -10.27200 16.09300 40.44000
C  -9.19500 15.27900 40.54700
C  -7.93900 15.94900 39.95400
C  -8.47900 17.35700 39.59900
C  -9.93200 17.34200 40.08000
C  -7.67200 18.58900 40.23400
C  -7.44100 15.12600 38.71000
C  -5.97200 15.09100 38.49800
H  -5.61000 15.66800 37.18400
N  -12.94700 17.69300 40.98100
C  -12.19500 18.61200 40.22600
C  -13.05600 19.74400 39.80200
C  -14.31000 19.47200 40.31100
C  -14.21500 18.17600 41.05100
C  -12.52000 20.85500 38.93200
C  -15.55500 20.33400 40.04200
O  -15.53500 21.28200 39.24400
C  -16.78000 20.12300 40.84900
N  -14.14600 15.23400 42.29400
C  -15.19700 16.09000 42.16200
C  -16.48700 15.23500 42.39600
C  -16.01200 13.96800 43.06900
C  -14.53000 14.04200 42.85200
C  -17.49900 15.97300 43.37400
C  -16.74900 12.60300 42.74500
C  -16.96900 11.67600 43.89000
N  -11.60600 14.00600 42.28100
C  -12.29300 12.90500 42.80000
C  -11.43700 11.80900 42.97900
C  -10.22400 12.21600 42.43500
C  -10.36300 13.54200 41.97400
C  -11.77100 10.50800 43.60100
C  -8.85900 11.78600 42.20500
O  -8.31000 10.71300 42.49100
C  -8.11800 12.95500 41.50100
C  -7.14300 13.45600 42.47800
O  -7.34000 13.68900 43.66000
O  -5.94200 13.76100 41.86500
C  -5.00000 14.53600 42.75100
H  -10.25600 19.18900 39.32100
H  -16.17700 17.63000 41.15300
H  -14.28000 12.11400 43.50500
H  -7.15200 16.00600 40.70500
H  -8.59400 17.51400 38.52700
H  -6.64100 18.24700 40.13600
H  -7.88300 18.75800 41.29000
H  -7.81700 19.59200 39.83400
H  -7.87000 15.62400 37.84000
H  -7.85500 14.11800 38.70800
H  -5.66700 14.05300 38.62900
H  -5.39900 15.71800 39.18100
H  -13.28200 21.49200 38.48300
H  -11.88000 20.35800 38.20300
H  -11.84700 21.52000 39.47400
H  -16.54000 19.80400 41.86300
H  -17.30800 19.35900 40.27900
H  -17.42500 20.99800 40.93100
H  -16.91500 14.93700 41.43900
H  -16.17400 14.13300 44.13400
H  -17.91300 15.21000 44.03200
H  -18.31200 16.47200 42.84600
H  -16.95700 16.72900 43.94300
H  -16.17000 12.08000 41.98300
H  -17.78600 12.66900 42.41500
H  -16.58000 10.70300 43.58900
H  -18.04500 11.52900 43.98900
H  -16.44300 11.94800 44.80500
H  -11.93300 10.73600 44.65400
H  -10.92400 9.83500 43.47400
H  -12.71900 10.13800 43.20800
H  -7.62100 12.63100 40.58700
H  -5.16800 14.43500 43.82300
H  -5.09700 15.60600 42.56900
H  -4.01900 14.10000 42.56000

