158

Mg 1.53700 -2.04800 44.31000
C  4.85300 -1.30700 43.88100
C  0.77100 0.83800 42.76400
C  -1.73200 -3.11600 44.30100
C  2.62600 -5.16900 45.60100
N  2.70000 -0.55000 43.44300
C  4.00000 -0.36400 43.41800
C  4.43400 0.91300 42.62100
C  3.06000 1.68600 42.58700
C  2.13600 0.58500 42.91900
C  2.87600 2.92500 43.49500
C  5.07900 0.55700 41.30500
C  6.31900 1.30000 40.89700
H  6.23200 2.18700 39.71100
N  -0.21200 -1.23700 43.75600
C  -0.28700 0.01800 43.12200
C  -1.68200 0.33400 42.89000
C  -2.43900 -0.82000 43.20100
C  -1.44000 -1.77800 43.78300
C  -2.10700 1.69100 42.42400
C  -3.99900 -1.04700 43.02000
O  -4.71100 -0.18000 42.55300
C  -4.80100 -2.30600 43.30900
N  0.60500 -3.90300 44.73800
C  -0.82600 -4.04200 44.69800
C  -1.21300 -5.46600 45.19100
C  0.18600 -6.09500 45.56900
C  1.19900 -4.92800 45.32300
C  -2.32900 -5.43600 46.27900
C  0.61600 -7.34800 44.64600
C  0.72700 -8.72600 45.32100
N  3.38300 -3.05800 44.73900
C  3.65700 -4.27700 45.27100
C  5.06600 -4.40100 45.58000
C  5.62800 -3.22500 45.03300
C  4.52900 -2.50900 44.50900
C  5.69700 -5.52200 46.40300
C  6.87900 -2.57500 44.73400
O  8.09800 -2.84800 44.99600
C  6.40300 -1.29600 43.94400
C  6.78400 -0.07700 44.74300
O  6.46400 0.18900 45.89700
O  7.57300 0.73600 43.99800
C  7.86900 2.03100 44.50600
H  0.49300 1.74200 42.21900
H  -2.74400 -3.48800 44.47000
H  2.79800 -6.03900 46.23800
H  5.08000 1.53600 43.24000
H  2.91200 2.01100 41.55700
H  2.16200 2.74400 44.29900
H  2.60100 3.71600 42.79700
H  3.86200 3.16300 43.89400
H  4.37700 0.51800 40.47200
H  5.40000 -0.46400 41.51100
H  7.12800 0.57500 40.98900
H  6.45400 2.03700 41.68700
H  -2.32400 1.60700 41.35900
H  -1.35700 2.44600 42.66100
H  -3.10500 1.97300 42.75900
H  -4.23600 -3.11600 42.84600
H  -5.76400 -2.21500 42.80800
H  -4.84300 -2.27900 44.39800
H  -1.57600 -5.97400 44.29800
H  0.25200 -6.40000 46.61400
H  -2.01300 -5.95800 47.18200
H  -3.17100 -5.98000 45.85000
H  -2.69700 -4.44000 46.52500
H  1.63300 -7.27500 44.26100
H  0.02100 -7.62800 43.77600
H  1.23800 -9.40700 44.64000
H  -0.29600 -9.05900 45.49500
H  1.30800 -8.61000 46.23600
H  5.22500 -6.35300 45.88000
H  5.31100 -5.56800 47.42100
H  6.76300 -5.51200 46.17700
H  6.75500 -1.25700 42.91300
H  8.18000 2.66600 43.67600
H  8.69100 2.05100 45.22200
H  7.00400 2.59600 44.85200
Mg 40.24600 10.33500 29.47800
C  42.22700 11.31300 32.03000
C  37.97800 9.10600 31.93200
C  38.20800 9.40300 26.98600
C  42.62300 11.26500 27.08400
N  40.21500 10.04300 31.77200
C  41.00200 10.86800 32.53800
C  40.58500 10.89300 34.01800
C  39.28600 10.00400 33.91700
C  39.14500 9.71600 32.43400
C  39.36200 8.74400 34.84700
C  40.34900 12.31900 34.56400
C  39.87000 12.29800 36.05600
H  40.52600 13.20900 37.04300
N  38.38000 9.40600 29.45600
C  37.65200 8.87700 30.53100
C  36.46500 8.30900 30.12300
C  36.44400 8.40000 28.69100
C  37.69000 9.06700 28.28600
C  35.42200 7.73800 31.08100
C  35.32100 7.91800 27.75400
O  35.40900 8.16200 26.57600
C  34.13300 7.13600 28.31400
N  40.53100 10.11700 27.27100
C  39.42500 9.79500 26.53900
C  39.71300 10.16000 24.99100
C  41.04300 10.91800 25.03900
C  41.39900 10.83400 26.55600
C  39.83600 8.92300 24.06300
C  40.99700 12.39400 24.51900
C  39.78100 13.30400 24.90300
N  42.08400 10.94200 29.47900
C  42.94600 11.26900 28.47400
C  44.20700 11.73200 29.06300
C  43.93500 11.86000 30.41200
C  42.66000 11.32600 30.69600
C  45.48500 12.14400 28.45000
C  44.47200 12.31500 31.74500
O  45.55100 12.84900 31.96300
C  43.39700 11.87400 32.79200
C  44.01800 10.97900 33.84500
O  43.99700 9.73600 33.91000
O  44.37600 11.76300 34.95200
C  44.83600 11.02800 36.12100
H  37.24400 8.76300 32.66400
H  37.50200 9.30300 26.15900
H  43.35000 11.71300 26.40300
H  41.37400 10.48800 34.65200
H  38.48100 10.70300 34.14400
H  40.40900 8.62000 35.12400
H  38.88900 7.90900 34.33000
H  38.79900 8.98600 35.74900
H  39.59000 12.74000 33.90500
H  41.24900 12.93300 34.51800
H  39.88100 11.25500 36.37300
H  38.80600 12.53500 36.05100
H  34.87100 6.88100 30.69400
H  34.75500 8.54400 31.38700
H  35.84100 7.30000 31.98700
H  33.65000 7.61800 29.16300
H  34.40000 6.10800 28.56000
H  33.34500 7.19100 27.56300
H  39.06600 10.93600 24.58200
H  41.83000 10.40800 24.48400
H  38.80900 8.84500 23.70700
H  40.16100 8.00800 24.55800
H  40.55000 9.08700 23.25700
H  41.03800 12.44700 23.43100
H  41.91700 12.88400 24.83800
H  38.89800 12.84000 25.34200
H  39.52700 13.73600 23.93500
H  40.02300 14.09200 25.61500
H  45.88500 13.00700 28.98200
H  45.43700 12.39500 27.39100
H  46.22400 11.34300 28.48000
H  43.21100 12.81200 33.31400
H  45.71000 10.40000 35.94800
H  44.08500 10.28700 36.39700
H  44.92200 11.67100 36.99700

