158

Mg -1.94800 34.70900 26.49600
C  -3.93100 33.30200 29.08300
C  -0.69700 36.92600 28.78200
C  -0.60400 36.32000 23.89400
C  -3.70600 32.82000 24.23200
N  -2.37500 35.14200 28.71300
C  -3.06700 34.34900 29.53200
C  -2.81500 34.71900 31.00700
C  -1.85800 36.02300 30.90600
C  -1.59300 36.06900 29.41000
C  -2.29800 37.34900 31.46400
C  -2.17000 33.54300 31.81000
C  -1.57000 33.90000 33.20200
H  -2.49200 33.70700 34.41700
N  -0.83100 36.38400 26.36100
C  -0.39000 37.15900 27.41300
C  0.54500 38.08800 26.88200
C  0.62500 37.89100 25.47900
C  -0.28100 36.78400 25.16800
C  1.21700 39.16100 27.67800
C  1.57200 38.58800 24.51200
O  1.35800 38.57100 23.26900
C  2.81600 39.27500 25.07900
N  -2.15100 34.58600 24.31200
C  -1.51400 35.36700 23.51000
C  -1.74500 35.01500 22.01200
C  -2.81600 33.90000 22.12100
C  -2.91300 33.73900 23.64500
C  -2.10900 36.28100 21.12200
C  -2.48200 32.53700 21.45300
C  -1.16500 31.90000 22.02700
N  -3.51400 33.37300 26.56200
C  -4.15700 32.70300 25.54200
C  -5.14700 31.75500 26.03000
C  -5.08000 31.98800 27.39200
C  -4.16000 32.96000 27.70600
C  -6.05100 30.97000 25.26700
C  -5.53600 31.48200 28.71700
O  -6.22900 30.58800 28.94900
C  -4.85400 32.35200 29.82700
C  -5.75800 33.17000 30.69900
O  -6.68600 33.79600 30.28300
O  -5.46800 32.96600 32.01300
C  -6.44800 33.55900 32.99800
H  -0.04400 37.49200 29.45000
H  -0.36800 36.94000 23.02700
H  -4.15100 32.11100 23.53100
H  -3.75500 34.98700 31.49000
H  -0.82700 35.93300 31.24800
H  -1.48200 37.81700 32.01500
H  -3.13500 37.25200 32.15500
H  -2.53500 37.91200 30.56200
H  -1.37500 33.22400 31.13600
H  -2.95000 32.83800 32.09700
H  -1.46800 34.98600 33.19800
H  -0.62200 33.37100 33.30100
H  0.72700 39.33400 28.63600
H  1.24600 40.12300 27.16600
H  2.20900 38.78300 27.92700
H  2.73000 40.36100 25.11900
H  3.49900 39.04400 24.26100
H  3.28600 38.73800 25.90200
H  -0.86800 34.57500 21.53800
H  -3.79200 34.22400 21.75900
H  -2.12500 37.19800 21.71100
H  -3.08100 36.20400 20.63400
H  -1.45100 36.47400 20.27500
H  -2.25700 32.84600 20.43200
H  -3.29200 31.80900 21.49700
H  -0.40200 31.96900 21.25200
H  -1.43900 30.87700 22.28500
H  -0.77300 32.28400 22.96800
H  -5.54600 30.00600 25.20900
H  -6.13200 31.36400 24.25400
H  -7.06900 30.84800 25.63700
H  -4.23300 31.73100 30.47300
H  -7.32600 32.92200 33.09900
H  -6.85700 34.48800 32.59900
H  -6.12000 33.68400 34.03000
Mg -5.34600 25.82200 25.47800
C  -4.43300 27.14000 28.54400
C  -7.14500 23.34900 27.16000
C  -6.09000 24.34600 22.55300
C  -3.16700 28.11900 23.84000
N  -5.70000 25.33300 27.61300
C  -5.41800 26.14700 28.75300
C  -5.92900 25.56000 30.06800
C  -6.73100 24.35400 29.53400
C  -6.52700 24.35500 27.99700
C  -6.19700 22.97400 29.99100
C  -6.78200 26.50500 30.96900
C  -6.76400 26.42200 32.52700
H  -6.39800 25.17300 33.35400
N  -6.48600 24.06300 24.95500
C  -7.15500 23.16700 25.78200
C  -7.87400 22.22100 24.98200
C  -7.45100 22.44200 23.65800
C  -6.64700 23.69000 23.64400
C  -8.70200 21.12600 25.59800
C  -7.66100 21.63400 22.32100
O  -6.98900 21.85100 21.31800
C  -8.69300 20.49200 22.14000
N  -4.75100 26.24500 23.48300
C  -5.17400 25.44900 22.42300
C  -4.39800 25.82400 21.17000
C  -3.58100 27.11400 21.57000
C  -3.92200 27.26700 23.05300
C  -3.50600 24.61300 20.69700
C  -3.78000 28.45400 20.78100
C  -2.47900 28.89600 19.97800
N  -4.19000 27.41900 26.02900
C  -3.31000 28.22700 25.21800
C  -2.50800 29.02100 26.17700
C  -2.92700 28.65300 27.51900
C  -3.89700 27.66800 27.33300
C  -1.54400 30.05800 25.73400
C  -2.75500 28.96500 28.88400
O  -1.96800 29.75800 29.44200
C  -3.81600 27.99400 29.65500
C  -2.99700 27.19500 30.56400
O  -2.33500 26.20400 30.22100
O  -3.09000 27.60800 31.93000
C  -2.36500 26.85100 32.94000
H  -7.81600 22.70100 27.72800
H  -6.09700 23.95700 21.53300
H  -2.46800 28.76100 23.30000
H  -5.16400 25.32000 30.80700
H  -7.76900 24.37400 29.86700
H  -5.49700 23.23700 30.78400
H  -5.72200 22.35000 29.23400
H  -7.06500 22.55100 30.49800
H  -7.78600 26.47700 30.54600
H  -6.44800 27.51700 30.74000
H  -7.74100 26.81800 32.80600
H  -6.11000 27.25500 32.78300
H  -8.47900 20.12800 25.22000
H  -9.73100 21.37800 25.34100
H  -8.62800 21.16400 26.68500
H  -9.25200 20.18600 23.02400
H  -8.15700 19.64100 21.72100
H  -9.40300 20.76700 21.35900
H  -5.05500 26.14900 20.36300
H  -2.51700 26.87700 21.55700
H  -3.77700 24.48400 19.65000
H  -3.55000 23.69800 21.28800
H  -2.46700 24.88800 20.88100
H  -4.00100 29.27600 21.46200
H  -4.68100 28.31800 20.18300
H  -1.92000 29.78900 20.26000
H  -2.82400 28.98800 18.94900
H  -1.78300 28.07500 20.15200
H  -1.15200 29.88100 24.73300
H  -0.81000 30.27500 26.51100
H  -2.19400 30.91900 25.57600
H  -4.53200 28.49000 30.31000
H  -1.69600 26.09700 32.52700
H  -3.16100 26.55600 33.62300
H  -1.76000 27.53700 33.53300

