158

Mg 35.57300 48.71100 25.38000
C  35.75900 46.92900 28.39100
C  34.47000 51.37800 27.10100
C  35.23700 50.10300 22.44800
C  36.91500 45.76500 23.93100
N  35.22400 49.15800 27.56400
C  35.51200 48.31900 28.57200
C  35.33800 49.05700 29.93000
C  34.67100 50.42000 29.49100
C  34.81400 50.33500 27.98800
C  33.17900 50.62100 29.77800
C  36.73300 49.23400 30.67600
C  36.61100 49.50800 32.18400
H  35.11000 49.51800 32.70200
N  34.94400 50.49700 24.87300
C  34.51800 51.50100 25.66500
C  34.03400 52.58600 24.87500
C  34.27400 52.24800 23.52800
C  34.82400 50.91900 23.57500
C  33.51500 53.74700 25.52400
C  34.05300 53.08300 22.27100
O  34.33900 52.69600 21.15900
C  33.40800 54.40700 22.49700
N  36.01800 47.98500 23.46800
C  35.80000 48.80700 22.40600
C  36.13200 48.07500 21.07200
C  36.94500 46.81800 21.61400
C  36.67400 46.87000 23.07800
C  34.83100 47.71800 20.25900
C  38.44100 46.83200 21.00100
C  38.60700 45.72100 19.94100
N  35.98000 46.68100 25.97300
C  36.50200 45.62900 25.23400
C  36.57800 44.46300 26.07300
C  36.22800 44.93300 27.32800
C  35.93400 46.28400 27.18800
C  36.94700 43.07300 25.65000
C  36.20100 44.56300 28.74900
O  36.60600 43.50400 29.26100
C  35.89900 45.91800 29.51700
C  34.75400 45.83400 30.40400
O  33.63300 46.16700 30.13800
O  35.06700 45.34500 31.63300
C  33.91300 45.11600 32.49100
H  34.17500 52.30400 27.60000
H  35.21500 50.47200 21.42000
H  37.32900 44.84000 23.52300
H  34.65600 48.46200 30.53700
H  35.23600 51.25400 29.90800
H  33.21600 51.48700 30.43900
H  32.77200 49.72500 30.24600
H  32.59000 50.86300 28.89300
H  37.34100 49.98800 30.17700
H  37.35500 48.35400 30.51100
H  37.13700 50.43400 32.41300
H  37.14200 48.79100 32.81100
H  34.20600 54.53400 25.22300
H  33.19600 53.68100 26.56400
H  32.56600 53.89300 25.00700
H  34.00300 55.10000 23.09100
H  32.45200 54.20200 22.97900
H  33.24600 54.77700 21.48400
H  36.74500 48.71900 20.44200
H  36.33300 46.01800 21.19700
H  34.05000 48.39000 20.61500
H  34.63700 46.65900 20.42500
H  35.02500 47.99200 19.22200
H  39.17200 46.76900 21.80800
H  38.68900 47.74000 20.45100
H  38.78400 46.23400 18.99500
H  37.69800 45.12200 19.87700
H  39.46300 45.06000 20.07200
H  37.97200 43.18100 25.29700
H  36.18400 42.76800 24.93400
H  36.92100 42.43400 26.53200
H  36.72600 46.12800 30.19500
H  33.59100 46.11600 32.78300
H  34.22400 44.55600 33.37300
H  33.05300 44.67000 31.99200
Mg -5.10600 25.52300 25.22000
C  -3.57400 27.15200 27.83900
C  -6.81300 23.50400 27.57300
C  -6.49500 23.74600 22.77100
C  -2.99900 27.28600 23.03000
N  -5.09900 25.32700 27.45400
C  -4.50500 26.23500 28.30200
C  -5.03500 26.05200 29.69800
C  -5.73300 24.62800 29.56700
C  -5.92500 24.42300 28.09400
C  -4.87600 23.46300 30.07200
C  -6.01600 27.24700 30.11700
C  -6.05900 27.72800 31.66500
H  -5.62200 26.74900 32.70600
N  -6.53300 23.83900 25.20300
C  -7.03900 23.25200 26.25100
C  -8.09200 22.28900 25.78900
C  -7.97600 22.29400 24.34200
C  -6.96700 23.33400 24.03900
C  -8.88500 21.44600 26.64300
C  -8.65300 21.41000 23.36000
O  -8.54700 21.53000 22.16600
C  -9.50200 20.24800 23.83500
N  -4.85600 25.62100 23.18000
C  -5.44100 24.68000 22.39000
C  -4.93700 24.86400 20.94700
C  -3.97900 26.12900 21.01100
C  -3.92900 26.35300 22.52700
C  -4.30500 23.64300 20.40300
C  -4.34900 27.35500 20.08900
C  -3.20100 27.89100 19.21100
N  -3.58800 26.94700 25.41100
C  -2.79700 27.58500 24.40900
C  -1.87200 28.52600 25.06400
C  -2.16800 28.44500 26.44100
C  -3.20600 27.50300 26.55500
C  -0.85900 29.42500 24.34600
C  -1.85300 28.90600 27.77700
O  -1.09300 29.79400 28.03600
C  -2.84000 28.08000 28.70900
C  -2.03500 27.43500 29.75300
O  -1.14900 26.59300 29.50100
O  -2.58100 27.66800 30.95300
C  -1.67000 27.35100 32.17000
H  -7.40400 22.84900 28.21600
H  -6.87900 23.20100 21.90700
H  -2.32400 27.72700 22.29400
H  -4.23300 25.95800 30.43000
H  -6.75800 24.58200 29.93500
H  -4.44400 22.83400 29.29300
H  -5.48400 22.89100 30.77300
H  -4.02100 23.83900 30.63300
H  -7.04800 26.94000 29.94400
H  -5.76000 27.98800 29.36000
H  -7.12000 27.90700 31.83600
H  -5.48900 28.65500 31.72800
H  -9.92900 21.73500 26.53000
H  -8.71500 21.49600 27.71900
H  -8.65700 20.40500 26.41300
H  -10.34700 20.64900 24.39400
H  -8.86700 19.57100 24.40600
H  -10.00700 19.65000 23.07700
H  -5.74100 25.16500 20.27600
H  -2.99000 25.86800 20.63400
H  -4.35200 22.84700 21.14700
H  -3.25100 23.83600 20.20600
H  -4.74200 23.27100 19.47600
H  -4.51300 28.22300 20.72900
H  -5.14000 27.08700 19.38800
H  -3.50500 28.00800 18.17000
H  -2.27900 27.31100 19.22800
H  -3.16600 28.95400 19.44900
H  -1.38100 30.17200 23.74800
H  -0.50300 28.83300 23.50200
H  -0.01300 29.75600 24.94900
H  -3.51000 28.84700 29.09800
H  -2.02800 27.70800 33.13600
H  -0.67100 27.75100 31.99700
H  -1.54600 26.26800 32.17600

