158

Mg 8.62400 3.70800 26.97600
C  9.85600 2.35200 29.86600
C  6.88700 6.09900 28.70500
C  7.00900 4.61000 24.06200
C  9.85900 0.81300 25.20800
N  8.57100 4.25300 29.02200
C  9.13700 3.56200 30.06900
C  8.88600 4.22000 31.39700
C  7.76700 5.26600 31.01200
C  7.73800 5.25100 29.48100
C  6.38000 4.83800 31.47000
C  10.27900 4.77700 31.96500
C  10.82800 4.19500 33.29900
H  11.08500 5.10000 34.35700
N  7.31000 5.17600 26.45500
C  6.72600 6.09100 27.30700
C  5.95500 7.06200 26.54500
C  6.03200 6.71900 25.18500
C  6.81800 5.47700 25.14500
C  5.40100 8.22800 27.25800
C  5.35000 7.52000 24.01300
O  5.47100 7.12800 22.82800
C  4.54900 8.72000 24.24600
N  8.64300 2.90700 24.89600
C  7.94100 3.49500 23.90400
C  7.95100 2.76100 22.56000
C  8.95600 1.60600 22.88900
C  9.16500 1.73500 24.39800
C  6.52800 2.26300 22.10000
C  10.28300 1.78500 22.15900
C  10.33900 1.20300 20.77200
N  9.72100 1.98300 27.38600
C  10.10400 0.86500 26.60700
C  10.77200 -0.17200 27.37300
C  10.68300 0.47400 28.67300
C  10.04900 1.72400 28.62400
C  11.29600 -1.60400 26.92100
C  11.06600 0.27000 30.12900
O  11.54800 -0.67800 30.68200
C  10.55700 1.49400 30.93800
C  9.58300 0.92900 31.97000
O  8.37800 0.76300 31.79300
O  10.20100 0.83400 33.22100
C  9.39400 0.50400 34.42000
H  6.33700 6.86200 29.26000
H  6.50600 4.91100 23.14000
H  10.22700 0.00100 24.57600
H  8.55900 3.42300 32.06500
H  8.04200 6.26400 31.35200
H  6.13900 5.27800 32.43700
H  6.42400 3.76100 31.63500
H  5.58600 5.07000 30.76000
H  10.07700 5.84300 32.07100
H  11.03100 4.74400 31.17600
H  11.74100 3.67600 33.00600
H  10.21200 3.33800 33.57300
H  5.81200 9.13200 26.80900
H  5.41600 8.30200 28.34600
H  4.37300 8.19200 26.90000
H  3.96800 8.99500 23.36600
H  5.13900 9.49200 24.74000
H  3.76900 8.55200 24.98900
H  8.31100 3.46600 21.81000
H  8.65000 0.58200 22.67500
H  6.48600 1.25900 21.67700
H  6.10300 3.02900 21.45200
H  5.78500 2.19000 22.89500
H  11.10500 1.36300 22.73700
H  10.45800 2.85800 22.08500
H  11.00500 0.34300 20.70800
H  10.67100 1.97800 20.08100
H  9.35400 0.82900 20.49400
H  12.37400 -1.70000 27.04300
H  11.09800 -1.87000 25.88300
H  10.86200 -2.32600 27.61300
H  11.44200 1.99000 31.33800
H  9.37200 -0.56200 34.19300
H  8.42900 1.01100 34.42100
H  10.00600 0.79400 35.27400
Mg 6.78400 53.82400 41.16000
C  6.29400 50.33200 41.66600
C  9.89700 53.10100 39.78800
C  7.08900 56.99900 40.32700
C  3.70800 54.31500 42.73700
N  7.84300 51.98500 40.53300
C  7.49800 50.66500 41.02400
C  8.65400 49.75100 40.69300
C  9.88900 50.71000 40.53700
C  9.15000 52.04400 40.31200
C  10.90500 50.75200 41.71300
C  8.37200 48.91000 39.44600
C  7.34100 49.31300 38.40400
H  6.70800 48.23700 37.45500
N  8.20700 54.89400 40.05500
C  9.39000 54.40300 39.53700
C  10.14100 55.49200 39.03100
C  9.40000 56.70400 39.21600
C  8.18300 56.24200 39.89600
C  11.48600 55.29500 38.33000
C  9.88100 58.08000 38.77900
O  10.88800 58.12200 38.06000
C  9.22100 59.30600 39.27300
N  5.41900 55.41400 41.30200
C  5.87200 56.66700 40.98300
C  4.78100 57.68200 41.34500
C  3.84200 56.87000 42.30400
C  4.36300 55.42100 42.16200
C  5.34800 58.97600 41.89000
C  2.32100 56.96700 42.01600
C  1.32600 57.01200 43.14900
N  5.31200 52.59900 42.04500
C  4.09700 52.92900 42.68300
C  3.40500 51.71200 43.23100
C  4.31200 50.67900 42.89300
C  5.33300 51.29400 42.04800
C  2.20400 51.68400 44.03500
C  4.61600 49.21900 43.00300
O  3.97900 48.31900 43.56700
C  5.84800 48.93100 42.07800
C  5.68600 47.90700 41.00700
O  5.02900 48.11400 39.99300
O  6.30700 46.68900 41.36700
C  6.26700 45.63000 40.38600
H  10.90600 52.81900 39.47800
H  7.17900 58.08300 40.22600
H  2.72000 54.38400 43.19700
H  8.88400 49.08600 41.52500
H  10.38700 50.43200 39.60800
H  11.92500 50.54100 41.39500
H  10.56200 50.05700 42.47900
H  10.84500 51.77300 42.09200
H  8.05700 47.93500 39.81900
H  9.31500 48.86700 38.90100
H  7.96900 49.89000 37.72500
H  6.46600 49.78700 38.85000
H  11.57100 55.47700 37.25800
H  11.93000 54.31600 38.50600
H  12.16000 56.04500 38.74300
H  9.37000 59.43100 40.34600
H  8.18100 59.30300 38.94500
H  9.68000 60.16500 38.78400
H  4.03400 57.92800 40.59000
H  3.87500 57.17700 43.34900
H  6.40800 58.99400 42.14100
H  4.81300 59.12700 42.82800
H  5.16900 59.87200 41.29600
H  2.03000 56.04500 41.51400
H  2.11900 57.71000 41.24400
H  0.45800 57.60500 42.86200
H  1.84500 57.37800 44.03500
H  0.96200 56.03700 43.47500
H  1.87700 50.66500 44.24200
H  1.34800 52.26500 43.69100
H  2.40700 52.22700 44.95800
H  6.51300 48.38500 42.74700
H  6.36500 44.66700 40.88800
H  7.19900 45.79300 39.84400
H  5.40400 45.64900 39.72100

