158

Mg -0.05000 7.56300 26.76900
C  0.55500 9.76300 29.40500
C  0.48900 4.91000 29.09400
C  0.00500 5.35400 24.25400
C  0.24400 10.18600 24.53000
N  0.51000 7.37600 28.95400
C  0.54900 8.42400 29.81500
C  0.49000 8.00500 31.25800
C  0.92400 6.48100 31.09000
C  0.62800 6.19800 29.62100
C  2.40200 6.14600 31.49700
C  -1.01200 8.22500 31.89000
C  -1.17800 8.09500 33.43700
H  0.04900 7.89300 34.42300
N  0.10100 5.40300 26.68500
C  0.30100 4.52800 27.73500
C  0.25600 3.16100 27.27900
C  0.16300 3.24400 25.82800
C  0.11000 4.69600 25.52500
C  0.40900 1.93200 28.18400
C  0.05700 2.12400 24.80600
O  -0.06800 2.29500 23.59900
C  0.33000 0.68700 25.19700
N  0.19600 7.70400 24.72900
C  -0.06000 6.66600 23.92300
C  -0.35800 7.06500 22.38900
C  -0.19100 8.58100 22.54700
C  0.08700 8.87200 24.03600
C  0.66900 6.43100 21.36800
C  -1.31300 9.42400 21.86700
C  -2.58700 9.63500 22.64800
N  0.23700 9.61800 26.85500
C  0.36400 10.56700 25.93600
C  0.39300 11.87000 26.58400
C  0.49300 11.60700 27.96300
C  0.39800 10.21600 28.08100
C  0.49300 13.22700 25.82400
C  0.60300 12.19900 29.26100
O  0.95400 13.34800 29.47500
C  0.62800 11.01400 30.30500
C  1.85500 11.15100 31.16300
O  2.94000 10.81800 30.80200
O  1.46200 11.68300 32.39600
C  2.52800 11.96300 33.36700
H  0.59600 4.15200 29.87300
H  -0.08300 4.66700 23.40900
H  0.24200 11.05500 23.86800
H  1.13000 8.60600 31.90400
H  0.21500 5.88000 31.66100
H  2.93600 7.03600 31.83100
H  2.84800 5.62000 30.65300
H  2.23200 5.51400 32.36900
H  -1.58300 7.39000 31.48400
H  -1.44900 9.14400 31.50000
H  -1.77700 7.23200 33.72600
H  -1.70500 9.00600 33.72300
H  -0.42100 1.30600 27.85500
H  0.21000 2.23000 29.21400
H  1.39500 1.47100 28.12600
H  -0.46000 0.00500 25.51200
H  1.04000 0.82800 26.01200
H  0.68000 0.10400 24.34500
H  -1.38400 6.77300 22.16600
H  0.63100 8.86100 21.88700
H  1.15200 7.14600 20.70200
H  0.18900 5.72600 20.68900
H  1.37000 5.78500 21.89700
H  -1.61100 9.12800 20.86200
H  -0.78000 10.37500 21.87200
H  -2.60300 10.62600 23.10000
H  -2.67100 8.89300 23.44200
H  -3.48600 9.57900 22.03400
H  0.66100 13.08400 24.75600
H  1.33900 13.70600 26.31600
H  -0.40900 13.78500 26.07300
H  -0.11200 10.97600 31.10400
H  2.82100 13.01200 33.40500
H  3.45200 11.38400 33.37200
H  1.99000 11.78400 34.29800
Mg -2.48000 34.29500 26.59500
C  -3.88700 32.72700 29.31300
C  -0.53500 36.25700 28.58800
C  -1.51800 36.04300 23.81500
C  -4.46500 32.21800 24.47400
N  -2.30500 34.47000 28.73600
C  -2.92700 33.73500 29.68800
C  -2.25600 33.98400 31.06000
C  -1.22800 35.20600 30.78800
C  -1.37600 35.39200 29.27200
C  -1.46300 36.55200 31.54300
C  -1.59900 32.72600 31.69100
C  -1.47700 32.91000 33.23000
H  -2.35200 32.13100 34.22000
N  -1.20900 35.98500 26.25600
C  -0.46300 36.56000 27.20400
C  0.27700 37.65700 26.54900
C  -0.09500 37.62000 25.17900
C  -0.92000 36.52200 25.03400
C  1.35800 38.50100 27.30300
C  0.20700 38.61400 24.11700
O  -0.17000 38.49600 22.91900
C  0.94800 39.82700 24.42000
N  -2.95400 34.15400 24.44400
C  -2.35600 34.92100 23.47800
C  -2.69100 34.51800 22.01700
C  -3.51700 33.22600 22.34500
C  -3.74200 33.21800 23.80300
C  -3.58800 35.59700 21.24700
C  -2.81500 31.91900 21.85400
C  -3.65100 30.78300 21.29900
N  -3.96800 32.89800 26.78700
C  -4.58400 32.03300 25.81700
C  -5.34400 31.02000 26.51000
C  -5.18500 31.30500 27.86500
C  -4.29400 32.42700 27.97700
C  -6.14200 29.91900 25.94000
C  -5.53600 30.92200 29.21500
O  -6.32200 30.08300 29.61700
C  -4.80300 31.85500 30.17900
C  -5.81200 32.48100 31.02200
O  -6.76900 33.15000 30.60800
O  -5.54000 32.27300 32.32800
C  -6.34200 32.85500 33.33600
H  0.14100 36.73100 29.30200
H  -1.18800 36.47000 22.86600
H  -5.09700 31.67300 23.77000
H  -2.99600 34.37600 31.75700
H  -0.26100 34.89500 31.18300
H  -2.02800 37.32200 31.01700
H  -0.50600 36.88400 31.94600
H  -2.13300 36.44800 32.39700
H  -0.57700 32.62700 31.32500
H  -2.09300 31.79600 31.41000
H  -1.51300 33.96700 33.49200
H  -0.44100 32.64100 33.43500
H  2.32500 38.42900 26.80400
H  1.47900 38.21000 28.34700
H  1.03700 39.54100 27.24900
H  0.37500 40.44900 25.10800
H  0.96300 40.37500 23.47700
H  1.91200 39.52900 24.83100
H  -1.72400 34.34300 21.54600
H  -4.54200 33.29000 21.97800
H  -3.70100 36.50200 21.84400
H  -4.60600 35.33000 20.96200
H  -3.04100 35.99000 20.39000
H  -2.41600 31.51800 22.78600
H  -1.99300 32.10200 21.16100
H  -2.96900 30.48400 20.50300
H  -4.62500 31.19900 21.04300
H  -3.78400 29.97800 22.02200
H  -7.15800 30.31300 25.90600
H  -6.14300 29.06500 26.61700
H  -5.61900 29.63500 25.02700
H  -4.16700 31.24600 30.82200
H  -7.10700 32.09200 33.48200
H  -6.82700 33.79100 33.05900
H  -5.67100 33.09200 34.16200

