158

Mg -2.05800 34.46700 26.99900
C  -3.66500 32.67400 29.45900
C  -0.50300 36.39200 29.45100
C  -0.75000 36.49300 24.57200
C  -3.61200 32.57200 24.59200
N  -2.04400 34.43700 29.27900
C  -2.75900 33.61600 30.02300
C  -2.31200 33.72400 31.49400
C  -1.41900 35.01000 31.45400
C  -1.30500 35.30300 29.97600
C  -2.06600 36.05300 32.30200
C  -1.63100 32.49600 32.11300
C  -1.98700 32.10900 33.56900
H  -0.90200 32.31300 34.61700
N  -0.85000 36.24400 27.06800
C  -0.26400 36.85000 28.12800
C  0.51600 38.00000 27.68700
C  0.36900 38.08800 26.28700
C  -0.40000 36.86800 25.87800
C  1.23000 39.03000 28.62900
C  0.88700 39.11800 25.32500
O  0.42800 39.17400 24.20400
C  2.05100 39.90800 25.77000
N  -2.20900 34.59500 24.85600
C  -1.52700 35.41700 24.06800
C  -1.72100 35.05100 22.60000
C  -2.21600 33.61500 22.71500
C  -2.75400 33.58200 24.16400
C  -2.79600 35.98200 21.86500
C  -1.17700 32.43200 22.47300
C  0.32000 32.73400 22.51000
N  -3.30400 32.91100 26.92800
C  -3.96500 32.29600 25.92000
C  -4.88000 31.29700 26.42400
C  -4.72100 31.35000 27.76900
C  -3.88000 32.37300 28.04300
C  -5.73300 30.47900 25.54300
C  -5.12400 30.76500 29.04900
O  -5.90200 29.84400 29.22600
C  -4.41500 31.59400 30.20400
C  -5.50300 32.18600 31.00300
O  -6.20400 33.13600 30.71300
O  -5.60400 31.38900 32.15400
C  -6.42800 31.86700 33.16500
H  -0.07900 36.89000 30.32600
H  -0.32100 37.06800 23.74800
H  -4.03800 31.92200 23.82600
H  -3.24100 33.89200 32.03900
H  -0.49100 34.66700 31.91100
H  -3.02100 36.33600 31.85900
H  -1.41500 36.91400 32.45000
H  -2.22300 35.54500 33.25300
H  -0.55900 32.69200 32.12400
H  -1.92800 31.63300 31.51700
H  -2.05600 31.02400 33.49300
H  -2.99100 32.34200 33.92400
H  0.95200 40.04600 28.34800
H  2.31600 38.95500 28.68300
H  0.91800 38.78800 29.64500
H  1.74300 40.70100 26.45200
H  2.59300 40.28800 24.90500
H  2.57800 39.18700 26.39600
H  -0.81600 35.11100 21.99500
H  -3.07800 33.50700 22.05700
H  -2.78900 36.85600 22.51600
H  -3.76700 35.48800 21.86400
H  -2.40400 36.22400 20.87600
H  -1.36000 32.04100 21.47200
H  -1.20500 31.55300 23.11600
H  0.87500 32.81800 21.57600
H  0.82700 31.90600 23.00600
H  0.41500 33.57600 23.19500
H  -5.86500 31.00700 24.59900
H  -6.62900 30.37400 26.15500
H  -5.30100 29.48700 25.41400
H  -3.83600 30.90900 30.82400
H  -6.07400 32.78000 33.64200
H  -6.33400 31.14900 33.98000
H  -7.44900 32.06000 32.83500
Mg -5.80000 25.05300 26.23500
C  -4.07600 26.72500 28.76800
C  -7.37600 23.21900 28.74100
C  -7.23900 23.21300 23.79000
C  -3.87700 26.74700 23.90900
N  -5.73100 25.00800 28.44600
C  -4.93800 25.77800 29.26000
C  -5.34600 25.46800 30.73200
C  -6.12100 24.10600 30.69500
C  -6.43000 24.09100 29.20400
C  -5.22600 22.88100 31.18500
C  -6.24400 26.53900 31.41700
C  -6.19300 26.61300 32.98700
H  -5.75000 25.36700 33.77900
N  -7.19300 23.62700 26.25300
C  -7.76800 23.00100 27.35300
C  -8.77700 22.05000 26.97100
C  -8.73200 21.99100 25.48200
C  -7.64900 22.94400 25.09300
C  -9.61100 21.18800 27.94300
C  -9.56900 21.08100 24.56300
O  -9.50000 21.06400 23.35500
C  -10.62900 20.09500 25.13700
N  -5.41400 24.76700 24.18800
C  -6.16600 24.00800 23.38900
C  -5.63600 24.09200 21.94300
C  -4.89400 25.45000 21.91900
C  -4.69600 25.72200 23.43500
C  -4.81700 22.86600 21.40400
C  -5.60800 26.64500 21.15800
C  -4.69600 27.51800 20.30500
N  -4.36000 26.51400 26.26800
C  -3.64600 27.15900 25.25700
C  -2.79900 28.16300 25.78500
C  -2.95000 28.05000 27.15200
C  -3.87300 27.00500 27.38200
C  -2.00300 29.24900 25.06000
C  -2.62100 28.61100 28.43300
O  -1.97100 29.63700 28.67900
C  -3.24000 27.74400 29.52800
C  -2.16700 27.32500 30.51400
O  -0.98500 27.17900 30.29500
O  -2.72700 27.37800 31.78600
C  -1.78700 27.17200 32.86700
H  -7.76400 22.58300 29.54000
H  -7.61900 22.49800 23.05700
H  -3.42700 27.35700 23.12400
H  -4.48500 25.34800 31.39000
H  -7.03100 24.30000 31.26400
H  -4.27800 23.27000 31.55500
H  -4.96400 22.18200 30.39100
H  -5.67700 22.28800 31.98100
H  -7.17400 26.34300 30.88400
H  -5.92500 27.49400 31.00000
H  -7.17100 26.96100 33.32000
H  -5.47600 27.42000 33.13500
H  -10.64700 21.24800 27.60900
H  -9.59000 21.59300 28.95500
H  -9.29400 20.14500 27.95100
H  -11.08400 19.50200 24.34300
H  -11.35100 20.72900 25.65200
H  -10.20300 19.34700 25.80600
H  -6.54000 24.16100 21.33700
H  -3.86200 25.34900 21.58300
H  -5.59600 22.14900 21.14800
H  -4.13600 22.36000 22.08800
H  -4.24400 23.11600 20.51100
H  -6.08000 27.35100 21.84100
H  -6.37200 26.22300 20.50500
H  -5.18600 27.51200 19.33200
H  -3.70900 27.07700 20.16700
H  -4.53700 28.47600 20.80000
H  -1.96300 29.08500 23.98400
H  -0.99600 29.37600 25.45700
H  -2.56000 30.18600 25.03100
H  -3.78600 28.45400 30.14900
H  -0.90100 27.79700 32.75800
H  -1.53000 26.12200 33.00500
H  -2.18300 27.44900 33.84400

