158

Mg 30.53300 58.82100 38.88300
C  27.92300 56.72100 37.60700
C  32.63300 56.26900 38.01400
C  33.01000 61.02000 39.10800
C  28.13100 61.42000 38.96400
N  30.28200 56.74500 37.70700
C  29.15600 56.13500 37.40400
C  29.41100 54.74900 36.81700
C  31.02700 54.60400 37.04900
C  31.32100 55.89300 37.77200
C  31.42500 53.35000 37.83100
C  29.00300 54.54600 35.36200
C  29.31700 55.66800 34.32200
H  28.31600 56.18300 33.26500
N  32.60900 58.59000 38.74500
C  33.24400 57.42500 38.36000
C  34.67900 57.64000 38.51100
C  34.79800 59.07900 38.88800
C  33.43000 59.65000 38.87600
C  35.76000 56.62200 38.27700
C  36.00800 59.79800 39.29500
O  37.03900 59.23500 39.12900
C  36.06400 61.12800 39.80100
N  30.52300 60.92400 39.12500
C  31.69300 61.54100 39.22800
C  31.48800 63.03600 39.56900
C  29.92000 63.20600 39.23400
C  29.45900 61.77500 39.17000
C  31.89700 63.47600 41.03200
C  29.68800 64.07700 37.92600
C  29.82600 65.62900 37.81500
N  28.42300 59.04700 38.54100
C  27.63200 60.13700 38.68300
C  26.25400 59.81300 38.39400
C  26.30900 58.48000 37.97000
C  27.67300 58.08400 38.01100
C  25.04400 60.75600 38.40000
C  25.58600 57.34500 37.48000
O  24.39400 57.17000 37.30700
C  26.55400 56.16100 37.31500
C  26.07400 54.91400 38.07700
O  26.24300 54.69400 39.28000
O  25.25000 54.14400 37.24100
C  24.49100 53.07700 37.96100
H  33.35800 55.48300 37.79600
H  33.73600 61.83200 39.18700
H  27.43500 62.26100 38.99500
H  28.79300 54.05100 37.38200
H  31.64500 54.55700 36.15200
H  31.70400 53.63700 38.84500
H  32.18700 52.72900 37.36100
H  30.65400 52.58000 37.87000
H  27.92700 54.37400 35.32200
H  29.56400 53.66800 35.04100
H  30.23200 55.36600 33.81300
H  29.61200 56.59900 34.80700
H  36.41600 56.63500 39.14700
H  36.20800 56.66400 37.28500
H  35.29100 55.63900 38.32500
H  37.08600 61.25700 40.15700
H  35.42000 61.24600 40.67200
H  35.80200 61.79500 38.97900
H  32.07600 63.69800 38.93300
H  29.42300 63.68100 40.08000
H  32.76800 64.12400 40.94100
H  32.25500 62.59300 41.56100
H  31.20500 63.95100 41.72700
H  28.60900 63.97500 37.81100
H  30.20000 63.63900 37.06900
H  30.26300 66.02400 38.73200
H  28.87500 66.09500 37.55800
H  30.53200 65.86300 37.01800
H  24.16900 60.10600 38.41900
H  24.91900 61.42100 37.54500
H  25.10500 61.38100 39.29100
H  26.61400 56.02700 36.23400
H  24.03000 53.32200 38.91700
H  25.13500 52.21900 38.15300
H  23.69000 52.83600 37.26200
Mg 26.83900 50.77300 25.52900
C  25.12400 52.11300 28.15200
C  29.57300 50.13300 27.75600
C  28.73600 49.79300 22.91700
C  24.48100 52.20900 23.35700
N  27.26300 51.06300 27.77400
C  26.29900 51.52800 28.59500
C  26.63100 51.13200 30.01300
C  28.21600 50.80800 29.89900
C  28.41000 50.61400 28.39200
C  29.16700 51.87400 30.46500
C  25.76800 50.13000 30.77500
C  25.35900 50.42900 32.23100
H  26.47800 50.59100 33.24100
N  28.77800 49.88900 25.36500
C  29.70400 49.71500 26.39100
C  30.83900 48.97600 25.89300
C  30.57700 48.76700 24.48400
C  29.35800 49.47300 24.16000
C  32.00700 48.36300 26.66100
C  31.43600 47.89700 23.51800
O  31.08600 47.61500 22.43000
C  32.72700 47.33600 23.99100
N  26.64800 51.04000 23.40700
C  27.61000 50.51500 22.55700
C  27.23800 50.81000 21.05100
C  25.76400 51.37100 21.17700
C  25.61400 51.59600 22.74100
C  28.22700 51.60600 20.16500
C  24.53200 50.47300 20.69400
C  24.22800 49.19700 21.50300
N  25.11300 51.78100 25.64000
C  24.21500 52.30800 24.68700
C  23.08600 52.93700 25.37000
C  23.43200 52.85900 26.76600
C  24.67400 52.23100 26.85100
C  21.94900 53.63800 24.75500
C  22.96400 53.20000 28.12100
O  21.90400 53.69400 28.40600
C  24.06900 52.75700 29.06200
C  24.52900 53.78200 30.04500
O  25.34100 54.66600 29.76700
O  23.68300 53.84200 31.15400
C  23.87100 54.94000 32.09000
H  30.43600 49.95800 28.40100
H  29.34700 49.42000 22.09300
H  23.72100 52.52300 22.63900
H  26.67900 52.05600 30.59000
H  28.50500 49.84100 30.31000
H  30.00400 52.15600 29.82500
H  29.53400 51.40700 31.37800
H  28.87500 52.90000 30.69000
H  26.34000 49.20900 30.88000
H  24.86000 49.96300 30.19600
H  24.73600 49.54300 32.35300
H  24.68200 51.27100 32.37800
H  31.86400 48.44800 27.73900
H  32.97000 48.83100 26.45900
H  31.99800 47.27300 26.65000
H  33.15200 46.88000 23.09700
H  32.50600 46.52600 24.68600
H  33.45200 47.99800 24.46500
H  27.14300 49.82700 20.59000
H  25.79400 52.35600 20.70900
H  29.03600 51.82900 20.86100
H  27.88500 52.55300 19.74600
H  28.54500 50.94000 19.36200
H  24.80300 50.02600 19.73800
H  23.59300 51.01400 20.57700
H  24.74100 49.19500 22.46500
H  24.61100 48.32000 20.98100
H  23.19600 49.06900 21.82700
H  22.32400 54.18900 23.89300
H  21.49300 54.21100 25.56200
H  21.13400 52.98400 24.44300
H  23.61000 51.97200 29.66300
H  24.61600 54.67800 32.84100
H  22.89500 55.12100 32.54200
H  24.27100 55.78800 31.53400

