158

Mg 25.69300 50.57000 27.14600
C  23.63600 51.47100 29.70600
C  28.14700 49.76800 29.46400
C  27.74500 49.98000 24.48900
C  23.17300 51.52300 24.73700
N  25.93700 50.70400 29.40400
C  24.82600 50.95100 30.18000
C  25.20000 50.63800 31.69400
C  26.68400 50.27900 31.58700
C  26.97200 50.21200 30.05000
C  27.72800 51.12800 32.40500
C  24.27400 49.48900 32.34000
C  23.24600 49.93300 33.33600
H  23.33200 49.29000 34.72300
N  27.64300 49.95500 26.95700
C  28.44900 49.71400 28.06600
C  29.75200 49.25900 27.54800
C  29.71800 49.27900 26.08400
C  28.33500 49.76800 25.77500
C  30.89700 48.93800 28.42400
C  30.73900 48.70300 25.10200
O  30.52800 48.83000 23.88400
C  31.90200 47.72700 25.53100
N  25.51100 50.90400 24.96200
C  26.50800 50.48700 24.14700
C  26.07600 50.48600 22.63200
C  24.55200 50.92700 22.72300
C  24.40400 51.14400 24.22300
C  27.05300 51.23800 21.70400
C  23.53800 49.91700 22.15500
C  22.62800 50.35200 20.95000
N  23.89900 51.52000 27.18500
C  22.97600 51.80600 26.15700
C  21.82900 52.44900 26.79100
C  22.02000 52.29800 28.16400
C  23.28400 51.70200 28.34600
C  20.67600 53.18400 26.09600
C  21.44700 52.46300 29.48300
O  20.41900 53.01500 29.88300
C  22.44000 51.94600 30.50300
C  22.71400 53.17200 31.42400
O  23.30200 54.17300 31.06800
O  22.09600 52.94300 32.63600
C  22.22200 54.04900 33.63100
H  28.85800 49.41800 30.21600
H  28.33600 49.68500 23.61900
H  22.35400 51.87100 24.10500
H  25.08200 51.58900 32.21200
H  26.85000 49.27300 31.97300
H  28.14600 51.93400 31.80100
H  28.53200 50.48900 32.76800
H  27.27400 51.69500 33.21700
H  24.94100 48.81200 32.87400
H  23.87600 48.97500 31.46500
H  22.24000 49.85100 32.92500
H  23.50900 50.96700 33.56000
H  31.14000 47.87800 28.48800
H  30.88000 49.33500 29.43900
H  31.58800 49.46300 27.76300
H  32.56100 48.16400 26.28100
H  32.33100 47.29800 24.62600
H  31.43500 46.88200 26.03700
H  26.05200 49.45300 22.28800
H  24.35200 51.90900 22.29500
H  27.42800 50.50200 20.99200
H  27.87100 51.66600 22.28300
H  26.56600 52.04200 21.15200
H  22.91500 49.66800 23.01400
H  23.94000 48.91700 21.99200
H  22.57600 49.50200 20.27000
H  23.02400 51.24400 20.46500
H  21.65300 50.51200 21.41100
H  20.28300 53.88900 26.82800
H  20.03000 52.45500 25.60700
H  21.09800 53.69600 25.23000
H  21.91400 51.12100 30.98500
H  22.71700 54.93900 33.24200
H  22.76900 53.72700 34.51700
H  21.21100 54.35700 33.89600
Mg 6.13100 54.98400 41.52000
C  5.76500 51.39000 41.42800
C  9.28400 54.64600 40.43000
C  6.14400 58.40500 41.12200
C  2.71200 55.14100 42.67100
N  7.30000 53.21900 40.92300
C  6.98300 51.89900 40.95900
C  8.19200 51.07100 40.61400
C  9.37900 52.13600 40.52500
C  8.59900 53.45900 40.73400
C  10.56700 51.96000 41.53200
C  8.00600 50.17800 39.31100
C  7.48700 50.87400 37.99600
H  6.44100 50.12100 37.18500
N  7.51300 56.31900 40.94000
C  8.76100 55.97900 40.52100
C  9.50800 57.19800 40.34400
C  8.60400 58.34800 40.43500
C  7.34000 57.70500 40.85900
C  11.02200 57.18900 39.94200
C  8.91700 59.80800 40.12900
O  10.04000 60.19400 39.85100
C  7.87200 60.90500 40.24800
N  4.59400 56.53500 41.66900
C  4.88700 57.88100 41.46200
C  3.72300 58.73500 41.83600
C  2.54500 57.70000 42.25800
C  3.41300 56.39100 42.34100
C  3.95200 59.80100 43.02600
C  1.41800 57.66800 41.19000
C  0.25300 58.70300 41.29600
N  4.53200 53.61600 41.92100
C  3.23000 53.83000 42.42900
C  2.59400 52.56500 42.68400
C  3.60600 51.60300 42.38600
C  4.70500 52.31600 41.85800
C  1.19100 52.19900 43.26200
C  3.90300 50.19400 42.39200
O  3.26300 49.23700 42.77600
C  5.30400 50.00500 41.78500
C  5.08000 49.10000 40.67400
O  4.60500 49.33200 39.55100
O  5.44200 47.85400 41.00000
C  5.19600 46.86000 39.98100
H  10.32500 54.45300 40.16200
H  6.17600 59.49600 41.10700
H  1.71300 55.24200 43.10100
H  8.25300 50.30700 41.38900
H  9.88700 52.17000 39.56100
H  10.72200 52.62800 42.37900
H  11.48800 52.07800 40.96200
H  10.66900 50.95000 41.93000
H  7.42500 49.30100 39.59600
H  9.05300 49.90600 39.18200
H  8.33400 50.90100 37.31100
H  7.13000 51.86700 38.26800
H  11.16500 56.26800 39.37800
H  11.75100 57.07700 40.74500
H  11.38500 57.95300 39.25500
H  7.05100 60.59800 39.60000
H  8.33900 61.78400 39.80400
H  7.58000 61.08900 41.28100
H  3.39200 59.19100 40.90200
H  2.24100 58.01300 43.25700
H  3.77200 59.29300 43.97400
H  3.44300 60.73100 42.77400
H  5.02900 59.95800 43.08500
H  0.78500 56.80300 41.38400
H  1.75400 57.79500 40.16100
H  0.52000 59.28600 42.17800
H  -0.66800 58.20800 41.60300
H  0.11900 59.39500 40.46400
H  0.46100 53.00800 43.26900
H  1.38800 52.05300 44.32400
H  0.75000 51.28700 42.85700
H  6.02900 49.49000 42.41500
H  5.85200 47.11400 39.14900
H  4.22400 46.80800 39.49100
H  5.48500 45.85000 40.27000

