158

Mg 1.80800 -1.55000 44.24400
C  5.23900 -0.95200 43.57600
C  1.02900 0.96000 42.28400
C  -1.41100 -2.66300 44.38300
C  2.89900 -4.57200 45.87700
N  3.01800 -0.25100 43.10000
C  4.36400 -0.10200 42.93700
C  4.81400 0.93300 41.92700
C  3.43000 1.74100 41.73200
C  2.40600 0.78200 42.40400
C  3.42800 3.13500 42.28500
C  5.46800 0.39700 40.62800
C  6.73200 1.21800 40.29400
H  7.04700 1.41900 38.80500
N  -0.06100 -0.86300 43.59300
C  -0.11200 0.22100 42.79900
C  -1.49200 0.47300 42.48800
C  -2.23700 -0.50500 43.20200
C  -1.25900 -1.36900 43.85500
C  -2.07400 1.63900 41.59400
C  -3.77100 -0.60700 43.19600
O  -4.39800 0.23300 42.59700
C  -4.43200 -1.84500 43.92500
N  0.95600 -3.47400 44.89000
C  -0.42300 -3.59300 44.87700
C  -0.85200 -4.87600 45.54700
C  0.48400 -5.31400 46.26800
C  1.53300 -4.43700 45.65900
C  -2.00900 -4.79100 46.57500
C  0.76900 -6.88200 46.30500
C  1.04100 -7.63800 47.65700
N  3.70300 -2.62500 44.70400
C  4.01000 -3.77400 45.34800
C  5.40000 -3.98400 45.48800
C  5.94100 -2.88000 44.79100
C  4.90600 -2.09100 44.31900
C  6.11700 -5.19200 46.15600
C  7.16700 -2.23600 44.41400
O  8.36400 -2.53500 44.61900
C  6.77000 -0.93400 43.64100
C  7.21200 0.23800 44.51100
O  6.68600 0.65200 45.58200
O  8.32800 0.72000 43.82600
C  8.71500 2.01700 44.30100
H  0.77200 1.80600 41.64300
H  -2.38500 -3.12700 44.55400
H  3.15400 -5.34900 46.60100
H  5.56500 1.56200 42.40500
H  3.25300 1.82500 40.66000
H  2.44600 3.61000 42.28800
H  4.16800 3.77400 41.80200
H  3.71700 3.19500 43.33400
H  4.85200 0.64800 39.76500
H  5.75700 -0.65000 40.72100
H  7.62000 0.70100 40.65700
H  6.71400 2.23300 40.69200
H  -2.73900 1.27800 40.81000
H  -1.30700 2.30100 41.19200
H  -2.70300 2.23200 42.25900
H  -5.50000 -1.63100 43.90000
H  -3.99100 -1.92800 44.91900
H  -4.26600 -2.76100 43.35900
H  -1.16300 -5.63200 44.82700
H  0.44400 -4.92600 47.28600
H  -2.86800 -5.21400 46.05500
H  -2.28700 -3.79200 46.91200
H  -1.70800 -5.37200 47.44700
H  1.60700 -7.06300 45.63200
H  -0.06800 -7.40100 45.83800
H  0.62600 -8.64500 47.71000
H  0.71400 -6.97800 48.46100
H  2.10700 -7.79600 47.81900
H  6.08900 -5.04500 47.23500
H  7.18700 -5.27500 45.96400
H  5.56300 -6.10600 45.94400
H  7.14900 -0.83400 42.62400
H  8.02500 2.80800 44.00700
H  9.69200 2.22800 43.86500
H  8.80200 2.12900 45.38200
Mg -11.51500 38.32000 42.05200
C  -9.25600 35.81600 41.43700
C  -9.52000 40.35200 39.91600
C  -14.07100 40.63800 41.77800
C  -13.82000 35.99800 43.13400
N  -9.61100 38.10600 40.76700
C  -8.95300 36.95400 40.65600
C  -7.72900 37.04500 39.78000
C  -7.76500 38.59800 39.38800
C  -8.99700 39.05800 40.01400
C  -6.51700 39.52800 39.83200
C  -7.77700 36.12500 38.58800
C  -6.50400 35.19300 38.34500
H  -5.45500 35.94200 37.56600
N  -11.74800 40.24900 41.13600
C  -10.77400 40.87200 40.41200
C  -11.23000 42.25000 40.22900
C  -12.54600 42.36500 40.65200
C  -12.82000 41.05400 41.24400
C  -10.38200 43.29000 39.65900
C  -13.39000 43.64900 40.55600
O  -12.92800 44.62800 40.09300
C  -14.78300 43.74300 40.93500
N  -13.69500 38.29900 42.30700
C  -14.49700 39.40000 42.22700
C  -15.94000 39.05100 42.57300
C  -15.86700 37.48400 42.82900
C  -14.40200 37.20600 42.77200
C  -16.71400 39.89600 43.67500
C  -16.74200 36.58600 41.85700
C  -17.52000 35.39900 42.41500
N  -11.51700 36.36700 42.39600
C  -12.47500 35.54300 42.96100
C  -11.94100 34.22000 43.25000
C  -10.68800 34.30400 42.66100
C  -10.48500 35.62200 42.10800
C  -12.58100 32.99100 43.69600
C  -9.48400 33.53200 42.35400
O  -9.20300 32.38400 42.55500
C  -8.51300 34.55200 41.59400
C  -7.22500 34.70900 42.34000
O  -6.30600 33.89700 42.22900
O  -7.09400 35.83300 43.14100
C  -5.80800 36.11800 43.72600
H  -8.89200 41.00400 39.30500
H  -14.80700 41.43100 41.92300
H  -14.59800 35.30800 43.46600
H  -6.79400 36.87100 40.31300
H  -7.91400 38.74400 38.31800
H  -6.75800 40.43200 40.39200
H  -5.89000 39.76000 38.97100
H  -5.84200 38.99200 40.49800
H  -7.84900 36.84000 37.76900
H  -8.68900 35.53600 38.49500
H  -6.83000 34.33200 37.76100
H  -5.99400 34.86200 39.25000
H  -10.12700 44.08900 40.35500
H  -11.00700 43.78000 38.91200
H  -9.50600 42.92400 39.12400
H  -14.79200 43.50500 41.99900
H  -15.29700 42.92200 40.43600
H  -15.19300 44.70000 40.61300
H  -16.51500 39.15700 41.65300
H  -16.24200 37.42700 43.85100
H  -16.03600 40.56800 44.20200
H  -17.31500 39.21900 44.28300
H  -17.44900 40.47400 43.11400
H  -16.04700 36.18200 41.12100
H  -17.41100 37.29200 41.36500
H  -17.54100 35.40300 43.50500
H  -17.26200 34.44400 41.95700
H  -18.60000 35.48000 42.29700
H  -11.83900 32.30700 44.10900
H  -13.05700 32.51600 42.83900
H  -13.28300 33.22400 44.49800
H  -8.25500 34.13600 40.62000
H  -5.22800 36.77400 43.07700
H  -5.30900 35.17100 43.93000
H  -5.97000 36.58500 44.69800

