158

Mg 0.66700 8.03500 24.85800
C  1.59900 9.70600 27.92600
C  0.91700 5.11800 26.59300
C  0.21200 6.50800 21.93900
C  1.07700 11.02200 23.23100
N  1.23400 7.53600 27.05500
C  1.30600 8.33600 28.13100
C  1.28600 7.58000 29.44800
C  1.35600 6.08500 28.97900
C  1.21400 6.20400 27.43600
C  2.73700 5.33800 29.37100
C  -0.02800 7.92700 30.29000
C  -0.02600 7.83800 31.78800
H  1.18600 7.07400 32.46400
N  0.53700 6.10200 24.27100
C  0.76200 4.99500 25.12900
C  0.55500 3.79300 24.41500
C  0.10400 4.16000 23.10000
C  0.22700 5.64000 23.07700
C  0.79500 2.41300 25.08000
C  -0.22900 3.27000 21.88800
O  -0.58800 3.79500 20.83100
C  -0.03200 1.86200 21.92200
N  0.67400 8.69400 22.90000
C  0.36700 7.87000 21.85300
C  0.21500 8.57200 20.45400
C  0.32000 10.08700 20.93700
C  0.79000 9.93500 22.44100
C  1.12900 8.13600 19.26800
C  -1.03800 10.89400 20.80400
C  -2.44600 10.37200 21.12000
N  1.19400 9.99800 25.40000
C  1.33600 11.10000 24.57900
C  1.65200 12.29600 25.41400
C  1.80700 11.79300 26.69500
C  1.48400 10.37700 26.68600
C  1.69500 13.71500 24.84300
C  2.11300 12.16700 28.08300
O  2.41000 13.22100 28.65900
C  1.85700 10.87500 28.90400
C  2.92600 10.71500 29.84500
O  4.01200 10.14400 29.65100
O  2.64900 11.30500 31.04600
C  3.68500 11.47600 32.07300
H  0.79200 4.17700 27.13300
H  0.14900 5.99100 20.97900
H  0.98000 11.94700 22.65900
H  2.04200 8.04200 30.08300
H  0.55400 5.55300 29.49100
H  3.18800 5.04900 28.42200
H  2.66900 4.43000 29.97100
H  3.47000 5.99700 29.83700
H  -0.83000 7.21600 30.09500
H  -0.38000 8.87300 29.87900
H  -0.95700 7.33400 32.04700
H  0.03000 8.89200 32.05900
H  0.69000 1.63000 24.33000
H  0.04900 2.31700 25.87000
H  1.81100 2.41600 25.47500
H  -0.69700 1.34600 22.61600
H  1.02200 1.59500 22.00100
H  -0.25200 1.37000 20.97500
H  -0.75700 8.34400 20.01700
H  1.06600 10.62000 20.34800
H  1.20300 8.96700 18.56700
H  0.75400 7.18300 18.89600
H  2.13700 7.91900 19.62100
H  -1.09200 11.22000 19.76600
H  -0.95100 11.77400 21.44100
H  -2.91900 9.68900 20.41500
H  -3.09900 11.20700 21.37700
H  -2.33400 9.58700 21.86800
H  1.04800 13.79800 23.97000
H  2.66500 13.94600 24.40300
H  1.48900 14.45400 25.61700
H  0.98300 11.11100 29.50900
H  3.47500 10.66000 32.76400
H  3.60700 12.40400 32.63800
H  4.72700 11.38300 31.76800
Mg 6.60000 53.61000 41.81800
C  6.02400 50.14800 41.44800
C  9.58300 53.17900 40.26100
C  6.87700 56.96000 41.80900
C  3.27500 53.84700 43.16700
N  7.51300 51.93800 40.74400
C  7.24600 50.62000 40.87200
C  8.27300 49.70700 40.11300
C  9.53000 50.53900 40.08200
C  8.86900 52.02200 40.36600
C  10.69600 50.22000 41.18500
C  7.86700 49.31500 38.62100
C  6.89600 50.18800 37.92600
H  6.24300 49.51000 36.72500
N  8.08200 54.89000 41.11700
C  9.24900 54.52900 40.45100
C  10.00800 55.79100 40.16200
C  9.22200 56.89400 40.54300
C  8.00800 56.27500 41.22700
C  11.39900 55.74800 39.60400
C  9.52400 58.35600 40.36000
O  10.54800 58.71800 39.83400
C  8.68100 59.46600 40.92000
N  5.30700 55.15800 42.43100
C  5.71700 56.47300 42.43700
C  4.54700 57.31000 42.94300
C  3.53700 56.35600 43.51400
C  4.02200 55.00900 43.00000
C  4.92900 58.58200 43.79700
C  2.11200 56.65200 43.18900
C  1.02400 56.48200 44.29400
N  5.00000 52.37200 42.37900
C  3.72900 52.58900 42.91600
C  3.00200 51.32200 43.11100
C  3.96000 50.34100 42.66500
C  5.08200 50.99600 42.14200
C  1.61100 51.09400 43.52700
C  4.06200 48.92900 42.45900
O  3.30600 48.01300 42.85000
C  5.40100 48.68200 41.62400
C  5.04700 48.03200 40.39200
O  4.40600 48.53600 39.45500
O  5.43900 46.67400 40.42200
C  5.33300 45.90500 39.14000
H  10.63900 53.00200 40.04600
H  6.96000 58.02700 42.02600
H  2.35000 53.86600 43.74700
H  8.41200 48.82300 40.73600
H  10.14900 50.46600 39.18700
H  10.53200 50.90000 42.02100
H  11.58900 50.49000 40.62100
H  10.80100 49.16100 41.41900
H  7.38000 48.35200 38.77600
H  8.76300 49.28400 38.00200
H  7.33100 51.16500 37.71400
H  6.15600 50.41500 38.69300
H  11.55300 56.32200 38.69100
H  11.73900 54.71400 39.54300
H  12.01300 56.23300 40.36300
H  7.73700 59.39200 40.38000
H  9.21100 60.41500 40.83800
H  8.53500 59.35500 41.99400
H  4.13500 57.66000 41.99600
H  3.75100 56.21500 44.57400
H  4.33400 58.48000 44.70400
H  4.65200 59.51800 43.31100
H  5.95700 58.66400 44.15200
H  1.75900 56.16900 42.27700
H  2.14900 57.73800 43.10000
H  1.44700 56.31600 45.28500
H  0.34000 55.64000 44.19300
H  0.47800 57.41800 44.41000
H  1.32700 51.99400 44.07300
H  1.51800 50.21300 44.16200
H  1.09000 51.01300 42.57300
H  6.05900 48.03300 42.20200
H  5.72800 44.90300 39.30600
H  5.99300 46.31700 38.37600
H  4.31500 45.89000 38.75100

