158

Mg 6.82000 54.46500 40.58700
C  6.54200 50.89400 40.46200
C  10.12700 54.09400 39.49200
C  6.97800 57.87900 39.68300
C  3.39600 54.62800 40.81800
N  8.07700 52.70900 40.07800
C  7.83500 51.32900 40.11800
C  9.03300 50.49800 39.73500
C  10.19200 51.55700 39.83100
C  9.42100 52.90600 39.71800
C  11.14200 51.41000 41.09300
C  8.91100 49.87000 38.33700
C  8.61700 50.77500 37.23400
H  7.29400 50.65600 36.54400
N  8.38900 55.81800 39.75800
C  9.66400 55.45100 39.47700
C  10.38300 56.65900 39.03700
C  9.52900 57.76400 39.42000
C  8.21900 57.17500 39.63800
C  11.83700 56.74300 38.57700
C  9.92800 59.20800 39.55400
O  11.09000 59.53800 39.32400
C  8.88800 60.22400 39.76500
N  5.42700 56.03800 40.25900
C  5.70800 57.36500 40.12800
C  4.44800 58.24400 40.26500
C  3.28200 57.13300 40.46900
C  4.08300 55.84000 40.48400
C  4.53700 59.32700 41.37500
C  2.09400 57.10100 39.36000
C  0.64500 57.53100 39.77100
N  5.25200 53.12700 40.85300
C  3.90700 53.35600 40.96300
C  3.23500 52.09500 41.22300
C  4.21500 51.20300 41.03800
C  5.41900 51.80300 40.81100
C  1.79100 51.82000 41.36300
C  4.40300 49.75700 41.13000
O  3.67400 48.81800 41.44400
C  5.96200 49.56400 40.69000
C  5.86400 48.72500 39.46000
O  5.54000 49.08500 38.34900
O  6.16000 47.45100 39.77400
C  5.74500 46.45700 38.81100
H  11.15700 53.94400 39.16300
H  6.83700 58.86500 39.23600
H  2.35200 54.76000 41.11000
H  9.17800 49.70700 40.47000
H  10.80100 51.43600 38.93500
H  10.62500 50.79700 41.83200
H  11.37400 52.40700 41.46700
H  12.11200 50.98700 40.83400
H  8.15400 49.09200 38.23700
H  9.86300 49.40200 38.08700
H  9.34400 50.72000 36.42400
H  8.68000 51.82200 37.53100
H  11.97900 57.20300 37.59900
H  12.27200 55.74500 38.52100
H  12.52000 57.30200 39.21700
H  8.26500 60.50500 38.91600
H  9.26500 61.22700 39.96300
H  8.31700 60.05600 40.67800
H  4.24200 58.75800 39.32600
H  2.79300 57.25900 41.43400
H  5.17400 59.01700 42.20300
H  3.51800 59.35900 41.75900
H  4.97200 60.25600 41.00600
H  2.03400 56.03900 39.12200
H  2.35400 57.64400 38.45100
H  -0.12700 56.79600 39.54400
H  0.35700 58.38100 39.15200
H  0.63700 57.78500 40.83000
H  1.79700 50.89000 41.93200
H  1.21700 51.78700 40.43700
H  1.35400 52.62200 41.95800
H  6.47300 48.96000 41.44000
H  4.98500 46.82100 38.12000
H  5.35400 45.53400 39.24000
H  6.69800 46.16600 38.37000
Mg -11.00200 17.51200 43.13700
C  -7.56000 18.38000 42.99100
C  -11.72000 20.78300 42.55900
C  -14.35000 16.62500 42.85000
C  -10.17300 14.15600 43.18600
N  -9.74000 19.32800 42.72900
C  -8.36200 19.49400 42.77400
C  -7.87600 20.95300 42.74400
C  -9.29000 21.61400 42.98000
C  -10.29500 20.47900 42.71800
C  -9.34500 22.09100 44.45500
C  -7.33300 21.34400 41.25100
C  -5.86000 21.55400 41.20700
H  -5.11600 20.87500 40.08400
N  -12.81400 18.58400 42.87800
C  -12.87500 19.89600 42.71300
C  -14.23100 20.30400 42.80100
C  -15.07900 19.14900 42.80900
C  -14.10000 18.02100 42.91000
C  -14.60400 21.79000 42.81600
C  -16.62100 19.13600 42.77100
O  -17.21000 20.21300 42.57800
C  -17.49800 17.87000 42.81300
N  -12.17100 15.70400 42.99700
C  -13.50500 15.56200 42.98400
C  -13.94700 14.18000 43.40100
C  -12.60600 13.34100 43.06100
C  -11.58900 14.43800 43.06400
C  -14.43900 14.01100 44.92900
C  -12.57900 12.58700 41.73500
C  -12.53500 11.01200 41.80900
N  -9.22700 16.40000 43.17900
C  -8.99100 15.05200 43.23400
C  -7.56000 14.75500 43.15900
C  -6.97900 16.06400 43.19900
C  -8.02100 17.01500 43.12500
C  -6.79900 13.45000 43.22900
C  -5.74000 16.81300 43.27500
O  -4.56600 16.48100 43.31500
C  -6.09700 18.34700 43.22800
C  -5.81900 18.93400 44.48100
O  -6.23000 18.48800 45.57900
O  -5.06200 20.08600 44.34100
C  -4.96300 20.96500 45.61000
H  -11.91300 21.84800 42.70400
H  -15.42700 16.45000 42.80800
H  -9.94900 13.09000 43.27000
H  -7.18500 21.08100 43.57800
H  -9.61000 22.42100 42.32200
H  -8.42300 22.16100 45.03300
H  -10.08100 21.38900 44.84800
H  -9.85600 23.05000 44.53500
H  -7.73700 22.30400 40.93000
H  -7.58900 20.53400 40.56800
H  -5.56200 21.32500 42.23000
H  -5.72900 22.62300 41.04100
H  -14.88300 22.14400 41.82300
H  -13.78400 22.38100 43.22300
H  -15.51800 21.88200 43.40300
H  -17.41400 17.10000 42.04600
H  -18.52000 18.17700 42.59000
H  -17.58500 17.37900 43.78200
H  -14.70600 13.64500 42.83000
H  -12.33900 12.66800 43.87600
H  -14.30300 14.98700 45.39600
H  -13.82800 13.28800 45.46900
H  -15.50700 13.83600 45.06000
H  -11.62900 12.80500 41.24800
H  -13.41900 12.86700 41.09900
H  -13.27100 10.66900 41.08200
H  -12.83300 10.68200 42.80400
H  -11.51800 10.68500 41.59600
H  -6.24800 13.52000 44.16700
H  -6.14100 13.48000 42.36100
H  -7.42500 12.55800 43.26800
H  -5.50200 18.94200 42.53500
H  -4.46800 20.37000 46.37700
H  -5.95300 21.28700 45.93100
H  -4.37800 21.85600 45.38100

