158

Mg 0.45200 43.16900 25.25700
C  2.88000 42.29500 27.65500
C  -1.86400 43.27600 27.81300
C  -1.90500 43.38800 22.97900
C  2.79900 42.48600 22.70100
N  0.53500 42.70600 27.43300
C  1.62700 42.40900 28.23700
C  1.19800 42.30800 29.70800
C  -0.37800 42.29000 29.59700
C  -0.65900 42.76000 28.19400
C  -0.97900 40.89900 29.72600
C  1.63400 43.54400 30.57800
C  1.41300 43.44900 32.06300
H  1.18800 42.12600 32.66700
N  -1.60300 43.52600 25.37300
C  -2.35900 43.56700 26.49400
C  -3.76100 43.99900 26.15300
C  -3.82300 43.92700 24.73400
C  -2.47100 43.56800 24.26100
C  -4.73500 44.49600 27.18300
C  -5.00700 44.09100 23.89200
O  -4.93800 43.75000 22.71500
C  -6.26100 44.31900 24.50000
N  0.49500 43.01800 23.10600
C  -0.64100 43.22400 22.43800
C  -0.37200 43.11100 20.93700
C  1.19300 42.94700 20.80300
C  1.59100 42.94600 22.26000
C  -1.12500 41.95100 20.23000
C  1.86200 44.13200 20.03300
C  2.18000 45.45400 20.76600
N  2.40500 42.62900 25.15200
C  3.23000 42.42600 24.04000
C  4.56200 42.33400 24.49500
C  4.48300 42.20700 25.89500
C  3.11200 42.40800 26.23100
C  5.80300 42.23500 23.76600
C  5.28100 42.01200 27.12000
O  6.45500 41.89000 27.29300
C  4.25000 42.09200 28.29300
C  4.41200 40.95400 29.23700
O  4.06100 39.82200 28.94100
O  5.01500 41.23500 30.37000
C  5.02900 40.14800 31.47100
H  -2.60800 43.51200 28.57600
H  -2.60600 43.37000 22.14100
H  3.54300 42.20400 21.95300
H  1.63600 41.42500 30.17400
H  -0.84700 42.97400 30.30400
H  -0.22900 40.15700 29.99800
H  -1.48500 40.59800 28.80900
H  -1.67900 40.88900 30.56200
H  0.97900 44.36700 30.29000
H  2.66600 43.81700 30.35800
H  0.53000 44.02500 32.34000
H  2.23500 43.89600 32.62300
H  -4.27900 44.47000 28.17200
H  -5.62400 43.87300 27.28300
H  -5.17000 45.45400 26.89900
H  -7.04800 44.32300 23.74500
H  -6.23200 45.18100 25.16700
H  -6.36000 43.44500 25.14400
H  -0.65800 44.04900 20.46000
H  1.49700 42.08700 20.20500
H  -0.49700 41.13000 19.88500
H  -1.64800 42.21900 19.31100
H  -1.74100 41.52200 21.02000
H  1.19100 44.34600 19.20100
H  2.71600 43.73900 19.48100
H  2.15700 45.34400 21.85000
H  1.46900 46.24900 20.54100
H  3.14800 45.82900 20.43400
H  5.82300 42.74600 22.80300
H  5.93600 41.16700 23.59300
H  6.63200 42.58200 24.38200
H  4.43700 43.03800 28.80100
H  4.11500 39.55400 31.48400
H  5.17500 40.63400 32.43600
H  5.89900 39.52200 31.27300
Mg -10.13800 17.43200 43.04800
C  -6.64000 17.08100 43.00800
C  -9.65100 20.66000 42.04900
C  -13.36000 17.56900 42.23500
C  -10.28800 13.88900 43.01000
N  -8.28700 18.73500 42.62200
C  -6.99600 18.35400 42.61700
C  -6.04800 19.55700 42.43900
C  -7.07900 20.79600 42.39700
C  -8.39800 20.03800 42.26700
C  -6.89100 21.64700 43.63300
C  -5.10900 19.39600 41.12900
C  -5.62700 18.41100 40.02800
H  -5.16000 18.69600 38.59700
N  -11.40400 18.97300 42.49700
C  -11.01700 20.25200 42.12800
C  -12.15900 21.10500 41.99000
C  -13.28200 20.21500 41.93100
C  -12.73000 18.85300 42.18600
C  -12.15100 22.66700 41.75000
C  -14.73800 20.65900 41.61500
O  -14.94500 21.85700 41.30100
C  -15.79300 19.60400 41.50000
N  -11.57700 15.96600 42.44800
C  -12.89000 16.27800 42.33500
C  -13.77600 14.99300 42.30200
C  -12.75100 13.89600 42.64400
C  -11.49600 14.62200 42.78800
C  -15.11200 15.02800 43.07900
C  -12.58600 12.80300 41.58500
C  -12.48700 11.36400 42.24900
N  -8.82500 15.75900 43.14400
C  -9.01400 14.38700 43.07600
C  -7.71700 13.72000 43.27900
C  -6.76400 14.70000 43.27900
C  -7.50900 15.92200 43.15400
C  -7.61400 12.29800 43.34500
C  -5.36900 14.96100 43.34100
O  -4.43300 14.20500 43.57400
C  -5.18600 16.51000 43.17000
C  -4.66300 17.04600 44.42400
O  -3.63100 17.71100 44.50000
O  -5.41900 16.67200 45.53900
C  -4.76400 17.25400 46.78200
H  -9.58300 21.72500 41.81700
H  -14.40500 17.53400 41.92100
H  -10.39700 12.81200 43.15500
H  -5.26100 19.59100 43.19300
H  -6.91500 21.39400 41.50100
H  -5.86000 21.71900 43.97800
H  -7.62200 21.53600 44.43500
H  -6.97400 22.70700 43.39200
H  -4.17700 19.14900 41.63800
H  -4.93600 20.39700 40.73100
H  -6.71600 18.37600 40.04300
H  -5.30500 17.42100 40.35100
H  -12.26200 22.90800 40.69300
H  -11.25500 23.18900 42.08600
H  -12.99400 23.10700 42.28200
H  -15.87100 19.00400 42.40700
H  -15.43200 18.95800 40.70000
H  -16.77300 20.03300 41.29300
H  -14.16600 14.91100 41.28800
H  -13.00700 13.44700 43.60300
H  -16.01400 14.84200 42.49700
H  -15.37500 15.96200 43.57600
H  -15.12300 14.30500 43.89400
H  -11.75900 13.05100 40.91900
H  -13.49700 12.80700 40.98600
H  -13.38400 10.78900 42.01900
H  -12.41800 11.43700 43.33400
H  -11.67600 10.79400 41.79300
H  -7.85900 11.73600 42.44400
H  -8.37400 11.95200 44.04600
H  -6.69700 11.91800 43.79500
H  -4.41200 16.85800 42.48600
H  -3.83900 16.70000 46.93800
H  -5.35700 17.02900 47.66800
H  -4.60200 18.33000 46.84600

