158

Mg -0.46000 7.30200 26.30000
C  0.37600 9.64700 28.80800
C  -0.16700 4.88900 28.73900
C  -0.73000 5.16800 23.76400
C  -0.32000 9.96500 23.90400
N  -0.03800 7.28100 28.52400
C  0.34600 8.32500 29.29400
C  0.34800 7.94600 30.77500
C  0.44200 6.34400 30.70300
C  0.11900 6.13300 29.20300
C  1.84300 5.73800 31.13500
C  -0.88500 8.55700 31.49500
C  -0.56100 9.29700 32.85000
H  0.70900 9.01600 33.59800
N  -0.49500 5.39400 26.29300
C  -0.35900 4.51100 27.37100
C  -0.59000 3.18400 26.90000
C  -0.78600 3.23300 25.46000
C  -0.70800 4.65300 25.10400
C  -0.60700 1.91200 27.76400
C  -1.03400 2.05500 24.41800
O  -1.15700 2.21700 23.18100
C  -1.34900 0.62600 24.88500
N  -0.47500 7.61900 24.05700
C  -0.71400 6.50600 23.28500
C  -0.92700 6.88800 21.87900
C  -1.10000 8.47100 21.93800
C  -0.64300 8.74500 23.37100
C  0.24500 6.41600 20.96000
C  -2.52200 9.00000 21.55200
C  -3.28700 9.82500 22.63900
N  -0.03700 9.36400 26.28600
C  -0.03300 10.29500 25.26600
C  0.47100 11.60500 25.82000
C  0.55100 11.41100 27.16000
C  0.26700 10.01900 27.44500
C  0.72600 12.85200 25.09500
C  0.75600 12.04200 28.41400
O  0.94900 13.22000 28.70300
C  0.58100 10.94400 29.60900
C  1.92500 10.95800 30.26600
O  3.04200 10.63300 29.83600
O  1.77800 11.40400 31.57800
C  3.02500 11.73600 32.31100
H  -0.10100 4.10600 29.49700
H  -0.91800 4.41000 23.00200
H  -0.40200 10.80700 23.21400
H  1.33500 8.33200 31.03100
H  -0.32000 5.80000 31.26200
H  2.54300 5.81100 30.30300
H  1.79300 4.70500 31.48000
H  2.04700 6.36900 32.00000
H  -1.62700 7.79300 31.72700
H  -1.36600 9.27800 30.83400
H  -1.48100 9.32000 33.43400
H  -0.46800 10.34200 32.55400
H  -1.62900 1.56400 27.91700
H  -0.33500 2.04000 28.81100
H  0.04300 1.15200 27.33100
H  -2.14700 0.61200 25.62700
H  -0.46400 0.12800 25.28100
H  -1.66500 -0.02500 24.07000
H  -1.83300 6.40600 21.50900
H  -0.31000 8.86200 21.29700
H  1.02400 6.03900 21.62200
H  0.61200 7.22500 20.32900
H  -0.04800 5.54800 20.36800
H  -3.11500 8.13000 21.27000
H  -2.46800 9.67400 20.69700
H  -3.13100 9.30400 23.58400
H  -4.35700 9.67300 22.49600
H  -3.00400 10.87700 22.65200
H  1.17100 12.72000 24.10900
H  1.34400 13.53800 25.67400
H  -0.28300 13.25600 25.01000
H  -0.18400 11.25500 30.32000
H  2.83700 12.30300 33.22300
H  3.60400 12.38700 31.65600
H  3.68200 10.88600 32.49500
Mg 25.72800 1.70900 29.51400
C  27.84000 1.31400 32.24000
C  23.07600 1.77900 31.65500
C  23.56900 1.65600 26.85000
C  28.47400 1.14700 27.42400
N  25.48100 1.52400 31.65700
C  26.54200 1.65300 32.51000
C  25.98400 1.87200 33.92600
C  24.40600 1.88100 33.76900
C  24.28000 1.68100 32.29200
C  23.66400 0.79800 34.57600
C  26.60500 3.03300 34.70900
C  27.26200 2.62900 36.02300
H  26.36700 2.92600 37.18500
N  23.60700 1.85300 29.25100
C  22.68400 1.82900 30.31300
C  21.35500 2.01600 29.75300
C  21.50600 2.11100 28.32400
C  22.92600 1.80400 28.09100
C  20.10100 2.25100 30.66500
C  20.44700 2.17800 27.22500
O  20.70800 2.21900 26.01300
C  19.03100 2.10600 27.73500
N  25.98100 1.34600 27.40500
C  24.93900 1.50900 26.54900
C  25.51100 1.83900 25.06300
C  27.16000 1.70700 25.25400
C  27.25400 1.33800 26.78800
C  24.94700 1.10000 23.78500
C  27.98600 2.90900 24.91400
C  27.47700 4.24700 25.40100
N  27.70500 1.21100 29.69200
C  28.72100 1.01600 28.81400
C  29.97600 0.67800 29.53000
C  29.66600 0.83900 30.87400
C  28.32700 1.13700 30.92100
C  31.30500 0.29100 29.00300
C  30.27000 0.75200 32.20600
O  31.42700 0.48400 32.47600
C  29.06300 1.08800 33.21400
C  28.99100 -0.02500 34.18900
O  28.26400 -0.97800 34.10100
O  29.83800 0.17500 35.18700
C  29.88800 -0.64200 36.35700
H  22.20300 1.74100 32.31000
H  23.02700 1.82200 25.91700
H  29.33600 1.23600 26.75900
H  26.27900 0.99300 34.49900
H  23.97100 2.84500 34.03000
H  23.25200 0.03600 33.91400
H  22.86800 1.27100 35.15200
H  24.42600 0.32800 35.19800
H  25.84700 3.79600 34.88600
H  27.43500 3.40200 34.10500
H  28.17700 3.21200 36.12600
H  27.61200 1.59700 36.04800
H  19.87900 3.31700 30.61100
H  20.11100 2.02900 31.73200
H  19.28400 1.64100 30.28000
H  18.81000 3.00300 28.31500
H  18.82100 1.20400 28.30900
H  18.30100 2.12400 26.92500
H  25.25100 2.88100 24.87500
H  27.43800 0.95500 24.51600
H  24.31200 0.24800 24.02900
H  25.76100 0.84100 23.10700
H  24.35600 1.76100 23.15200
H  27.89200 2.81000 23.83300
H  28.98700 2.65900 25.26800
H  26.72700 4.24600 26.19200
H  27.03000 4.73000 24.53300
H  28.27700 4.88700 25.77500
H  31.96400 1.06900 28.61900
H  31.09600 -0.42300 28.20700
H  31.75500 -0.38300 29.73200
H  29.33600 2.03900 33.67100
H  29.84800 -1.70500 36.12200
H  29.22400 -0.25500 37.13000
H  30.85800 -0.56300 36.84800

