158

Mg 48.03700 16.41100 28.68200
C  46.09400 16.16900 31.64100
C  50.33500 18.17300 30.39600
C  49.54800 16.70600 25.74200
C  45.18400 14.83700 27.06500
N  48.14300 17.11300 30.73500
C  47.31900 16.83700 31.78800
C  47.82400 17.32500 33.16300
C  49.04100 18.22000 32.70000
C  49.20900 17.82900 31.16300
C  48.98600 19.73000 33.03600
C  48.11000 16.03400 34.06800
C  47.94200 16.14700 35.61600
H  47.49400 17.50000 36.22900
N  49.76700 17.20900 28.13200
C  50.62200 17.90800 29.00200
C  51.90100 18.15300 28.32900
C  51.72900 17.70500 26.95700
C  50.37200 17.19600 26.91400
C  53.18400 18.74000 29.06300
C  52.69200 17.72700 25.87800
O  52.38100 17.26400 24.78400
C  54.06700 18.19600 26.07400
N  47.45000 15.75900 26.75600
C  48.30000 16.12200 25.69100
C  47.64200 15.71600 24.33900
C  46.34500 14.96800 24.75400
C  46.31400 15.19000 26.26600
C  47.52200 16.82600 23.35800
C  46.25700 13.41600 24.50500
C  46.04600 12.95600 23.06400
N  46.14900 15.53300 29.29100
C  45.12000 14.98200 28.45000
C  43.94600 14.78300 29.25800
C  44.30100 15.18000 30.53000
C  45.59500 15.67300 30.47500
C  42.57700 14.25700 28.69000
C  43.75600 15.28900 31.83000
O  42.66500 14.99800 32.38400
C  45.01900 15.77800 32.64600
C  44.57700 16.96100 33.36900
O  44.13800 18.00700 32.87600
O  44.45100 16.60700 34.70700
C  43.50300 17.24100 35.66300
H  51.07600 18.75000 30.95400
H  50.03200 16.71100 24.76300
H  44.34000 14.51200 26.45300
H  46.96800 17.86600 33.56700
H  49.94000 17.78200 33.13400
H  48.86700 20.44100 32.21800
H  49.86200 19.96600 33.64000
H  48.08400 19.89000 33.62600
H  49.13100 15.73500 33.83100
H  47.48500 15.23200 33.67500
H  48.91400 15.91600 36.05300
H  47.17400 15.38000 35.71100
H  53.93800 17.95900 29.15300
H  53.05400 19.05700 30.09700
H  53.47100 19.61900 28.48700
H  54.61500 18.04400 25.14400
H  54.38500 17.56100 26.90200
H  54.01700 19.25700 26.32000
H  48.33700 15.04000 23.84100
H  45.49100 15.51700 24.35800
H  48.21200 16.62800 22.53800
H  47.89800 17.71900 23.85800
H  46.48900 17.00200 23.06000
H  45.77000 12.85400 25.30200
H  47.26700 13.07200 24.72700
H  46.49000 11.96900 22.93000
H  46.47100 13.66400 22.35300
H  44.96200 12.93300 22.95200
H  42.20000 14.77100 27.80600
H  41.87000 14.45100 29.49800
H  42.68400 13.19100 28.48900
H  45.25500 14.99700 33.36700
H  42.80500 16.43800 35.89800
H  42.88800 17.98100 35.15000
H  43.90800 17.60100 36.60900
Mg -10.89900 39.53000 40.61300
C  -9.45900 36.43300 39.72400
C  -8.42400 41.14600 39.07500
C  -12.85300 42.29900 40.75900
C  -13.86600 37.52400 41.62500
N  -9.29400 38.76900 39.21600
C  -8.78000 37.53600 39.08600
C  -7.43100 37.51700 38.34900
C  -7.07200 39.06500 38.37600
C  -8.33500 39.70100 38.90100
C  -5.76600 39.40200 39.13000
C  -7.47600 36.77000 37.00500
C  -6.95300 37.49700 35.74900
H  -8.02100 38.22300 34.91400
N  -10.65600 41.46700 39.98700
C  -9.49100 42.00600 39.47200
C  -9.53800 43.42300 39.45800
C  -10.83300 43.77100 39.95600
C  -11.53400 42.46100 40.26900
C  -8.38200 44.33600 38.99400
C  -11.38900 45.23700 40.01800
O  -10.66800 46.15800 39.76600
C  -12.86200 45.58300 40.23600
N  -13.15000 39.81500 40.78600
C  -13.57500 41.10200 40.98900
C  -15.00200 41.11800 41.60400
C  -15.41700 39.67300 41.72000
C  -14.11700 38.93800 41.38500
C  -15.07200 41.93000 42.93000
C  -16.46800 39.26800 40.69700
C  -17.30300 37.98800 40.94300
N  -11.52200 37.45200 40.85400
C  -12.69100 36.84100 41.28800
C  -12.38700 35.44200 41.50100
C  -11.15500 35.23300 40.93400
C  -10.69200 36.45700 40.43800
C  -13.35700 34.39900 42.11000
C  -10.18500 34.24100 40.52600
O  -10.17000 33.02900 40.69900
C  -9.05300 34.99300 39.74700
C  -7.79200 34.66700 40.46500
O  -7.33800 33.53400 40.43800
O  -7.22400 35.75400 41.15900
C  -6.18400 35.32100 42.11400
H  -7.54100 41.67900 38.71700
H  -13.37900 43.24100 40.92800
H  -14.61900 36.97800 42.19800
H  -6.71500 36.95500 38.94900
H  -6.88700 39.47100 37.38100
H  -5.20900 40.05100 38.45500
H  -5.26700 38.48100 39.43300
H  -6.03300 40.05900 39.95700
H  -8.52900 36.52900 36.86500
H  -6.75500 35.96900 37.16800
H  -6.38800 36.91500 35.02100
H  -6.15300 38.18800 36.01900
H  -7.47900 43.73500 38.88100
H  -8.16100 45.09700 39.74200
H  -8.62300 44.75100 38.01500
H  -12.99200 46.56500 39.78000
H  -13.12000 45.56100 41.29500
H  -13.43800 44.83800 39.68800
H  -15.61100 41.63100 40.86000
H  -15.73000 39.45700 42.74100
H  -15.73800 41.45900 43.65300
H  -15.51100 42.90600 42.72700
H  -14.10900 42.04000 43.43000
H  -15.97100 39.23500 39.72800
H  -17.20600 40.05800 40.55700
H  -17.11200 37.24800 40.16500
H  -18.36300 38.23900 40.97900
H  -17.12800 37.54500 41.92300
H  -13.15700 33.41300 41.69200
H  -14.39300 34.72200 42.01200
H  -13.12700 34.43600 43.17500
H  -9.09700 34.55700 38.74900
H  -6.51800 34.66800 42.92000
H  -5.67900 36.15000 42.60900
H  -5.36200 34.82500 41.59700

