158

Mg 6.46700 54.55900 40.43900
C  5.73700 51.09000 40.14600
C  9.66900 53.86900 39.96500
C  6.83300 57.59600 39.49400
C  2.98300 54.98500 40.90700
N  7.48200 52.75400 39.93200
C  7.04900 51.43400 39.92600
C  8.24200 50.42700 39.63100
C  9.38600 51.41100 40.05700
C  8.85200 52.77400 40.06200
C  9.98900 51.05900 41.48400
C  8.26700 49.95200 38.19300
C  8.01600 50.99300 37.09700
H  6.84100 50.65900 36.09800
N  8.15800 55.66500 39.99900
C  9.41900 55.26800 39.90400
C  10.28600 56.32800 39.64700
C  9.43800 57.50900 39.32400
C  8.05800 56.96500 39.56400
C  11.85600 56.26400 39.58900
C  9.90500 58.94400 38.98100
O  11.06900 59.25100 38.93900
C  8.97800 60.09600 38.95000
N  5.07400 56.06000 40.18000
C  5.52900 57.27000 39.81100
C  4.27400 58.27500 39.58900
C  3.09400 57.47400 40.17800
C  3.66400 56.07200 40.36200
C  4.51500 59.54500 40.49800
C  1.78800 57.47300 39.26900
C  0.43600 57.84900 39.84700
N  4.67900 53.30200 40.54600
C  3.43500 53.62500 40.92100
C  2.67600 52.47200 41.25200
C  3.53300 51.40300 40.84000
C  4.72800 51.98400 40.42600
C  1.23900 52.48100 41.65000
C  3.66500 49.91100 40.82100
O  2.96800 49.00600 41.28900
C  5.09900 49.73500 40.32800
C  5.02300 48.93500 38.99600
O  4.59800 49.45300 37.96000
O  5.37300 47.66500 39.20600
C  5.40000 46.89900 37.99000
H  10.71700 53.56800 40.02800
H  6.93000 58.60200 39.08000
H  1.97900 55.23900 41.25100
H  8.12300 49.60900 40.34200
H  10.27100 51.35100 39.42400
H  10.94700 50.58500 41.27400
H  9.35900 50.35100 42.02300
H  10.09700 51.89200 42.17900
H  7.58100 49.11500 38.06600
H  9.28500 49.65500 37.93900
H  8.91200 51.17300 36.50300
H  7.76400 51.93900 37.57600
H  12.25700 56.23100 38.57600
H  12.20400 55.40300 40.15800
H  12.36800 56.97000 40.24300
H  9.52200 60.99800 39.23100
H  8.19000 60.07100 39.70200
H  8.58200 60.14700 37.93600
H  4.22900 58.49100 38.52200
H  2.77700 57.83700 41.15600
H  4.16500 60.40600 39.92800
H  5.53200 59.60100 40.88600
H  3.93100 59.50900 41.41800
H  1.56100 56.43100 39.04100
H  1.92500 58.07500 38.37100
H  -0.38300 57.13200 39.79700
H  0.09100 58.66500 39.21200
H  0.61600 58.09200 40.89400
H  1.12000 53.32100 42.33400
H  0.90300 51.66100 42.28500
H  0.55600 52.64000 40.81600
H  5.59700 49.05300 41.01700
H  5.76500 47.49900 37.15800
H  4.36500 46.60100 37.82400
H  5.96700 45.97800 38.13300
Mg -9.91100 17.54000 40.52300
C  -6.44300 17.20500 41.00100
C  -9.40100 20.96000 40.19300
C  -13.12000 17.91500 39.45700
C  -10.21800 14.12100 40.44300
N  -8.16800 18.88800 40.53700
C  -6.82100 18.54800 40.75800
C  -5.95000 19.84800 40.67600
C  -6.99000 20.87900 41.05300
C  -8.28700 20.24100 40.56800
C  -7.08300 21.24800 42.58500
C  -5.38700 20.04500 39.20500
C  -3.91800 19.45200 39.03900
H  -3.55800 18.54100 37.83500
N  -11.12500 19.23600 39.88900
C  -10.62300 20.52600 39.71900
C  -11.73700 21.38000 39.33200
C  -12.88500 20.55700 39.25500
C  -12.43200 19.17200 39.54200
C  -11.56300 22.85600 39.04500
C  -14.24000 20.95900 38.84800
O  -14.39900 22.13000 38.60400
C  -15.44500 20.09200 38.98400
N  -11.39100 16.21800 39.82300
C  -12.68200 16.55600 39.70300
C  -13.61000 15.39100 39.84500
C  -12.64000 14.21600 39.66500
C  -11.30200 14.89200 39.95900
C  -14.50500 15.29500 41.13700
C  -12.68000 13.51700 38.26400
C  -13.10700 12.08700 38.20900
N  -8.64000 15.96700 40.67800
C  -8.93300 14.61900 40.67600
C  -7.78200 13.88900 41.08000
C  -6.77900 14.85500 41.25000
C  -7.33100 16.13900 40.94800
C  -7.67900 12.35000 41.32300
C  -5.39700 15.00000 41.62600
O  -4.59800 14.20500 42.11900
C  -5.10100 16.52700 41.31400
C  -4.29900 16.98400 42.47100
O  -3.20700 17.49900 42.38200
O  -4.90000 16.81500 43.72300
C  -3.96400 16.47100 44.83300
H  -9.34400 22.04800 40.25600
H  -14.15100 17.80400 39.11600
H  -10.39800 13.04500 40.50100
H  -5.08800 19.83900 41.34200
H  -6.76000 21.73800 40.42300
H  -6.79000 22.29000 42.71000
H  -6.49000 20.54900 43.17400
H  -8.07200 21.10300 43.01900
H  -5.35300 21.09600 38.91900
H  -6.05400 19.42500 38.60500
H  -3.60800 18.94100 39.95100
H  -3.24400 20.30700 39.00000
H  -12.13200 23.11600 38.15300
H  -10.53400 23.16300 38.85600
H  -11.89600 23.50500 39.85500
H  -15.32900 19.23400 38.32200
H  -16.35400 20.68200 38.86900
H  -15.41800 19.66900 39.98800
H  -14.28800 15.41200 38.99200
H  -12.97200 13.49600 40.41200
H  -14.02700 15.68400 42.03600
H  -14.85500 14.27100 41.26200
H  -15.34300 15.94800 40.89300
H  -11.69000 13.64400 37.82600
H  -13.20200 14.05300 37.47200
H  -14.12500 11.87300 37.88200
H  -13.06100 11.66400 39.21300
H  -12.42500 11.49900 37.59500
H  -6.73200 12.14200 41.82100
H  -7.59400 11.92300 40.32300
H  -8.50400 11.89300 41.87000
H  -4.52500 16.52900 40.38900
H  -4.14200 15.44400 45.15200
H  -4.21100 17.04700 45.72500
H  -2.90400 16.52800 44.58700

