158

Mg 35.19400 2.68500 29.70400
C  33.17400 3.85300 32.17500
C  37.83000 2.51900 31.96900
C  37.22200 1.84400 27.25800
C  32.55100 2.86500 27.50600
N  35.44200 3.14600 31.83200
C  34.42600 3.61300 32.58600
C  34.89200 3.71200 34.10900
C  36.47600 3.40900 33.97200
C  36.58200 2.89200 32.54900
C  37.38800 4.68100 34.07500
C  34.18400 2.80000 35.21300
C  34.11300 3.36700 36.64700
H  34.85900 4.72700 36.99100
N  37.32700 2.24800 29.54000
C  38.18600 2.20500 30.60100
C  39.49800 1.72500 30.12300
C  39.38500 1.59600 28.68000
C  37.93700 1.91600 28.45600
C  40.74200 1.48400 30.97700
C  40.43000 1.11000 27.62000
O  40.15100 1.06600 26.41700
C  41.80800 0.79500 28.12100
N  35.00400 2.61900 27.59700
C  35.90000 2.08900 26.88600
C  35.47100 1.95400 25.36800
C  33.93100 1.88300 25.55200
C  33.82900 2.50400 26.97700
C  36.06900 3.09600 24.51000
C  33.37500 0.37700 25.58500
C  32.10800 0.13500 24.81600
N  33.28500 3.33600 29.68900
C  32.32300 3.42700 28.77300
C  31.08400 3.92400 29.31300
C  31.35200 4.16000 30.65300
C  32.74800 3.79000 30.84400
C  29.84000 4.06600 28.53700
C  30.76900 4.72400 31.91200
O  29.68700 5.26100 32.25200
C  31.96200 4.38300 32.91700
C  32.21300 5.68500 33.55500
O  32.89800 6.57700 33.07200
O  31.55900 5.86200 34.79200
C  31.37600 7.19500 35.23900
H  38.66600 2.57100 32.67100
H  37.77800 1.53100 26.37200
H  31.70400 2.73300 26.83000
H  34.62600 4.75300 34.28800
H  36.83300 2.58500 34.58900
H  36.76300 5.51600 33.75600
H  38.18500 4.72000 33.33300
H  37.84900 4.77100 35.05900
H  34.65100 1.81800 35.28500
H  33.16100 2.57200 34.91300
H  34.43600 2.55200 37.29500
H  33.03500 3.44000 36.78900
H  40.46700 1.54900 32.03000
H  41.61200 2.05400 30.65400
H  40.95300 0.42000 30.86800
H  41.88400 0.15800 29.00200
H  42.33500 1.72100 28.34900
H  42.44900 0.32400 27.37600
H  35.84300 0.98900 25.02300
H  33.30300 2.50300 24.91200
H  35.22800 3.73100 24.23300
H  36.71700 2.76700 23.69700
H  36.68700 3.66200 25.20600
H  33.22100 0.20100 26.64900
H  34.05100 -0.40100 25.23300
H  31.28600 0.32200 25.50700
H  32.11900 -0.88200 24.42600
H  32.08000 0.89500 24.03500
H  29.51000 3.08800 28.18700
H  30.10300 4.72400 27.70900
H  29.03900 4.50400 29.13100
H  31.56400 3.69200 33.66000
H  32.02400 7.39200 36.09300
H  30.32100 7.09200 35.49600
H  31.55700 7.96100 34.48600
Mg 26.63800 49.91400 26.62300
C  24.66100 50.90900 29.33400
C  28.97900 48.83900 28.66400
C  28.41100 48.80000 23.90500
C  24.16800 51.32400 24.43300
N  26.75900 49.92900 28.75600
C  25.83700 50.33200 29.73700
C  26.45000 50.16400 31.12300
C  27.82600 49.52500 30.90200
C  27.87300 49.45300 29.32800
C  29.09400 50.26000 31.49600
C  25.50300 49.24900 31.98600
C  24.90700 49.83500 33.29900
H  25.88400 50.02000 34.51100
N  28.52500 48.92500 26.36100
C  29.34300 48.59300 27.37200
C  30.57600 48.05300 26.81100
C  30.40400 48.17700 25.40100
C  29.04700 48.62500 25.13000
C  31.73500 47.62900 27.68900
C  31.47900 47.96100 24.35400
O  31.32600 48.23900 23.15100
C  32.81600 47.68000 24.80800
N  26.40300 50.14200 24.42800
C  27.21400 49.51000 23.57000
C  26.80600 49.75600 22.10500
C  25.50900 50.60300 22.26000
C  25.34700 50.72100 23.82000
C  27.81400 50.63600 21.30200
C  24.20900 50.01300 21.58000
C  23.24200 51.15200 21.18800
N  24.86300 50.89400 26.77600
C  23.96800 51.40900 25.80600
C  22.87500 52.07600 26.44600
C  23.04500 51.80300 27.80500
C  24.23800 51.09700 27.99900
C  21.81200 52.97900 25.80900
C  22.44300 52.13600 29.05400
O  21.44000 52.76300 29.29800
C  23.53500 51.52300 30.13800
C  23.91600 52.64000 31.04900
O  24.86000 53.35300 30.93500
O  22.97100 52.81000 32.00700
C  23.32700 53.64700 33.14700
H  29.68500 48.42400 29.38700
H  28.85600 48.42400 22.98100
H  23.41400 51.88200 23.87500
H  26.43400 51.16100 31.56300
H  27.71600 48.48500 31.21100
H  28.82800 51.30200 31.67300
H  29.93000 50.24200 30.79700
H  29.47300 49.84200 32.42800
H  26.07000 48.35600 32.24700
H  24.71200 48.93100 31.30600
H  24.09200 49.20400 33.65300
H  24.55000 50.82200 33.00300
H  32.63200 48.22100 27.50400
H  31.98200 46.63000 27.33000
H  31.52200 47.55800 28.75500
H  33.07000 48.45700 25.52900
H  33.51900 47.72200 23.97600
H  32.85000 46.63600 25.12100
H  26.73400 48.80300 21.58100
H  25.68200 51.65300 22.02400
H  28.51400 51.22000 21.89900
H  27.34500 51.39700 20.67800
H  28.25700 49.95600 20.57500
H  23.70000 49.42800 22.34600
H  24.41000 49.44400 20.67300
H  22.34800 51.22400 21.80900
H  23.04900 51.06200 20.11900
H  23.85000 52.05500 21.23700
H  21.19900 52.34900 25.16400
H  22.21700 53.82800 25.25900
H  21.25000 53.48100 26.59600
H  23.09600 50.75500 30.77600
H  24.16100 53.12900 33.62000
H  22.47300 53.67500 33.82300
H  23.56700 54.65600 32.81100

