158

Mg 40.27600 7.17000 29.14300
C  41.92500 8.73400 31.99800
C  38.29200 5.56700 31.30400
C  39.06500 5.55300 26.46100
C  42.93600 8.47400 27.23300
N  40.08300 7.30200 31.37600
C  40.89300 7.89600 32.31600
C  40.34000 7.65800 33.71000
C  39.36300 6.52000 33.51400
C  39.19700 6.44300 31.96500
C  39.90900 5.19400 34.10600
C  39.75900 8.93100 34.27700
C  39.40500 9.03800 35.74600
H  40.29500 10.06000 36.57100
N  38.71900 5.87500 28.97300
C  37.96300 5.37300 29.90500
C  36.92100 4.53600 29.33600
C  37.08500 4.69300 27.88200
C  38.35500 5.34500 27.71000
C  35.92600 3.81800 30.16500
C  36.11700 4.36300 26.69200
O  36.36300 4.47900 25.47800
C  34.81100 3.88500 27.15600
N  40.97100 6.94600 27.11500
C  40.26200 6.28300 26.22000
C  40.76700 6.52900 24.79300
C  41.94400 7.57600 25.03700
C  42.03500 7.64900 26.56800
C  41.24300 5.23800 23.94700
C  41.91300 8.96800 24.25300
C  40.91100 9.99200 24.65500
N  42.07100 8.28300 29.49900
C  43.05100 8.67000 28.60700
C  44.04000 9.41300 29.29600
C  43.62300 9.49300 30.61900
C  42.37900 8.82400 30.70200
C  45.36000 9.82800 28.81700
C  43.97800 10.01800 31.91800
O  44.93300 10.71000 32.23900
C  42.84800 9.55700 32.84800
C  43.45800 8.61800 33.84800
O  44.12900 7.63800 33.61600
O  43.40400 9.16300 35.11900
C  44.02700 8.34100 36.13700
H  37.63400 5.08400 32.02900
H  38.73400 5.09000 25.53000
H  43.60700 8.97600 26.53300
H  41.21200 7.41800 34.31800
H  38.34400 6.74000 33.83100
H  40.88100 5.28800 34.59200
H  40.07400 4.45400 33.32300
H  39.19400 4.76000 34.80500
H  38.77900 8.96900 33.80100
H  40.25800 9.83600 33.92800
H  39.55200 8.07600 36.23700
H  38.33600 9.24400 35.79400
H  36.21200 3.82200 31.21700
H  35.89100 2.75800 29.91100
H  34.92000 4.21700 30.03800
H  34.31800 4.51400 27.89700
H  35.13000 2.97000 27.65600
H  34.13300 3.63600 26.33900
H  39.93900 7.04800 24.31000
H  42.87100 7.09800 24.72100
H  40.87700 5.16200 22.92300
H  41.07400 4.28800 24.45400
H  42.32900 5.29100 23.86900
H  41.60400 8.77300 23.22500
H  42.93400 9.32000 24.39700
H  40.21500 9.64600 25.41900
H  40.35300 10.31500 23.77600
H  41.51000 10.77000 25.12900
H  45.29300 9.72200 27.73400
H  46.09300 9.15800 29.26700
H  45.65500 10.82200 29.15200
H  42.32600 10.38500 33.32800
H  43.50600 7.38300 36.14400
H  43.93300 8.72400 37.15300
H  45.11100 8.37700 36.02900
Mg 46.36500 35.60900 28.77300
C  44.57500 33.39700 30.89400
C  46.74900 37.76100 31.38100
C  47.13800 37.90000 26.57000
C  45.55300 33.39400 26.06800
N  45.74600 35.57300 30.81500
C  45.08300 34.52700 31.49300
C  45.28700 34.78900 33.04500
C  45.38900 36.32400 33.07500
C  46.08700 36.53300 31.75800
C  43.99600 37.03300 33.11400
C  46.56700 34.09800 33.68600
C  46.40100 33.60400 35.16100
H  45.67700 34.53300 36.08900
N  47.04500 37.51200 28.96600
C  47.21000 38.22500 30.14400
C  47.89600 39.38600 29.87800
C  48.03900 39.48500 28.45500
C  47.39500 38.27500 27.94400
C  48.67300 40.19300 30.84800
C  48.73300 40.56000 27.69200
O  48.66500 40.66700 26.44100
C  49.41700 41.70900 28.36500
N  46.10500 35.70900 26.63600
C  46.67200 36.75300 25.96100
C  46.41800 36.58000 24.42100
C  46.16200 35.03800 24.30000
C  45.88700 34.66300 25.75900
C  45.14200 37.33300 23.83600
C  47.41400 34.29100 23.88400
C  47.38600 33.47300 22.56500
N  45.30400 33.74100 28.46300
C  45.11700 33.00800 27.36000
C  44.50100 31.76300 27.78400
C  44.25600 31.84000 29.14200
C  44.78800 33.05900 29.54600
C  44.17400 30.60100 26.81300
C  43.73400 31.15800 30.35400
O  43.19800 30.06400 30.51700
C  43.76400 32.23300 31.45600
C  43.96500 31.57900 32.82400
O  45.00600 30.99100 33.15300
O  42.91300 31.89100 33.70700
C  42.95000 31.12100 34.95200
H  46.76300 38.49700 32.18700
H  47.58000 38.53300 25.79700
H  45.61800 32.72700 25.20500
H  44.42300 34.41900 33.59600
H  45.96300 36.67000 33.93500
H  44.18800 37.97000 32.59100
H  43.80900 37.26000 34.16400
H  43.15400 36.42500 32.78300
H  47.40500 34.79300 33.62000
H  46.70600 33.24400 33.02300
H  47.41200 33.48000 35.54800
H  45.88000 32.65000 35.24400
H  48.45600 39.88500 31.87000
H  48.47400 41.26200 30.92400
H  49.70700 39.98800 30.57100
H  48.61600 42.14100 28.96500
H  49.85800 42.30900 27.56900
H  50.20500 41.24800 28.96100
H  47.30100 36.89300 23.86400
H  45.27400 34.68700 23.77600
H  44.75000 38.05300 24.55500
H  44.33100 36.73400 23.42300
H  45.44100 37.91800 22.96600
H  47.75400 33.54400 24.60200
H  48.23700 35.00500 23.87400
H  46.63500 33.89900 21.90000
H  47.20900 32.45100 22.90100
H  48.34600 33.51200 22.05100
H  44.96500 30.43300 26.08300
H  43.24700 30.83700 26.29000
H  44.04900 29.75300 27.48600
H  42.72400 32.55600 31.40400
H  43.15000 30.07400 34.72500
H  41.95700 31.14800 35.40200
H  43.69700 31.41400 35.69000

