158

Mg 1.84900 -1.32500 44.32600
C  5.19300 -0.19600 44.16900
C  0.89800 1.79000 43.25500
C  -1.28700 -2.40500 44.22500
C  2.92000 -4.51600 45.21500
N  2.94900 0.51400 43.70000
C  4.31700 0.82500 43.78700
C  4.59400 2.22100 43.16300
C  3.20900 2.94200 43.08600
C  2.32000 1.69100 43.33300
C  2.93900 4.07400 44.20000
C  5.24100 2.02700 41.79200
C  6.48500 2.93200 41.55900
H  7.55700 2.21100 40.79500
N  0.06500 -0.48000 43.64900
C  -0.14800 0.83200 43.33700
C  -1.52600 1.05100 43.10100
C  -2.20800 -0.17600 43.29100
C  -1.11800 -1.10000 43.76300
C  -2.03500 2.35700 42.68600
C  -3.66900 -0.51400 43.05000
O  -4.41100 0.35300 42.65900
C  -4.21100 -1.84700 43.29200
N  0.96600 -3.20300 44.50500
C  -0.40400 -3.32300 44.67500
C  -0.76600 -4.72400 44.96000
C  0.54300 -5.23800 45.58500
C  1.59900 -4.29500 45.02000
C  -2.11000 -4.98300 45.72900
C  0.76400 -6.73600 45.30900
C  1.16300 -7.70300 46.45000
N  3.63400 -2.19500 44.75300
C  3.89700 -3.54900 44.95200
C  5.30700 -3.59900 45.21600
C  5.86900 -2.38000 44.87400
C  4.81600 -1.55400 44.52800
C  5.99100 -4.77700 45.80300
C  7.18800 -1.58000 44.87100
O  8.34500 -1.94300 45.08300
C  6.68000 -0.09000 44.32900
C  7.17900 0.85000 45.37600
O  6.63500 1.05000 46.43800
O  8.24100 1.49000 44.84600
C  8.45700 2.77900 45.37300
H  0.52500 2.79500 43.04900
H  -2.25200 -2.91500 44.19100
H  3.18100 -5.50800 45.58800
H  5.18600 2.83100 43.84500
H  2.94900 3.41300 42.13800
H  3.79200 4.34300 44.82300
H  2.06600 3.75900 44.77200
H  2.54400 4.93200 43.65500
H  4.54400 2.17500 40.96700
H  5.52500 0.97700 41.72500
H  6.79900 3.36100 42.51100
H  6.21000 3.80700 40.97000
H  -3.06300 2.54500 42.99400
H  -1.86000 2.62700 41.64500
H  -1.61400 3.18500 43.25800
H  -3.78600 -2.68300 42.73700
H  -5.28200 -1.96300 43.12400
H  -4.12200 -2.11500 44.34500
H  -0.84000 -5.09900 43.93900
H  0.29700 -5.09200 46.63700
H  -2.70500 -4.11800 46.02000
H  -1.96700 -5.56600 46.63900
H  -2.81800 -5.37600 45.00000
H  1.60300 -6.89000 44.63000
H  -0.21400 -7.08100 44.97300
H  1.00200 -7.15800 47.38000
H  2.23500 -7.89900 46.43700
H  0.76500 -8.71700 46.39900
H  6.49300 -5.30300 44.99100
H  5.32800 -5.47600 46.31200
H  6.81400 -4.58600 46.49100
H  7.15900 0.16400 43.38300
H  7.49100 3.22800 45.60500
H  8.93600 3.43000 44.64200
H  8.93000 2.79000 46.35500
Mg 8.07700 3.50900 27.44000
C  9.36700 2.27900 30.42000
C  5.99400 5.43900 29.35900
C  6.42600 4.35200 24.69100
C  9.55400 0.86800 25.79500
N  7.58800 3.68300 29.66400
C  8.35400 3.23900 30.68300
C  7.91000 3.84400 32.00700
C  6.80500 4.82200 31.62700
C  6.71100 4.55500 30.10100
C  5.41300 4.70400 32.40500
C  9.21400 4.49600 32.71600
C  9.44900 4.14000 34.21400
H  10.16000 5.21400 35.06600
N  6.51300 4.85200 27.03400
C  5.83900 5.56800 27.98600
C  4.85900 6.41800 27.35800
C  5.11600 6.25900 25.90000
C  6.06600 5.17900 25.82000
C  3.90500 7.36100 28.05100
C  4.50700 6.97400 24.68100
O  4.76400 6.66500 23.54300
C  3.52300 8.13700 24.84300
N  8.06300 2.78600 25.56100
C  7.20200 3.22300 24.61000
C  7.49800 2.60800 23.22200
C  8.45200 1.46600 23.54100
C  8.69400 1.71900 25.02800
C  6.27000 2.27800 22.40500
C  9.63900 1.59200 22.60800
C  10.74900 2.70200 22.95200
N  9.34700 1.91100 27.93800
C  9.83000 0.91600 27.17100
C  10.54500 0.01800 27.94800
C  10.49300 0.55800 29.24700
C  9.70300 1.68300 29.17400
C  11.43800 -1.14100 27.48800
C  10.96100 0.48000 30.61100
O  11.80000 -0.23400 31.07700
C  10.18600 1.55300 31.43700
C  9.38800 0.82600 32.43200
O  8.31800 0.31400 32.24100
O  10.10600 0.85000 33.61800
C  9.43700 0.26600 34.73500
H  5.47300 6.18400 29.96400
H  5.99800 4.56100 23.70800
H  10.06500 0.00700 25.36000
H  7.58100 3.03200 32.65500
H  7.15200 5.84500 31.77400
H  5.19200 5.49300 33.12300
H  5.45200 3.70000 32.82900
H  4.63800 4.75400 31.64000
H  9.14900 5.58400 32.66900
H  10.15100 4.29700 32.19600
H  10.15000 3.30600 34.18500
H  8.52500 3.85700 34.71700
H  2.96600 7.29900 27.50100
H  4.23200 8.39800 27.97100
H  3.68300 7.10900 29.08800
H  3.08200 8.42900 23.88900
H  4.10400 9.00000 25.16500
H  2.74400 7.92200 25.57400
H  7.94800 3.37900 22.59700
H  8.00500 0.47200 23.54800
H  5.36800 2.47800 22.98300
H  6.23000 1.22500 22.12600
H  6.43300 2.86700 21.50300
H  9.25000 1.81800 21.61500
H  10.12700 0.62200 22.70500
H  10.55900 3.19200 23.90700
H  10.77000 3.47400 22.18300
H  11.74900 2.27700 23.03300
H  12.40500 -0.72000 27.21400
H  11.03500 -1.64800 26.61100
H  11.45500 -1.77100 28.37700
H  10.82400 2.25600 31.97300
H  9.01200 -0.69200 34.43800
H  8.65400 0.87100 35.19500
H  10.27300 0.10400 35.41500

