158

Mg -2.73800 17.68800 26.99700
C  -3.23200 15.50700 29.58700
C  -3.35500 20.25200 29.20700
C  -2.25700 19.85100 24.51700
C  -2.39700 15.00600 24.78800
N  -3.08400 17.86800 29.15900
C  -3.25700 16.78600 30.01000
C  -3.63900 17.30300 31.44500
C  -4.05100 18.77000 31.23800
C  -3.48700 18.98800 29.79000
C  -5.57600 19.06800 31.39600
C  -2.67300 16.92700 32.52800
C  -2.35700 17.79000 33.69500
H  -1.89600 17.19700 34.94000
N  -2.69300 19.77600 26.94500
C  -2.97600 20.70000 27.91700
C  -2.57600 22.05000 27.43000
C  -2.19200 21.91000 26.07400
C  -2.37600 20.46100 25.76900
C  -2.58100 23.26700 28.36000
C  -1.64300 22.95000 25.15300
O  -1.39600 22.77000 23.96000
C  -1.48200 24.29200 25.65100
N  -2.61200 17.46700 24.86800
C  -2.23900 18.53000 24.13400
C  -1.97300 18.17000 22.66400
C  -1.89000 16.62100 22.83600
C  -2.37800 16.32800 24.22600
C  -3.11900 18.64100 21.66000
C  -0.44800 16.06800 22.64000
C  0.54200 16.27400 23.80000
N  -2.98700 15.68700 27.03100
C  -2.79400 14.70900 26.09500
C  -3.01600 13.42800 26.69300
C  -3.18700 13.70600 28.00500
C  -3.11200 15.06700 28.19800
C  -3.11100 12.08700 26.03100
C  -3.46100 13.03400 29.25500
O  -3.66500 11.87600 29.50900
C  -3.46800 14.18000 30.35900
C  -2.35300 13.85800 31.31500
O  -1.23900 14.30200 31.15300
O  -2.88400 13.16100 32.39200
C  -2.00900 13.09700 33.55100
H  -3.51000 21.09000 29.89000
H  -2.02900 20.55200 23.71100
H  -2.35700 14.11400 24.16000
H  -4.45100 16.63200 31.72400
H  -3.45700 19.41900 31.88100
H  -5.79000 19.39400 32.41400
H  -6.03500 18.09100 31.24700
H  -5.96600 19.70600 30.60400
H  -1.66500 16.80900 32.12900
H  -3.10800 16.07200 33.04400
H  -3.25800 18.38800 33.83300
H  -1.59200 18.53100 33.46700
H  -3.21300 24.09800 28.04600
H  -1.57900 23.68700 28.26400
H  -2.91900 23.00100 29.36100
H  -0.68800 24.18400 26.39000
H  -2.42900 24.64400 26.06000
H  -1.03000 24.92800 24.89000
H  -0.99100 18.62200 22.52100
H  -2.45700 16.16000 22.02800
H  -2.80900 19.49200 21.05400
H  -3.97100 19.05500 22.20000
H  -3.54000 17.83000 21.06600
H  0.01300 16.72100 21.89900
H  -0.44400 15.05500 22.23800
H  0.07800 16.29200 24.78600
H  0.87100 17.29200 23.59300
H  1.30300 15.51100 23.63400
H  -2.40700 12.04400 25.19900
H  -4.06800 11.91700 25.53900
H  -3.06300 11.24500 26.72100
H  -4.35000 14.16200 30.99900
H  -1.03200 12.68500 33.29700
H  -2.49000 12.38500 34.22200
H  -1.73100 14.08500 33.91800
Mg 41.95300 41.28200 26.27200
C  41.25500 43.62100 28.73600
C  43.38000 39.27100 28.56700
C  42.80700 39.27300 23.64500
C  41.15900 43.85400 23.93500
N  42.30800 41.49200 28.38200
C  41.68200 42.43200 29.21600
C  41.81000 42.04200 30.69200
C  42.75400 40.79300 30.61400
C  42.88100 40.49100 29.09900
C  44.13600 41.06300 31.30400
C  40.43700 41.76400 31.40200
C  40.17900 42.59500 32.68300
H  39.85700 41.88200 33.96800
N  42.85700 39.46600 26.11500
C  43.39100 38.79300 27.20700
C  44.00800 37.54400 26.68700
C  43.82400 37.50400 25.28300
C  43.13700 38.80400 24.89500
C  44.84300 36.68100 27.60500
C  44.21200 36.47800 24.34200
O  44.08100 36.65900 23.12100
C  44.77800 35.14300 24.84500
N  41.84600 41.53400 24.15000
C  42.21800 40.50100 23.25100
C  42.01800 40.89600 21.74500
C  41.41600 42.39700 21.89300
C  41.42200 42.60500 23.41000
C  43.25800 40.76200 20.78600
C  40.03100 42.63400 21.28900
C  39.97700 43.45300 20.05700
N  41.33700 43.33200 26.29200
C  41.01000 44.22200 25.29500
C  40.54400 45.46100 25.81100
C  40.62600 45.31400 27.20600
C  41.13100 44.01700 27.45400
C  40.03300 46.64700 24.98800
C  40.32800 45.90300 28.41700
O  39.76200 47.00700 28.64700
C  40.69800 44.84000 29.50800
C  41.70800 45.47100 30.38400
O  42.91300 45.48600 30.18100
O  41.12400 46.10600 31.46400
C  42.06700 46.48700 32.45200
H  43.78200 38.66300 29.38100
H  42.98900 38.60300 22.80200
H  40.92300 44.56400 23.13900
H  42.30600 42.87800 31.18400
H  42.24900 39.98000 31.13500
H  44.84400 41.57300 30.65000
H  44.41800 40.04600 31.58000
H  44.07400 41.65100 32.21900
H  40.38100 40.69100 31.58500
H  39.58200 41.96700 30.75700
H  39.35500 43.29100 32.52700
H  41.01400 43.26900 32.87400
H  45.82200 36.52700 27.15000
H  44.44000 35.67900 27.75300
H  45.00400 37.10400 28.59700
H  44.73200 34.34100 24.10800
H  44.13500 34.90500 25.69200
H  45.81300 35.26300 25.16600
H  41.24300 40.26600 21.30900
H  42.08400 43.19800 21.57700
H  43.47800 41.73500 20.34700
H  43.26300 39.97200 20.03500
H  44.16700 40.69000 21.38200
H  39.33300 42.93600 22.07000
H  39.57400 41.68500 21.00800
H  39.40800 42.84300 19.35700
H  41.01800 43.60900 19.77400
H  39.50600 44.40700 20.29600
H  40.11100 46.53400 23.90700
H  40.59700 47.53100 25.28500
H  38.98500 46.81000 25.23700
H  39.83300 44.64300 30.14200
H  42.61800 47.37600 32.14600
H  42.79100 45.74800 32.79300
H  41.52900 46.94700 33.28100

