158

Mg 29.43200 58.69200 41.73700
C  26.35300 57.18700 40.32000
C  31.00200 55.87800 40.16400
C  32.16900 60.31700 41.78600
C  27.41900 61.53800 42.19600
N  28.76900 56.80000 40.40800
C  27.53500 56.51900 39.97000
C  27.49400 55.20500 39.11600
C  28.83400 54.52500 39.60200
C  29.59300 55.84800 40.01600
C  28.77400 53.56000 40.80700
C  27.38700 55.43400 37.57300
C  26.45300 54.53300 36.74200
H  25.53600 55.24000 35.67000
N  31.42400 58.09300 41.22100
C  31.86200 56.92000 40.63700
C  33.28300 57.01800 40.59100
C  33.70200 58.34700 41.08900
C  32.41100 58.93300 41.38500
C  34.20300 55.97200 40.11300
C  35.03100 58.94400 41.19400
O  35.98600 58.26400 40.84100
C  35.36700 60.22300 41.72000
N  29.76300 60.59600 41.95800
C  30.99800 61.01700 42.10900
C  31.02800 62.51100 42.49300
C  29.56300 62.96600 42.48300
C  28.85400 61.61500 42.25200
C  31.86000 62.84800 43.78300
C  29.18400 63.96200 41.34300
C  28.33900 65.21600 41.76900
N  27.21900 59.25000 41.57700
C  26.58100 60.41200 41.86900
C  25.18200 60.25500 41.63300
C  25.00400 59.01100 41.06500
C  26.31400 58.38700 41.03400
C  24.08400 61.28500 41.86800
C  24.07200 58.12300 40.33300
O  22.89000 58.15700 40.06200
C  24.90000 56.93600 39.99800
C  24.49400 55.71800 40.77600
O  24.84500 55.42900 41.91000
O  23.54400 55.08500 40.00600
C  23.16500 53.73200 40.32800
H  31.64600 55.07700 39.79500
H  33.06000 60.89800 42.03200
H  26.79000 62.41800 42.34200
H  26.69000 54.53700 39.42400
H  29.36500 54.05500 38.77400
H  27.75300 53.21600 40.97100
H  29.14300 54.16600 41.63400
H  29.56300 52.84500 40.57400
H  28.35500 55.35600 37.07900
H  27.09100 56.47300 37.43000
H  25.75300 53.98100 37.36900
H  27.05500 53.76400 36.25800
H  34.03400 55.04500 40.66000
H  35.27700 56.15300 40.14400
H  33.89800 55.70500 39.10100
H  35.10600 60.99300 40.99400
H  36.45600 60.21500 41.77900
H  34.96600 60.43200 42.71100
H  31.43500 62.99400 41.60400
H  29.35100 63.43400 43.44400
H  32.46800 62.02000 44.14600
H  31.24100 63.21900 44.60000
H  32.60600 63.63300 43.65800
H  28.62200 63.46400 40.55300
H  30.02300 64.36500 40.77500
H  28.88200 66.12000 41.49200
H  28.19700 65.23000 42.85000
H  27.35600 65.23400 41.29700
H  23.98500 61.59700 42.90700
H  23.13500 60.85400 41.55100
H  24.28300 62.23500 41.37100
H  24.70900 56.79800 38.93400
H  23.09600 53.16100 39.40200
H  22.16300 53.77300 40.75600
H  23.91900 53.25500 40.95400
Mg 6.19900 56.65300 42.52800
C  4.90800 53.52300 41.73800
C  9.23400 55.69700 41.15300
C  7.09700 59.94300 42.19500
C  2.99600 57.57500 43.56400
N  6.92100 54.91300 41.36700
C  6.25100 53.70000 41.25100
C  7.15200 52.63200 40.68800
C  8.56200 53.28600 40.87900
C  8.24900 54.76500 41.15300
C  9.43200 52.67000 42.04900
C  6.88400 52.11200 39.15000
C  7.11400 50.61700 38.94700
H  6.46500 50.12600 37.77500
N  7.97600 57.67700 41.87600
C  9.08700 57.11900 41.47400
C  10.10700 58.12600 41.30200
C  9.55700 59.33000 41.69500
C  8.17400 59.00400 41.97900
C  11.52500 57.76200 40.96900
C  10.35500 60.62500 41.91300
O  11.48600 60.77000 41.56000
C  9.76300 61.72600 42.74000
N  5.22800 58.47500 42.80000
C  5.78500 59.74100 42.45400
C  4.71400 60.84800 42.57400
C  3.39400 60.05500 42.95000
C  3.85500 58.58400 43.12400
C  4.94200 62.11400 43.41900
C  2.10500 60.19000 41.98900
C  0.74800 60.62100 42.63000
N  4.34700 55.76900 42.81500
C  3.15200 56.23100 43.30500
C  2.20300 55.15600 43.46200
C  2.87500 54.02200 42.91500
C  4.12300 54.49800 42.40500
C  0.80800 55.23900 43.93900
C  2.74700 52.63100 42.61700
O  1.82600 51.81700 42.81300
C  4.11700 52.25100 41.89700
C  3.75100 51.64200 40.65100
O  3.65800 52.19600 39.60800
O  3.50100 50.28100 40.85600
C  3.11100 49.38800 39.73500
H  10.27600 55.42000 40.98200
H  7.37100 60.99500 42.08900
H  2.02700 57.91200 43.93600
H  7.06000 51.73600 41.30200
H  9.08500 53.24800 39.92300
H  8.89600 51.87600 42.57000
H  9.61200 53.50500 42.72600
H  10.34300 52.28800 41.58700
H  7.53200 52.64500 38.45400
H  5.90400 52.52600 38.91400
H  6.78000 50.08700 39.83900
H  8.20300 50.62800 38.90400
H  11.87400 58.57100 40.32800
H  11.64200 56.78600 40.49800
H  12.13600 57.72100 41.87100
H  9.08800 61.29400 43.47800
H  9.20900 62.43000 42.12000
H  10.53100 62.34200 43.20800
H  4.73300 61.24600 41.56000
H  3.14500 60.31500 43.97900
H  5.99800 62.28400 43.62800
H  4.44900 62.02900 44.38800
H  4.64900 63.02700 42.90100
H  2.05300 59.17100 41.60400
H  2.34400 60.96600 41.26200
H  -0.03000 59.85900 42.58600
H  0.33900 61.52300 42.17500
H  1.05600 60.86200 43.64800
H  0.16000 55.57000 43.12700
H  0.80100 56.02000 44.69900
H  0.46800 54.26700 44.29500
H  4.60800 51.49400 42.50900
H  3.02500 49.92000 38.78800
H  2.10800 49.02200 39.95200
H  3.89600 48.63400 39.66800

