158

Mg 47.11300 16.58300 28.05500
C  44.88200 16.52700 30.68900
C  49.36200 18.41200 30.14600
C  48.78600 17.48900 25.28700
C  44.63100 15.18100 26.04800
N  47.04200 17.40000 30.14300
C  46.07100 17.18200 31.03900
C  46.44100 17.74400 32.38500
C  47.79300 18.57900 32.10200
C  48.14000 18.00100 30.75200
C  47.74200 20.14900 32.12300
C  46.63100 16.67300 33.45600
C  46.18000 16.90800 34.97900
H  45.79300 18.36500 35.38900
N  48.93200 17.60300 27.76800
C  49.64700 18.26300 28.71800
C  50.74400 18.90600 28.07700
C  50.62800 18.71400 26.65800
C  49.41700 17.89500 26.50400
C  51.89000 19.64800 28.87000
C  51.61400 19.08200 25.57600
O  51.39800 18.90100 24.38900
C  52.83900 19.93200 25.91600
N  46.83200 16.25700 26.03900
C  47.66800 16.70100 25.07000
C  47.17600 16.29800 23.64700
C  45.84000 15.50500 23.96200
C  45.85100 15.48300 25.47200
C  46.95400 17.59300 22.73100
C  45.65100 14.06300 23.37700
C  44.83300 13.98700 22.07900
N  45.15200 15.83600 28.30500
C  44.25200 15.31200 27.36200
C  42.93500 15.06300 27.95900
C  43.10300 15.48900 29.31100
C  44.50800 15.92100 29.45200
C  41.71400 14.38700 27.29700
C  42.46400 15.62000 30.54500
O  41.32600 15.35800 30.97000
C  43.61900 16.21000 31.45900
C  42.97500 17.49700 31.94400
O  42.65300 18.48900 31.31600
O  42.78800 17.40100 33.33100
C  42.11400 18.52700 34.00300
H  49.95700 19.14400 30.69600
H  49.34300 17.72800 24.37900
H  43.82700 14.87400 25.37700
H  45.72900 18.46600 32.78500
H  48.59900 18.32700 32.79100
H  46.84200 20.46200 32.65200
H  48.00100 20.58200 31.15700
H  48.54000 20.49600 32.77900
H  47.68700 16.44800 33.60200
H  46.14200 15.72800 33.22000
H  47.01300 16.67000 35.63900
H  45.37000 16.24000 35.27300
H  52.91500 19.51600 28.52400
H  51.92500 19.32100 29.90900
H  51.76700 20.72800 28.78000
H  53.59700 19.37500 26.46600
H  52.50100 20.74300 26.56200
H  53.05700 20.40400 24.95800
H  47.93100 15.58600 23.31300
H  44.94800 16.06000 23.67200
H  45.91300 17.76400 22.45800
H  47.49500 17.44000 21.79700
H  47.24500 18.51300 23.23900
H  45.21500 13.42800 24.14900
H  46.59500 13.54400 23.21600
H  43.91300 13.41100 22.18400
H  45.45200 13.57100 21.28400
H  44.53400 14.96200 21.69600
H  41.06400 15.11600 26.81400
H  41.26700 13.79900 28.09900
H  42.13200 13.64400 26.61800
H  44.00600 15.57400 32.25500
H  42.83500 19.34400 34.03500
H  42.06400 18.22100 35.04800
H  41.10300 18.80500 33.70400
Mg -11.73500 37.74800 42.74100
C  -9.54000 35.17300 41.88700
C  -9.46300 39.95600 41.16000
C  -13.89500 40.02100 43.24100
C  -14.08000 35.24400 43.82500
N  -9.74300 37.56700 41.55500
C  -9.05100 36.40100 41.42000
C  -7.83600 36.64300 40.55800
C  -7.65100 38.15800 40.65800
C  -9.03900 38.62100 41.19600
C  -6.49800 38.78700 41.56000
C  -7.98500 35.99200 39.12100
C  -7.15000 36.59000 37.99800
H  -6.50600 35.59400 37.00200
N  -11.73100 39.71000 42.23000
C  -10.67800 40.42400 41.69200
C  -11.10900 41.83500 41.71900
C  -12.41000 41.90800 42.30600
C  -12.67900 40.48600 42.65100
C  -10.20000 42.95700 41.21000
C  -13.16500 43.12700 42.55700
O  -12.68100 44.20400 42.18600
C  -14.60300 43.24600 43.01700
N  -13.87800 37.63000 43.21400
C  -14.44000 38.79400 43.54900
C  -15.75200 38.59700 44.35300
C  -15.65700 37.04400 44.68400
C  -14.51600 36.60000 43.81600
C  -16.03600 39.43500 45.61300
C  -16.99600 36.21400 44.54100
C  -17.39900 35.42200 45.82400
N  -11.92500 35.67900 42.83400
C  -12.86800 34.80000 43.37000
C  -12.36100 33.43200 43.31800
C  -11.01000 33.53000 42.83500
C  -10.77900 34.92700 42.48600
C  -13.15900 32.17200 43.60400
C  -9.86000 32.78600 42.52600
O  -9.54200 31.61200 42.78200
C  -8.82800 33.80800 41.89100
C  -7.52700 33.85100 42.68400
O  -7.27500 34.63800 43.58300
O  -6.66900 32.90800 42.20500
C  -5.33200 32.86400 42.82000
H  -8.80300 40.68600 40.68700
H  -14.56300 40.81300 43.58900
H  -14.75700 34.49700 44.24500
H  -7.01200 36.09300 41.01400
H  -7.54300 38.56600 39.65300
H  -6.90600 39.26000 42.45300
H  -5.97300 39.57600 41.02300
H  -5.87200 37.95700 41.88800
H  -9.05900 35.97100 38.93600
H  -7.74800 34.92800 39.13200
H  -6.32500 37.04600 38.54500
H  -7.70300 37.39500 37.51400
H  -9.15800 42.63900 41.23300
H  -10.27000 43.94500 41.66600
H  -10.37000 43.17500 40.15500
H  -15.18300 42.47200 42.51400
H  -14.99100 44.17500 42.59800
H  -14.65900 43.10500 44.09600
H  -16.61000 38.80400 43.71300
H  -15.30300 36.91400 45.70700
H  -16.81400 40.16200 45.38100
H  -15.13900 40.00700 45.85200
H  -16.47600 38.89300 46.45000
H  -16.72100 35.56800 43.70700
H  -17.85300 36.81500 44.23500
H  -16.61100 35.60200 46.55400
H  -17.47900 34.34500 45.67300
H  -18.38800 35.78700 46.10100
H  -12.73600 31.42800 42.93000
H  -14.20900 32.32100 43.35100
H  -13.05400 31.89500 44.65300
H  -8.49000 33.48200 40.90700
H  -4.62100 32.41400 42.12800
H  -5.28100 32.24300 43.71500
H  -4.94600 33.84700 43.08900

