158

Mg 23.66000 -5.54300 47.26900
C  25.79800 -3.19700 45.69900
C  21.22600 -4.51600 45.09700
C  21.75200 -8.19700 48.46300
C  26.37500 -6.70300 49.00900
N  23.55500 -4.00200 45.53200
C  24.52800 -3.12600 45.13100
C  24.06500 -2.22700 43.95100
C  22.50600 -2.63500 43.94400
C  22.39700 -3.74400 44.91700
C  21.55000 -1.44100 44.28200
C  24.76600 -2.43200 42.51400
C  25.42500 -1.22200 41.73400
H  25.19500 -1.14100 40.19800
N  21.73000 -6.19400 46.90700
C  20.89300 -5.59100 45.98500
C  19.65900 -6.38200 45.82000
C  19.73500 -7.37200 46.87900
C  21.03300 -7.30100 47.50300
C  18.54300 -6.12100 44.78700
C  18.63700 -8.36100 47.12000
O  17.62100 -8.57300 46.39300
C  18.83300 -9.25400 48.26600
N  24.01300 -7.17300 48.54900
C  23.09900 -8.17500 48.89200
C  23.67700 -9.21400 49.92800
C  25.01500 -8.50200 50.31400
C  25.16500 -7.39400 49.21600
C  22.79500 -9.51700 51.14800
C  26.26100 -9.51300 50.34000
C  26.98600 -9.58500 51.62500
N  25.69000 -5.15600 47.26500
C  26.63800 -5.66100 48.05600
C  27.85400 -4.95800 47.87800
C  27.53600 -3.96500 46.92900
C  26.23400 -4.11400 46.61600
C  29.18200 -5.18900 48.46800
C  28.09600 -2.87900 46.17000
O  29.22600 -2.51200 46.14400
C  27.00100 -2.41400 45.26800
C  26.84300 -0.95800 45.31900
O  26.07600 -0.33200 46.04700
O  27.53200 -0.40900 44.25300
C  27.27500 0.98000 43.86500
H  20.49700 -4.17800 44.35700
H  21.20300 -9.03700 48.89500
H  27.14400 -7.02200 49.71600
H  24.18600 -1.17900 44.22700
H  22.20700 -2.97900 42.95400
H  22.04000 -0.65300 44.85300
H  20.68500 -1.75700 44.86400
H  21.10400 -1.00500 43.38800
H  23.95000 -2.89200 41.95700
H  25.55700 -3.16400 42.67400
H  26.49600 -1.14300 41.91800
H  25.00600 -0.33900 42.21800
H  18.53200 -6.95500 44.08500
H  18.54600 -5.09900 44.40600
H  17.65300 -6.23000 45.40600
H  17.86500 -9.73500 48.40900
H  19.08100 -8.69200 49.16600
H  19.57000 -9.95200 47.86900
H  23.85400 -10.15100 49.40100
H  24.85200 -7.97200 51.25200
H  22.10100 -8.69100 51.30500
H  23.41600 -9.90200 51.95600
H  22.14100 -10.32600 50.82000
H  27.00600 -9.10300 49.65800
H  26.03800 -10.55100 50.09100
H  27.72800 -8.78700 51.65400
H  27.56200 -10.51000 51.61400
H  26.25800 -9.62800 52.43600
H  29.67200 -5.80100 47.71100
H  29.04200 -5.79300 49.36500
H  29.79200 -4.29000 48.55000
H  27.40600 -2.62200 44.27800
H  27.96300 1.35800 43.10900
H  27.22200 1.70300 44.67900
H  26.26600 0.93200 43.45500
Mg 47.92100 25.28600 27.81200
C  48.74600 27.76800 30.14500
C  46.92200 23.22500 30.14800
C  47.47500 22.93700 25.32600
C  49.17000 27.54100 25.32800
N  47.97100 25.43900 29.97600
C  48.17200 26.56000 30.73600
C  47.81600 26.29300 32.21100
C  47.44300 24.71100 32.19800
C  47.39600 24.42700 30.67800
C  48.44700 23.75200 32.91000
C  46.80700 27.23900 32.80600
C  46.12700 26.87600 34.17600
H  45.93500 27.90100 35.33400
N  47.24500 23.32900 27.74600
C  46.76500 22.63600 28.82600
C  46.01500 21.40200 28.47500
C  46.16400 21.39700 27.04700
C  46.96500 22.55100 26.57400
C  45.42300 20.50300 29.43000
C  45.46400 20.42800 26.03300
O  45.46300 20.66800 24.82600
C  44.57700 19.40600 26.57400
N  48.37400 25.20200 25.58200
C  48.00100 24.14200 24.86300
C  48.30500 24.47900 23.42900
C  48.57500 26.01000 23.36200
C  48.72800 26.31400 24.77000
C  49.33100 23.57800 22.60500
C  47.45600 26.84900 22.80600
C  47.84700 27.93400 21.78700
N  48.83300 27.19400 27.67100
C  49.34900 27.92300 26.65000
C  50.00500 29.08400 27.11300
C  49.84300 29.09400 28.46200
C  49.08700 27.92700 28.80200
C  50.70000 30.14100 26.37300
C  50.13700 29.81500 29.69600
O  50.77600 30.84500 29.85300
C  49.35800 29.04900 30.86700
C  50.26900 28.59100 31.94500
O  51.08200 27.67100 31.89600
O  50.20500 29.45100 33.05000
C  51.10600 29.24900 34.18000
H  46.46100 22.71000 30.99300
H  47.24700 22.19900 24.55500
H  49.49900 28.22700 24.54400
H  48.75500 26.33400 32.76200
H  46.47400 24.45600 32.62600
H  48.90400 23.07900 32.18400
H  47.88700 23.03900 33.51500
H  49.20800 24.29000 33.47500
H  45.91500 27.13300 32.18700
H  47.21600 28.24400 32.90900
H  46.80100 26.16200 34.65000
H  45.11400 26.53000 33.97400
H  46.05700 19.67300 29.74500
H  44.47200 20.21500 28.98300
H  45.17200 21.03900 30.34500
H  44.38700 18.85000 25.65600
H  43.69200 20.01700 26.75100
H  44.96700 18.84100 27.42000
H  47.32900 24.33000 22.96700
H  49.54800 26.21800 22.91500
H  48.78500 23.23900 21.72400
H  49.60300 22.67900 23.15700
H  50.23200 24.11100 22.30200
H  46.85200 27.39900 23.52700
H  46.71600 26.27300 22.25000
H  47.39700 27.71900 20.81700
H  48.92400 28.02800 21.64900
H  47.50000 28.89500 22.16700
H  51.02900 29.76500 25.40400
H  51.49400 30.62100 26.94400
H  49.97900 30.88300 26.02800
H  48.55500 29.71000 31.19300
H  50.87300 28.38000 34.79600
H  51.05100 30.14400 34.79900
H  52.14100 29.07000 33.89200

