158

Mg 53.88800 24.07100 46.21200
C  51.19300 26.08000 45.01100
C  52.01700 21.28000 45.03500
C  56.50600 22.22600 46.68700
C  55.64300 26.97400 46.91800
N  51.81500 23.79700 45.14400
C  50.93800 24.76400 44.76700
C  49.71500 24.14600 44.08000
C  49.79300 22.71600 44.69500
C  51.31200 22.57300 44.94000
C  49.08900 22.51900 46.04800
C  49.73700 24.13600 42.47900
C  48.40800 24.70800 41.96500
H  47.96900 24.43700 40.47500
N  54.26800 22.03900 45.93800
C  53.34900 21.12500 45.31500
C  54.08900 19.86300 45.25000
C  55.35300 20.07300 45.81900
C  55.44800 21.45600 46.21400
C  53.47200 18.61300 44.58900
C  56.37100 18.95700 46.01500
O  56.24600 17.80800 45.53100
C  57.55100 19.13500 46.90000
N  55.75700 24.53300 46.70400
C  56.70700 23.55600 46.95300
C  58.01700 24.05100 47.52300
C  57.73000 25.63100 47.55000
C  56.27900 25.74100 47.08500
C  58.52800 23.41600 48.80300
C  58.66700 26.51900 46.68900
C  59.15400 27.87300 47.24800
N  53.48200 26.09800 46.13100
C  54.30000 27.12700 46.49700
C  53.52600 28.35300 46.48800
C  52.37000 28.05800 45.80600
C  52.31400 26.67500 45.64900
C  53.80600 29.64000 47.24600
C  51.05600 28.56500 45.36200
O  50.56100 29.68000 45.43900
C  50.36300 27.35100 44.67200
C  50.35400 27.65400 43.21700
O  51.22500 27.44600 42.39400
O  49.09500 27.97000 42.84900
C  48.87000 28.28100 41.46900
H  51.31100 20.45600 44.91300
H  57.44400 21.69300 46.85700
H  56.13700 27.91700 47.16300
H  48.78100 24.58400 44.43100
H  49.49700 21.89100 44.04600
H  48.41900 21.65900 46.05200
H  48.45600 23.36500 46.31400
H  49.82100 22.33300 46.83400
H  49.80300 23.07800 42.22500
H  50.53800 24.75300 42.07100
H  48.40100 25.76900 42.21300
H  47.54600 24.26800 42.46700
H  54.07700 18.31100 43.73500
H  52.50000 18.86700 44.16600
H  53.29100 17.86900 45.36500
H  57.43000 19.88600 47.68100
H  58.37400 19.40300 46.23600
H  57.66200 18.16300 47.37900
H  58.80500 23.88400 46.78800
H  57.85600 25.92200 48.59300
H  57.95100 22.51000 48.98700
H  58.40300 24.00300 49.71300
H  59.58900 23.21200 48.65300
H  58.04100 26.92100 45.89200
H  59.52800 25.94200 46.35200
H  60.24100 27.87100 47.16000
H  58.98800 27.95000 48.32300
H  58.60000 28.70800 46.82100
H  52.84000 30.14300 47.28200
H  54.47300 30.21100 46.60000
H  54.27900 29.51200 48.21900
H  49.34100 27.31100 45.05100
H  49.61800 28.12900 40.69100
H  48.61500 29.34100 41.44000
H  47.98200 27.67000 41.30900
Mg 36.24200 49.06400 25.44600
C  36.42500 47.13500 28.34300
C  34.85800 51.55300 27.11200
C  36.13600 50.63800 22.46100
C  37.65000 46.20000 23.71700
N  35.74500 49.33100 27.51300
C  36.04000 48.45400 28.55300
C  35.85700 49.19800 29.90400
C  35.12400 50.55500 29.53200
C  35.27300 50.51800 27.94700
C  33.63400 50.61900 30.01400
C  37.14900 49.20500 30.74300
C  37.12300 48.82900 32.26500
H  35.70900 48.76600 32.95600
N  35.46400 50.85300 24.79200
C  34.90100 51.76900 25.69100
C  34.39900 52.88300 24.88000
C  34.83600 52.68000 23.57000
C  35.54500 51.38200 23.58600
C  33.80900 54.12000 25.46100
C  34.68200 53.59400 22.41900
O  35.29200 53.38600 21.37300
C  33.85900 54.88600 22.51900
N  36.77100 48.50000 23.39400
C  36.69600 49.38600 22.39700
C  37.16900 48.81500 21.08500
C  37.80800 47.42900 21.45100
C  37.34900 47.31900 22.89600
C  36.14200 48.65000 19.92600
C  39.40400 47.47700 21.26200
C  40.11200 46.17400 21.58900
N  36.85800 47.02300 25.86400
C  37.43500 46.02900 25.06400
C  37.79400 44.88700 25.92400
C  37.39400 45.27200 27.25100
C  36.80100 46.52300 27.09800
C  38.60000 43.69700 25.53300
C  37.25200 44.84300 28.67900
O  37.50200 43.78700 29.18500
C  36.67400 46.12400 29.42100
C  35.43100 45.63300 30.08800
O  34.31600 45.77900 29.64300
O  35.69000 45.14000 31.34200
C  34.60100 44.51900 32.08200
H  34.49700 52.48000 27.56400
H  36.12700 51.02800 21.44100
H  38.09500 45.30700 23.27200
H  35.14400 48.66700 30.53500
H  35.53800 51.47600 29.94200
H  33.42900 49.95800 30.85600
H  32.96700 50.22000 29.25000
H  33.29000 51.64000 30.18500
H  37.67400 50.16000 30.72500
H  37.86500 48.46300 30.38900
H  37.73700 49.46700 32.90100
H  37.49100 47.83900 32.53200
H  34.44400 54.91500 25.06800
H  33.89800 54.18000 26.54500
H  32.77500 54.25800 25.14600
H  32.96100 54.77900 23.12700
H  33.68000 55.20000 21.49100
H  34.52500 55.65400 22.91000
H  37.98900 49.44200 20.73500
H  37.43600 46.57700 20.88200
H  35.57500 49.57500 19.82600
H  35.47500 47.85300 20.25500
H  36.44100 48.36400 18.91800
H  39.81400 48.15800 22.00700
H  39.68600 47.94200 20.31700
H  40.86900 46.02700 20.81900
H  39.39200 45.35500 21.58800
H  40.58700 46.28400 22.56400
H  39.37600 44.04900 24.85400
H  38.05100 42.91600 25.00700
H  39.09700 43.29600 26.41700
H  37.43600 46.41300 30.14400
H  34.44100 43.63700 31.46200
H  33.71600 45.15200 32.15100
H  34.93900 44.34500 33.10300

