158

Mg 17.57000 -1.23700 28.63900
C  16.27600 0.66300 31.13000
C  19.20800 -3.14300 30.79500
C  19.05500 -2.74000 26.01700
C  16.07800 1.08100 26.35300
N  17.84800 -1.10200 30.76500
C  17.11600 -0.39500 31.57800
C  17.40900 -0.80600 33.03600
C  18.46000 -1.89600 32.89400
C  18.59500 -2.04000 31.38900
C  19.77400 -1.54400 33.54200
C  16.10600 -1.16200 33.79300
C  15.99300 -0.77200 35.23200
H  17.31300 -0.29400 36.00300
N  18.86000 -2.79500 28.41400
C  19.38500 -3.48500 29.49500
C  20.15200 -4.61100 29.04800
C  20.15200 -4.52600 27.60400
C  19.31700 -3.27300 27.29400
C  20.65300 -5.69300 29.95000
C  20.78800 -5.48200 26.58300
O  20.68300 -5.27900 25.38200
C  21.47500 -6.73000 27.07900
N  17.38800 -1.05800 26.37400
C  18.15800 -1.79200 25.60100
C  18.06200 -1.26800 24.17300
C  17.01000 -0.08200 24.21700
C  16.72500 -0.00600 25.73100
C  19.43100 -0.89400 23.50700
C  15.66700 -0.26000 23.37900
C  14.34000 -0.84100 23.98800
N  16.33600 0.49300 28.64900
C  15.83000 1.36700 27.71600
C  15.01400 2.45000 28.30000
C  15.16300 2.18300 29.70900
C  15.96000 1.02300 29.82900
C  14.26300 3.46700 27.55300
C  14.82900 2.69000 31.01000
O  14.10900 3.55300 31.39700
C  15.58900 1.74600 31.91700
C  16.46100 2.60100 32.78600
O  17.57900 3.01100 32.41900
O  15.85400 2.91800 33.96300
C  16.52800 3.88800 34.73300
H  19.69800 -3.67400 31.61400
H  19.47700 -3.19900 25.12000
H  15.70200 1.74300 25.57100
H  17.79900 0.07900 33.53800
H  18.28100 -2.85500 33.38100
H  20.01100 -2.19300 34.38600
H  19.66700 -0.56200 34.00200
H  20.53900 -1.49400 32.76700
H  16.06800 -2.23800 33.62000
H  15.26900 -0.71200 33.26100
H  15.63800 -1.71200 35.65400
H  15.26300 0.02000 35.39800
H  20.25300 -6.66100 29.64800
H  20.51300 -5.46400 31.00600
H  21.74200 -5.73500 29.96800
H  22.21100 -6.33100 27.77800
H  21.94300 -7.16200 26.19300
H  20.68300 -7.36300 27.48000
H  17.53900 -2.06000 23.63600
H  17.42400 0.86300 23.86500
H  20.28700 -1.03000 24.16800
H  19.38800 0.11700 23.10100
H  19.56700 -1.63600 22.72000
H  15.91900 -1.01100 22.63000
H  15.44200 0.73200 22.98700
H  13.55700 -0.08400 23.95600
H  14.42100 -1.10900 25.04200
H  13.95000 -1.66800 23.39400
H  13.63100 3.90600 28.32500
H  13.67700 2.97300 26.77800
H  14.97400 4.17300 27.12400
H  14.81600 1.32200 32.55700
H  16.72700 4.72100 34.05800
H  17.51200 3.56100 35.06700
H  15.89000 4.40100 35.45300
Mg 40.86400 9.53100 29.32700
C  42.81500 10.90900 32.12200
C  38.75700 8.25300 31.83900
C  39.14500 8.29700 26.95000
C  43.48500 10.45800 27.19300
N  40.82500 9.70900 31.75500
C  41.66000 10.29600 32.63700
C  41.19000 10.16600 34.15100
C  40.13100 8.94500 34.00500
C  39.85400 8.99500 32.47100
C  40.59600 7.47000 34.39600
C  40.71700 11.44000 34.87200
C  41.56400 11.95900 36.04700
H  40.80700 12.49100 37.33600
N  39.20400 8.37000 29.32800
C  38.42800 8.01500 30.46300
C  37.24700 7.35800 29.92600
C  37.28500 7.48400 28.54100
C  38.53800 8.06600 28.19300
C  36.12900 6.92200 30.87900
C  36.14700 7.14300 27.55400
O  36.32800 7.28500 26.33700
C  34.84100 6.69800 27.99300
N  41.17800 9.42400 27.37400
C  40.28500 8.85200 26.53900
C  40.90800 8.77500 25.08600
C  42.16100 9.63700 25.14900
C  42.28600 9.92700 26.62900
C  41.08800 7.33200 24.45400
C  42.10800 10.93700 24.28200
C  43.10400 10.95900 23.12000
N  42.79700 10.42400 29.56300
C  43.71800 10.71200 28.55100
C  44.88900 11.33400 29.16100
C  44.55800 11.50500 30.50600
C  43.30300 10.89900 30.74300
C  46.15700 11.76800 28.41200
C  44.91900 12.08700 31.85000
O  45.94300 12.66700 32.20000
C  43.88200 11.67100 32.86100
C  44.52200 10.90900 33.91500
O  44.97100 9.78600 33.83900
O  44.64800 11.70900 35.02100
C  45.47800 11.17700 36.05400
H  38.19100 7.72500 32.60900
H  38.50100 7.91600 26.15400
H  44.32200 10.80800 26.58600
H  42.01600 9.78900 34.75400
H  39.18500 9.10700 34.52200
H  41.60900 7.50600 34.79700
H  40.56900 6.70400 33.62200
H  39.96400 7.17700 35.23400
H  39.68400 11.27300 35.17700
H  40.65400 12.18000 34.07400
H  42.27400 12.64000 35.57900
H  42.10000 11.06500 36.36800
H  35.34000 7.67200 30.91000
H  36.50800 6.90000 31.90100
H  35.79400 5.91400 30.63400
H  34.52700 7.37100 28.79100
H  35.02200 5.73500 28.47000
H  34.25800 6.65800 27.07300
H  40.20500 9.15000 24.34300
H  43.02300 9.06100 24.81600
H  42.08900 6.92100 24.59100
H  40.82800 7.31000 23.39600
H  40.40300 6.63300 24.93400
H  42.17700 11.83100 24.90200
H  41.14500 11.00300 23.77700
H  43.86200 11.74200 23.14900
H  42.55500 11.15500 22.19900
H  43.66600 10.03700 22.96700
H  46.87600 12.18000 29.12000
H  45.95600 12.48900 27.61900
H  46.61300 10.88300 27.97000
H  43.69900 12.65000 33.30600
H  46.41600 10.84800 35.60800
H  44.92400 10.34900 36.49700
H  45.63400 11.94800 36.80900

