158

Mg 40.89100 9.34400 29.74600
C  42.59300 10.58700 32.74200
C  38.63200 8.06800 31.83200
C  39.32300 8.43200 27.12000
C  43.73400 10.06900 27.91600
N  40.61900 9.45700 32.16200
C  41.40300 9.97900 33.11700
C  40.79400 9.87700 34.46100
C  39.71000 8.77700 34.18300
C  39.64800 8.74600 32.60800
C  39.85700 7.44100 34.98400
C  40.28900 11.25200 35.04500
C  40.05300 11.23900 36.57800
H  40.67600 12.28400 37.55800
N  39.22300 8.46000 29.47400
C  38.36400 8.07300 30.46800
C  37.19000 7.38200 29.89600
C  37.41700 7.52900 28.46300
C  38.68400 8.13800 28.30400
C  35.99900 6.83300 30.66500
C  36.49500 7.03800 27.34300
O  36.79200 7.02800 26.17600
C  35.08900 6.65100 27.65500
N  41.44200 9.30300 27.75100
C  40.55900 9.01400 26.82900
C  41.21000 8.94800 25.40400
C  42.64100 9.47300 25.71000
C  42.66200 9.60000 27.18000
C  41.10500 7.70400 24.52200
C  43.06700 10.76300 24.96100
C  42.35800 12.05100 25.32600
N  42.78500 10.15400 30.13800
C  43.72100 10.57500 29.26400
C  44.67600 11.35500 29.92000
C  44.28500 11.40000 31.27600
C  43.09000 10.61400 31.37400
C  45.84800 11.92000 29.32000
C  44.71900 11.85800 32.59900
O  45.64700 12.51000 33.07300
C  43.60200 11.44800 33.52700
C  44.07800 10.69100 34.77400
O  44.49600 9.54600 34.65100
O  44.16800 11.38700 35.88100
C  44.56100 10.80500 37.14700
H  37.91600 7.45400 32.38200
H  38.75800 8.08300 26.25400
H  44.65000 10.26900 27.35600
H  41.48700 9.45700 35.19000
H  38.75900 9.23400 34.45600
H  39.94400 6.58400 34.31600
H  38.95100 7.46000 35.58900
H  40.77100 7.68600 35.52500
H  39.43700 11.58400 34.45100
H  41.01000 12.04800 34.86300
H  40.42600 10.32100 37.03100
H  38.99300 11.16800 36.82000
H  36.07400 7.15600 31.70300
H  35.88800 5.75100 30.58700
H  35.03900 7.19500 30.29800
H  34.36700 7.46000 27.76700
H  35.05700 5.86900 28.41400
H  34.83500 6.14400 26.72400
H  40.82100 9.78500 24.82500
H  43.45400 8.77000 25.52500
H  40.54700 6.88100 24.96800
H  42.08700 7.26900 24.33700
H  40.62500 7.97900 23.58300
H  42.96100 10.65200 23.88100
H  44.12800 10.81400 25.20100
H  43.18900 12.72700 25.52300
H  41.79500 11.92600 26.25100
H  41.74300 12.44700 24.51800
H  45.91300 11.94200 28.23300
H  46.73400 11.40400 29.69100
H  45.94200 12.97600 29.57500
H  43.20400 12.43800 33.75100
H  44.19500 11.57700 37.82500
H  45.63400 10.68900 37.30100
H  43.93600 9.91500 37.21500
Mg 49.61900 45.98600 42.14400
C  46.31300 46.79300 41.50100
C  49.15100 42.81700 40.66700
C  53.03200 45.53700 41.96800
C  50.15700 49.16200 43.37500
N  47.93500 44.97400 41.21700
C  46.75400 45.53400 40.96200
C  45.80400 44.67300 40.12100
C  46.69700 43.36200 39.99000
C  48.03100 43.74700 40.65000
C  46.05500 42.15700 40.59000
C  45.41700 45.39700 38.71500
C  43.95600 45.17300 38.42400
H  43.58300 44.77500 36.98400
N  50.87200 44.32600 41.55500
C  50.49200 43.10300 41.04100
C  51.63600 42.23600 40.86200
C  52.77000 43.03300 41.18400
C  52.30900 44.38600 41.55300
C  51.52700 40.85900 40.20400
C  54.19600 42.49200 41.18600
O  54.40100 41.27500 40.92700
C  55.42800 43.37700 41.60800
N  51.30200 47.17100 42.55500
C  52.65800 46.74700 42.45100
C  53.68600 47.84300 42.95500
C  52.73000 49.01500 43.39100
C  51.25600 48.40700 43.14500
C  54.73800 47.42500 44.03100
C  52.99800 50.40000 42.64900
C  53.69100 51.45300 43.50600
N  48.49100 47.69000 42.34700
C  48.80900 48.86500 43.04200
C  47.66200 49.71800 43.17100
C  46.59700 48.86400 42.65600
C  47.18600 47.67200 42.08800
C  47.64600 51.08500 43.65300
C  45.10400 48.77000 42.38900
O  44.18600 49.48100 42.77400
C  44.86400 47.35400 41.63000
C  43.90300 46.52600 42.43100
O  43.99900 46.19500 43.59700
O  42.85500 46.09000 41.60500
C  41.90500 45.14900 42.28600
H  48.84100 41.83700 40.29800
H  54.10600 45.35500 42.04000
H  50.29500 50.14400 43.83200
H  44.96000 44.43000 40.76700
H  46.73300 43.17800 38.91600
H  46.24200 41.31900 39.91900
H  44.97100 42.23500 40.50800
H  46.33100 41.88500 41.60800
H  46.04500 44.92000 37.96300
H  45.63000 46.46500 38.77500
H  43.56800 46.18100 38.57200
H  43.59000 44.33300 39.01400
H  52.30500 40.09900 40.13100
H  51.19200 40.97100 39.17300
H  50.73100 40.27900 40.67000
H  55.11800 43.66300 42.61300
H  55.46800 44.20900 40.90600
H  56.35800 42.80800 41.62600
H  54.23900 48.04700 42.03800
H  52.87400 49.09800 44.46900
H  55.72700 47.66000 43.63800
H  54.64600 46.37600 44.31300
H  54.56200 48.08500 44.88100
H  52.08300 50.92700 42.38200
H  53.60100 50.25900 41.75100
H  54.71600 51.43600 43.13400
H  53.51500 51.23900 44.56000
H  53.30800 52.46500 43.36900
H  47.94200 51.78800 42.87400
H  48.20200 51.12800 44.59000
H  46.61900 51.36700 43.88600
H  44.38000 47.47600 40.66100
H  41.20200 44.64500 41.62300
H  41.46600 45.79100 43.05000
H  42.59100 44.44300 42.75300

