158

Mg -12.23100 16.56000 43.02000
C  -9.57900 14.37800 42.19400
C  -10.77800 19.01900 41.26700
C  -15.28100 17.87000 42.98100
C  -13.87000 13.44000 44.29500
N  -10.30500 16.61500 41.93200
C  -9.42700 15.67700 41.73100
C  -8.17200 16.28500 41.04800
C  -8.49400 17.81800 41.16700
C  -9.99100 17.90500 41.44600
C  -7.80600 18.44700 42.27500
C  -7.74600 15.83000 39.62000
C  -6.23700 15.55600 39.39600
H  -5.68100 16.53100 38.27900
N  -13.00300 18.29200 42.28400
C  -12.17600 19.22200 41.60300
C  -13.02000 20.27200 41.17100
C  -14.38800 19.94000 41.55100
C  -14.29300 18.63500 42.30500
C  -12.56700 21.45400 40.32100
C  -15.63000 20.75300 41.32600
O  -15.53500 21.85100 40.87100
C  -17.06600 20.32200 41.61800
N  -14.32200 15.71100 43.52700
C  -15.37300 16.56300 43.41500
C  -16.66200 15.78200 43.60900
C  -16.26800 14.42900 44.26500
C  -14.72700 14.55000 44.05000
C  -17.71700 16.58900 44.44700
C  -16.99400 13.22700 43.73000
C  -18.21200 12.65700 44.47600
N  -11.78900 14.34800 43.35900
C  -12.49900 13.30500 43.92500
C  -11.79600 12.04600 43.74700
C  -10.59400 12.46100 43.15300
C  -10.68100 13.86600 42.96500
C  -12.17800 10.61200 44.12500
C  -9.29400 11.98000 42.62500
O  -8.78200 10.85100 42.70900
C  -8.57900 13.24600 42.05900
C  -7.29400 13.49800 42.73800
O  -7.23900 13.98400 43.86500
O  -6.18800 13.16800 41.91800
C  -4.88700 13.72500 42.35600
H  -10.26700 19.79800 40.69600
H  -16.22300 18.41100 43.08300
H  -14.37600 12.58200 44.74200
H  -7.45000 15.98000 41.80500
H  -8.14800 18.36500 40.29100
H  -6.80800 18.82800 42.05800
H  -7.67100 17.79700 43.14000
H  -8.42400 19.24200 42.69300
H  -8.06700 16.62000 38.94100
H  -8.40600 15.01600 39.31800
H  -6.32900 14.49300 39.17700
H  -5.71400 15.67600 40.34500
H  -12.99100 21.33700 39.32300
H  -11.48300 21.52200 40.23000
H  -12.78500 22.36600 40.87600
H  -17.34500 20.46700 42.66200
H  -17.33800 19.31100 41.31500
H  -17.64400 20.90200 40.89900
H  -17.02400 15.55200 42.60700
H  -16.32800 14.51100 45.35100
H  -18.43000 16.96500 43.71300
H  -17.28700 17.30400 45.14800
H  -18.18400 15.81300 45.05400
H  -16.26700 12.46000 43.46600
H  -17.38200 13.41200 42.72800
H  -18.14500 12.85700 45.54500
H  -18.32600 11.57600 44.39500
H  -19.16700 13.11900 44.22500
H  -11.50500 10.45300 44.96800
H  -11.96400 9.92900 43.30300
H  -13.20900 10.57200 44.47400
H  -8.51700 13.00800 40.99700
H  -4.60300 13.12700 43.22200
H  -4.99000 14.74100 42.73700
H  -4.18600 13.70400 41.52200
Mg -5.98300 25.01800 26.72600
C  -4.47000 26.39600 29.61800
C  -7.63600 22.79500 28.63300
C  -6.98000 23.62800 23.83800
C  -3.69600 26.97500 24.84700
N  -5.94100 24.57000 28.92000
C  -5.40700 25.34200 29.90100
C  -5.89700 24.79200 31.31200
C  -6.54400 23.36500 30.87200
C  -6.71800 23.57200 29.35800
C  -5.81800 22.03300 31.26700
C  -6.75000 25.84400 32.09700
C  -7.52000 25.51100 33.37100
H  -6.96900 24.67300 34.52600
N  -7.29900 23.58000 26.25800
C  -7.94700 22.79600 27.24000
C  -8.90000 21.93500 26.53300
C  -8.76900 22.12900 25.11400
C  -7.65000 23.17700 24.98300
C  -9.87100 21.11200 27.40600
C  -9.63500 21.58700 23.97300
O  -9.48700 21.88400 22.78700
C  -10.73200 20.59600 24.36200
N  -5.40500 25.28700 24.64700
C  -5.99100 24.58100 23.66000
C  -5.41000 24.89400 22.32400
C  -4.54300 26.19900 22.59700
C  -4.61800 26.25400 24.13100
C  -4.60600 23.60700 21.97000
C  -4.82400 27.56900 21.86300
C  -3.55400 28.17800 21.20800
N  -4.40600 26.35700 27.10000
C  -3.62700 27.09300 26.22900
C  -2.73700 27.97000 26.92300
C  -3.11600 27.77500 28.26000
C  -4.10600 26.76400 28.34000
C  -1.80500 29.02000 26.39200
C  -2.85700 28.19200 29.60300
O  -2.13000 29.06800 30.09700
C  -3.72900 27.26700 30.56900
C  -2.69200 26.50000 31.35700
O  -1.83500 25.83600 30.77200
O  -2.83900 26.60200 32.68800
C  -1.65500 25.96900 33.35800
H  -8.18100 21.98800 29.12800
H  -7.33000 23.15200 22.92000
H  -2.98100 27.59000 24.29700
H  -4.97600 24.45500 31.78800
H  -7.49600 23.18200 31.37100
H  -5.21700 21.67500 30.43100
H  -6.51800 21.21900 31.45800
H  -5.12300 22.12800 32.10100
H  -7.53300 26.14700 31.40200
H  -6.09300 26.65300 32.41700
H  -8.41800 25.01800 32.99800
H  -7.78800 26.49300 33.76000
H  -9.69200 20.04100 27.50900
H  -10.91400 21.29100 27.14700
H  -9.93300 21.51700 28.41600
H  -11.45600 21.13000 24.97800
H  -10.32000 19.80600 24.99000
H  -11.27700 20.14900 23.53100
H  -6.12900 25.06800 21.52400
H  -3.54900 25.84500 22.32300
H  -5.15500 23.17100 21.13500
H  -4.48300 22.90700 22.79600
H  -3.60400 23.87800 21.63600
H  -5.12300 28.37600 22.53200
H  -5.50900 27.36500 21.04000
H  -3.87900 28.43800 20.20000
H  -2.69300 27.51300 21.13600
H  -3.36900 29.09100 21.77300
H  -1.34000 28.63100 25.48600
H  -1.03400 29.25500 27.12600
H  -2.35600 29.94100 26.20000
H  -4.36100 27.68900 31.35100
H  -1.34300 26.73900 34.06300
H  -0.79800 25.76700 32.71500
H  -1.87200 24.98100 33.76500

