158

Mg 35.57400 2.24200 28.96300
C  33.55300 3.35000 31.47500
C  38.20500 2.12900 31.20700
C  37.68300 1.59700 26.43400
C  32.99700 2.86400 26.68300
N  35.81500 2.78900 31.06000
C  34.82200 3.09900 31.92600
C  35.29600 3.17300 33.37000
C  36.83900 3.19200 33.13200
C  37.03100 2.72200 31.71200
C  37.46900 4.54900 33.58300
C  34.79900 2.03300 34.23600
C  34.37400 2.34900 35.69400
H  34.78700 3.59100 36.36700
N  37.61400 1.69900 28.89600
C  38.51700 1.68500 29.94400
C  39.68900 1.03100 29.53800
C  39.61900 0.85400 28.07900
C  38.25800 1.36300 27.71800
C  40.81300 0.70900 30.45600
C  40.60000 0.20800 27.11700
O  40.33600 0.24800 25.92100
C  41.85800 -0.50100 27.59600
N  35.39200 2.34300 26.89800
C  36.43500 2.08300 26.06300
C  36.11000 2.25500 24.57900
C  34.59700 2.52400 24.68500
C  34.25900 2.52700 26.18700
C  37.00900 3.35400 23.89100
C  33.74600 1.53400 23.85100
C  32.56000 2.03500 22.98400
N  33.69200 2.97400 29.03900
C  32.73800 3.08500 28.03900
C  31.45900 3.43000 28.66200
C  31.71500 3.60300 30.01000
C  33.09300 3.29700 30.11800
C  30.17600 3.70300 27.93500
C  31.13800 3.70200 31.30700
O  29.92600 3.91800 31.47500
C  32.27100 3.64700 32.29600
C  32.22900 4.97000 33.01500
O  32.58200 6.01000 32.57700
O  31.63000 4.80000 34.24000
C  31.18000 5.99100 34.97300
H  39.00800 2.02200 31.93900
H  38.34400 1.33300 25.60500
H  32.27400 3.06000 25.88800
H  34.88600 4.05300 33.86500
H  37.37900 2.42600 33.68800
H  38.36300 4.34300 34.17100
H  36.76700 5.15000 34.16200
H  37.73000 5.09900 32.67900
H  35.43600 1.14800 34.25700
H  33.94000 1.59200 33.72900
H  34.75800 1.55400 36.33300
H  33.28600 2.28100 35.69400
H  40.97200 -0.36100 30.58500
H  40.61200 1.13700 31.43800
H  41.65400 1.24200 30.01200
H  42.56600 0.07300 28.19300
H  42.18800 -1.02900 26.70100
H  41.57200 -1.35000 28.21700
H  36.27200 1.26500 24.15200
H  34.36200 3.55400 24.41700
H  37.63100 2.94900 23.09200
H  37.81600 3.79000 24.48000
H  36.37200 4.20800 23.66300
H  33.34300 0.76200 24.50600
H  34.30400 1.00500 23.07700
H  31.60800 1.99700 23.51300
H  32.44700 1.23700 22.25000
H  32.78700 2.97600 22.48300
H  30.25600 3.15300 26.99700
H  29.99700 4.76900 27.79300
H  29.33100 3.36400 28.53500
H  31.97500 2.84800 32.97600
H  30.96100 6.81600 34.29600
H  31.99800 6.27900 35.63300
H  30.26000 5.71900 35.49100
Mg 26.86800 49.73700 26.98300
C  24.79200 50.84400 29.50200
C  29.25300 48.94300 29.30800
C  29.01300 49.03600 24.39800
C  24.67400 51.24100 24.56700
N  27.02200 49.83500 29.13800
C  25.94200 50.13500 29.98100
C  26.23300 49.98600 31.51800
C  27.80200 49.52300 31.39400
C  28.05000 49.41600 29.88400
C  28.92800 50.43400 32.06900
C  25.27100 48.94400 32.08700
C  24.60700 49.45900 33.44600
H  24.43300 48.49800 34.60300
N  28.79200 48.90300 26.87900
C  29.60700 48.58400 27.95600
C  30.81700 48.07700 27.42700
C  30.81400 48.21600 26.02500
C  29.45100 48.66400 25.67100
C  31.94000 47.61000 28.34700
C  31.88100 47.94300 25.03900
O  31.75300 48.02600 23.81600
C  33.22700 47.56600 25.54900
N  26.85500 50.04700 24.79600
C  27.87000 49.67300 23.99600
C  27.44000 49.90100 22.46600
C  25.99700 50.47400 22.56600
C  25.81600 50.59400 24.07300
C  28.46200 50.64800 21.50900
C  24.85800 49.69200 21.83200
C  24.62900 48.28600 22.38400
N  25.14000 50.88700 27.02100
C  24.31500 51.45900 25.97200
C  23.22800 52.13900 26.51800
C  23.38400 51.91800 27.87600
C  24.44400 51.07500 28.12000
C  22.25600 52.95500 25.77300
C  22.81500 52.21700 29.18600
O  21.84300 52.90400 29.37800
C  23.63000 51.57300 30.28200
C  24.01200 52.56000 31.27500
O  24.93800 53.36200 31.19400
O  23.13600 52.47100 32.35600
C  23.37600 53.43400 33.43700
H  29.96700 48.64000 30.07700
H  29.58300 48.64900 23.55100
H  23.93700 51.62000 23.85700
H  26.18900 50.96500 31.99600
H  27.96800 48.58500 31.92300
H  29.55800 50.92300 31.32700
H  29.56400 49.77700 32.66200
H  28.40800 51.14500 32.71200
H  25.78900 48.06200 32.46500
H  24.54500 48.68500 31.31600
H  23.64500 49.91600 33.21100
H  25.19700 50.27900 33.85500
H  32.90200 48.08700 28.16000
H  32.14700 46.54200 28.27700
H  31.61700 47.73100 29.38100
H  33.99900 47.41100 24.79500
H  33.07300 46.63100 26.08700
H  33.56300 48.30900 26.27200
H  27.40600 48.92400 21.98200
H  26.00600 51.53300 22.30600
H  28.04100 51.38400 20.82400
H  28.91300 49.94800 20.80600
H  29.23500 51.20500 22.03800
H  25.06000 49.54500 20.77100
H  23.96300 50.30700 21.92900
H  25.33600 48.05900 23.18200
H  24.73800 47.46100 21.68100
H  23.61600 48.24700 22.78500
H  21.32800 52.40800 25.94100
H  22.38200 53.07400 24.69700
H  22.18700 53.91600 26.28300
H  22.95600 50.80700 30.66400
H  23.47000 54.48800 33.17400
H  24.30300 53.06500 33.87700
H  22.57400 53.37400 34.17300

