158

Mg -2.13500 17.14000 26.39500
C  -2.56400 14.88800 28.93000
C  -2.83600 19.69300 28.62200
C  -2.19300 19.38300 23.72300
C  -2.28900 14.49600 24.00100
N  -2.50900 17.22700 28.53400
C  -2.52200 16.21900 29.42800
C  -2.79800 16.66300 30.94500
C  -3.12200 18.19500 30.64900
C  -2.80000 18.41000 29.15800
C  -4.53000 18.69100 31.16800
C  -1.59000 16.33800 31.91800
C  -1.99100 15.70500 33.23300
H  -2.52000 16.57600 34.32700
N  -2.21000 19.22500 26.22700
C  -2.49100 20.08000 27.28400
C  -2.39300 21.41900 26.70000
C  -2.19200 21.36400 25.28200
C  -2.19900 19.94000 25.02500
C  -2.64300 22.67400 27.59300
C  -1.91800 22.56500 24.31200
O  -1.95800 22.33300 23.08900
C  -1.69700 23.96200 24.68700
N  -2.36500 16.94200 24.15800
C  -2.33800 17.99700 23.31800
C  -2.39500 17.58800 21.84800
C  -2.27300 16.04500 21.97800
C  -2.34300 15.74800 23.44500
C  -3.62300 18.05800 21.04300
C  -0.91500 15.57600 21.34900
C  0.37800 15.97700 22.14000
N  -2.37000 15.18600 26.40100
C  -2.40300 14.20100 25.36600
C  -2.64600 12.91500 25.92400
C  -2.75400 13.19000 27.32600
C  -2.47900 14.52100 27.56600
C  -2.63000 11.57800 25.20500
C  -2.92100 12.51700 28.57600
O  -3.05000 11.34500 28.99000
C  -2.91100 13.64300 29.67800
C  -1.83600 13.24800 30.69600
O  -0.63300 13.42000 30.59800
O  -2.38400 12.47700 31.71600
C  -1.55400 12.07300 32.84100
H  -3.20100 20.38900 29.38000
H  -2.03300 20.07300 22.89200
H  -2.16700 13.66000 23.30900
H  -3.73900 16.12400 31.04600
H  -2.44300 18.74700 31.29900
H  -4.49200 19.60100 31.76700
H  -4.91400 17.99000 31.90800
H  -5.26600 18.84900 30.38000
H  -1.05200 17.25000 32.17500
H  -0.87500 15.67000 31.43600
H  -1.03000 15.26100 33.49300
H  -2.75900 14.94500 33.09400
H  -3.09600 22.52400 28.57200
H  -3.34700 23.32800 27.07800
H  -1.65000 23.10600 27.71400
H  -0.68000 24.02900 25.07400
H  -2.44800 24.22200 25.43300
H  -1.75100 24.63700 23.83200
H  -1.43400 17.89700 21.43800
H  -3.11600 15.63300 21.42300
H  -3.28600 18.14800 20.01100
H  -3.97300 19.05500 21.30900
H  -4.40000 17.29300 21.03500
H  -0.85600 15.89900 20.30900
H  -0.95000 14.48900 21.41500
H  0.95800 16.78600 21.69700
H  0.99800 15.08300 22.20900
H  0.15600 16.39800 23.12100
H  -2.01900 10.90000 25.80100
H  -2.29300 11.73000 24.18000
H  -3.62200 11.15000 25.34900
H  -3.92800 13.65500 30.07000
H  -2.00400 12.40400 33.77700
H  -0.52700 12.43500 32.79100
H  -1.45000 10.98800 32.84700
Mg 46.51900 34.87000 27.77600
C  44.81000 32.94400 30.25600
C  46.70300 37.43500 30.00800
C  47.74900 36.55900 25.32200
C  46.02500 32.16100 25.57100
N  45.99600 35.12000 29.91600
C  45.37000 34.18300 30.71200
C  45.46800 34.62800 32.18100
C  45.60800 36.14900 32.07700
C  46.15100 36.28900 30.60300
C  44.34800 36.96500 32.31100
C  46.62000 33.85000 32.92400
C  46.37600 33.67700 34.45000
H  45.52400 34.76400 35.21200
N  47.16100 36.78500 27.66400
C  47.19900 37.71200 28.69100
C  47.81400 38.91800 28.22000
C  47.98000 38.70500 26.79800
C  47.64100 37.30500 26.54800
C  47.92300 40.12000 29.12500
C  48.51600 39.64100 25.64900
O  48.39500 39.38900 24.45800
C  49.16500 40.88500 26.06500
N  46.81400 34.41500 25.72900
C  47.34800 35.28400 24.95500
C  47.50100 34.81700 23.51600
C  46.97400 33.34700 23.55400
C  46.60700 33.27900 25.04300
C  47.00300 35.70800 22.37300
C  47.90500 32.12200 23.20300
C  49.07900 31.78600 24.15700
N  45.80400 32.91000 27.92200
C  45.66400 32.02900 26.95500
C  45.16500 30.79200 27.52200
C  44.80500 31.10300 28.79100
C  45.11400 32.46500 29.03500
C  44.90200 29.51100 26.84800
C  44.12000 30.59500 29.93700
O  43.66900 29.48400 30.17400
C  43.90900 31.87200 30.87800
C  44.07300 31.55700 32.29100
O  44.99700 31.06300 32.86500
O  42.87300 32.01300 32.83800
C  42.64900 31.67100 34.26600
H  46.79900 38.27600 30.69900
H  48.07600 37.14200 24.45900
H  45.87300 31.30500 24.91100
H  44.51500 34.46300 32.68300
H  46.40800 36.42000 32.76700
H  44.41000 37.52100 33.24700
H  43.43700 36.38900 32.47000
H  44.17100 37.57200 31.42400
H  47.47600 34.50100 32.74600
H  46.89200 32.96100 32.35400
H  47.29700 33.82200 35.01500
H  45.99600 32.67200 34.63300
H  48.68000 40.81900 28.76900
H  48.35600 39.84800 30.08700
H  46.96200 40.60300 29.30100
H  48.33700 41.51100 26.39800
H  49.81700 41.17800 25.24200
H  49.63200 40.57700 27.00100
H  48.57500 34.66700 23.40100
H  46.16300 33.24600 22.83200
H  46.35100 35.29200 21.60500
H  47.84100 36.27400 21.96700
H  46.37600 36.37200 22.96900
H  48.44900 32.22500 22.26400
H  47.14400 31.34300 23.15200
H  50.05900 32.05300 23.76000
H  49.03000 30.73500 24.44100
H  49.01900 32.39100 25.06200
H  45.69000 29.32700 26.11800
H  43.95500 29.39000 26.32300
H  45.08900 28.73400 27.58900
H  42.89400 32.24000 30.72500
H  42.80800 32.59400 34.82300
H  43.42800 31.00300 34.63400
H  41.62600 31.32600 34.41300

