158

Mg 17.39600 -0.64200 27.58800
C  16.39500 1.01300 30.41900
C  19.61800 -2.50000 29.54800
C  19.08000 -1.85800 24.86400
C  15.69000 1.54700 25.61100
N  17.94900 -0.70800 29.77700
C  17.42600 0.08900 30.75700
C  18.11400 -0.19300 32.12400
C  19.18900 -1.32900 31.68700
C  18.94700 -1.51900 30.21800
C  20.63700 -0.95600 31.98100
C  17.18900 -0.69800 33.16100
C  16.96800 0.17200 34.41900
H  18.18100 0.66700 35.17100
N  19.01600 -2.06500 27.22500
C  19.73300 -2.80600 28.16400
C  20.48000 -3.89100 27.50400
C  20.18500 -3.80400 26.08900
C  19.37600 -2.57800 26.00600
C  21.26900 -4.96100 28.23400
C  20.57000 -4.69300 24.99900
O  20.18300 -4.58600 23.84500
C  21.49000 -5.89800 25.30500
N  17.38100 -0.20200 25.48900
C  18.15400 -0.86100 24.60200
C  17.90300 -0.23800 23.18200
C  16.65200 0.60500 23.50800
C  16.61000 0.78000 24.93500
C  19.14900 0.53600 22.58100
C  15.31500 0.01200 22.91000
C  14.35400 -0.95500 23.78200
N  16.11700 0.85000 27.88700
C  15.43200 1.66300 27.01300
C  14.63500 2.66100 27.72800
C  14.95900 2.35900 29.07400
C  15.88900 1.27200 29.14900
C  13.72600 3.66900 27.18400
C  14.71400 2.79700 30.43000
O  13.92300 3.67200 30.83200
C  15.72600 2.01200 31.32500
C  16.65800 2.89900 32.04700
O  17.83800 3.06600 31.74800
O  16.09000 3.50600 33.13000
C  16.85400 4.44600 33.92800
H  20.24500 -3.14300 30.17000
H  19.43600 -2.26100 23.91400
H  15.08200 2.08600 24.88200
H  18.63600 0.69500 32.48000
H  18.94400 -2.30400 32.10900
H  21.02700 -1.68400 32.69200
H  20.62000 -0.00200 32.50900
H  21.23100 -0.88600 31.07100
H  17.53300 -1.67000 33.51300
H  16.20600 -0.71000 32.68900
H  16.34700 -0.34500 35.15000
H  16.39600 1.04500 34.10400
H  22.16800 -5.14300 27.64400
H  20.78100 -5.91100 28.44900
H  21.60000 -4.52500 29.17700
H  21.20400 -6.55100 26.12900
H  22.47900 -5.47100 25.46800
H  21.55200 -6.48000 24.38500
H  17.55900 -1.02500 22.51100
H  16.79000 1.58700 23.05600
H  19.98500 0.63700 23.27200
H  18.96800 1.49200 22.08900
H  19.46800 -0.13700 21.78500
H  15.40800 -0.55200 21.98300
H  14.62900 0.81300 22.63500
H  13.64700 -0.39600 24.39500
H  14.90500 -1.53000 24.52600
H  13.70900 -1.58600 23.17200
H  13.76900 3.51900 26.10600
H  14.10100 4.66800 27.41000
H  12.79300 3.39800 27.67900
H  15.21100 1.41200 32.07600
H  16.76400 5.44600 33.50200
H  17.86700 4.06800 34.07000
H  16.44400 4.35700 34.93400
Mg 34.57700 48.98600 26.25700
C  35.02000 46.62200 28.85000
C  33.85600 51.25300 28.62300
C  33.86600 50.96500 23.80000
C  34.89000 46.23500 24.01200
N  34.65500 48.99000 28.52700
C  34.78700 47.90700 29.31400
C  34.76800 48.36400 30.81200
C  34.20400 49.79100 30.77300
C  34.25900 50.05200 29.19900
C  32.78800 49.93700 31.27100
C  36.17700 48.27200 31.43100
C  36.15000 47.78800 32.89000
H  36.06800 48.87300 33.94300
N  34.00500 50.89700 26.18200
C  33.83000 51.71900 27.24000
C  33.61800 53.09500 26.83400
C  33.58000 53.02800 25.36900
C  33.83500 51.59100 25.06000
C  33.36400 54.28600 27.74400
C  33.20400 54.08800 24.40800
O  33.22100 53.85800 23.21100
C  32.81500 55.45000 24.82000
N  34.27100 48.57600 24.24500
C  34.09300 49.62400 23.42200
C  33.89600 49.16100 21.97800
C  34.31000 47.65900 22.04500
C  34.59000 47.50500 23.52000
C  32.43800 49.27600 21.38100
C  35.55500 47.41500 21.18000
C  36.98100 48.09300 21.41500
N  34.93200 46.89500 26.36000
C  35.00800 45.94200 25.34000
C  35.39200 44.66700 25.90500
C  35.40300 44.90500 27.34500
C  35.10300 46.25400 27.58400
C  35.59100 43.49300 25.03800
C  35.57500 44.24100 28.57500
O  35.77600 43.04700 28.91400
C  35.40900 45.41300 29.63000
C  34.37600 45.07100 30.65600
O  33.16900 45.01300 30.49700
O  35.00000 44.68000 31.84800
C  34.01300 44.28200 32.84300
H  33.78000 52.10100 29.30600
H  33.70200 51.63900 22.95700
H  34.95500 45.36900 23.35100
H  34.04700 47.73100 31.33000
H  34.97800 50.37900 31.26600
H  32.47600 49.06800 31.84900
H  31.97500 50.05800 30.55500
H  32.63800 50.81800 31.89600
H  36.60000 49.27500 31.38100
H  36.86000 47.61900 30.88900
H  37.10700 47.28700 33.03900
H  35.35100 47.07600 33.09800
H  32.38000 54.68900 27.50100
H  34.03600 55.11300 27.51000
H  33.26900 54.12900 28.81800
H  31.91200 55.58700 25.41500
H  32.65200 56.03700 23.91600
H  33.67100 55.84200 25.36900
H  34.64800 49.76500 21.47100
H  33.46100 47.00200 21.85500
H  32.07500 48.27500 21.14600
H  32.52400 49.87300 20.47400
H  31.79700 49.73900 22.13100
H  35.32400 47.60100 20.13100
H  35.76900 46.35300 21.29200
H  37.36700 48.46700 20.46700
H  37.62500 47.27600 21.74200
H  36.96100 48.82500 22.22200
H  34.74500 43.22700 24.40500
H  35.75100 42.69700 25.76500
H  36.56300 43.60800 24.55700
H  36.40800 45.49600 30.05900
H  33.62700 45.13900 33.39500
H  34.35600 43.61200 33.63100
H  33.21500 43.67200 32.41800

