158

Mg 48.61300 36.32800 27.45000
C  46.31600 35.31000 29.95400
C  48.86000 39.28100 29.07100
C  50.41000 37.43100 24.90000
C  47.75700 33.44100 25.66300
N  47.75900 37.13700 29.36700
C  46.85900 36.59000 30.25400
C  46.70700 37.44700 31.55600
C  47.29400 38.78100 31.01900
C  47.93600 38.38700 29.72600
C  46.14200 39.83100 30.85600
C  47.57000 36.85900 32.66200
C  46.88900 36.45000 34.04500
H  46.92500 37.56400 35.07200
N  49.74600 37.98400 27.18700
C  49.73600 39.06600 27.93300
C  50.74000 40.01800 27.44900
C  51.10000 39.56500 26.18500
C  50.40600 38.28000 26.01800
C  51.14100 41.30900 28.11600
C  52.00200 40.12600 25.07200
O  52.09400 39.66200 23.96000
C  52.83000 41.36900 25.30200
N  48.76100 35.59700 25.45200
C  49.70100 36.16400 24.67500
C  49.91300 35.38500 23.34900
C  49.23300 34.06400 23.68500
C  48.56200 34.33700 25.02700
C  49.10100 36.10500 22.29400
C  50.24200 32.83300 23.72700
C  49.82300 31.65900 22.83400
N  47.33500 34.65300 27.71400
C  47.07300 33.57300 26.88700
C  46.15800 32.65400 27.54600
C  45.78100 33.37600 28.71600
C  46.50900 34.50400 28.78300
C  45.70500 31.28800 27.02200
C  44.85100 33.31200 29.87700
O  44.09800 32.43200 30.20000
C  45.25700 34.51600 30.74700
C  45.74600 33.98100 31.99900
O  46.80700 33.41100 32.19100
O  44.70400 34.09000 32.89500
C  44.88100 33.46700 34.21300
H  48.89500 40.24000 29.59100
H  51.03200 37.60200 24.01900
H  47.69500 32.49700 25.11700
H  45.63900 37.52400 31.76100
H  47.95400 39.31400 31.70300
H  45.28300 39.48600 30.28100
H  46.56500 40.66700 30.29900
H  45.82600 40.23700 31.81700
H  48.41500 37.47900 32.96200
H  47.89900 35.86400 32.36100
H  47.27000 35.57600 34.57300
H  45.81500 36.39800 33.86600
H  52.13300 41.56500 27.74200
H  51.23200 41.15500 29.19100
H  50.44000 42.12900 27.96300
H  52.09300 42.15000 25.48900
H  53.34400 41.64000 24.38000
H  53.44200 41.31500 26.20300
H  50.95000 35.28800 23.02700
H  48.41900 33.76800 23.02300
H  48.55500 35.44100 21.62300
H  49.72000 36.83000 21.76500
H  48.39500 36.73700 22.83300
H  50.31300 32.36000 24.70600
H  51.25400 33.14200 23.46400
H  50.45600 31.54000 21.95400
H  48.81500 31.85700 22.47000
H  49.93100 30.71200 23.36100
H  46.25400 31.06200 26.10800
H  44.66400 31.29200 26.70200
H  45.91200 30.54400 27.79200
H  44.37700 35.14900 30.85900
H  45.85900 33.71500 34.62500
H  44.80900 32.39100 34.05200
H  44.07400 33.82200 34.85400
Mg -5.36000 24.95200 26.09100
C  -3.78200 26.03800 28.94000
C  -7.27800 22.79200 28.05300
C  -6.27400 23.40400 23.32400
C  -3.01900 26.87500 24.11500
N  -5.55800 24.57300 28.21600
C  -4.92400 25.24700 29.16200
C  -5.35700 24.90900 30.52400
C  -6.24800 23.63400 30.21000
C  -6.37100 23.60500 28.77400
C  -5.71400 22.33700 30.79200
C  -6.05500 26.04800 31.19800
C  -5.89100 26.16000 32.77100
H  -5.11700 25.08200 33.55800
N  -6.73000 23.41200 25.72400
C  -7.42100 22.71200 26.61200
C  -8.31600 21.91100 25.92500
C  -8.09300 22.15600 24.51000
C  -6.94400 22.94000 24.45400
C  -9.32900 21.05200 26.56800
C  -8.86800 21.46200 23.33900
O  -8.45500 21.54600 22.19000
C  -10.06600 20.55000 23.55800
N  -4.61200 25.08600 24.00700
C  -5.21300 24.28500 23.09800
C  -4.66500 24.59900 21.63700
C  -3.61200 25.75700 21.89700
C  -3.79100 25.94900 23.44500
C  -4.13800 23.42000 20.86700
C  -3.98000 27.13100 21.20800
C  -3.32600 27.24100 19.79400
N  -3.72400 26.17200 26.39400
C  -2.91700 26.94700 25.52500
C  -2.04400 27.79900 26.39000
C  -2.39100 27.42100 27.74700
C  -3.40300 26.48300 27.65100
C  -1.08800 28.78100 25.93000
C  -2.05200 27.70500 29.05300
O  -1.11900 28.37200 29.42900
C  -3.01900 26.89400 30.02100
C  -2.19000 26.17900 30.99400
O  -1.59200 25.15200 30.74400
O  -2.00800 26.85000 32.12800
C  -1.13800 26.28800 33.14800
H  -7.91900 22.07900 28.57600
H  -6.56000 22.96600 22.36500
H  -2.33800 27.48000 23.51200
H  -4.43100 24.63700 31.03200
H  -7.16700 23.70300 30.79100
H  -4.74700 22.45800 31.28000
H  -5.47600 21.60500 30.02100
H  -6.32300 21.84400 31.55000
H  -7.12200 25.90100 31.03200
H  -5.87400 27.03300 30.76800
H  -6.94000 26.06300 33.05200
H  -5.56000 27.17700 32.98300
H  -9.63100 20.16300 26.01600
H  -10.24300 21.63400 26.68600
H  -8.95000 20.69500 27.52600
H  -10.84000 21.14000 24.04900
H  -9.69700 19.65500 24.05700
H  -10.46200 20.19000 22.60900
H  -5.55200 24.99800 21.14600
H  -2.61600 25.45700 21.57200
H  -4.83100 23.28400 20.03600
H  -4.18700 22.50900 21.46300
H  -3.10200 23.59200 20.57400
H  -3.73000 28.02200 21.78400
H  -5.06200 27.06700 21.09300
H  -4.07700 27.28000 19.00400
H  -2.61600 26.45500 19.53600
H  -2.75800 28.16900 19.84800
H  -0.87800 29.41100 26.79500
H  -1.74400 29.36400 25.28300
H  -0.18000 28.35800 25.50100
H  -3.65300 27.61800 30.53200
H  -0.07300 26.45000 32.97900
H  -1.20800 25.20100 33.19400
H  -1.48000 26.69900 34.09800

