158

Mg 28.23800 57.53400 42.61700
C  25.92100 55.64400 40.82700
C  30.68100 56.26300 40.71600
C  30.04500 60.14400 43.67200
C  25.34300 59.07200 44.26000
N  28.20100 56.33600 40.77600
C  27.19400 55.53700 40.30000
C  27.66800 54.61900 39.14500
C  29.24600 54.78700 39.31400
C  29.44000 55.78000 40.45400
C  30.10900 53.51500 39.48200
C  27.08700 55.03200 37.78200
C  26.52900 53.83600 37.00200
H  27.10500 53.45100 35.64600
N  30.13800 58.04500 42.39800
C  31.07300 57.33000 41.60900
C  32.34400 57.95300 41.77400
C  32.19900 59.07800 42.59900
C  30.74600 59.19300 42.90900
C  33.63800 57.42000 41.06900
C  33.29800 60.04700 42.93900
O  34.41400 59.95100 42.44900
C  33.15500 61.24300 43.94100
N  27.70900 59.46000 43.74300
C  28.70200 60.26600 44.11400
C  28.15400 61.48700 44.85300
C  26.74700 60.99900 45.21800
C  26.54100 59.82800 44.34900
C  29.00400 61.89500 46.03600
C  25.64200 62.06400 45.25600
C  24.85700 62.22400 46.59500
N  26.09800 57.31900 42.69900
C  25.11500 57.99400 43.39900
C  23.76600 57.45000 43.12100
C  24.09200 56.60800 42.06800
C  25.51300 56.45700 41.90300
C  22.33400 57.88600 43.54300
C  23.42600 55.71600 41.09400
O  22.23500 55.46800 40.97100
C  24.57700 54.99100 40.32500
C  24.36600 53.57900 40.52200
O  24.52100 52.95100 41.56500
O  24.23000 53.06200 39.24500
C  24.28100 51.58000 39.11200
H  31.51500 55.81200 40.17500
H  30.62100 61.02600 43.96300
H  24.49200 59.52700 44.77100
H  27.38700 53.59100 39.37600
H  29.62000 55.30600 38.43200
H  30.52600 53.52400 40.48900
H  30.82500 53.49300 38.66100
H  29.46500 52.64300 39.36900
H  27.78600 55.46300 37.06500
H  26.36200 55.83300 37.92400
H  25.50800 54.13700 36.76800
H  26.58800 52.93500 37.61300
H  33.59100 56.33200 41.10600
H  34.52100 57.78300 41.59500
H  33.76700 57.69600 40.02200
H  32.57700 62.03900 43.47300
H  34.11700 61.63800 44.26800
H  32.72500 60.84300 44.86000
H  28.07500 62.25200 44.08100
H  26.77500 60.41400 46.13800
H  28.36700 62.08400 46.90000
H  29.49400 62.81900 45.72900
H  29.73700 61.14300 46.33100
H  24.88900 61.76400 44.52800
H  25.84300 63.08000 44.91500
H  24.87700 63.28700 46.83800
H  25.24000 61.70600 47.47500
H  23.85400 61.85900 46.37400
H  22.06900 58.93800 43.44700
H  22.23600 57.48900 44.55300
H  21.75300 57.37400 42.77600
H  24.52500 55.33400 39.29200
H  24.49800 51.50100 38.04700
H  23.28500 51.27500 39.43400
H  25.01200 51.22500 39.83900
Mg -5.72900 24.63700 26.75700
C  -4.38500 26.07300 29.58900
C  -7.54500 22.48400 28.92100
C  -7.05500 23.10300 24.05700
C  -3.57100 26.43900 24.77500
N  -5.84600 24.16300 29.01000
C  -5.31300 25.02200 29.92300
C  -5.97100 24.85800 31.26100
C  -6.56800 23.43000 31.18800
C  -6.57000 23.21200 29.62800
C  -5.85600 22.39600 32.05500
C  -7.04600 25.98000 31.52500
C  -6.93700 26.58200 32.97500
H  -6.48600 25.73200 34.17100
N  -7.21100 23.09200 26.51300
C  -7.84900 22.40300 27.54900
C  -8.78500 21.50400 26.94800
C  -8.63500 21.66700 25.50100
C  -7.61000 22.65400 25.32800
C  -9.74600 20.63100 27.76000
C  -9.41100 21.04100 24.48700
O  -9.25100 21.20100 23.28300
C  -10.39300 19.98500 24.88100
N  -5.29800 24.76200 24.71000
C  -5.99600 24.00500 23.77500
C  -5.46200 24.20300 22.34100
C  -4.50300 25.42700 22.63000
C  -4.35100 25.44800 24.08100
C  -4.86500 22.96500 21.67700
C  -4.97200 26.80000 22.11600
C  -4.42900 27.30800 20.77700
N  -4.22300 25.89700 27.04700
C  -3.41300 26.55700 26.16400
C  -2.62800 27.54800 26.87300
C  -2.95400 27.34100 28.26700
C  -3.94300 26.32400 28.23100
C  -1.69900 28.57400 26.27300
C  -2.76100 27.77900 29.60100
O  -1.97800 28.61800 30.10000
C  -3.61400 26.95700 30.49600
C  -2.76700 26.38300 31.55000
O  -1.89100 25.57400 31.39700
O  -3.05300 26.99000 32.80200
C  -2.19700 26.88800 33.90500
H  -8.11100 21.89100 29.64300
H  -7.65100 22.69500 23.23800
H  -2.92800 26.95800 24.06100
H  -5.21300 24.88000 32.04400
H  -7.61300 23.47600 31.49500
H  -6.69400 21.77000 32.36200
H  -5.34800 22.87500 32.89200
H  -5.20000 21.81600 31.40700
H  -8.09300 25.68600 31.44400
H  -6.94900 26.72900 30.73900
H  -7.96500 26.86200 33.20300
H  -6.27600 27.44800 32.95900
H  -9.73400 20.84600 28.82800
H  -9.61200 19.55400 27.65500
H  -10.77700 20.76800 27.43300
H  -10.19000 19.26200 25.67100
H  -10.54800 19.45200 23.94300
H  -11.34500 20.46600 25.10600
H  -6.32200 24.61100 21.81000
H  -3.55600 25.11100 22.19300
H  -5.29200 22.91800 20.67500
H  -5.12400 22.11000 22.30000
H  -3.77800 22.99100 21.59400
H  -4.78900 27.50400 22.92800
H  -6.05600 26.73600 22.01900
H  -3.78900 28.17000 20.96700
H  -5.34500 27.47700 20.21200
H  -3.92300 26.48100 20.27900
H  -0.85800 28.78900 26.93200
H  -2.16300 29.54700 26.10700
H  -1.27200 28.16100 25.35900
H  -4.40500 27.52700 30.98300
H  -2.16300 27.87200 34.37200
H  -1.17500 26.58600 33.67500
H  -2.62000 26.15300 34.59000

