158

Mg 1.87300 -1.96500 44.66900
C  5.33500 -1.23400 44.22300
C  1.31100 0.97300 42.87500
C  -1.26800 -2.81300 44.53400
C  2.83900 -5.22700 45.52200
N  3.17800 -0.35100 43.75600
C  4.50800 -0.29800 43.62100
C  4.97900 0.89600 42.76000
C  3.73100 1.79700 42.80600
C  2.64300 0.78600 43.20700
C  3.83800 3.05100 43.70500
C  5.51500 0.49200 41.35700
C  6.59600 1.26600 40.72800
H  6.36900 1.89200 39.33700
N  0.23400 -0.94100 43.92100
C  0.20000 0.20400 43.13100
C  -1.13900 0.45500 42.69500
C  -1.90000 -0.62400 43.17900
C  -0.99200 -1.54400 43.95800
C  -1.51900 1.64900 41.89800
C  -3.40400 -0.60100 43.23800
O  -3.97300 0.19000 42.54700
C  -4.25500 -1.47900 44.05900
N  0.96700 -3.84300 44.80500
C  -0.39800 -3.84400 44.88200
C  -0.85900 -5.21500 45.52500
C  0.46500 -6.01700 45.81500
C  1.50300 -5.02100 45.35200
C  -1.78400 -5.10000 46.76200
C  0.55900 -7.43100 45.02100
C  0.37000 -8.65900 45.90000
N  3.63100 -3.05400 44.93500
C  3.90000 -4.31300 45.31700
C  5.28500 -4.47500 45.61200
C  5.88400 -3.23800 45.24400
C  4.83700 -2.42700 44.81100
C  5.96400 -5.76100 46.12400
C  7.15100 -2.48900 45.22300
O  8.27000 -2.80600 45.65300
C  6.78900 -1.18000 44.47100
C  7.33800 0.07300 45.17000
O  7.19900 0.41000 46.35000
O  7.91400 0.76100 44.18500
C  8.47200 2.07700 44.43300
H  1.27500 1.85500 42.23300
H  -2.31700 -3.08400 44.67100
H  3.16500 -6.13100 46.04000
H  5.80500 1.44400 43.21200
H  3.64900 2.26000 41.82300
H  2.82100 3.24100 44.04900
H  4.11500 3.96700 43.18300
H  4.59200 2.95600 44.48700
H  4.68300 0.60200 40.66200
H  5.93900 -0.51000 41.43100
H  7.35200 0.50500 40.53500
H  6.90700 2.04400 41.42600
H  -0.71900 2.37300 41.74000
H  -2.28200 2.09300 42.53900
H  -1.76400 1.36300 40.87600
H  -4.27900 -2.50400 43.69000
H  -5.26300 -1.10000 44.22500
H  -3.95600 -1.50700 45.10600
H  -1.37500 -5.68800 44.69000
H  0.53700 -6.11400 46.89900
H  -2.76300 -5.39500 46.38500
H  -1.83400 -4.07900 47.14200
H  -1.46700 -5.75500 47.57400
H  1.54300 -7.58500 44.57800
H  -0.14600 -7.45600 44.19000
H  1.26700 -9.27300 45.98300
H  -0.59600 -9.13200 45.72600
H  0.16800 -8.31000 46.91200
H  6.49200 -5.48800 47.03800
H  6.54800 -6.19900 45.31500
H  5.15500 -6.44600 46.37800
H  7.32100 -1.29800 43.52700
H  7.59300 2.70700 44.56600
H  8.98600 2.39800 43.52700
H  9.19200 2.16100 45.24700
Mg 47.18400 16.71900 28.24600
C  45.27500 16.40600 31.27200
C  49.74000 18.09700 30.08600
C  48.74500 17.24600 25.33600
C  44.33000 15.50200 26.54100
N  47.36300 17.38000 30.46200
C  46.53900 17.00100 31.54400
C  47.12400 17.50000 32.89600
C  48.51400 18.11200 32.42600
C  48.56100 17.86700 30.87900
C  48.93400 19.64500 32.71000
C  47.23600 16.41200 33.97800
C  47.04600 16.72900 35.38100
H  46.92500 18.24300 35.60900
N  48.99700 17.52900 27.75500
C  49.96000 17.97700 28.65900
C  51.18900 18.31300 27.91100
C  50.82500 18.25700 26.53400
C  49.44900 17.57500 26.47300
C  52.44100 18.74200 28.63000
C  51.63400 18.66500 25.28000
O  51.25400 18.45000 24.12000
C  52.98600 19.21300 25.48500
N  46.71100 16.12300 26.22800
C  47.47200 16.71000 25.20900
C  46.71500 16.37800 23.91400
C  45.59700 15.40300 24.27900
C  45.48800 15.70500 25.71700
C  46.31300 17.66900 23.07800
C  45.95900 13.82200 24.16900
C  44.80300 12.97900 23.58500
N  45.20700 16.20500 28.75400
C  44.17700 15.75400 27.90300
C  42.93600 15.51900 28.66100
C  43.39100 15.65600 30.03400
C  44.70000 16.11200 30.01200
C  41.57400 15.14800 28.19400
C  42.95700 15.56100 31.44200
O  41.91900 15.18600 31.87900
C  44.12500 16.10300 32.26700
C  43.67900 17.33100 33.00200
O  43.54400 18.46400 32.54600
O  43.39100 16.92100 34.26500
C  42.73800 17.97100 35.02300
H  50.58500 18.45500 30.67800
H  49.25400 17.31800 24.37300
H  43.45600 15.17600 25.97200
H  46.49200 18.34200 33.18000
H  49.31500 17.46300 32.78000
H  48.12600 20.09100 33.28900
H  48.96400 20.26400 31.81300
H  49.90400 19.64600 33.20700
H  48.21100 15.93700 33.86500
H  46.55100 15.59600 33.74900
H  47.91300 16.39500 35.95100
H  46.12800 16.29700 35.78000
H  53.30700 18.34600 28.09900
H  52.53700 18.24200 29.59400
H  52.67900 19.77900 28.86200
H  53.37300 19.57000 24.53100
H  53.55900 18.40100 25.93300
H  52.95200 20.05700 26.17400
H  47.43500 15.93700 23.22400
H  44.67900 15.62400 23.73500
H  45.24200 17.84800 23.16800
H  46.70600 17.66100 22.06100
H  46.79000 18.48200 23.62500
H  46.19300 13.30400 25.10000
H  46.82200 13.67600 23.51900
H  43.90300 13.59100 23.52200
H  44.59000 12.07100 24.14900
H  45.14900 12.64100 22.60800
H  40.86900 15.71200 28.80500
H  41.50500 14.07300 28.36000
H  41.35600 15.46600 27.17400
H  44.29100 15.29300 32.97700
H  41.84700 18.41800 34.58300
H  43.39500 18.79000 35.31400
H  42.27600 17.64100 35.95300

