158

Mg 25.57800 1.26200 30.06700
C  27.54200 0.85400 32.82000
C  22.86500 1.31600 32.04800
C  23.62600 0.76200 27.18700
C  28.38400 0.58700 27.97100
N  25.26100 0.99600 32.16800
C  26.21400 1.07800 33.10700
C  25.64600 1.50500 34.60500
C  24.13600 1.31100 34.28600
C  24.03800 1.17900 32.75200
C  23.54100 0.00700 34.98900
C  26.08400 2.96800 34.99400
C  27.07800 3.04900 36.11100
H  26.49500 3.61900 37.40000
N  23.51200 1.21900 29.65700
C  22.57200 1.26400 30.64200
C  21.28400 1.16600 29.98500
C  21.49200 0.89700 28.59700
C  22.94300 0.92600 28.40800
C  19.98600 1.33300 30.73700
C  20.48700 0.75200 27.46000
O  20.66300 0.59600 26.27800
C  19.08500 0.78700 27.73400
N  25.92500 0.74200 27.95300
C  24.97100 0.73500 27.03400
C  25.58100 0.98300 25.56500
C  27.10100 0.85200 25.78500
C  27.15800 0.73200 27.32700
C  25.09800 0.07000 24.42100
C  27.94200 2.09700 25.34500
C  29.23500 1.81400 24.65900
N  27.58400 0.87900 30.27300
C  28.55400 0.63900 29.41800
C  29.73700 0.21800 30.14600
C  29.44000 0.35300 31.52500
C  28.08300 0.67200 31.53000
C  30.99900 -0.23000 29.55500
C  29.88200 0.27700 32.82400
O  31.00600 -0.00900 33.20300
C  28.74300 0.74600 33.78700
C  28.58100 -0.32200 34.77400
O  28.05500 -1.44300 34.63400
O  29.17600 0.03700 35.93000
C  28.89400 -0.67500 37.15800
H  21.95100 1.33500 32.64500
H  23.12900 0.69100 26.21700
H  29.22300 0.45100 27.28500
H  25.93600 0.71200 35.29300
H  23.53400 2.11300 34.71100
H  24.03400 -0.14900 35.94800
H  23.60700 -0.84300 34.30900
H  22.46300 0.14900 35.06900
H  25.13900 3.44800 35.24900
H  26.44400 3.59200 34.17600
H  27.75900 3.85200 35.82900
H  27.54000 2.06900 36.23100
H  19.51200 0.36800 30.91600
H  19.36100 2.11000 30.29600
H  20.22300 1.69400 31.73800
H  18.55000 0.85800 26.78700
H  18.84900 1.68100 28.31200
H  18.77200 -0.15900 28.17500
H  25.34700 2.03300 25.39200
H  27.39200 -0.10300 25.34900
H  24.85400 -0.93300 24.77100
H  25.87400 -0.14500 23.68600
H  24.19500 0.61900 24.15500
H  28.11100 2.75900 26.19500
H  27.37100 2.64300 24.59400
H  29.38400 0.73600 24.60500
H  30.02500 2.41100 25.11500
H  29.23500 2.26700 23.66700
H  31.79700 -0.00900 30.26400
H  31.35200 0.27400 28.65500
H  30.78400 -1.27100 29.31200
H  29.10700 1.67800 34.22000
H  28.35000 -1.61800 37.10900
H  28.34500 -0.01900 37.83300
H  29.83500 -0.79000 37.69600
Mg 35.38300 2.67800 29.99000
C  33.07800 3.76400 32.32200
C  37.82200 2.75700 32.69400
C  37.78600 1.64400 27.98300
C  32.96400 2.77200 27.52400
N  35.47800 3.21700 32.26000
C  34.32600 3.61700 32.93200
C  34.61300 3.72200 34.47100
C  36.20600 3.91800 34.51900
C  36.60200 3.30900 33.08200
C  36.95300 5.24000 34.86300
C  33.96300 2.48400 35.27100
C  33.32700 2.91900 36.63400
H  34.09200 4.03700 37.36200
N  37.49100 2.26200 30.25400
C  38.23900 2.28600 31.45300
C  39.50200 1.68900 31.19100
C  39.58700 1.41600 29.73200
C  38.24100 1.79300 29.23800
C  40.56100 1.50900 32.27600
C  40.76700 0.94300 28.84400
O  40.71000 0.73300 27.62900
C  42.03400 0.60500 29.50600
N  35.36400 2.32100 28.05200
C  36.52000 1.83500 27.48800
C  36.24200 1.56000 25.94600
C  34.65100 1.82300 25.82100
C  34.27800 2.37000 27.19800
C  37.09500 2.46100 24.96700
C  33.77500 0.64500 25.38400
C  33.24500 0.65500 23.90400
N  33.49900 3.24400 29.86400
C  32.56300 3.14700 28.85800
C  31.23500 3.54100 29.33800
C  31.37100 3.79800 30.65600
C  32.77900 3.59400 30.97700
C  30.09700 3.69400 28.43200
C  30.70000 4.18000 31.85700
O  29.54000 4.47700 32.10900
C  31.74000 4.08400 33.02500
C  31.80300 5.39800 33.68100
O  32.25200 6.39300 33.14400
O  31.34300 5.29800 34.96300
C  31.10600 6.59400 35.54200
H  38.58200 2.86700 33.47100
H  38.36500 1.07700 27.25100
H  32.13600 2.64400 26.82400
H  34.11200 4.63700 34.78800
H  36.54400 3.21700 35.28200
H  37.96300 5.31000 34.45900
H  36.96900 5.35100 35.94700
H  36.40500 6.04800 34.37700
H  34.70400 1.69400 35.39600
H  33.19600 2.10200 34.59700
H  33.21000 2.04200 37.27000
H  32.34000 3.25800 36.32100
H  40.12500 1.55100 33.27400
H  41.35200 2.25500 32.20900
H  41.06700 0.54800 32.18800
H  41.89400 -0.25900 30.15700
H  42.18500 1.59500 29.93600
H  42.73900 0.31100 28.72800
H  36.44400 0.51300 25.71800
H  34.56600 2.58600 25.04700
H  37.40800 3.44100 25.32800
H  36.44600 2.63900 24.11000
H  37.98200 1.92100 24.63400
H  32.90900 0.51700 26.03400
H  34.37900 -0.23800 25.59400
H  33.08600 -0.36300 23.54700
H  34.01100 1.07300 23.25100
H  32.42900 1.37600 23.85600
H  29.24300 3.98400 29.04400
H  29.95300 2.67300 28.08100
H  30.26400 4.36200 27.58700
H  31.39300 3.29000 33.68600
H  30.57100 7.16700 34.78500
H  32.08700 7.01900 35.75400
H  30.54800 6.50300 36.47400

