158

Mg 8.34200 2.17900 27.49900
C  9.78000 0.97000 30.25200
C  6.41500 4.42200 29.35900
C  6.77700 3.17700 24.64900
C  9.86500 -0.39400 25.63100
N  8.20400 2.71400 29.55400
C  8.93200 2.04900 30.50400
C  8.62200 2.67800 31.93300
C  7.41000 3.67900 31.53400
C  7.26900 3.60500 30.02200
C  6.13400 3.35000 32.30000
C  9.84500 3.27100 32.57200
C  9.70500 3.50500 34.12300
H  10.61400 2.67300 35.16900
N  6.85300 3.65000 27.08600
C  6.21400 4.41900 27.96800
C  5.26900 5.29700 27.23100
C  5.34000 4.93600 25.87600
C  6.45100 3.96200 25.76800
C  4.41400 6.29400 27.93400
C  4.52700 5.47500 24.72300
O  4.71800 5.25300 23.55000
C  3.40200 6.44800 25.04000
N  8.28900 1.48600 25.45200
C  7.57800 2.03400 24.48700
C  7.78600 1.32000 23.17100
C  8.96500 0.35500 23.50100
C  9.03700 0.46600 24.92800
C  6.53100 0.53600 22.83400
C  10.33900 0.86500 22.85500
C  11.35900 -0.25800 22.30500
N  9.61100 0.49700 27.81200
C  10.13600 -0.47000 26.98300
C  11.08000 -1.25400 27.71200
C  11.05100 -0.70600 29.01000
C  10.07100 0.29200 29.04100
C  11.99800 -2.25700 27.05800
C  11.60300 -0.80100 30.25900
O  12.46100 -1.55900 30.69400
C  10.76700 0.22500 31.17900
C  10.03900 -0.59700 32.18300
O  9.35100 -1.60600 32.07500
O  10.23000 -0.05600 33.45700
C  9.66200 -0.77100 34.60000
H  5.79300 5.07800 29.97100
H  6.22300 3.40200 23.73500
H  10.40200 -1.16800 25.07800
H  8.26900 1.91600 32.62700
H  7.83800 4.64900 31.78900
H  5.79500 2.39300 31.90200
H  5.45300 4.19500 32.20400
H  6.42200 3.17200 33.33600
H  10.12100 4.24500 32.16900
H  10.70400 2.60800 32.46900
H  8.65300 3.47300 34.40900
H  9.99500 4.53100 34.35100
H  3.42400 5.86400 28.08900
H  4.35300 7.20400 27.33800
H  4.97100 6.64900 28.80100
H  2.97400 6.75000 24.08400
H  3.78100 7.40800 25.39100
H  2.68200 6.05800 25.76000
H  7.97800 1.99200 22.33400
H  8.78100 -0.66600 23.16700
H  6.00000 0.25500 23.74300
H  6.74400 -0.37600 22.27500
H  5.79800 1.20100 22.37700
H  10.76700 1.56900 23.56800
H  10.08400 1.50000 22.00600
H  11.13800 -1.27300 22.63600
H  12.40100 -0.11700 22.59400
H  11.36700 -0.26200 21.21500
H  12.69400 -1.70900 26.42400
H  11.47500 -2.90200 26.35200
H  12.48400 -2.82100 27.85400
H  11.43900 0.88500 31.72900
H  9.97900 -1.80800 34.70200
H  8.58400 -0.66400 34.72200
H  10.17300 -0.38900 35.48400
Mg 40.30800 8.35900 29.65900
C  42.28400 9.71500 32.23200
C  37.95900 7.53700 31.98000
C  38.55700 6.78800 27.19100
C  42.90700 9.03100 27.45000
N  40.27500 8.51100 31.82900
C  41.10300 9.24500 32.70600
C  40.50200 9.36200 34.03800
C  39.31100 8.40400 34.09500
C  39.12800 8.14500 32.50300
C  39.54200 7.07300 34.84900
C  40.04300 10.82800 34.47900
C  39.60000 10.93500 35.97000
H  40.52300 11.68500 36.86200
N  38.45500 7.35200 29.64600
C  37.61500 7.19200 30.67100
C  36.44800 6.37900 30.20700
C  36.57000 6.38600 28.80700
C  37.90600 6.86900 28.48900
C  35.32500 6.00200 31.12500
C  35.54900 6.00300 27.67000
O  35.71700 6.17500 26.48400
C  34.23100 5.39200 28.10000
N  40.74400 7.84100 27.63700
C  39.88200 7.16600 26.85400
C  40.36300 7.14300 25.38100
C  41.70900 7.95600 25.40700
C  41.83100 8.36000 26.94700
C  40.59300 5.65200 24.90200
C  41.74800 9.14400 24.39000
C  40.90300 10.28200 24.58900
N  42.26800 9.13000 29.72800
C  43.19900 9.42700 28.75600
C  44.39100 9.95400 29.31600
C  44.03700 10.24100 30.69300
C  42.72300 9.64900 30.88900
C  45.61300 10.20700 28.57100
C  44.46800 10.76200 31.96400
O  45.53100 11.27300 32.34300
C  43.30600 10.52100 32.90900
C  43.83700 9.81100 34.08500
O  44.28600 8.68100 33.94400
O  43.59400 10.51600 35.22400
C  44.01900 9.87700 36.45400
H  37.22400 7.43800 32.78200
H  38.11000 6.20800 26.38200
H  43.68800 9.17900 26.70100
H  41.27300 9.00700 34.72300
H  38.43400 8.89900 34.51100
H  40.49100 7.05400 35.38500
H  39.51500 6.16600 34.24500
H  38.86800 7.07000 35.70600
H  39.28100 11.20400 33.79600
H  40.89100 11.46200 34.22300
H  39.48900 9.94300 36.40900
H  38.62300 11.41700 35.94500
H  35.57400 6.23900 32.15900
H  35.22900 4.91600 31.10200
H  34.40500 6.53100 30.87700
H  33.77200 6.09000 28.80000
H  34.54400 4.47800 28.60400
H  33.59100 5.25600 27.22800
H  39.56300 7.39800 24.68600
H  42.57200 7.37800 25.07800
H  40.58700 5.69800 23.81300
H  39.74500 5.03500 25.20000
H  41.48700 5.21100 25.34200
H  41.69200 8.56000 23.47100
H  42.75500 9.53100 24.54700
H  40.16200 10.13500 23.80300
H  41.40700 11.21000 24.31800
H  40.46800 10.34400 25.58600
H  45.56800 11.17400 28.07000
H  45.74100 9.46600 27.78200
H  46.45300 10.25700 29.26400
H  42.83200 11.41100 33.32400
H  45.06700 10.08300 36.67300
H  43.80600 8.81200 36.54400
H  43.41300 10.29300 37.25900

