158

Mg 41.26300 8.01000 30.01900
C  42.94800 9.56000 32.84600
C  38.96500 6.91200 32.25400
C  39.87400 6.55900 27.35100
C  43.96500 8.91600 28.15300
N  40.96800 8.33600 32.27700
C  41.71500 9.05500 33.17600
C  41.05100 9.10900 34.58700
C  39.90000 8.06900 34.44300
C  39.89000 7.73100 32.87400
C  40.03100 6.79800 35.25000
C  40.61400 10.46600 35.20000
C  40.35000 10.39800 36.70600
H  41.10900 11.40500 37.57600
N  39.66800 6.79600 29.82100
C  38.79400 6.53000 30.90100
C  37.65100 5.82700 30.29000
C  37.93800 5.64800 28.88400
C  39.19300 6.27600 28.57900
C  36.42100 5.50200 31.16900
C  37.08000 5.16400 27.79700
O  37.52800 4.89800 26.72000
C  35.59200 5.15100 28.03000
N  41.80300 7.82200 27.96000
C  41.04300 7.21800 27.04100
C  41.56500 7.35800 25.63500
C  42.92600 8.16200 25.91000
C  42.90600 8.32600 27.39700
C  41.80200 6.01700 24.88500
C  43.00000 9.57700 25.11600
C  41.93300 10.67900 25.44600
N  43.19500 8.96800 30.39100
C  44.24000 9.22600 29.50000
C  45.29500 9.81400 30.13100
C  44.85300 10.01800 31.46600
C  43.57200 9.47200 31.55300
C  46.66200 10.06300 29.58400
C  45.21200 10.55700 32.73100
O  46.21700 11.15600 33.08100
C  43.98700 10.28200 33.70400
C  44.36900 9.34200 34.79700
O  44.65800 8.17500 34.60300
O  44.22800 9.97100 35.96200
C  44.32700 9.14200 37.09800
H  38.20800 6.66400 33.00000
H  39.35300 6.23100 26.44900
H  44.75900 9.15700 27.44300
H  41.81100 8.62600 35.20100
H  38.96600 8.51800 34.78000
H  40.20200 6.04200 34.48400
H  39.09000 6.45900 35.68300
H  40.83300 6.69700 35.98200
H  39.79900 10.98400 34.69500
H  41.48900 11.05800 34.93100
H  40.61100 9.39100 37.03100
H  39.28800 10.63900 36.76600
H  36.82700 5.40500 32.17600
H  35.90400 4.59800 30.84900
H  35.64600 6.24700 31.35500
H  35.03400 5.10200 27.09500
H  35.31800 6.08900 28.51300
H  35.20700 4.35100 28.66300
H  40.87500 8.02300 25.11500
H  43.76600 7.50200 25.69400
H  41.59600 6.12100 23.81900
H  41.07000 5.29500 25.24600
H  42.82300 5.67200 25.04600
H  42.89200 9.22700 24.09000
H  43.99200 10.00100 25.27100
H  42.38800 11.29000 26.22600
H  41.00100 10.22000 25.77500
H  41.72000 11.34500 24.61000
H  47.44400 9.63400 30.21100
H  46.83000 11.12500 29.40600
H  46.69300 9.59500 28.60000
H  43.62400 11.19100 34.18400
H  45.28800 8.75900 37.44100
H  43.68500 8.27600 36.93000
H  43.75800 9.66600 37.86600
Mg -9.80900 38.16200 42.41100
C  -8.06800 35.29300 41.42800
C  -7.14200 40.01100 41.20300
C  -11.68700 40.89300 42.46200
C  -12.64400 36.08300 42.86900
N  -7.89600 37.74600 41.16100
C  -7.45800 36.46400 40.94000
C  -6.16700 36.51200 40.15900
C  -5.73700 37.98700 40.29700
C  -6.97500 38.66000 40.95200
C  -4.34900 38.29500 40.99300
C  -6.41500 35.99800 38.67500
C  -5.45600 35.01000 38.04200
H  -4.39800 35.55000 37.03800
N  -9.39800 40.16700 42.10500
C  -8.25200 40.72200 41.69900
C  -8.30500 42.12400 41.71100
C  -9.53800 42.45400 42.23400
C  -10.29800 41.14200 42.32300
C  -7.09100 42.98000 41.22800
C  -10.13200 43.82000 42.58400
O  -9.40700 44.78300 42.60700
C  -11.62100 44.14000 42.97400
N  -11.89200 38.41300 42.50200
C  -12.41600 39.69400 42.58400
C  -13.90200 39.59200 42.53400
C  -14.18000 38.09000 42.81600
C  -12.83000 37.43900 42.64700
C  -14.48400 40.60800 43.68500
C  -15.27200 37.43300 41.94900
C  -16.11900 36.30400 42.70600
N  -10.24300 36.04100 42.38900
C  -11.36800 35.37800 42.70300
C  -11.04600 33.96400 42.68500
C  -9.75200 33.89700 42.24900
C  -9.38100 35.18000 41.94100
C  -12.01400 32.89200 43.07000
C  -8.68400 33.03200 41.91400
O  -8.58500 31.81600 41.82300
C  -7.46000 33.90900 41.39000
C  -6.50000 33.71700 42.48900
O  -6.19200 34.49600 43.38900
O  -5.79400 32.60900 42.15400
C  -4.79800 32.28000 43.06900
H  -6.31100 40.57400 40.77300
H  -12.38300 41.69200 42.72700
H  -13.48700 35.39600 42.97900
H  -5.38500 35.87600 40.57300
H  -5.66300 38.37300 39.28000
H  -3.81600 37.36200 41.17500
H  -4.46800 38.73900 41.98100
H  -3.71700 38.98600 40.43500
H  -6.39100 36.85700 38.00500
H  -7.41700 35.57400 38.61200
H  -6.09900 34.21200 37.67200
H  -4.77500 34.57100 38.77100
H  -6.31800 42.99400 41.99500
H  -7.48000 43.99800 41.18100
H  -6.66100 42.71900 40.26100
H  -12.35000 43.77400 42.25200
H  -11.85200 45.20500 42.96600
H  -11.86600 43.82300 43.98700
H  -14.25400 39.80000 41.52300
H  -14.38100 37.95000 43.87800
H  -15.39000 40.20700 44.13900
H  -14.75100 41.56300 43.23300
H  -13.79200 40.93500 44.46200
H  -14.87700 36.93100 41.06600
H  -15.93500 38.24800 41.65900
H  -17.14100 36.67500 42.78400
H  -15.72400 36.01500 43.68000
H  -16.08700 35.44800 42.03200
H  -11.77400 31.97900 42.52500
H  -13.00100 33.30400 42.86300
H  -11.87200 32.80200 44.14700
H  -7.04000 33.62800 40.42400
H  -3.79200 32.20600 42.65500
H  -4.92700 31.25100 43.40500
H  -4.74800 32.82400 44.01200

