158

Mg 2.60000 -0.95100 44.58500
C  5.82600 -0.60500 43.38300
C  1.50700 1.51300 42.42500
C  -0.52800 -1.88000 45.22100
C  3.76300 -3.82800 46.21600
N  3.62000 0.38000 43.07200
C  4.92300 0.30000 42.67100
C  5.21800 1.53700 41.80800
C  3.85000 2.31700 41.79800
C  2.91400 1.38600 42.46100
C  3.86100 3.75400 42.24100
C  5.87800 1.17900 40.39900
C  6.91300 2.16800 39.89900
H  6.48600 2.94100 38.62100
N  0.72900 -0.14800 44.05300
C  0.41500 0.87800 43.16000
C  -1.04100 1.06600 42.99600
C  -1.63200 0.15200 43.92400
C  -0.47000 -0.67400 44.50600
C  -1.54700 2.25400 42.13200
C  -3.02500 0.07200 44.22000
O  -3.81000 0.94600 43.87700
C  -3.64000 -1.05500 45.01500
N  1.72400 -2.64000 45.59800
C  0.36500 -2.76800 45.72600
C  0.05200 -4.20000 46.12300
C  1.41800 -4.80200 46.54400
C  2.40600 -3.72100 46.05600
C  -0.96700 -4.12000 47.27800
C  1.70200 -6.25400 46.06700
C  2.47800 -7.23100 46.94400
N  4.46200 -1.90600 44.93500
C  4.78800 -3.04000 45.66700
C  6.28500 -3.19900 45.71000
C  6.67200 -2.23900 44.81200
C  5.54100 -1.55800 44.34300
C  7.12100 -4.11200 46.47000
C  7.84300 -1.75500 44.13000
O  9.03200 -2.12300 44.14300
C  7.36200 -0.59600 43.19000
C  8.00400 0.65200 43.68900
O  7.50400 1.37900 44.52700
O  9.20600 0.88000 43.03200
C  9.76700 2.23500 43.31100
H  1.12900 2.34700 41.82900
H  -1.55200 -2.15900 45.47800
H  4.03800 -4.76000 46.71500
H  5.96600 2.20100 42.24000
H  3.64500 2.25300 40.72900
H  3.84500 4.45300 41.40400
H  4.82100 3.88600 42.74100
H  3.11800 3.98700 43.00300
H  5.12300 1.14700 39.61300
H  6.44300 0.25000 40.46300
H  7.80200 1.54100 39.83500
H  7.08600 2.98300 40.60200
H  -2.48700 1.98300 41.65300
H  -0.88600 2.41300 41.28000
H  -1.71700 3.13700 42.74800
H  -4.72400 -0.96200 44.95900
H  -3.37800 -1.06400 46.07300
H  -3.41000 -2.03400 44.59400
H  -0.33500 -4.72900 45.25200
H  1.45600 -4.81000 47.63400
H  -1.20300 -3.07000 47.45200
H  -0.64100 -4.55600 48.22200
H  -1.84700 -4.73400 47.08800
H  2.24000 -6.19600 45.12100
H  0.72700 -6.63300 45.75800
H  1.83900 -8.06500 47.23300
H  2.91400 -6.80600 47.84900
H  3.18000 -7.79000 46.32600
H  8.09200 -3.64500 46.63800
H  7.21400 -5.06000 45.94100
H  6.66600 -4.29000 47.44400
H  7.63300 -0.64300 42.13600
H  8.97400 2.98200 43.30800
H  10.54900 2.51700 42.60500
H  10.18900 2.24400 44.31600
Mg -10.74900 40.59500 41.25300
C  -9.62500 37.42400 40.06800
C  -7.99900 41.96800 39.48800
C  -12.31100 43.54400 41.01900
C  -13.69700 39.00800 42.19500
N  -9.01400 39.77000 39.90800
C  -8.75800 38.44800 39.64100
C  -7.41700 38.35200 38.97400
C  -6.81600 39.76600 38.94500
C  -8.00700 40.60000 39.43700
C  -5.45000 40.03400 39.72800
C  -7.51100 37.61100 37.65200
C  -6.54900 36.38600 37.40400
H  -5.59600 36.51200 36.14100
N  -10.21000 42.51200 40.50700
C  -9.01600 42.82400 39.93500
C  -8.97000 44.27500 39.77000
C  -10.23600 44.80400 40.12500
C  -10.96900 43.59600 40.57300
C  -7.72500 44.98300 39.22900
C  -10.58400 46.26500 40.11000
O  -9.83900 47.15300 39.67900
C  -11.97700 46.80200 40.49800
N  -12.74100 41.16200 41.38700
C  -13.14900 42.46500 41.36800
C  -14.63700 42.61900 41.82200
C  -15.08800 41.14700 42.06400
C  -13.76700 40.36400 41.87800
C  -14.84300 43.48200 43.04700
C  -16.21800 40.57600 41.13700
C  -15.88900 39.63400 40.00500
N  -11.51000 38.65700 41.25100
C  -12.66500 38.14200 41.77500
C  -12.64300 36.68900 41.84700
C  -11.48100 36.37000 41.17200
C  -10.80600 37.61800 40.79700
C  -13.70200 35.68100 42.29500
C  -10.72100 35.31900 40.67500
O  -10.86900 34.06100 40.85700
C  -9.56600 35.89900 39.83200
C  -8.37200 35.18800 40.35100
O  -7.95200 35.29100 41.48700
O  -7.97200 34.28600 39.41700
C  -7.00500 33.29300 39.85400
H  -7.01800 42.30000 39.14100
H  -12.83000 44.49000 40.85200
H  -14.60100 38.59600 42.64900
H  -6.84000 37.69200 39.62100
H  -6.61200 40.07700 37.92000
H  -5.13300 39.20100 40.35600
H  -5.54200 40.92600 40.34700
H  -4.54700 40.20600 39.14300
H  -7.40100 38.40900 36.91800
H  -8.54400 37.28900 37.51700
H  -7.06300 35.46600 37.12600
H  -5.98400 36.15700 38.30800
H  -7.79500 45.16600 38.15700
H  -6.89900 44.29400 39.40600
H  -7.48500 45.92400 39.72400
H  -12.12800 46.63300 41.56400
H  -12.56700 46.14800 39.85600
H  -12.14400 47.84300 40.22200
H  -15.15600 43.00600 40.94500
H  -15.30800 40.95100 43.11300
H  -15.51100 44.28600 42.73900
H  -13.87500 43.84500 43.39400
H  -15.47400 42.91000 43.72700
H  -16.71400 41.48400 40.79700
H  -16.95500 40.06500 41.75700
H  -16.39800 38.69400 40.21300
H  -14.84700 39.34300 39.87300
H  -16.24000 40.06900 39.06900
H  -13.93800 36.02800 43.30100
H  -13.35600 34.65000 42.22000
H  -14.54300 35.89600 41.63500
H  -9.74500 35.84400 38.75800
H  -6.06500 33.84000 39.92600
H  -6.80800 32.46400 39.17400
H  -7.36300 32.83100 40.77500

