158

Mg 46.58000 16.39100 28.34400
C  44.34100 16.18600 30.95100
C  48.71200 18.08700 30.46500
C  48.62900 16.78600 25.74300
C  44.34200 14.67400 26.21000
N  46.42300 17.26900 30.46500
C  45.46200 16.97700 31.33100
C  45.78500 17.42500 32.73100
C  47.23100 18.03000 32.55000
C  47.51000 17.79100 31.06700
C  47.38700 19.58400 32.95200
C  45.73000 16.29700 33.78900
C  46.25300 16.73900 35.15200
H  46.11200 18.18500 35.65200
N  48.42200 17.15600 28.09900
C  49.16900 17.76300 29.09600
C  50.54500 18.13900 28.57400
C  50.51600 17.84600 27.21400
C  49.13600 17.25400 26.95800
C  51.73300 18.49000 29.43600
C  51.54300 18.04400 26.17600
O  51.36000 17.60200 25.06500
C  52.89200 18.59300 26.42200
N  46.28200 16.04200 26.22300
C  47.37000 16.22400 25.45500
C  47.01400 15.92600 24.01200
C  45.76700 15.06300 24.13000
C  45.43800 15.23200 25.58300
C  46.78000 17.23900 23.25500
C  45.98000 13.59500 23.60200
C  46.45400 12.61200 24.66200
N  44.66500 15.75400 28.47800
C  43.89200 14.99700 27.53300
C  42.62700 14.57800 28.14400
C  42.78500 15.05100 29.50300
C  44.03300 15.69000 29.63400
C  41.35000 13.95600 27.49700
C  42.05800 15.18700 30.82300
O  40.89700 14.92600 31.12200
C  43.11900 15.76800 31.78900
C  42.51600 17.00700 32.40300
O  42.46400 18.14100 31.82100
O  42.21500 16.72300 33.69300
C  41.70100 17.85000 34.54300
H  49.48700 18.47800 31.12800
H  49.19500 16.91100 24.81700
H  43.61400 14.07800 25.65600
H  45.12800 18.20000 33.12700
H  47.98900 17.42200 33.04400
H  46.69700 19.95600 33.71000
H  47.34200 20.20500 32.05700
H  48.39200 19.70700 33.35600
H  46.32900 15.45500 33.44200
H  44.75500 15.82800 33.92500
H  47.31600 16.54600 35.29400
H  45.85800 16.01300 35.86300
H  52.54500 17.78400 29.26100
H  51.48600 18.65500 30.48500
H  52.09200 19.45400 29.07700
H  52.90600 19.56200 26.92000
H  53.42000 18.59700 25.46900
H  53.39300 17.89600 27.09300
H  47.88200 15.41300 23.59900
H  44.98700 15.51200 23.51500
H  47.71400 17.79900 23.22200
H  45.97800 17.79500 23.74200
H  46.57100 16.92200 22.23300
H  46.62700 13.56300 22.72600
H  45.06100 13.17700 23.19100
H  47.50800 12.35200 24.56600
H  45.95200 11.66500 24.46700
H  46.18900 12.94900 25.66400
H  41.24100 14.14100 26.42900
H  40.52800 14.33700 28.10400
H  41.43700 12.87000 27.53800
H  43.23700 14.99000 32.54400
H  40.66700 18.07800 34.28300
H  42.22200 18.80600 34.59400
H  41.97600 17.51700 35.54400
Mg -0.60100 44.62300 26.36900
C  1.67900 43.43500 28.86800
C  -3.14500 43.95500 28.51600
C  -2.70700 45.05700 23.80500
C  2.15800 44.47600 24.06600
N  -0.67500 43.74500 28.48200
C  0.36300 43.42300 29.32700
C  -0.11400 43.21000 30.76600
C  -1.69000 43.16300 30.54500
C  -1.87600 43.72200 29.08300
C  -2.42100 41.87000 30.80900
C  0.32600 44.48000 31.68600
C  0.67200 44.15500 33.19400
H  0.44700 42.76200 33.78100
N  -2.63600 44.60400 26.25100
C  -3.52600 44.38500 27.23600
C  -4.86800 44.61900 26.73700
C  -4.70900 45.10500 25.42600
C  -3.24300 44.94800 25.08700
C  -6.05600 44.46900 27.62300
C  -5.76700 45.61900 24.38200
O  -5.48300 45.99500 23.25800
C  -7.26000 45.55600 24.63300
N  -0.30800 44.72300 24.17300
C  -1.35800 45.00100 23.32300
C  -0.87300 45.08700 21.90000
C  0.66300 45.18100 22.06600
C  0.90200 44.83200 23.50000
C  -1.38900 43.97700 21.03700
C  1.27500 46.55200 21.64600
C  1.35300 47.66800 22.69500
N  1.51600 44.17300 26.40800
C  2.49800 44.14500 25.42000
C  3.78400 43.88400 26.05400
C  3.50600 43.56800 27.37600
C  2.13400 43.72600 27.53500
C  5.18100 43.71900 25.41100
C  4.15600 43.08900 28.60400
O  5.24700 42.61100 28.81300
C  2.91200 43.11400 29.62500
C  3.01000 41.89500 30.45600
O  2.54100 40.79600 30.13200
O  3.77000 42.22400 31.54900
C  4.05300 41.15700 32.50200
H  -3.98700 43.81100 29.19700
H  -3.35000 45.27200 22.94900
H  2.94300 44.64000 23.32400
H  0.10900 42.17200 31.01600
H  -2.13800 43.82500 31.28600
H  -1.76700 41.29600 31.46500
H  -2.70800 41.34200 29.89900
H  -3.32600 42.05200 31.38900
H  -0.35000 45.33500 31.68500
H  1.21400 44.87800 31.19500
H  0.06500 44.81900 33.81000
H  1.74400 44.23800 33.37000
H  -6.05100 43.44900 28.00800
H  -6.97500 44.63800 27.06100
H  -6.11000 45.22700 28.40400
H  -7.58600 45.89500 25.61700
H  -7.50300 44.49400 24.59200
H  -7.83400 46.22100 23.98700
H  -1.24500 46.06500 21.59700
H  1.15900 44.47100 21.40400
H  -1.84900 43.16200 21.59500
H  -0.61000 43.59500 20.37700
H  -2.24700 44.43000 20.54200
H  0.64900 46.92400 20.83500
H  2.25300 46.35300 21.20800
H  2.36800 47.92500 23.00000
H  0.61200 47.42600 23.45700
H  1.14700 48.62100 22.20700
H  5.50100 44.72700 25.14700
H  5.09900 43.29500 24.41000
H  5.68900 43.09800 26.14800
H  3.24100 44.00300 30.16200
H  4.12200 41.49700 33.53600
H  5.09200 40.85100 32.38600
H  3.31900 40.36100 32.38200

