158

Mg 41.99200 40.71500 27.49700
C  41.08000 43.27400 29.86900
C  43.22700 38.93700 30.07900
C  43.02200 38.61500 25.27500
C  41.49800 43.13600 24.96400
N  42.18800 41.16000 29.73200
C  41.53900 42.07700 30.47100
C  41.59700 41.78900 31.98000
C  42.45400 40.42300 32.01000
C  42.65800 40.18600 30.52000
C  43.78400 40.40500 32.78400
C  40.18300 41.66200 32.64200
C  39.89300 42.52900 33.80800
H  39.22400 41.88200 34.98100
N  42.75600 38.91600 27.65500
C  43.28200 38.32500 28.80100
C  43.74400 37.01600 28.50200
C  43.67100 36.85200 27.07400
C  43.17200 38.15200 26.59600
C  44.24600 36.03500 29.60100
C  44.17900 35.72100 26.21700
O  44.14600 35.63700 25.03600
C  44.84800 34.65600 26.85900
N  42.28400 40.91000 25.42400
C  42.67800 39.84600 24.70800
C  42.66600 40.06000 23.16000
C  42.07500 41.47400 23.05300
C  41.97600 41.91400 24.52500
C  43.98200 39.83400 22.45200
C  40.67900 41.45400 22.33700
C  39.38800 41.06300 23.08100
N  41.43000 42.81400 27.37300
C  41.23100 43.63400 26.28300
C  41.01000 45.04100 26.75300
C  40.83200 44.90000 28.14100
C  41.13800 43.54200 28.46200
C  40.88900 46.16100 25.78800
C  40.38400 45.59200 29.39800
O  40.12100 46.73500 29.63600
C  40.50500 44.53500 30.56100
C  41.51000 45.10000 31.49800
O  42.72200 45.06000 31.45500
O  40.79500 45.70200 32.47200
C  41.52500 46.08200 33.67900
H  43.72600 38.31400 30.82500
H  43.20600 37.90500 24.46500
H  41.19600 43.73200 24.10000
H  42.15100 42.55000 32.53000
H  41.85200 39.56100 32.29800
H  43.91500 41.40200 33.20700
H  44.69200 40.14900 32.23800
H  43.80000 39.72500 33.63600
H  39.99200 40.65500 33.01200
H  39.50000 41.92900 31.83500
H  39.20800 43.29800 33.45200
H  40.74200 43.07700 34.21900
H  45.33100 35.95000 29.54000
H  43.94600 35.00300 29.42000
H  43.89900 36.26900 30.60800
H  44.04800 34.19700 27.44000
H  45.67700 35.11600 27.39600
H  45.35000 34.00300 26.14500
H  41.97900 39.27500 22.84500
H  42.63500 42.19600 22.45800
H  44.87900 39.72000 23.05900
H  44.19100 40.62800 21.73500
H  43.96000 38.89600 21.89800
H  40.72700 40.65200 21.60100
H  40.47100 42.31300 21.69800
H  39.57400 40.65800 24.07600
H  38.77800 40.25300 22.68100
H  38.87200 42.00700 23.25300
H  39.99400 46.07700 25.17100
H  41.73300 46.01200 25.11500
H  40.91000 47.21600 26.06300
H  39.54000 44.37500 31.04300
H  41.78200 45.20900 34.28000
H  40.91700 46.72500 34.31600
H  42.47300 46.60800 33.57000
Mg 10.10600 48.11500 24.49800
C  8.10300 48.29400 27.37000
C  12.75300 49.51100 26.39300
C  12.06600 47.94400 21.75100
C  7.22500 47.46700 22.65900
N  10.39500 48.91700 26.56000
C  9.40500 48.80100 27.55100
C  9.86800 49.47000 28.87400
C  11.24300 50.11100 28.40900
C  11.55400 49.40800 27.07900
C  11.17400 51.64900 28.17700
C  10.06800 48.52800 30.10800
C  9.36800 48.88700 31.39000
H  10.30600 49.49500 32.45600
N  12.15700 48.54000 24.17300
C  13.04300 49.00400 25.09000
C  14.36900 49.09800 24.48400
C  14.25600 48.56800 23.21100
C  12.81000 48.25000 22.97400
C  15.51900 49.60600 25.21200
C  15.35200 48.47400 22.14200
O  15.11300 47.86700 21.12200
C  16.70100 49.04100 22.32300
N  9.63400 47.98400 22.47400
C  10.73000 47.85800 21.56100
C  10.14600 47.59700 20.16900
C  8.61000 47.47700 20.38000
C  8.43600 47.53800 21.93900
C  10.58600 48.61300 19.08400
C  7.78000 46.39000 19.59700
C  6.53900 46.89700 18.76300
N  8.07600 47.81200 24.91200
C  7.06100 47.66800 24.04400
C  5.83400 47.50500 24.77900
C  6.15200 47.66300 26.13900
C  7.52000 47.90500 26.14500
C  4.43600 47.38700 24.25000
C  5.66100 47.66600 27.50900
O  4.54800 47.56800 27.92100
C  6.89400 48.13100 28.35100
C  7.00900 47.14300 29.45600
O  7.56800 46.02900 29.36900
O  6.21600 47.53800 30.52600
C  6.03600 46.53000 31.64900
H  13.59700 49.94900 26.92900
H  12.67900 47.83600 20.85400
H  6.29100 47.29400 22.11900
H  9.24000 50.30800 29.17700
H  12.09100 49.95000 29.07500
H  11.85500 52.12800 28.88000
H  10.23600 52.01000 28.60000
H  11.24400 52.06500 27.17100
H  11.13800 48.41400 30.28300
H  9.67900 47.54700 29.83400
H  8.86400 48.04500 31.86500
H  8.46400 49.47200 31.22100
H  15.36900 50.01600 26.21100
H  16.12900 50.34700 24.69500
H  16.19800 48.76800 25.36800
H  16.53000 50.10800 22.18000
H  17.39700 48.67300 21.56900
H  17.23000 48.81100 23.24700
H  10.49700 46.60100 19.90100
H  8.26000 48.50100 20.24600
H  11.49100 49.02500 19.53000
H  9.77400 49.29600 18.83500
H  10.91500 48.00500 18.24000
H  7.43600 45.71500 20.38100
H  8.45000 45.89300 18.89500
H  6.33300 47.94800 18.96200
H  5.57800 46.40800 18.92600
H  6.98700 46.94600 17.77100
H  4.01100 48.33800 23.92800
H  3.77200 47.06300 25.05100
H  4.45300 46.65400 23.44400
H  6.56800 49.08300 28.77000
H  6.77800 45.73800 31.74600
H  5.10200 45.99400 31.48500
H  5.95200 46.95000 32.65100

