158

Mg 17.15700 -1.77900 27.69800
C  16.33600 0.18500 30.42600
C  19.04200 -3.79500 29.84700
C  18.35900 -3.46500 25.07300
C  15.81900 0.68600 25.56400
N  17.66500 -1.77000 29.89400
C  17.07900 -0.94400 30.82500
C  17.57900 -1.34200 32.20400
C  18.56000 -2.52200 31.97300
C  18.39600 -2.72800 30.46000
C  20.07400 -2.17400 32.27000
C  16.42500 -1.65100 33.19200
C  16.42100 -0.77600 34.49000
H  17.78000 -0.48000 35.18700
N  18.34300 -3.46800 27.52700
C  18.97300 -4.23800 28.49000
C  19.50700 -5.47500 27.86000
C  19.37800 -5.28400 26.44400
C  18.62400 -4.05600 26.34700
C  19.85300 -6.67100 28.67700
C  19.88800 -6.16400 25.33100
O  19.60500 -6.01500 24.12600
C  20.71700 -7.32900 25.68200
N  16.97000 -1.51300 25.60000
C  17.71900 -2.25600 24.82500
C  17.66700 -1.64000 23.40900
C  16.52600 -0.51700 23.51400
C  16.37700 -0.44300 24.98900
C  19.11600 -1.04100 22.87400
C  15.16100 -1.00100 22.93200
C  14.21100 -0.05900 22.25000
N  16.16800 0.03100 27.89700
C  15.66000 0.91700 26.97700
C  14.93800 1.98800 27.68100
C  15.24400 1.76800 29.02800
C  16.00500 0.54600 29.12600
C  14.22900 3.10300 27.11300
C  15.05200 2.23000 30.34600
O  14.41100 3.17900 30.75900
C  15.87300 1.29000 31.33800
C  16.90100 2.10600 32.05500
O  17.99500 2.39200 31.68400
O  16.42300 2.62100 33.25500
C  17.24500 3.49700 34.09700
H  19.56800 -4.38500 30.60100
H  18.95400 -3.73800 24.19900
H  15.40000 1.42400 24.87700
H  18.06800 -0.49300 32.68200
H  18.32600 -3.44200 32.50900
H  20.35000 -1.23700 32.75500
H  20.76800 -2.20900 31.43000
H  20.39300 -2.95900 32.95600
H  16.41700 -2.72700 33.36500
H  15.50500 -1.48200 32.63200
H  15.94700 -1.27200 35.33700
H  15.76100 0.08700 34.40100
H  19.39300 -6.71600 29.66500
H  20.93300 -6.53200 28.64700
H  19.72300 -7.66300 28.24400
H  21.54900 -7.07800 26.34100
H  21.05000 -7.77200 24.74400
H  20.10800 -8.11800 26.12500
H  17.35800 -2.44600 22.74300
H  16.78400 0.42100 23.02200
H  19.77000 -1.04900 23.74600
H  19.08200 -0.02400 22.48400
H  19.71900 -1.61700 22.17200
H  14.47400 -1.52000 23.60100
H  15.45000 -1.66000 22.11400
H  13.23200 -0.15700 22.71900
H  14.13200 -0.22400 21.17600
H  14.55400 0.95600 22.44900
H  13.49600 2.65600 26.44300
H  14.82000 3.83800 26.56600
H  13.71200 3.62300 27.91900
H  15.17500 0.76200 31.98800
H  17.74900 2.93800 34.88500
H  16.41900 4.12300 34.43300
H  17.91100 4.05900 33.44100
Mg 34.16900 49.09200 25.54400
C  34.66600 47.32900 28.60800
C  32.29200 51.31900 27.48500
C  33.87200 50.99900 22.80700
C  35.65800 46.59700 23.81800
N  33.49600 49.18000 27.80600
C  33.93900 48.48100 28.86800
C  33.62500 49.14900 30.21600
C  32.59800 50.22000 29.79400
C  32.79400 50.25200 28.26300
C  31.13400 49.97700 30.28200
C  34.87500 49.71000 30.83100
C  34.88900 49.73800 32.39300
H  33.59400 49.59500 33.18700
N  33.26000 50.88000 25.23400
C  32.53700 51.64600 26.12500
C  32.10900 52.87100 25.47500
C  32.54400 52.86300 24.08400
C  33.26100 51.56100 23.98600
C  31.36200 53.93400 26.13300
C  32.26200 53.87500 22.94000
O  32.80300 53.71300 21.86200
C  31.44200 55.07900 23.19100
N  34.68800 48.84800 23.66200
C  34.36100 49.72300 22.65800
C  34.64700 49.08100 21.22100
C  35.51800 47.86100 21.61800
C  35.27500 47.74100 23.14200
C  33.43800 48.84600 20.44000
C  37.01300 47.98300 21.15600
C  37.97300 48.83300 22.09200
N  34.98000 47.28200 26.03000
C  35.54400 46.39400 25.23600
C  35.92700 45.15000 26.01700
C  35.61500 45.52500 27.34800
C  35.12200 46.86900 27.31000
C  36.48200 43.94100 25.55400
C  35.70500 45.00900 28.69500
O  35.97900 43.88700 29.13900
C  35.14300 46.28700 29.56700
C  33.99800 45.76600 30.34700
O  32.88800 45.44300 29.94900
O  34.42400 45.43800 31.58400
C  33.50800 44.54600 32.37100
H  31.64900 51.96000 28.09300
H  33.79700 51.58300 21.88700
H  36.16600 45.83300 23.22700
H  33.32200 48.35100 30.89400
H  32.88700 51.23500 30.06700
H  30.82100 48.93300 30.31500
H  30.46500 50.52400 29.61700
H  31.09900 50.30000 31.32200
H  34.94800 50.75700 30.53500
H  35.77600 49.19800 30.49400
H  35.20700 50.74200 32.67400
H  35.48500 48.92500 32.80600
H  31.14100 53.71300 27.17700
H  30.39500 53.89700 25.63200
H  31.98600 54.82700 26.08300
H  31.87000 55.78000 23.90800
H  30.45400 54.75100 23.51400
H  31.23700 55.59500 22.25400
H  35.23400 49.80900 20.66100
H  35.15100 46.93400 21.17600
H  32.62800 48.80100 21.16800
H  33.29800 47.84900 20.02000
H  33.27300 49.49900 19.58300
H  37.07400 48.35700 20.13400
H  37.46800 46.99300 21.20300
H  38.53300 49.48900 21.42600
H  38.61200 48.17800 22.68500
H  37.42900 49.46300 22.79600
H  37.08200 44.15800 24.67000
H  35.88800 43.05600 25.32500
H  37.21900 43.70300 26.32100
H  35.92900 46.67700 30.21200
H  33.19500 43.69200 31.77100
H  32.67300 45.19300 32.63900
H  34.02700 44.20700 33.26800

