158

Mg 7.98900 53.08800 41.81700
C  7.55900 49.63600 41.05600
C  11.06200 52.81600 40.42700
C  8.24600 56.43300 42.23000
C  4.56400 53.17000 42.56800
N  9.09900 51.46500 40.64800
C  8.70600 50.12800 40.45100
C  9.69500 49.48700 39.54200
C  11.04600 50.31700 39.83700
C  10.35100 51.57300 40.28900
C  11.89300 49.74600 40.96000
C  9.25000 49.71500 38.02400
C  9.19500 48.53200 37.08900
H  8.32100 48.56900 35.88700
N  9.43100 54.44300 41.32800
C  10.67800 54.12500 40.84700
C  11.34800 55.36200 40.67600
C  10.61400 56.34900 41.31400
C  9.34800 55.78000 41.66200
C  12.73100 55.39300 39.98300
C  11.18700 57.78200 41.54600
O  12.17100 58.07900 40.97900
C  10.42000 58.87000 42.24300
N  6.68600 54.56000 42.33900
C  6.94800 55.92400 42.40900
C  5.68000 56.80200 42.41800
C  4.55000 55.74400 42.38000
C  5.28500 54.38000 42.51000
C  5.73300 57.67700 43.74400
C  3.55800 55.79900 41.14800
C  2.06900 55.87900 41.41000
N  6.43300 51.76800 41.97800
C  5.08800 51.87700 42.39000
C  4.44700 50.56900 42.57200
C  5.43100 49.70000 42.12800
C  6.58200 50.43800 41.76100
C  3.11800 50.30500 43.19200
C  5.66300 48.29600 41.90500
O  4.98400 47.28600 42.05100
C  7.03900 48.23000 41.16400
C  6.66800 47.59800 39.82500
O  5.76700 47.86800 38.98800
O  7.55400 46.46800 39.75300
C  7.13500 45.57900 38.71200
H  12.10500 52.57900 40.20900
H  8.43900 57.46800 42.52000
H  3.47500 53.19000 42.65400
H  9.88600 48.42700 39.70700
H  11.65100 50.38800 38.93400
H  11.76100 48.66500 41.00100
H  11.66000 50.21700 41.91500
H  12.94700 49.94200 40.76400
H  9.90900 50.48200 37.61500
H  8.25100 50.14200 38.10500
H  9.10000 47.62100 37.68000
H  10.20000 48.49200 36.66900
H  12.51600 55.80000 38.99600
H  13.19200 54.41900 39.81900
H  13.56500 55.89500 40.47300
H  10.02800 58.55200 43.20900
H  9.67600 59.17600 41.50800
H  10.99500 59.79000 42.34800
H  5.62000 57.47900 41.56600
H  4.03200 55.82200 43.33600
H  5.60000 58.71400 43.43700
H  6.68900 57.49800 44.23500
H  4.99100 57.33200 44.46500
H  3.65700 55.00500 40.40800
H  3.74200 56.68000 40.53300
H  1.76500 56.77400 40.86800
H  1.80000 55.89600 42.46700
H  1.49400 55.03200 41.03600
H  2.26500 50.67700 42.62500
H  3.20100 50.82800 44.14500
H  3.06900 49.23500 43.39600
H  7.86400 47.68700 41.62500
H  7.61200 45.74300 37.74600
H  6.06500 45.47800 38.53200
H  7.50100 44.64200 39.13000
Mg -11.35400 37.65100 42.73300
C  -9.01900 35.05700 42.00400
C  -9.06700 39.83300 41.64000
C  -13.71200 40.00600 43.00500
C  -13.64800 35.17400 43.75000
N  -9.31400 37.40000 41.78300
C  -8.51300 36.31000 41.63500
C  -7.15100 36.64600 40.98600
C  -7.18600 38.23100 41.02000
C  -8.63500 38.53400 41.47200
C  -6.06400 38.99600 41.71200
C  -6.76400 35.95200 39.65900
C  -5.29900 35.63800 39.48700
H  -4.96300 34.72100 38.32800
N  -11.30200 39.62200 42.57800
C  -10.26100 40.35800 42.14400
C  -10.54600 41.74500 42.34400
C  -11.90500 41.91600 42.69500
C  -12.40200 40.49300 42.71500
C  -9.58500 42.79200 42.27000
C  -12.56300 43.26800 43.05900
O  -11.94800 44.30200 43.06900
C  -13.97600 43.24600 43.52800
N  -13.42000 37.54100 43.13400
C  -14.12400 38.68800 43.27100
C  -15.62600 38.37600 43.69000
C  -15.64700 36.79400 43.93600
C  -14.15900 36.44100 43.59600
C  -16.23400 39.16200 44.94900
C  -16.68900 36.01100 43.11500
C  -16.40600 35.62100 41.62400
N  -11.43300 35.51300 42.78400
C  -12.36100 34.68300 43.38500
C  -11.77800 33.31200 43.51600
C  -10.46800 33.44200 42.96300
C  -10.27500 34.75000 42.60700
C  -12.46900 32.19500 44.27300
C  -9.25300 32.78700 42.65400
O  -8.96900 31.66000 42.92700
C  -8.30700 33.73600 41.89600
C  -7.08600 33.68800 42.73200
O  -6.06800 33.06900 42.46700
O  -7.19700 34.39200 43.89800
C  -6.08700 34.18800 44.89500
H  -8.30400 40.55000 41.32700
H  -14.50500 40.72900 43.20900
H  -14.37700 34.45300 44.12700
H  -6.32600 36.36100 41.63900
H  -7.19000 38.60300 39.99500
H  -5.78300 39.68100 40.91300
H  -5.24700 38.30200 41.90800
H  -6.30000 39.41800 42.68900
H  -6.93100 36.70800 38.89200
H  -7.46800 35.14200 39.47000
H  -5.02500 35.01600 40.33900
H  -4.67000 36.52600 39.41800
H  -9.93400 43.40300 41.43700
H  -8.58100 42.36900 42.24500
H  -9.54100 43.24600 43.26000
H  -14.33200 44.24000 43.80100
H  -14.06300 42.66800 44.44800
H  -14.50400 42.85200 42.66000
H  -16.22100 38.55000 42.79300
H  -15.70600 36.53000 44.99100
H  -17.12600 39.62000 44.52300
H  -15.56400 39.90800 45.37700
H  -16.58500 38.52900 45.76400
H  -17.52800 36.70700 43.14600
H  -16.90800 35.12000 43.70300
H  -17.00900 34.73600 41.42100
H  -15.37100 35.29800 41.52100
H  -16.59500 36.49700 41.00300
H  -13.17300 32.59300 45.00400
H  -11.65800 31.63100 44.73500
H  -13.06500 31.53900 43.63900
H  -8.02400 33.39900 40.89800
H  -5.11200 34.54300 44.56100
H  -6.12400 33.24000 45.43200
H  -6.34000 34.88700 45.69200

