158

Mg 8.50500 3.15400 27.79900
C  9.82200 1.59300 30.68100
C  6.34300 4.89500 29.85500
C  7.18900 4.58500 25.04200
C  10.21500 0.92500 25.85300
N  8.06500 3.16800 30.00600
C  8.82300 2.58100 30.95900
C  8.45100 3.12100 32.39600
C  7.22600 3.97300 32.08800
C  7.21100 4.06200 30.54900
C  5.94500 3.51000 32.79800
C  9.59400 3.73600 33.17400
C  9.12500 4.39000 34.47300
H  10.03500 4.00500 35.61600
N  7.02700 4.58300 27.45900
C  6.24300 5.18500 28.46600
C  5.34600 6.11400 27.86900
C  5.45700 5.95600 26.44900
C  6.61200 5.03100 26.25900
C  4.35500 6.94700 28.73400
C  4.61000 6.64500 25.37800
O  4.78900 6.32500 24.21400
C  3.43400 7.63600 25.72400
N  8.81900 2.92600 25.68300
C  8.13800 3.50800 24.69900
C  8.57100 3.08500 23.31000
C  9.56600 1.96100 23.61000
C  9.58300 1.93500 25.12900
C  7.33700 2.64400 22.47900
C  10.96400 2.09300 23.06300
C  11.85200 3.28000 23.63500
N  9.60000 1.52100 28.14400
C  10.28000 0.74000 27.20400
C  11.13700 -0.15600 27.93500
C  10.97300 0.15900 29.31300
C  10.05500 1.14400 29.39400
C  12.02900 -1.29800 27.35900
C  11.43300 -0.18500 30.67000
O  12.23400 -1.09300 30.98400
C  10.79200 0.87200 31.63200
C  10.11700 0.00300 32.61000
O  9.06000 -0.58500 32.45300
O  10.83000 0.02900 33.70000
C  10.25500 -0.20200 35.03900
H  5.58100 5.33700 30.50100
H  6.80500 5.03300 24.12300
H  10.73300 0.15200 25.28200
H  8.02700 2.23900 32.87500
H  7.44600 5.01400 32.32600
H  6.22400 2.75900 33.53700
H  5.29200 3.04700 32.05900
H  5.47900 4.29900 33.38800
H  10.00800 4.55700 32.58900
H  10.43500 3.07700 33.39100
H  8.07900 4.12300 34.62300
H  9.19800 5.47400 34.37700
H  4.38400 7.98600 28.40700
H  4.49900 7.08500 29.80600
H  3.44500 6.38100 28.53500
H  2.90700 7.83300 24.79100
H  3.72100 8.61500 26.10900
H  2.71500 7.00400 26.24500
H  9.01000 3.92100 22.76500
H  9.09000 1.02400 23.32300
H  6.45100 2.61100 23.11400
H  7.40200 1.66500 22.00400
H  7.23300 3.45500 21.75900
H  10.89700 2.19500 21.98000
H  11.46100 1.14000 23.24000
H  12.22000 3.85000 22.78200
H  12.74600 2.83000 24.06600
H  11.39100 3.75500 24.50000
H  12.01900 -1.34900 26.27000
H  11.79500 -2.19300 27.93500
H  13.05100 -0.97200 27.55300
H  11.70000 1.30900 32.04700
H  9.18900 -0.42700 35.09200
H  10.39700 0.68000 35.66400
H  10.83500 -0.97500 35.54200
Mg 48.95600 34.89000 26.98500
C  47.14100 33.43500 29.63000
C  49.06900 37.84800 28.99700
C  50.72800 36.30000 24.67100
C  48.01100 32.20100 24.87700
N  48.20800 35.52200 29.13900
C  47.66400 34.68000 30.03700
C  47.55000 35.34200 31.41200
C  47.74700 36.89800 31.10300
C  48.37900 36.78700 29.67600
C  46.40300 37.77200 31.14900
C  48.49300 34.67900 32.41600
C  47.97500 34.26400 33.86500
H  47.01700 35.24500 34.57000
N  49.89800 36.74100 26.94100
C  49.80300 37.86000 27.78400
C  50.52000 38.99900 27.21800
C  51.04800 38.45900 25.98600
C  50.64200 37.05200 25.78900
C  50.50500 40.35600 27.75600
C  51.94200 39.18200 24.86900
O  52.53400 38.62800 23.97300
C  52.32100 40.68800 25.01000
N  49.23000 34.40500 25.10700
C  50.09700 35.09200 24.30900
C  50.54700 34.36700 23.03200
C  49.73000 33.06600 23.11900
C  48.90700 33.21300 24.42600
C  50.29900 35.19000 21.69800
C  50.56800 31.73800 23.20100
C  49.97600 30.57600 22.38900
N  47.72800 33.17300 27.15200
C  47.36300 32.21200 26.20200
C  46.51600 31.21400 26.86100
C  46.47200 31.65000 28.23000
C  47.09300 32.92400 28.32400
C  45.88900 30.03700 26.25300
C  45.88200 31.31000 29.49000
O  45.25400 30.38500 29.91800
C  46.20300 32.48700 30.46400
C  46.72200 31.82600 31.71400
O  47.86800 31.44500 31.87400
O  45.64400 31.62100 32.57800
C  45.99800 30.82500 33.71300
H  49.00100 38.71800 29.65400
H  51.30300 36.72500 23.84600
H  47.64000 31.36800 24.27500
H  46.54800 35.31700 31.84000
H  48.46500 37.35200 31.78500
H  45.95700 37.81400 30.15500
H  46.69800 38.74300 31.54600
H  45.72600 37.30800 31.86600
H  49.24200 35.46000 32.54900
H  48.92300 33.82700 31.88900
H  48.86700 34.25400 34.49200
H  47.58100 33.24800 33.88600
H  49.86700 41.05500 27.21400
H  51.48600 40.81900 27.65100
H  50.27400 40.38300 28.82100
H  52.71600 41.05100 24.06200
H  53.06500 40.68000 25.80700
H  51.49000 41.25500 25.42900
H  51.58100 34.05100 23.17000
H  48.97700 33.00500 22.33500
H  49.95600 34.58700 20.85700
H  51.22700 35.62900 21.33100
H  49.65600 36.03200 21.95400
H  50.59700 31.41400 24.24100
H  51.58900 31.98100 22.90500
H  48.98900 30.74800 21.96100
H  49.88500 29.70700 23.04000
H  50.57900 30.36100 21.50600
H  46.38600 29.73600 25.33000
H  44.86700 30.26900 25.95300
H  45.85300 29.19200 26.94000
H  45.25100 32.99500 30.62100
H  45.87100 29.77700 33.44500
H  45.29000 31.12600 34.48500
H  47.01800 30.87300 34.09300

