158

Mg 30.73900 57.64400 40.48400
C  27.61500 56.11500 39.68000
C  32.32400 54.92900 39.19200
C  33.40200 59.41200 40.53000
C  28.69100 60.62100 40.97900
N  30.06300 55.69500 39.79100
C  28.78700 55.36100 39.44300
C  28.70200 54.04200 38.69400
C  30.18200 53.42900 39.01500
C  30.91000 54.75400 39.36000
C  30.36700 52.57900 40.24000
C  28.53400 54.29300 37.15500
C  28.22600 53.07100 36.28400
H  27.54100 53.27700 34.90900
N  32.69300 57.18800 39.92500
C  33.20100 56.07400 39.37900
C  34.63900 56.27800 39.15900
C  34.98700 57.55300 39.66100
C  33.68100 58.10300 39.97800
C  35.47900 55.19000 38.59700
C  36.41600 58.06500 39.82400
O  37.35300 57.32400 39.64400
C  36.70400 59.50100 40.27700
N  31.03200 59.74500 40.76400
C  32.28000 60.15800 40.77600
C  32.33900 61.59600 41.14800
C  30.85600 62.04300 41.23700
C  30.12200 60.75800 40.99200
C  33.20000 61.93700 42.32800
C  30.58700 63.13100 40.19000
C  30.81900 64.64200 40.68900
N  28.51700 58.18600 40.58600
C  27.94000 59.44300 40.73200
C  26.47600 59.36800 40.42200
C  26.29100 58.04700 39.99400
C  27.57500 57.38800 40.11300
C  25.42100 60.46800 40.52100
C  25.34200 57.02700 39.44900
O  24.18000 57.10700 39.23000
C  26.17500 55.76300 39.38800
C  25.67200 54.71300 40.30600
O  25.73200 54.77500 41.48100
O  25.23400 53.58800 39.56300
C  24.60900 52.54100 40.40400
H  32.89800 54.05100 38.88800
H  34.33100 59.97500 40.64000
H  28.12800 61.53000 41.20500
H  27.84300 53.44900 39.00600
H  30.67700 52.88200 38.21300
H  31.17000 52.76900 40.95200
H  30.63400 51.57300 39.91800
H  29.44300 52.52900 40.81600
H  29.55600 54.48100 36.82500
H  27.86400 55.13400 36.97700
H  27.55600 52.39200 36.81200
H  29.10300 52.46500 36.05900
H  36.22800 55.50000 37.86900
H  34.85900 54.46400 38.07100
H  35.94900 54.70900 39.45500
H  36.10900 60.23500 39.73300
H  37.76900 59.64400 40.09100
H  36.47800 59.52400 41.34300
H  32.80300 62.04600 40.26900
H  30.71300 62.28700 42.29000
H  33.78900 61.11100 42.72700
H  32.55500 62.35700 43.10000
H  33.96500 62.68800 42.13200
H  29.51200 62.98900 40.07500
H  31.02400 62.91000 39.21600
H  31.33900 64.79000 41.63600
H  29.78600 64.98000 40.77400
H  31.35500 65.26500 39.97300
H  25.06800 60.73800 41.51600
H  24.59300 60.21500 39.85800
H  25.93300 61.35200 40.14200
H  26.11700 55.31100 38.39800
H  25.47500 52.05900 40.85800
H  24.12000 51.79000 39.78300
H  23.86100 52.85300 41.13200
Mg 6.08500 54.20800 42.48800
C  5.41300 50.91000 41.93300
C  9.24000 53.79300 40.99400
C  6.41300 57.69800 42.06600
C  2.91300 54.65900 43.73400
N  7.16000 52.56000 41.59500
C  6.63000 51.32400 41.49000
C  7.65300 50.41100 40.87600
C  9.00100 51.19700 41.08400
C  8.49200 52.61700 41.24200
C  9.83000 50.74400 42.28300
C  7.45600 50.10600 39.33700
C  7.05900 51.29600 38.48300
H  5.95200 50.96700 37.45800
N  7.63400 55.53900 41.71200
C  8.84400 55.12700 41.18000
C  9.64800 56.26700 40.94800
C  8.86200 57.44200 41.18800
C  7.52500 56.89700 41.62600
C  11.03600 56.23700 40.60300
C  9.42500 58.85400 41.02900
O  10.54900 59.03300 40.62700
C  8.63300 60.04600 41.41300
N  4.81700 55.91100 42.73700
C  5.20000 57.24400 42.54600
C  4.09000 58.16300 42.97000
C  2.95700 57.16000 43.41500
C  3.60300 55.81100 43.33700
C  4.47000 59.34400 43.93900
C  1.61000 57.38800 42.67400
C  0.75300 58.51700 43.26000
N  4.44600 52.97900 42.85900
C  3.27400 53.34900 43.57400
C  2.60500 52.09200 43.89000
C  3.41500 51.05600 43.33600
C  4.43900 51.71100 42.53500
C  1.41300 51.88300 44.72100
C  3.54600 49.57000 43.14800
O  2.88000 48.66200 43.58800
C  4.79300 49.46100 42.16400
C  4.17600 48.85300 40.86100
O  3.21900 49.27600 40.28300
O  4.80800 47.70500 40.52800
C  4.33500 46.91800 39.41600
H  10.20000 53.50100 40.56400
H  6.57000 58.77800 42.04400
H  1.97500 54.70700 44.29100
H  7.57700 49.46700 41.41500
H  9.60700 51.17900 40.17700
H  10.72500 50.21900 41.94900
H  9.32800 50.03900 42.94400
H  10.06300 51.62400 42.88300
H  6.81000 49.23200 39.24800
H  8.37900 49.75500 38.87500
H  7.99600 51.60800 38.02100
H  6.68600 52.17900 39.00300
H  11.13800 56.44900 39.53900
H  11.43100 55.22900 40.73000
H  11.68500 56.84500 41.23300
H  7.72600 60.02500 40.80900
H  9.06500 60.99300 41.08900
H  8.27200 60.16200 42.43500
H  3.79400 58.67600 42.05500
H  2.72700 57.42100 44.44800
H  5.52200 59.25800 44.21400
H  3.79700 59.37500 44.79600
H  4.37300 60.33400 43.49300
H  0.92800 56.54400 42.77500
H  1.88600 57.59500 41.64000
H  0.60900 59.34800 42.56900
H  1.02600 58.79900 44.27700
H  -0.25900 58.11700 43.33000
H  1.42700 50.84800 45.06400
H  0.58900 52.14300 44.05600
H  1.33500 52.66600 45.47500
H  5.50200 48.74500 42.57900
H  3.25500 47.04800 39.34000
H  4.46900 45.84700 39.56700
H  4.81000 47.26800 38.49900

