158

Mg 17.27800 -2.25200 28.28700
C  16.20300 -0.20800 30.83800
C  19.20000 -3.99100 30.40500
C  18.80000 -3.62800 25.64600
C  15.41800 -0.17100 26.00200
N  17.62400 -2.02700 30.37800
C  17.08500 -1.18200 31.25300
C  17.58100 -1.39400 32.71600
C  18.58300 -2.61000 32.47500
C  18.48700 -2.92700 30.98800
C  20.05300 -2.37100 32.90900
C  16.48800 -1.72600 33.76900
C  16.49200 -0.96800 35.07000
H  17.77300 -0.29000 35.60400
N  18.85300 -3.65800 28.09700
C  19.38000 -4.32500 29.09900
C  20.29300 -5.25200 28.58900
C  20.19500 -5.24400 27.18300
C  19.25000 -4.13100 26.86000
C  21.14800 -6.25600 29.40500
C  20.79100 -6.10100 26.07100
O  20.73000 -5.76300 24.88500
C  21.61800 -7.33300 26.44900
N  17.07000 -2.07300 26.13300
C  17.92900 -2.65100 25.26900
C  17.92600 -2.02400 23.84900
C  16.68000 -1.08900 23.98700
C  16.32500 -1.04200 25.49600
C  19.18500 -1.19000 23.33500
C  15.45600 -1.30900 23.00200
C  15.64400 -0.35700 21.75400
N  16.00100 -0.62200 28.37300
C  15.21400 0.02100 27.36000
C  14.48800 1.13100 28.03000
C  14.79500 1.09200 29.41200
C  15.75800 0.03300 29.52500
C  13.55500 1.99700 27.34600
C  14.52900 1.63500 30.76400
O  13.73700 2.51800 31.13100
C  15.52000 0.85800 31.65400
C  16.52400 1.85200 32.14700
O  17.52500 2.17700 31.53800
O  15.99200 2.51800 33.23700
C  16.83100 3.63200 33.63200
H  19.82700 -4.46400 31.16400
H  19.31900 -3.94800 24.74000
H  14.87000 0.42700 25.27000
H  18.11200 -0.50400 33.05200
H  18.19600 -3.50400 32.96400
H  20.65100 -2.30000 32.00100
H  20.25700 -3.20800 33.57800
H  20.18800 -1.51600 33.57100
H  16.48800 -2.79800 33.96600
H  15.49700 -1.59900 33.33400
H  16.18800 -1.53700 35.94900
H  15.78100 -0.15700 34.91000
H  20.69200 -7.19600 29.09400
H  21.03700 -6.14900 30.48400
H  22.18900 -6.23000 29.08300
H  21.05500 -7.93100 27.16500
H  22.44400 -6.89800 27.01100
H  22.07300 -7.82700 25.59000
H  17.65300 -2.88800 23.24300
H  16.95900 -0.07500 23.69900
H  18.96800 -0.18900 22.96300
H  19.55300 -1.69400 22.44100
H  19.92500 -1.22700 24.13400
H  14.51100 -0.99700 23.44600
H  15.32700 -2.33500 22.65700
H  16.54800 0.24800 21.81500
H  14.83100 0.36500 21.67600
H  15.60800 -1.03000 20.89800
H  12.53300 1.71700 27.60300
H  13.53600 1.86100 26.26500
H  13.79400 3.04700 27.51200
H  14.95300 0.41300 32.47200
H  16.62700 4.52500 33.04100
H  17.90000 3.47300 33.77600
H  16.28700 3.77300 34.56500
Mg 41.03100 8.52600 29.87600
C  42.72600 9.92100 32.63500
C  38.60000 7.46800 32.08300
C  39.31800 7.13900 27.25700
C  43.83700 8.75000 28.04800
N  40.69000 8.71800 32.14800
C  41.49500 9.45700 33.02200
C  40.75200 9.53100 34.36100
C  39.53600 8.67200 34.17700
C  39.57300 8.30200 32.69400
C  39.38500 7.33000 34.98900
C  40.62800 11.03100 34.94500
C  39.87400 11.33800 36.24400
H  40.67900 12.14500 37.34600
N  39.17400 7.49000 29.67600
C  38.40300 7.10500 30.71700
C  37.20500 6.48200 30.18500
C  37.33700 6.47000 28.77700
C  38.60000 7.10800 28.47900
C  36.09500 6.08200 31.09200
C  36.53300 5.79000 27.67700
O  36.78200 5.78800 26.45700
C  35.32200 4.98400 28.07000
N  41.51100 7.94300 28.02400
C  40.61600 7.47500 27.11100
C  41.35200 7.04300 25.75500
C  42.72800 7.66900 26.00200
C  42.71000 8.17400 27.43400
C  41.30000 5.54000 25.43600
C  43.06800 8.80100 24.88600
C  42.34900 10.11700 25.20700
N  42.89800 9.34000 30.20000
C  44.01400 9.31400 29.32600
C  45.08500 9.96800 29.99700
C  44.67400 10.28600 31.25500
C  43.33000 9.77300 31.36000
C  46.33700 10.21300 29.33600
C  45.06600 10.83700 32.46500
O  46.02400 11.42600 32.84300
C  43.81500 10.53500 33.53500
C  44.26500 9.69300 34.65200
O  45.02100 8.72600 34.54800
O  43.64700 10.02300 35.79900
C  44.18200 9.34300 36.96800
H  37.88500 7.19000 32.85900
H  38.91200 6.76200 26.31600
H  44.68100 8.67600 27.35900
H  41.30800 9.01800 35.14500
H  38.65700 9.30000 34.32400
H  39.48400 6.54800 34.23600
H  38.39500 7.29200 35.44300
H  40.17700 7.04700 35.68300
H  40.09600 11.65600 34.22800
H  41.61800 11.42100 35.18100
H  39.55400 10.36300 36.61100
H  38.99200 11.96400 36.10500
H  36.25400 6.04400 32.17000
H  35.89100 5.02000 30.95000
H  35.20400 6.68300 30.91200
H  35.62700 4.25500 28.82100
H  35.03300 4.45000 27.16400
H  34.52500 5.62700 28.44300
H  40.82700 7.54500 24.94200
H  43.56100 6.97000 26.08000
H  42.33100 5.19100 25.50400
H  40.96500 5.44500 24.40300
H  40.64400 5.01400 26.12900
H  42.77600 8.57400 23.86100
H  44.15200 8.89500 24.93700
H  41.55300 10.19600 24.46800
H  42.97100 11.01000 25.15600
H  41.80200 10.16300 26.14900
H  46.58700 9.39400 28.66100
H  47.17300 10.28900 30.03000
H  46.18300 11.15000 28.80000
H  43.55000 11.51300 33.93600
H  45.25800 9.23600 37.10200
H  43.72300 8.36100 37.08200
H  43.82000 9.86600 37.85300

