158

Mg 35.61600 2.25900 30.19200
C  33.31200 3.25600 32.51100
C  38.05100 2.62400 32.80700
C  38.05900 1.31900 28.06900
C  33.50200 2.73300 27.71700
N  35.65800 2.99600 32.41400
C  34.54800 3.12100 33.13800
C  34.86500 3.15200 34.64000
C  36.36000 3.18800 34.61200
C  36.75500 2.85600 33.21900
C  36.98600 4.56900 35.13400
C  34.19100 1.95000 35.45100
C  33.69500 2.38700 36.86200
H  34.43500 3.47200 37.62800
N  37.75200 1.96900 30.39100
C  38.50900 2.14400 31.55600
C  39.84600 1.86300 31.18900
C  39.96700 1.49700 29.78600
C  38.56500 1.52300 29.36500
C  41.06000 2.04900 32.11100
C  41.10800 1.04800 28.89200
O  40.91600 0.63600 27.76200
C  42.59200 1.05400 29.40200
N  35.84400 2.29700 28.15200
C  36.85200 1.65200 27.53000
C  36.54500 1.43700 26.04300
C  34.97900 1.56700 25.95200
C  34.71800 2.25500 27.32400
C  37.18300 2.47500 25.01900
C  34.27600 0.12600 25.97200
C  32.99600 0.07700 25.14700
N  33.71400 2.81700 30.13200
C  32.96800 3.01800 28.98300
C  31.61900 3.40100 29.38400
C  31.63700 3.40500 30.80600
C  33.03000 3.18100 31.16700
C  30.47600 3.52600 28.49300
C  30.87200 3.63700 31.97600
O  29.69600 3.98300 32.23000
C  31.96800 3.60800 33.15300
C  32.05400 5.00100 33.76700
O  32.52600 5.98100 33.22300
O  31.41000 4.97100 34.99100
C  31.45300 6.26300 35.80500
H  38.76800 2.70700 33.62600
H  38.71500 0.93000 27.28600
H  32.73600 2.76300 26.93900
H  34.43300 4.08100 35.01200
H  36.64700 2.36400 35.26600
H  36.18500 5.30700 35.18500
H  37.80500 4.84000 34.46700
H  37.31800 4.30400 36.13800
H  34.82900 1.07500 35.57900
H  33.28100 1.54200 35.01200
H  33.76600 1.58200 37.59300
H  32.64500 2.67500 36.82800
H  41.59500 1.11900 32.30100
H  40.68200 2.54600 33.00500
H  41.72200 2.78600 31.65500
H  42.62300 0.39000 30.26500
H  42.76500 2.03300 29.84900
H  43.26100 0.79900 28.58100
H  36.76000 0.38100 25.88300
H  34.62500 2.09200 25.06400
H  36.61800 2.65200 24.10400
H  38.15600 2.04000 24.79100
H  37.37300 3.41600 25.53600
H  34.13900 -0.22000 26.99600
H  34.97400 -0.56000 25.49200
H  32.74400 1.06100 24.75100
H  32.20600 -0.34200 25.77100
H  33.07600 -0.60400 24.30000
H  30.16200 2.57400 28.06200
H  30.66400 4.29900 27.74900
H  29.70800 3.89100 29.17500
H  31.79000 2.83900 33.90400
H  30.56600 6.25600 36.43800
H  31.41700 7.03500 35.03600
H  32.41400 6.24500 36.31900
Mg -11.56300 17.22000 42.10300
C  -8.44900 15.59100 42.15100
C  -10.06600 19.95500 40.89700
C  -14.64500 18.54200 41.57900
C  -13.06500 14.11800 42.71200
N  -9.47800 17.60300 41.56400
C  -8.36300 16.92500 41.77200
C  -7.12100 17.65300 41.12700
C  -7.66100 19.05700 41.08400
C  -9.18700 18.87100 41.16400
C  -7.05700 19.95200 42.12900
C  -6.75300 17.10300 39.72000
C  -5.18800 16.92300 39.57600
H  -4.84600 15.63500 38.79100
N  -12.25700 19.04000 41.42400
C  -11.47000 20.01600 40.97500
C  -12.25100 21.14900 40.45000
C  -13.61200 20.79500 40.74800
C  -13.58700 19.42300 41.32000
C  -11.62000 22.42700 39.87200
C  -14.83700 21.70100 40.65100
O  -14.69500 22.90600 40.34400
C  -16.33900 21.25000 41.03500
N  -13.59400 16.40900 41.86700
C  -14.64200 17.21800 41.88300
C  -15.97900 16.46900 42.25000
C  -15.45000 15.04100 42.56400
C  -13.95000 15.21500 42.44900
C  -16.81500 16.98300 43.53100
C  -15.94600 13.71600 41.79300
C  -16.55100 12.59900 42.61600
N  -10.91100 15.23200 42.34800
C  -11.64900 14.07900 42.52900
C  -10.78300 12.96700 42.60700
C  -9.48000 13.53900 42.40900
C  -9.63800 14.89200 42.32200
C  -11.18200 11.60500 43.02600
C  -8.06000 13.24100 42.32700
O  -7.43000 12.20300 42.31000
C  -7.36700 14.58800 42.17200
C  -6.32500 14.68800 43.31900
O  -6.58700 15.00000 44.46500
O  -5.10000 14.74700 42.72700
C  -3.94200 15.23500 43.45000
H  -9.38500 20.75500 40.60000
H  -15.67700 18.87000 41.44000
H  -13.56800 13.22100 43.07800
H  -6.29800 17.62500 41.84100
H  -7.35600 19.39400 40.09300
H  -6.11700 19.49600 42.44000
H  -7.76300 20.00300 42.95700
H  -6.78300 20.90800 41.68200
H  -7.08800 17.70000 38.87200
H  -7.31700 16.17200 39.65400
H  -4.58800 16.91800 40.48600
H  -4.91800 17.82200 39.02100
H  -10.58500 22.25800 39.57100
H  -11.61500 23.18500 40.65500
H  -12.22100 22.79300 39.04000
H  -16.98700 22.12400 40.98000
H  -16.23300 20.86100 42.04700
H  -16.70100 20.40000 40.45700
H  -16.55300 16.44800 41.32400
H  -15.53800 14.89500 43.64100
H  -17.79800 17.26000 43.14900
H  -16.48400 17.94800 43.91600
H  -16.90100 16.32700 44.39700
H  -15.04500 13.36000 41.29300
H  -16.76000 14.04000 41.14400
H  -17.35200 12.02700 42.14700
H  -16.96300 12.91800 43.57300
H  -15.79800 11.82800 42.78000
H  -11.69300 11.48100 43.98000
H  -10.22700 11.08600 43.11200
H  -11.70100 11.07800 42.22500
H  -6.86100 14.50900 41.21000
H  -4.25400 15.44900 44.47200
H  -3.52700 16.12000 42.96900
H  -3.22300 14.42100 43.36100

