158

Mg 1.66400 -1.22200 44.30500
C  5.12600 -0.61500 44.22200
C  1.23700 1.75300 42.58800
C  -1.51700 -2.10800 43.87900
C  2.37000 -4.51700 45.55400
N  3.05700 0.34300 43.53600
C  4.42100 0.39600 43.53800
C  5.04500 1.51400 42.64900
C  3.76200 2.44600 42.49300
C  2.62600 1.45700 42.81000
C  3.67500 3.76800 43.24500
C  5.56700 1.04500 41.28500
C  7.05700 1.37900 41.01400
H  7.39000 1.92400 39.65400
N  0.08100 -0.23700 43.48500
C  0.11700 0.96300 42.83800
C  -1.23400 1.32000 42.40300
C  -2.11100 0.27200 42.78400
C  -1.20900 -0.78300 43.47400
C  -1.56000 2.64700 41.72400
C  -3.59300 0.25800 42.56400
O  -4.10600 1.22100 41.95300
C  -4.41400 -0.81200 43.17300
N  0.61300 -3.02600 44.70800
C  -0.73500 -3.14200 44.45500
C  -1.29300 -4.53800 44.90600
C  0.00500 -5.32800 45.31500
C  1.06200 -4.26500 45.16800
C  -2.42000 -4.60200 46.01600
C  0.27900 -6.55900 44.45700
C  0.86400 -7.74700 45.23800
N  3.38500 -2.31200 44.86000
C  3.51100 -3.60800 45.33600
C  4.87100 -3.85600 45.67500
C  5.56500 -2.67300 45.35800
C  4.60400 -1.75500 44.83800
C  5.36100 -5.17000 46.26400
C  6.85500 -2.04300 45.31300
O  7.92400 -2.48900 45.68500
C  6.61900 -0.70100 44.56300
C  6.88900 0.39500 45.55000
O  6.34300 0.52200 46.68800
O  7.72800 1.41600 44.94400
C  7.78100 2.73100 45.56600
H  1.09100 2.67200 42.01600
H  -2.52800 -2.47800 43.69400
H  2.64800 -5.44300 46.06200
H  5.73400 2.06700 43.28800
H  3.60400 2.67700 41.44000
H  3.53000 4.53300 42.48200
H  4.63100 3.98300 43.72100
H  2.88500 3.86600 43.99000
H  5.05000 1.41500 40.39900
H  5.43200 -0.03400 41.35500
H  7.60900 0.45000 41.15800
H  7.52200 2.11900 41.66500
H  -2.24400 2.46500 40.89500
H  -0.76200 3.24900 41.29100
H  -2.18300 3.25600 42.37900
H  -4.26000 -1.71900 42.58900
H  -5.44000 -0.45200 43.24400
H  -3.98900 -0.92700 44.17000
H  -1.73700 -4.99600 44.02200
H  -0.02700 -5.60600 46.36900
H  -3.37200 -4.81600 45.53000
H  -2.56800 -3.71700 46.63400
H  -2.15700 -5.36700 46.74700
H  0.84600 -6.36500 43.54600
H  -0.64000 -7.00200 44.07400
H  1.42000 -8.34900 44.51900
H  -0.03100 -8.21000 45.65300
H  1.42800 -7.57100 46.15400
H  6.44300 -5.28400 46.20600
H  4.81100 -5.99700 45.81400
H  5.17600 -5.10300 47.33600
H  7.12500 -0.55200 43.60900
H  8.64800 3.34100 45.31100
H  7.64000 2.71800 46.64700
H  6.88800 3.25900 45.23300
Mg 16.02500 -1.91900 27.68200
C  15.17900 0.17900 30.44600
C  17.98900 -3.83800 29.78100
C  17.33800 -3.42400 25.02600
C  14.34900 0.34000 25.67100
N  16.46200 -1.84300 29.81500
C  15.99100 -0.95400 30.80000
C  16.59600 -1.17400 32.20000
C  17.62500 -2.29500 31.90100
C  17.35500 -2.71700 30.37400
C  19.06600 -1.80800 32.01600
C  15.50800 -1.41200 33.35300
C  15.80600 -1.00800 34.86000
H  17.11300 -0.21800 35.20200
N  17.38500 -3.49700 27.39400
C  18.05800 -4.17600 28.41000
C  18.78000 -5.22500 27.86000
C  18.63700 -5.13700 26.43600
C  17.73300 -4.01400 26.21900
C  19.62800 -6.20200 28.71700
C  19.25300 -6.00100 25.41800
O  19.01500 -5.78700 24.26800
C  20.14700 -7.15100 25.67900
N  15.87300 -1.56700 25.64900
C  16.49000 -2.35600 24.71500
C  16.10500 -1.98500 23.28900
C  14.94600 -0.97000 23.50900
C  15.03900 -0.73600 25.05100
C  17.29400 -1.41900 22.43500
C  13.53100 -1.47600 23.11800
C  13.09100 -1.18800 21.71400
N  14.91100 -0.15300 27.97400
C  14.31600 0.66000 27.03200
C  13.59100 1.69100 27.63100
C  13.83700 1.56200 28.98900
C  14.68800 0.43000 29.16600
C  12.79300 2.69800 26.92900
C  13.55600 2.02700 30.33600
O  12.82300 2.88600 30.75600
C  14.54300 1.28200 31.31800
C  15.46100 2.24700 31.93000
O  16.43700 2.71000 31.34900
O  14.95300 2.70500 33.17900
C  15.79100 3.78400 33.77100
H  18.53200 -4.39600 30.54700
H  17.74500 -3.80900 24.08900
H  13.61400 0.91900 25.10600
H  16.93100 -0.15100 32.37100
H  17.47000 -3.19000 32.50300
H  19.49000 -1.71900 31.01600
H  19.73100 -2.46400 32.57800
H  19.07000 -0.85000 32.53600
H  15.31800 -2.48600 33.35900
H  14.58200 -0.94300 33.01900
H  15.74600 -1.94100 35.42100
H  14.87300 -0.55700 35.19800
H  19.39900 -7.24400 28.49300
H  19.35100 -6.14800 29.77000
H  20.70400 -6.06400 28.61200
H  21.13600 -6.97300 26.10200
H  20.43100 -7.58200 24.71900
H  19.65100 -7.86000 26.34100
H  15.79000 -2.89100 22.77100
H  15.17800 -0.03500 23.00000
H  17.14700 -0.34600 22.31300
H  17.44600 -1.98500 21.51500
H  18.20900 -1.54200 23.01500
H  12.74300 -1.06100 23.74700
H  13.60300 -2.56100 23.19600
H  12.10400 -0.78000 21.93100
H  13.14000 -2.07600 21.08300
H  13.73700 -0.45100 21.23600
H  13.24400 2.85600 25.94900
H  12.75000 3.66100 27.43900
H  11.75300 2.38700 26.83000
H  13.93900 0.85700 32.12000
H  15.76400 3.82400 34.86000
H  15.67700 4.79900 33.38900
H  16.85300 3.66400 33.55300

