158

Mg 25.45200 -6.79000 48.28600
C  26.65200 -3.97300 46.56700
C  22.64700 -6.64500 46.38500
C  24.53600 -9.72900 49.72100
C  28.51800 -6.94100 50.00400
N  24.90600 -5.59100 46.51900
C  25.46400 -4.49200 46.01500
C  24.72700 -3.89500 44.88000
C  23.35900 -4.65300 44.92500
C  23.62500 -5.64100 46.03800
C  22.08000 -3.79100 45.11600
C  25.48600 -4.04000 43.50800
C  25.78200 -2.73600 42.75500
H  24.91500 -2.43100 41.50800
N  23.68400 -8.00300 48.17000
C  22.61800 -7.71300 47.34800
C  21.69200 -8.77400 47.56700
C  22.27700 -9.73700 48.44400
C  23.57200 -9.22200 48.78800
C  20.34200 -8.94300 46.90200
C  21.58100 -10.98000 48.90500
O  20.43700 -11.29200 48.49600
C  22.29300 -11.91700 49.85300
N  26.53800 -8.33900 49.39800
C  25.88500 -9.32200 50.03100
C  26.77600 -10.04300 51.01100
C  28.03800 -9.13600 51.11800
C  27.69600 -8.08500 50.09300
C  26.08400 -10.50200 52.32800
C  29.51000 -9.69900 50.83800
C  30.47500 -9.87800 51.94500
N  27.28700 -5.75100 48.29200
C  28.43300 -5.85200 49.06900
C  29.34600 -4.77700 48.77500
C  28.70800 -4.01000 47.77800
C  27.46300 -4.63100 47.58600
C  30.62600 -4.54300 49.43400
C  28.74100 -2.79100 47.08300
O  29.58300 -1.95200 47.09500
C  27.44900 -2.76800 46.14000
C  26.83000 -1.37600 46.33000
O  27.23800 -0.35200 45.80500
O  25.72700 -1.46200 47.12000
C  24.94400 -0.26400 47.41400
H  21.72900 -6.64900 45.79300
H  24.20300 -10.58300 50.31500
H  29.35600 -6.89800 50.70300
H  24.51800 -2.87700 45.21000
H  23.22900 -5.22000 44.00300
H  21.54500 -3.69500 44.17100
H  22.32700 -2.73800 45.25100
H  21.43200 -4.14000 45.92000
H  25.08900 -4.65400 42.70000
H  26.45800 -4.49500 43.69900
H  26.83100 -2.71500 42.45800
H  25.62000 -1.93500 43.47700
H  20.36900 -8.29900 46.02300
H  19.44800 -8.70100 47.47800
H  20.31500 -9.92700 46.43400
H  23.20800 -12.35900 49.46000
H  21.55100 -12.66700 50.12800
H  22.44500 -11.36800 50.78200
H  26.98700 -10.84600 50.30500
H  28.09500 -8.71900 52.12400
H  25.16900 -9.92100 52.44200
H  26.70500 -10.43400 53.22100
H  25.86000 -11.56800 52.27300
H  30.09400 -9.21200 50.05600
H  29.31700 -10.74000 50.57900
H  31.37500 -9.29700 51.74500
H  30.77600 -10.87700 52.25900
H  30.04800 -9.36100 52.80400
H  30.69600 -4.89700 50.46200
H  30.48500 -3.47900 49.62200
H  31.53100 -4.84900 48.91000
H  27.79700 -2.82600 45.10900
H  25.49900 0.64500 47.17900
H  24.58900 -0.28700 48.44400
H  24.05200 -0.16800 46.79500
Mg 36.44800 49.43500 24.35600
C  36.18300 47.79600 27.58000
C  35.13600 52.20800 25.78800
C  36.11600 50.84700 21.24700
C  37.36200 46.36900 22.97100
N  35.77500 49.95600 26.39900
C  35.91400 49.17200 27.56500
C  35.52000 49.99900 28.83400
C  35.05600 51.34900 28.15700
C  35.25900 51.18600 26.71500
C  33.60600 51.90900 28.62100
C  36.69500 50.22900 29.88100
C  36.30100 50.14000 31.38400
H  34.82600 50.25000 31.76700
N  35.78100 51.29000 23.60800
C  35.31300 52.31400 24.41000
C  35.02300 53.49000 23.57400
C  35.22700 53.05000 22.22600
C  35.70600 51.65300 22.30200
C  34.40800 54.80600 24.13000
C  35.11200 53.79400 20.89900
O  35.46500 53.32700 19.84600
C  34.38500 55.19800 20.88500
N  36.62800 48.70900 22.45900
C  36.48600 49.52100 21.30400
C  36.89800 48.79300 20.04500
C  37.52300 47.49100 20.59600
C  37.11000 47.50000 22.10500
C  35.60700 48.59700 19.22400
C  39.10800 47.43000 20.44400
C  40.07500 48.17200 21.47000
N  36.81600 47.50100 25.02500
C  37.24400 46.32900 24.38900
C  37.46500 45.30200 25.39400
C  37.04800 45.85200 26.56800
C  36.63700 47.15400 26.36200
C  37.82300 43.87600 25.10000
C  36.85000 45.48700 27.98700
O  37.03900 44.43300 28.58700
C  36.24400 46.73900 28.69900
C  34.91100 46.35300 29.37700
O  33.76400 46.57000 28.81300
O  35.11900 45.84900 30.61400
C  33.97800 45.41800 31.29300
H  34.62700 53.10700 26.14300
H  36.15400 51.23000 20.22500
H  37.73800 45.43200 22.55300
H  34.64200 49.49500 29.23800
H  35.73100 52.19500 28.27900
H  33.18000 51.23300 29.36200
H  33.06200 51.88300 27.67700
H  33.68400 52.97100 28.85800
H  37.17100 51.20900 29.89400
H  37.41400 49.51800 29.47500
H  36.92300 50.87800 31.89100
H  36.56900 49.16700 31.79600
H  33.32500 54.76900 24.01500
H  34.97600 55.65700 23.75500
H  34.54400 54.90400 25.20700
H  34.15400 55.45000 19.85000
H  35.09700 55.93900 21.24800
H  33.40700 55.12100 21.36100
H  37.56200 49.36900 19.40100
H  37.19500 46.58900 20.08000
H  34.73000 48.67400 19.86700
H  35.62700 47.61500 18.75100
H  35.48000 49.24900 18.35900
H  39.41600 47.88800 19.50400
H  39.41600 46.38600 20.38300
H  39.42600 48.24400 22.34400
H  40.57000 49.07100 21.10200
H  40.81500 47.43300 21.77700
H  38.85900 43.98500 24.77900
H  37.13400 43.42000 24.38900
H  37.80000 43.40600 26.08400
H  36.82600 47.06500 29.56200
H  34.21200 44.86300 32.20100
H  33.30900 44.83300 30.66100
H  33.26400 46.19500 31.56400

