158

Mg 9.13800 2.81700 26.66900
C  10.52200 1.15500 29.51800
C  7.28900 4.70700 28.75300
C  7.96400 4.04700 24.07300
C  10.74600 0.15200 24.77600
N  9.00700 2.95100 28.90200
C  9.67000 2.23400 29.90500
C  9.23900 2.68400 31.29800
C  8.03600 3.72300 31.01000
C  8.18800 3.88200 29.50200
C  6.61400 3.19600 31.45000
C  10.48300 3.09500 32.23000
C  10.39100 4.14400 33.37500
H  10.96000 3.86700 34.76000
N  7.81900 4.17400 26.43900
C  7.15900 4.94200 27.36500
C  6.34900 5.95500 26.70700
C  6.57700 5.86400 25.27400
C  7.45200 4.61800 25.21300
C  5.72100 7.00900 27.44600
C  6.08600 6.75900 24.13900
O  6.45000 6.56900 22.98900
C  5.07800 7.89300 24.40800
N  9.39800 2.22800 24.69500
C  8.79400 2.93700 23.75300
C  9.15800 2.48600 22.32100
C  10.02200 1.23200 22.57400
C  10.15500 1.25600 24.12400
C  7.97500 2.24800 21.36500
C  11.39300 1.20800 21.84400
C  11.19700 1.07900 20.31600
N  10.39100 1.08800 27.03200
C  10.92800 0.10000 26.15600
C  11.56100 -0.95200 26.90600
C  11.52200 -0.46200 28.24600
C  10.81800 0.71800 28.27000
C  12.11900 -2.16800 26.38300
C  11.92900 -0.83900 29.53900
O  12.56700 -1.79200 29.87300
C  11.23600 0.18900 30.49900
C  10.30800 -0.56600 31.39100
O  9.24000 -1.02800 31.09800
O  10.84200 -0.60400 32.64400
C  10.08800 -1.30100 33.71700
H  6.63700 5.31200 29.38600
H  7.48800 4.44500 23.17400
H  11.21700 -0.61600 24.15900
H  8.73200 1.80600 31.69900
H  8.15900 4.63700 31.59100
H  5.97200 3.06600 30.57900
H  6.19400 3.93100 32.13600
H  6.83000 2.26600 31.97600
H  11.22200 3.64300 31.64500
H  10.92900 2.20500 32.67500
H  9.33100 4.39000 33.44400
H  10.91900 5.02500 33.01200
H  6.22300 7.96500 27.29600
H  5.71900 6.69800 28.49100
H  4.74000 7.12200 26.98400
H  4.16800 7.43300 24.79500
H  4.85000 8.30600 23.42500
H  5.55000 8.58000 25.11000
H  9.80100 3.26700 21.91500
H  9.40300 0.39600 22.24900
H  7.02700 2.64400 21.73000
H  7.93100 1.21000 21.03500
H  8.20400 2.77800 20.44100
H  11.85500 0.25600 22.10800
H  12.00900 2.07700 22.07700
H  10.16800 1.34600 20.07600
H  11.37300 0.05100 19.99900
H  11.85600 1.76300 19.78100
H  11.35000 -2.49900 25.68500
H  12.14500 -2.84400 27.23800
H  13.04200 -1.95700 25.84300
H  11.90800 0.74600 31.15300
H  10.48100 -2.28900 33.95700
H  9.05200 -1.39900 33.39300
H  9.97400 -0.73800 34.64400
Mg 25.21600 -8.58500 48.06600
C  27.46000 -6.21700 46.84100
C  23.05700 -7.66500 45.64700
C  23.10300 -10.99500 49.23700
C  27.68600 -9.73900 50.38600
N  25.31800 -7.23200 46.38900
C  26.27700 -6.31600 46.05900
C  25.88900 -5.34100 44.95300
C  24.40400 -5.83700 44.60400
C  24.25100 -7.00500 45.58100
C  23.35100 -4.69800 44.86000
C  26.80900 -5.37500 43.72600
C  27.46600 -3.97300 43.28600
H  27.30200 -3.60600 41.84800
N  23.36600 -9.35300 47.41100
C  22.66000 -8.80700 46.35300
C  21.49600 -9.62200 46.22000
C  21.39200 -10.49700 47.33500
C  22.64700 -10.35100 48.02900
C  20.58400 -9.43100 45.11600
C  20.17600 -11.33300 47.67700
O  19.14800 -11.41900 46.99700
C  20.16900 -12.11600 48.95500
N  25.39300 -10.24700 49.45700
C  24.29100 -10.94400 49.94200
C  24.61300 -11.81100 51.14000
C  26.14500 -11.64600 51.27600
C  26.47700 -10.47800 50.30900
C  23.74600 -11.44800 52.41400
C  27.08300 -12.88200 50.92400
C  28.08300 -13.45400 51.98900
N  27.08700 -8.06000 48.56900
C  27.98100 -8.66400 49.51200
C  29.23200 -7.90100 49.38900
C  29.03700 -6.89300 48.42300
C  27.73400 -7.08100 47.94400
C  30.52400 -8.30500 50.21600
C  29.58700 -5.71800 47.75300
O  30.57300 -5.14000 48.00400
C  28.55600 -5.19200 46.80300
C  28.08500 -3.92000 47.43400
O  27.37800 -3.84500 48.43000
O  28.51400 -2.97500 46.64100
C  28.14700 -1.60900 47.00300
H  22.23700 -7.42600 44.96700
H  22.38900 -11.65800 49.73100
H  28.44300 -10.24400 50.99000
H  25.87500 -4.35800 45.42400
H  24.33500 -6.21200 43.58200
H  23.84800 -3.76000 44.61400
H  22.89700 -4.81000 45.84400
H  22.52700 -4.84200 44.16100
H  26.34100 -5.71400 42.80200
H  27.54300 -6.13900 43.98600
H  28.54600 -3.95200 43.43300
H  27.15000 -3.15300 43.93200
H  19.79500 -10.17100 44.98500
H  21.08800 -9.44000 44.15000
H  19.96600 -8.54600 45.26600
H  20.96400 -12.85600 48.86400
H  19.19500 -12.59900 49.03400
H  20.30900 -11.39100 49.75600
H  24.40400 -12.82100 50.78700
H  26.40100 -11.21900 52.24500
H  24.32100 -10.75100 53.02400
H  23.58600 -12.41300 52.89500
H  22.82600 -10.98100 52.06300
H  27.61300 -12.55300 50.03000
H  26.44300 -13.73900 50.71500
H  27.87700 -14.44900 52.38400
H  28.35200 -12.75600 52.78300
H  28.99700 -13.56400 51.40500
H  30.37500 -8.21300 51.29200
H  31.41000 -7.71000 49.99600
H  30.84600 -9.32200 49.99100
H  28.93800 -5.12700 45.78400
H  28.80300 -1.17100 47.75600
H  27.13000 -1.42100 47.34800
H  28.21600 -0.96300 46.12800

