158

Mg 1.51600 7.50900 25.12400
C  2.01700 9.42500 28.03300
C  1.64000 4.61400 27.15500
C  1.05000 5.75600 22.38500
C  2.13000 10.37100 23.20100
N  1.95800 7.06800 27.27900
C  1.91300 8.01200 28.31500
C  1.91700 7.46800 29.70600
C  2.13000 5.95100 29.30400
C  1.82400 5.85700 27.83200
C  3.57900 5.33900 29.58600
C  0.60500 7.63000 30.51800
C  0.29100 6.77700 31.77200
H  1.50500 6.22500 32.51400
N  1.37000 5.44100 24.88100
C  1.46300 4.48000 25.72300
C  1.45300 3.19700 25.01300
C  1.28300 3.46900 23.64300
C  1.18100 4.94500 23.60900
C  1.51800 1.80300 25.66800
C  1.13400 2.56900 22.44000
O  0.97600 2.97500 21.26800
C  1.16000 1.09600 22.49000
N  1.70200 8.02200 23.06400
C  1.21400 7.08800 22.15800
C  1.14900 7.78000 20.73300
C  1.42800 9.31900 21.00600
C  1.80100 9.27200 22.53000
C  2.11300 7.18900 19.66200
C  0.12600 10.13200 20.77100
C  0.27500 11.45000 20.04900
N  2.01100 9.49600 25.48800
C  2.20400 10.58900 24.62000
C  2.34400 11.74400 25.42900
C  2.32700 11.35600 26.74900
C  2.15300 9.94900 26.73400
C  2.40700 13.18400 24.96000
C  2.49200 11.83200 28.07700
O  2.65200 12.92800 28.49800
C  2.25100 10.61100 29.00200
C  3.36800 10.67600 29.98500
O  4.48400 10.28200 29.78300
O  2.94800 11.34300 31.13200
C  3.86300 11.55100 32.20400
H  1.79500 3.75100 27.80600
H  0.80000 5.32100 21.41500
H  2.21900 11.23900 22.54300
H  2.83600 7.84400 30.15500
H  1.42000 5.31800 29.83800
H  4.18900 5.71700 30.40600
H  4.19500 5.26700 28.68900
H  3.59800 4.30200 29.92200
H  -0.16900 7.57800 29.75300
H  0.50600 8.68700 30.76700
H  -0.40200 6.00300 31.44300
H  -0.18700 7.33900 32.57400
H  0.55800 1.36200 25.93500
H  2.08600 1.89500 26.59400
H  2.15200 1.20900 25.01000
H  0.54300 0.71400 23.30400
H  2.17500 0.70000 22.45200
H  0.65000 0.81100 21.57000
H  0.12700 7.58500 20.40800
H  2.22700 9.71700 20.38000
H  2.97400 7.85700 19.68600
H  1.54200 7.25600 18.73600
H  2.38100 6.15600 19.88700
H  -0.30500 10.40100 21.73500
H  -0.54700 9.55300 20.13800
H  0.35600 11.29000 18.97400
H  1.23700 11.84100 20.38200
H  -0.56800 12.12100 20.20800
H  1.41500 13.44500 24.59100
H  3.14600 13.07300 24.16600
H  2.95400 13.92000 25.55000
H  1.29800 10.84600 29.47700
H  4.81100 11.93500 31.82900
H  4.04600 10.56300 32.62500
H  3.55100 12.23100 32.99600
Mg -5.20800 24.65000 26.20700
C  -3.16800 26.24000 28.59100
C  -6.25400 22.50400 28.57200
C  -7.14800 23.25200 23.88700
C  -3.84100 26.75500 23.83400
N  -4.58000 24.31700 28.30200
C  -3.88700 25.16900 29.13300
C  -4.15500 24.86400 30.62700
C  -4.72400 23.41000 30.47600
C  -5.29500 23.40900 28.99400
C  -3.57300 22.35500 30.52700
C  -5.22300 25.84300 31.20300
C  -5.14000 26.20400 32.69000
H  -4.61200 25.14300 33.61700
N  -6.57100 23.03500 26.20700
C  -6.85700 22.33300 27.31900
C  -7.87900 21.44900 26.96900
C  -8.24800 21.59000 25.56900
C  -7.30200 22.63200 25.14300
C  -8.62700 20.59700 28.03100
C  -9.33800 20.86900 24.71400
O  -9.36100 21.09300 23.47600
C  -10.24800 19.72900 25.28600
N  -5.41700 24.91400 24.17600
C  -6.35100 24.30200 23.47100
C  -6.27700 24.77200 21.97700
C  -5.45900 26.08500 22.08500
C  -4.79100 25.88200 23.41700
C  -5.63300 23.69900 21.05500
C  -6.32800 27.37900 22.14600
C  -6.19600 28.18000 20.83900
N  -3.65600 26.09500 26.12700
C  -3.30400 26.89500 25.10600
C  -2.36300 27.82600 25.55400
C  -2.33900 27.60800 26.97300
C  -3.05400 26.52200 27.22700
C  -1.57800 28.83800 24.79400
C  -1.85300 28.19100 28.25200
O  -1.08200 29.11800 28.54300
C  -2.36300 27.23600 29.34000
C  -1.25200 26.70600 30.16500
O  -0.27700 26.06300 29.78200
O  -1.54800 26.95200 31.51600
C  -0.65800 26.39000 32.52700
H  -6.60700 21.77200 29.30100
H  -7.69300 22.82100 23.04400
H  -3.31800 27.47200 23.19700
H  -3.29100 24.92900 31.28800
H  -5.55100 23.13600 31.13100
H  -3.35000 22.08200 29.49500
H  -3.66900 21.39300 31.02900
H  -2.63000 22.83700 30.78600
H  -6.19000 25.37100 31.03200
H  -5.19100 26.81300 30.70600
H  -6.14100 26.30900 33.10900
H  -4.54700 27.09800 32.87900
H  -9.65000 20.95800 28.13700
H  -8.18000 20.46500 29.01600
H  -8.73500 19.57800 27.65900
H  -10.76100 20.19900 26.12600
H  -9.68100 18.82000 25.48500
H  -10.99500 19.53200 24.51700
H  -7.27500 24.90500 21.55900
H  -4.67500 26.14200 21.33100
H  -4.86400 24.18600 20.45600
H  -6.45500 23.34900 20.43000
H  -5.22100 22.88000 21.64300
H  -5.99700 27.99400 22.98200
H  -7.38800 27.13700 22.21800
H  -5.79300 27.71100 19.94200
H  -5.62000 29.08200 21.04600
H  -7.22100 28.47900 20.62300
H  -2.27900 29.28200 24.08700
H  -0.86000 28.27600 24.19700
H  -0.99000 29.51400 25.41400
H  -3.02900 27.83700 29.96000
H  0.25000 26.99200 32.49300
H  -0.19000 25.42800 32.31600
H  -1.08500 26.37400 33.53000

