158

Mg 0.46900 7.54900 26.71400
C  1.21500 9.91500 29.37700
C  0.67400 5.03100 28.95700
C  0.08500 5.65000 24.21300
C  1.22200 10.41900 24.52300
N  1.10900 7.53900 28.84200
C  1.07600 8.53000 29.79000
C  0.92000 8.00800 31.19500
C  1.07100 6.45000 30.99600
C  0.91600 6.31700 29.46800
C  2.47300 5.93500 31.43500
C  -0.31500 8.51500 31.88700
C  -0.46600 8.37800 33.44300
H  0.59500 7.56800 34.08600
N  0.42600 5.61400 26.61500
C  0.54200 4.70100 27.61200
C  0.38200 3.35500 27.05300
C  0.24400 3.45400 25.68000
C  0.24800 4.94600 25.43600
C  0.45600 2.06200 27.89500
C  0.02200 2.35500 24.61600
O  -0.06000 2.69100 23.37900
C  -0.15400 0.92600 24.99700
N  0.78800 7.95100 24.68900
C  0.42600 6.95100 23.82100
C  0.43800 7.39000 22.29100
C  0.46600 8.97900 22.48600
C  0.90600 9.13900 23.93800
C  1.70000 6.83000 21.47200
C  -0.84100 9.72900 22.21600
C  -0.86400 11.05800 21.50300
N  1.08100 9.84600 26.88100
C  1.33900 10.78300 25.92400
C  1.56000 12.11400 26.57100
C  1.48000 11.80600 27.93500
C  1.27500 10.38400 28.04100
C  1.88800 13.46100 26.00800
C  1.70100 12.38100 29.26900
O  1.93400 13.53800 29.67700
C  1.38400 11.19000 30.27000
C  2.45000 11.07000 31.27500
O  3.63600 10.75800 31.08800
O  1.97600 11.42500 32.49400
C  2.78900 10.98100 33.67300
H  0.75700 4.23100 29.69600
H  -0.24100 5.05500 23.35700
H  1.11900 11.35600 23.97200
H  1.71400 8.42100 31.81800
H  0.31100 5.95700 31.60300
H  2.42400 4.84600 31.40200
H  2.80700 6.13300 32.45300
H  3.20100 6.20100 30.66900
H  -1.22800 8.12500 31.43500
H  -0.48100 9.58700 31.78200
H  -1.41100 7.90000 33.69700
H  -0.56300 9.32900 33.96600
H  1.20900 1.39700 27.47200
H  -0.53900 1.63900 27.75900
H  0.62000 2.20100 28.96400
H  0.70900 0.68200 25.61600
H  -0.02400 0.35100 24.08000
H  -1.14100 0.84500 25.45200
H  -0.45300 7.03300 21.77400
H  1.16500 9.41000 21.76900
H  2.19200 7.65300 20.95300
H  1.38800 6.15400 20.67600
H  2.42900 6.32300 22.10500
H  -1.17500 9.98800 23.22100
H  -1.52800 9.01900 21.75400
H  0.06900 11.32600 21.00700
H  -1.14600 11.78100 22.26900
H  -1.64800 10.94500 20.75500
H  1.10500 13.74200 25.30500
H  2.86500 13.52100 25.52800
H  1.83400 14.19500 26.81200
H  0.40200 11.30100 30.72900
H  3.41800 10.11700 33.46000
H  2.10800 10.64200 34.45300
H  3.37400 11.79000 34.11000
Mg 45.36400 4.76800 48.28600
C  43.25300 7.57400 48.17400
C  42.68900 2.83100 47.33700
C  47.47500 2.23600 48.01600
C  48.04900 7.02000 48.39600
N  43.25900 5.17400 47.83100
C  42.57700 6.34400 47.96100
C  41.15000 6.28800 47.47300
C  40.89100 4.73300 47.50300
C  42.37300 4.22900 47.49500
C  39.96200 4.30600 48.60300
C  41.09100 7.11100 46.07400
C  39.71000 7.71600 45.78800
H  39.00100 7.27700 44.47400
N  45.08600 2.73900 47.87500
C  43.90600 2.11900 47.52000
C  44.10000 0.71900 47.45400
C  45.50400 0.48900 47.75600
C  46.11400 1.86700 47.86400
C  42.96700 -0.28800 47.16100
C  46.14000 -0.91500 47.91800
O  45.56300 -1.90800 47.46500
C  47.31100 -1.14900 48.67000
N  47.47800 4.64100 48.01600
C  48.10900 3.47400 48.06600
C  49.62000 3.69000 48.17100
C  49.75900 5.25400 48.17700
C  48.34800 5.68500 48.21100
C  50.32600 3.01000 49.28800
C  50.51400 5.81100 46.92000
C  51.68900 6.68400 47.37300
N  45.67000 6.79900 48.41300
C  46.79700 7.60600 48.43100
C  46.46500 8.96500 48.45100
C  45.09900 8.99700 48.47100
C  44.65600 7.70600 48.33300
C  47.34600 10.12100 48.32900
C  43.95600 9.86200 48.49200
O  43.98200 11.04400 48.51200
C  42.69600 9.03400 48.17500
C  41.61800 9.26600 49.23700
O  41.50500 8.55000 50.21100
O  40.79700 10.30800 48.89100
C  39.96500 10.76000 49.96300
H  41.75000 2.33200 47.09000
H  48.17700 1.41000 47.88300
H  48.92800 7.64700 48.56300
H  40.58200 6.78400 48.26000
H  40.43900 4.33000 46.59700
H  39.61700 5.18600 49.14500
H  40.41900 3.68600 49.37400
H  39.15500 3.69900 48.19200
H  41.17100 6.30700 45.34200
H  41.85100 7.85800 45.84300
H  39.86700 8.78700 45.66000
H  39.06900 7.48900 46.63900
H  42.52600 -0.53200 48.12700
H  43.30700 -1.13400 46.56300
H  42.22400 0.27200 46.59300
H  47.21600 -1.88000 49.47300
H  47.62800 -0.31300 49.29400
H  48.10900 -1.37000 47.96100
H  49.96700 3.17300 47.27600
H  50.26200 5.50600 49.11000
H  50.65000 2.05500 48.87500
H  49.73900 2.83400 50.18900
H  51.23600 3.53900 49.57300
H  49.75800 6.41000 46.41300
H  50.86800 4.96200 46.33600
H  51.99900 6.32200 48.35300
H  51.36800 7.72400 47.43600
H  52.47200 6.55000 46.62600
H  46.77200 10.89400 47.81800
H  48.23100 9.93200 47.72100
H  47.75500 10.37800 49.30600
H  42.25800 9.23300 47.19600
H  39.36100 11.61000 49.64600
H  40.67300 11.25300 50.63000
H  39.40100 9.94800 50.42200

