158

Mg 26.39800 0.13400 29.04800
C  28.11800 0.08000 32.26800
C  23.51100 0.78800 30.76600
C  24.73800 -0.07400 26.23400
C  29.24200 -1.05800 27.59900
N  25.94300 0.30800 31.28900
C  26.78100 0.34700 32.42600
C  26.02000 0.82300 33.68100
C  24.48300 0.89400 33.15000
C  24.58400 0.64700 31.59100
C  23.54800 -0.11500 33.90100
C  26.57100 2.13500 34.21300
C  26.02100 2.64100 35.54900
H  27.09100 2.81100 36.69900
N  24.33300 0.36300 28.54600
C  23.35200 0.66900 29.42900
C  22.09400 0.66700 28.74900
C  22.35700 0.45400 27.35800
C  23.83800 0.20600 27.30900
C  20.73800 1.02100 29.33100
C  21.51100 0.48400 26.11400
O  21.94200 0.24500 25.01800
C  20.08000 0.75400 26.26000
N  26.95000 -0.49000 27.20400
C  26.11100 -0.36000 26.16600
C  26.79000 -0.61500 24.83100
C  28.20400 -1.05900 25.26800
C  28.10100 -0.95800 26.81200
C  26.11400 -1.64700 23.89600
C  29.34100 -0.21800 24.57300
C  29.72600 -0.58300 23.14500
N  28.28700 -0.41800 29.74700
C  29.32700 -0.82100 28.99100
C  30.51600 -0.97300 29.81800
C  30.11500 -0.63400 31.14800
C  28.71300 -0.33500 31.01700
C  31.83300 -1.54300 29.30200
C  30.51500 -0.46500 32.53400
O  31.58000 -0.57100 33.09200
C  29.19800 0.07700 33.24100
C  28.88500 -0.91200 34.32000
O  28.60300 -2.10800 34.12500
O  28.94100 -0.25400 35.54600
C  28.87400 -1.08500 36.70200
H  22.67600 1.03500 31.42500
H  24.29500 -0.10600 25.23700
H  30.18900 -1.38900 27.16600
H  26.10100 0.07900 34.47400
H  24.14900 1.91400 33.34000
H  23.10500 0.36700 34.77200
H  24.24400 -0.85900 34.28900
H  22.77000 -0.47700 33.22900
H  26.40800 2.94500 33.50300
H  27.65500 2.14200 34.33000
H  25.20300 2.02100 35.91600
H  25.61700 3.63500 35.35800
H  20.51600 2.06900 29.13100
H  20.97100 0.99200 30.39600
H  19.88300 0.42300 29.01800
H  19.57700 0.77600 25.29300
H  20.04500 1.78300 26.61800
H  19.59400 -0.01700 26.85900
H  26.77900 0.38900 24.40600
H  28.36400 -2.12100 25.08300
H  25.23000 -1.97000 24.44400
H  26.81100 -2.39700 23.52000
H  25.74900 -1.07700 23.04100
H  30.34600 -0.26800 24.99200
H  29.08100 0.84000 24.57700
H  30.78400 -0.84200 23.09200
H  29.57200 0.31100 22.54100
H  29.18400 -1.43600 22.73700
H  31.59200 -2.22100 28.48300
H  32.27900 -2.00600 30.18200
H  32.51900 -0.77400 28.94700
H  29.40500 1.09400 33.57500
H  29.87100 -1.26400 37.10400
H  28.32400 -2.01600 36.56700
H  28.34500 -0.56600 37.50100
Mg 42.26500 41.41600 26.98300
C  41.40300 43.64200 29.53800
C  42.67700 38.88300 29.20900
C  43.13800 39.58000 24.41800
C  41.51000 44.17900 24.71900
N  41.94100 41.22200 29.08200
C  41.66600 42.27600 29.99200
C  41.68200 41.80900 31.42000
C  42.01100 40.26800 31.29800
C  42.24800 40.08200 29.77800
C  43.29800 39.90600 32.11800
C  40.35200 41.99000 32.24800
C  40.44000 42.40500 33.68100
H  39.34400 41.99300 34.71600
N  42.94900 39.55500 26.84600
C  42.97600 38.61900 27.80800
C  43.37500 37.35400 27.30000
C  43.56900 37.49900 25.89700
C  43.22400 38.95500 25.62400
C  43.48400 36.17100 28.16900
C  44.03800 36.52100 24.89800
O  44.22200 36.76300 23.66100
C  44.28600 35.16200 25.41700
N  42.40000 41.92700 24.91200
C  42.71700 40.91000 24.10800
C  42.60200 41.36400 22.66600
C  41.79800 42.74800 22.77200
C  41.86600 42.96300 24.20100
C  43.97100 41.56300 22.05400
C  40.35300 42.78700 22.19400
C  39.35100 41.91200 22.87400
N  41.81400 43.52200 27.06700
C  41.61500 44.46600 26.08100
C  41.28100 45.76000 26.67900
C  41.18000 45.51200 28.04800
C  41.49900 44.11500 28.21400
C  41.15600 47.05200 25.97300
C  40.83300 46.03700 29.30300
O  40.44800 47.16100 29.65200
C  40.99000 44.89800 30.35400
C  41.98700 45.36500 31.38700
O  43.19500 45.05100 31.39100
O  41.22000 45.89200 32.46100
C  42.03200 46.09100 33.69300
H  42.83300 38.18400 30.03300
H  43.27900 39.05700 23.47000
H  41.13700 44.92000 24.00900
H  42.49800 42.42100 31.80600
H  41.21500 39.65600 31.72300
H  43.54400 40.80500 32.68300
H  44.04100 39.54900 31.40600
H  43.25500 39.06800 32.81400
H  39.85000 41.02500 32.32300
H  39.69900 42.63800 31.66400
H  40.59600 43.47600 33.55100
H  41.36600 41.98800 34.07700
H  44.51400 35.81700 28.14000
H  42.76800 35.45100 27.77100
H  43.32400 36.27500 29.24200
H  44.97000 35.08600 26.26200
H  44.55700 34.47600 24.61500
H  43.30700 34.90400 25.82200
H  42.04400 40.59000 22.13900
H  42.30000 43.54800 22.22800
H  44.73900 40.93200 22.50200
H  44.20200 42.60100 22.29600
H  43.88400 41.45700 20.97300
H  40.38800 42.52900 21.13500
H  40.00000 43.81700 22.16500
H  39.76300 41.46300 23.77800
H  38.98100 41.11400 22.23000
H  38.49500 42.50400 23.19800
H  40.11200 47.34700 25.87100
H  41.49000 47.13900 24.93900
H  41.69400 47.83900 26.50100
H  40.01000 44.63000 30.74900
H  42.99900 46.52800 33.44500
H  42.23000 45.10600 34.11600
H  41.56800 46.75300 34.42400

