158

Mg 25.68100 -0.75900 29.16400
C  27.61900 -1.12900 32.05100
C  23.02400 -0.02900 31.21000
C  23.74100 -0.83500 26.40800
C  28.44500 -1.60400 27.29300
N  25.44100 -0.45700 31.33300
C  26.37600 -0.61600 32.33100
C  25.80300 -0.27400 33.73900
C  24.32100 0.06400 33.43900
C  24.18600 -0.21200 31.90100
C  23.42800 -0.79200 34.40900
C  26.58400 0.88300 34.48100
C  27.08800 0.53500 35.91000
H  26.45200 1.29400 37.06100
N  23.73800 -0.39800 28.86900
C  22.78100 -0.04100 29.80300
C  21.52500 0.21900 29.13400
C  21.67900 0.05500 27.70900
C  23.10600 -0.47600 27.60800
C  20.26100 0.50100 29.88600
C  20.65500 0.19300 26.55900
O  20.96400 -0.01500 25.42300
C  19.29100 0.80900 26.76900
N  26.00900 -1.30300 27.16200
C  25.09500 -1.08600 26.22900
C  25.62200 -1.68300 24.93500
C  27.13700 -1.63300 25.10000
C  27.20600 -1.48000 26.62000
C  25.08900 -3.13100 24.51500
C  27.90700 -0.59000 24.32000
C  29.03800 -1.03900 23.43200
N  27.65000 -1.31700 29.53200
C  28.65900 -1.62700 28.68400
C  29.85300 -1.96700 29.45000
C  29.46300 -1.74200 30.77800
C  28.13200 -1.33100 30.77700
C  31.16600 -2.34800 29.00100
C  29.94900 -1.70900 32.16600
O  31.06000 -1.82000 32.70600
C  28.78300 -1.29300 33.03800
C  28.51800 -2.35100 34.03900
O  27.93300 -3.37100 33.76700
O  29.00400 -2.02000 35.30400
C  28.69700 -2.98200 36.39800
H  22.27400 0.31800 31.92500
H  23.12400 -1.07300 25.53900
H  29.29500 -1.79100 26.63300
H  25.94800 -1.23400 34.23600
H  24.10700 1.12200 33.59300
H  23.95900 -0.88500 35.35600
H  23.16900 -1.71800 33.89600
H  22.53500 -0.20700 34.62400
H  25.90600 1.73600 34.51300
H  27.37800 1.31900 33.87300
H  28.09400 0.94000 35.80200
H  26.96500 -0.54000 36.03900
H  20.34500 0.61300 30.96700
H  19.52700 -0.27300 29.66400
H  19.78700 1.38700 29.46300
H  19.40400 1.86100 27.03100
H  18.69000 0.26000 27.49400
H  18.76100 0.62000 25.83600
H  25.33500 -1.01700 24.12200
H  27.53000 -2.61100 24.82000
H  25.79700 -3.78900 25.02000
H  25.04900 -3.32100 23.44200
H  24.12800 -3.32200 24.99100
H  28.28000 0.08600 25.09000
H  27.20200 -0.00900 23.72600
H  29.17200 -0.49500 22.49600
H  28.81000 -2.07600 23.18500
H  29.99500 -1.14000 23.94300
H  31.62900 -3.04300 29.70200
H  31.69000 -1.39300 29.03400
H  31.21500 -2.76400 27.99500
H  29.07200 -0.38100 33.56000
H  27.88100 -2.69900 37.06400
H  29.54400 -2.93700 37.08200
H  28.60700 -4.02900 36.10600
Mg 46.81900 44.45400 42.18400
C  43.38800 43.51400 42.09700
C  47.62200 41.03100 42.00200
C  49.93900 45.25400 41.76100
C  45.75500 47.79600 41.76100
N  45.58800 42.51100 41.91700
C  44.20000 42.38700 41.97100
C  43.72000 40.92900 41.90000
C  45.05300 40.08200 42.01300
C  46.22800 41.23000 41.91200
C  45.23400 39.10500 43.23600
C  42.84400 40.60900 40.59000
C  43.11000 41.46300 39.29700
H  43.20300 40.60600 38.01000
N  48.56600 43.26900 41.91200
C  48.72800 41.95400 42.03200
C  50.12800 41.67400 41.93300
C  50.85300 42.87100 41.69800
C  49.77500 43.86400 41.79500
C  50.62000 40.27600 42.02000
C  52.33700 42.92600 41.42400
O  53.04700 41.91900 41.56400
C  52.97300 44.19100 40.92100
N  47.76900 46.25500 41.78300
C  49.12100 46.38100 41.82600
C  49.49100 47.81100 41.81200
C  48.12600 48.63100 41.84100
C  47.14000 47.46200 41.77700
C  50.41800 48.23500 43.04500
C  47.93500 49.65600 40.65000
C  47.49700 50.98400 41.11600
N  44.97000 45.50900 41.98700
C  44.69000 46.84100 41.83300
C  43.28500 47.09000 41.93400
C  42.70800 45.82600 42.06600
C  43.79400 44.87600 42.05000
C  42.53100 48.40300 41.93400
C  41.48500 45.11900 42.31600
O  40.33500 45.46900 42.45900
C  41.90900 43.65300 42.35000
C  41.54800 43.01200 43.53400
O  40.77800 42.06000 43.65300
O  42.03200 43.76900 44.58500
C  41.98600 43.13900 45.90300
H  47.90500 39.98200 42.11200
H  50.97800 45.59000 41.76800
H  45.38900 48.82400 41.70800
H  43.25800 40.63000 42.84100
H  45.10300 39.40500 41.16000
H  46.29100 39.17400 43.49300
H  45.05500 38.08300 42.90400
H  44.61200 39.21900 44.12300
H  41.85400 40.82400 40.99300
H  42.85400 39.54100 40.37100
H  44.02500 42.03700 39.44100
H  42.31400 42.16100 39.03900
H  51.11600 40.07900 41.07000
H  49.86700 39.49600 42.14000
H  51.39500 40.23800 42.78600
H  52.16200 44.61000 40.32600
H  53.71700 43.96600 40.15800
H  53.33000 44.83300 41.72600
H  50.03800 47.93600 40.87800
H  47.94500 49.13300 42.79200
H  51.32000 48.61600 42.56700
H  50.70300 47.43300 43.72700
H  49.98900 49.01500 43.67400
H  47.13400 49.30600 39.99900
H  48.80700 49.74000 40.00300
H  46.60400 51.30400 40.57900
H  48.32400 51.64900 40.86900
H  47.19300 51.07100 42.15900
H  41.90100 48.48600 42.82000
H  42.00600 48.47000 40.98100
H  43.26200 49.21100 41.96900
H  41.44300 43.15900 41.49700
H  40.94000 42.92300 46.12200
H  42.53600 43.80100 46.57100
H  42.55200 42.21200 45.99200

