158

Mg 47.91000 44.90100 43.26300
C  44.56300 44.29700 42.49500
C  48.62100 41.57800 43.01000
C  51.09400 45.67200 43.61400
C  47.09000 48.36400 43.20700
N  46.80500 43.16600 42.55000
C  45.37500 43.13300 42.48700
C  44.91800 41.70500 42.21300
C  46.19800 40.84300 42.42700
C  47.31500 41.92300 42.75500
C  46.26200 39.89300 43.61700
C  44.26200 41.59300 40.81400
C  44.68800 42.33200 39.53900
H  43.91200 41.94200 38.20900
N  49.67000 43.70700 43.29100
C  49.74900 42.39500 43.24300
C  51.09000 42.02400 43.44800
C  51.87300 43.21100 43.55400
C  50.87500 44.28100 43.52500
C  51.45100 40.52100 43.46500
C  53.30800 43.30500 43.85600
O  53.98700 42.27100 43.85600
C  54.05200 44.52900 44.14600
N  48.94700 46.78200 43.27300
C  50.24300 46.78300 43.51900
C  50.74700 48.23300 43.68900
C  49.38700 49.07000 43.73500
C  48.40200 48.00000 43.36400
C  51.63200 48.42000 45.03100
C  49.46000 50.35200 42.88400
C  49.48600 51.65300 43.75200
N  46.13100 46.16800 42.95800
C  45.96300 47.52200 42.98300
C  44.58100 47.87000 42.79700
C  43.97300 46.60500 42.63100
C  44.97100 45.63600 42.70800
C  43.95500 49.23100 42.88200
C  42.63700 45.95600 42.45800
O  41.54800 46.46400 42.35000
C  42.99400 44.44300 42.29600
C  42.23200 43.81100 43.39400
O  41.32400 42.98300 43.27200
O  42.71800 44.18200 44.62200
C  41.99000 43.75200 45.85800
H  48.68300 40.49000 43.07900
H  52.12600 45.93900 43.85100
H  46.79900 49.41100 43.31600
H  44.17900 41.46700 42.97800
H  46.53500 40.30000 41.54500
H  46.90100 40.28900 44.40700
H  46.78500 38.96800 43.37600
H  45.26000 39.65200 43.97300
H  43.18200 41.61100 40.96000
H  44.45300 40.56500 40.50500
H  45.67500 41.90100 39.37000
H  44.54500 43.41300 39.51300
H  52.50400 40.28000 43.31700
H  50.90500 40.00900 42.67300
H  51.12000 40.02500 44.37700
H  54.17800 45.16200 43.26800
H  55.11400 44.38100 44.34000
H  53.61500 45.09300 44.97000
H  51.30300 48.34300 42.75900
H  49.17400 49.27000 44.78500
H  51.68900 49.43900 45.41300
H  52.63400 48.08000 44.76900
H  51.20000 47.65300 45.67300
H  48.63700 50.43300 42.17400
H  50.33200 50.38700 42.23100
H  50.25800 52.39500 43.54800
H  49.69500 51.44700 44.80200
H  48.47600 52.05500 43.66400
H  44.19100 49.88900 42.04500
H  44.29400 49.87000 43.69700
H  42.87200 49.20500 43.00500
H  42.68600 44.07400 41.31800
H  41.76800 42.68500 45.86700
H  41.02000 44.22500 46.01200
H  42.65500 43.94000 46.70100
Mg 41.90800 41.36600 26.26200
C  41.06500 43.97300 28.52700
C  42.72600 39.37100 28.92000
C  42.97400 39.10700 24.01000
C  41.39700 43.75900 23.67500
N  41.92400 41.68700 28.39200
C  41.47400 42.80100 29.09000
C  41.37900 42.49700 30.58700
C  41.99800 41.14600 30.69100
C  42.28500 40.69100 29.21800
C  43.11400 40.90900 31.70300
C  39.89300 42.60300 31.09600
C  39.51500 41.95100 32.46800
H  38.72200 42.84100 33.46100
N  42.77900 39.51400 26.46200
C  42.95400 38.80000 27.60500
C  43.35700 37.47400 27.30100
C  43.29200 37.31700 25.87400
C  42.97300 38.67400 25.40500
C  43.67400 36.43500 28.39600
C  43.43800 36.04500 24.99600
O  43.28900 35.97900 23.80000
C  43.85600 34.69000 25.67400
N  42.22700 41.46100 24.18000
C  42.65800 40.37900 23.43900
C  42.33500 40.52700 21.87600
C  41.84100 42.02800 21.81800
C  41.78100 42.43500 23.29700
C  43.55700 40.34000 20.92900
C  40.48700 42.20200 21.13500
C  39.25700 42.08500 21.96700
N  41.32000 43.42500 26.11100
C  41.20000 44.26600 24.97400
C  40.84200 45.60400 25.38500
C  40.88100 45.54600 26.76100
C  41.11100 44.18300 27.12800
C  40.54900 46.79000 24.52500
C  40.58800 46.37300 27.97800
O  40.31500 47.52200 28.16800
C  40.69400 45.32300 29.14400
C  41.70500 45.76200 30.19900
O  42.88900 45.76200 30.09000
O  41.11100 45.92400 31.40200
C  41.93200 46.27600 32.66800
H  42.94100 38.77900 29.81200
H  43.07300 38.35800 23.22100
H  41.24200 44.51100 22.89800
H  41.95900 43.22300 31.15600
H  41.16900 40.47300 30.91000
H  43.18700 41.81400 32.30600
H  44.04000 40.77400 31.14500
H  42.90800 40.15100 32.45800
H  39.25400 42.17000 30.32700
H  39.74500 43.68000 31.16800
H  40.44200 41.71400 32.99100
H  39.07600 40.96700 32.30400
H  43.20500 36.71700 29.33900
H  44.72400 36.61900 28.62300
H  43.43000 35.45900 27.97800
H  43.06100 34.42600 26.37200
H  44.78000 34.90000 26.21200
H  43.95900 33.89900 24.93100
H  41.54800 39.85300 21.53700
H  42.55900 42.62200 21.25400
H  44.26000 40.88800 21.55700
H  43.55000 40.76900 19.92700
H  43.75500 39.27300 21.02300
H  40.34100 41.51800 20.30000
H  40.57100 43.22500 20.76800
H  39.26200 41.28700 22.71100
H  38.44000 41.86000 21.28200
H  38.96100 43.04100 22.39800
H  39.48500 46.92200 24.33100
H  41.10700 46.68600 23.59400
H  41.01900 47.63500 25.02900
H  39.67600 45.26400 29.52900
H  41.87500 47.31600 32.98900
H  42.97100 46.05900 32.42200
H  41.56800 45.56500 33.40900

