158

Mg 1.34200 -1.58900 43.52400
C  4.71700 -0.92700 42.90200
C  0.56500 1.03400 41.58500
C  -1.85800 -2.63500 43.58100
C  2.30300 -4.62000 44.91700
N  2.54100 -0.24500 42.26100
C  3.92400 -0.11100 42.14200
C  4.37900 1.00800 41.17600
C  3.03000 1.77100 41.03000
C  1.92100 0.77500 41.65800
C  2.85800 3.23300 41.69400
C  4.88600 0.41400 39.87200
C  6.27200 0.88500 39.28700
H  6.42000 0.96600 37.78900
N  -0.42800 -0.81200 42.72900
C  -0.56100 0.28400 42.01300
C  -1.94200 0.54100 41.77000
C  -2.67900 -0.48500 42.28800
C  -1.67700 -1.37500 43.02400
C  -2.34400 1.70400 40.86300
C  -4.17800 -0.68100 42.13700
O  -4.88900 -0.01100 41.38500
C  -4.98700 -1.77600 42.89600
N  0.35500 -3.39100 44.14500
C  -0.95700 -3.55600 44.09700
C  -1.37700 -4.98400 44.55300
C  -0.07500 -5.64200 44.92700
C  0.91300 -4.48700 44.61900
C  -2.64200 -5.16500 45.52300
C  0.14600 -7.09800 44.52900
C  -0.67300 -8.17600 45.19200
N  3.10100 -2.54700 44.02500
C  3.34700 -3.78600 44.63900
C  4.78400 -3.99800 44.84500
C  5.36400 -2.87500 44.23800
C  4.31500 -1.99700 43.80100
C  5.47400 -5.18500 45.49200
C  6.65800 -2.20600 43.88600
O  7.79500 -2.45600 44.30700
C  6.27900 -1.00000 42.99300
C  7.10000 0.21900 43.39400
O  7.86700 0.76700 42.61700
O  7.17300 0.42400 44.82300
C  8.11800 1.50500 45.20400
H  0.37200 1.90400 40.95300
H  -2.87400 -3.01600 43.46200
H  2.57800 -5.54900 45.42200
H  5.09700 1.63600 41.70300
H  2.76200 1.87500 39.97800
H  3.61400 3.48400 42.43800
H  1.90500 3.38000 42.20100
H  3.00400 4.05000 40.98700
H  4.17500 0.54200 39.05600
H  5.00100 -0.66000 40.01300
H  7.05600 0.21600 39.64400
H  6.40200 1.91100 39.62900
H  -1.86900 1.50600 39.90200
H  -1.96100 2.61400 41.32400
H  -3.43200 1.77000 40.85400
H  -6.01800 -1.45200 43.04100
H  -4.60000 -2.02600 43.88400
H  -4.86500 -2.71900 42.36400
H  -1.77800 -5.49900 43.68000
H  -0.01300 -5.77500 46.00700
H  -2.92400 -4.15600 45.82300
H  -2.11600 -5.68900 46.32100
H  -3.45600 -5.68900 45.02100
H  1.21400 -7.23500 44.69600
H  0.05500 -7.20800 43.44800
H  -1.24000 -8.72400 44.43800
H  -1.22300 -7.88200 46.08600
H  0.12800 -8.88100 45.41300
H  6.43000 -4.95500 45.96200
H  5.55600 -5.97000 44.74000
H  4.90200 -5.59000 46.32700
H  6.67300 -1.31000 42.02500
H  7.75800 2.51200 44.99600
H  9.06400 1.48200 44.66300
H  8.34100 1.43500 46.26900
Mg 48.60500 35.34200 26.30000
C  46.58200 34.11600 28.81300
C  48.84400 38.33600 27.97700
C  49.96000 36.71700 23.56200
C  47.53000 32.64500 24.31100
N  47.81100 36.16200 28.13600
C  47.16000 35.43700 29.11300
C  46.99600 36.25500 30.43900
C  47.30000 37.70500 29.93100
C  48.05900 37.41300 28.62900
C  46.08600 38.65100 29.80800
C  47.86400 35.67400 31.55200
C  47.32800 35.99800 33.01200
H  46.60600 37.35400 33.16000
N  49.42900 37.21300 25.92100
C  49.53600 38.26500 26.75200
C  50.22700 39.35900 26.05900
C  50.49900 38.92600 24.72100
C  49.93600 37.59200 24.67000
C  50.61300 40.63200 26.85400
C  51.22500 39.69700 23.63400
O  51.48300 39.15600 22.57400
C  51.65700 41.14600 23.77600
N  48.60000 34.83800 24.23700
C  49.40000 35.46300 23.42600
C  49.54700 34.77700 22.01800
C  48.81300 33.41600 22.28800
C  48.22200 33.62000 23.67700
C  48.89000 35.57500 20.83700
C  49.66800 32.03200 22.36800
C  49.17700 30.83700 21.51400
N  47.46700 33.64300 26.56300
C  47.14000 32.62200 25.63200
C  46.22600 31.71200 26.27900
C  45.93600 32.29200 27.56400
C  46.72100 33.44900 27.66700
C  45.60900 30.52400 25.75900
C  45.22000 32.07800 28.82200
O  44.48800 31.20600 29.19300
C  45.71200 33.24200 29.67400
C  46.38300 32.59200 30.80900
O  47.50000 32.02700 30.82900
O  45.62500 32.76900 31.96500
C  46.15100 31.99800 33.12600
H  48.96300 39.28400 28.50700
H  50.59600 36.94600 22.70400
H  47.27600 31.73800 23.75900
H  45.95300 36.14300 30.73400
H  48.01100 38.24000 30.56100
H  45.20500 38.10000 30.13700
H  45.74300 38.91800 28.80800
H  46.17200 39.47100 30.52000
H  48.78500 36.24700 31.44600
H  47.96800 34.59300 31.46500
H  48.19600 35.83100 33.64900
H  46.64700 35.23700 33.39300
H  51.46800 41.24200 26.56000
H  50.90800 40.29900 27.84900
H  49.78000 41.33000 26.93800
H  50.88300 41.78500 24.20200
H  51.72100 41.43300 22.72700
H  52.61500 41.48500 24.17000
H  50.60000 34.60500 21.79200
H  47.95300 33.25300 21.63900
H  48.08400 36.18900 21.24000
H  48.43600 34.85100 20.16100
H  49.56800 36.19800 20.25300
H  49.69500 31.66300 23.39300
H  50.63100 32.30400 21.93400
H  48.15700 31.06100 21.20000
H  49.24800 29.84100 21.95100
H  49.78800 30.86300 20.61200
H  45.43800 30.61100 24.68600
H  44.71200 30.19700 26.28400
H  46.41900 29.81300 25.92800
H  44.92500 33.82400 30.15500
H  46.15400 30.92000 32.96500
H  45.47900 32.16800 33.96600
H  47.18400 32.21700 33.39800

