158

Mg 30.61000 58.17100 40.21500
C  27.91100 55.94100 39.47400
C  32.74800 55.76400 38.83200
C  33.05000 60.50700 40.29000
C  28.23400 60.72700 40.79400
N  30.26000 56.19900 39.05500
C  29.14500 55.45600 39.01700
C  29.44800 54.12100 38.33900
C  30.95800 53.90600 38.64800
C  31.40500 55.30500 38.84900
C  31.26500 52.92100 39.81900
C  29.15800 54.22300 36.80800
C  28.01900 53.34100 36.34100
H  27.16600 54.07500 35.37400
N  32.63200 58.07900 39.82500
C  33.28600 57.05900 39.15600
C  34.68300 57.50000 39.07100
C  34.84300 58.82800 39.58600
C  33.45700 59.19900 39.90500
C  35.82000 56.63300 38.50400
C  36.21300 59.55800 39.52500
O  37.20700 58.97800 39.07100
C  36.39000 61.04800 39.70900
N  30.61700 60.33000 40.49700
C  31.79500 61.03300 40.62700
C  31.55800 62.59400 40.78500
C  30.00400 62.67400 40.94400
C  29.56600 61.17400 40.72000
C  32.48200 63.37600 41.81800
C  29.26200 63.79100 40.19500
C  28.57800 63.58900 38.78300
N  28.47400 58.39400 40.18900
C  27.65800 59.42600 40.55400
C  26.25900 59.01200 40.54300
C  26.33600 57.64700 40.14200
C  27.68000 57.28700 39.92800
C  25.10300 59.91300 40.71100
C  25.53600 56.46400 39.75800
O  24.34300 56.33500 39.61200
C  26.56800 55.28500 39.32100
C  26.24900 54.15600 40.23200
O  26.73800 54.08900 41.32500
O  25.42500 53.23900 39.65700
C  25.33000 51.93300 40.36400
H  33.54500 55.04900 38.61500
H  33.78700 61.29400 40.46600
H  27.47300 61.39500 41.20100
H  28.85500 53.42800 38.93600
H  31.43600 53.44900 37.78100
H  30.42900 52.63300 40.45600
H  32.15900 53.20000 40.37900
H  31.63000 51.98300 39.40100
H  30.03300 53.83500 36.28600
H  29.09400 55.24800 36.44300
H  27.45100 53.00600 37.20900
H  28.32000 52.45500 35.78100
H  36.31300 57.02800 37.61600
H  35.49800 55.61700 38.27400
H  36.55000 56.39100 39.27700
H  36.04600 61.38700 40.68600
H  35.84600 61.61200 38.95100
H  37.45600 61.23500 39.57800
H  31.75300 63.09300 39.83600
H  29.79400 62.70800 42.01300
H  31.83900 63.63700 42.65900
H  33.05700 64.20100 41.39800
H  33.20500 62.61300 42.10500
H  30.05800 64.52000 40.04400
H  28.47600 64.27700 40.77400
H  27.61700 64.10300 38.75600
H  28.42500 62.51700 38.65900
H  29.24000 63.98200 38.01200
H  24.49300 59.39000 41.44800
H  24.62200 59.93600 39.73300
H  25.31500 60.88300 41.15900
H  26.35000 54.94100 38.31000
H  26.15200 51.65400 41.02400
H  25.23900 51.15900 39.60300
H  24.39300 51.98800 40.91800
Mg -11.21700 38.42900 41.10300
C  -10.12600 35.18200 40.74900
C  -8.41800 39.55100 39.54200
C  -12.77500 41.42800 40.64900
C  -14.43900 36.94800 41.93500
N  -9.52300 37.45800 40.19800
C  -9.20000 36.14400 40.29200
C  -7.91400 35.88700 39.44300
C  -7.20800 37.27900 39.48600
C  -8.42800 38.14600 39.74800
C  -6.08500 37.54000 40.56100
C  -8.14200 35.30700 37.97000
C  -6.95000 34.74100 37.17000
H  -6.52300 35.48600 35.88200
N  -10.63000 40.34000 40.36200
C  -9.36100 40.59800 39.82300
C  -9.21800 41.99600 39.65700
C  -10.50600 42.60700 39.94800
C  -11.39100 41.49900 40.34500
C  -7.90200 42.63900 39.21600
C  -10.81800 44.10400 39.87100
O  -9.95000 44.81400 39.34000
C  -12.11900 44.64800 40.36800
N  -13.32800 39.07300 41.07800
C  -13.61800 40.34800 40.93800
C  -15.13000 40.62700 41.35700
C  -15.69000 39.17400 41.60400
C  -14.40600 38.31800 41.51300
C  -15.29900 41.51700 42.68100
C  -16.88700 38.65600 40.70200
C  -18.23200 39.49700 40.70500
N  -12.10100 36.54200 41.65000
C  -13.36800 36.11400 42.02000
C  -13.35400 34.69600 42.22300
C  -12.11300 34.30300 41.73000
C  -11.37000 35.40500 41.36100
C  -14.50300 33.87900 42.77000
C  -11.28300 33.11200 41.52400
O  -11.48000 31.91100 41.69100
C  -9.96800 33.64600 40.88800
C  -8.72300 33.21900 41.51600
O  -7.70100 32.92300 40.99300
O  -8.93800 33.23600 42.89600
C  -7.66300 32.99900 43.57500
H  -7.45600 39.88400 39.14600
H  -13.15100 42.45300 40.66000
H  -15.41600 36.49300 42.11100
H  -7.32700 35.10800 39.93000
H  -6.82000 37.58500 38.51500
H  -6.20800 36.84800 41.39400
H  -6.14100 38.53600 41.00100
H  -5.12700 37.37700 40.06700
H  -8.72500 36.01200 37.37900
H  -8.87700 34.52800 38.17700
H  -7.17800 33.77000 36.72900
H  -6.10900 34.58700 37.84700
H  -8.00700 43.06400 38.21700
H  -7.10500 41.90000 39.30300
H  -7.54600 43.51600 39.75600
H  -12.94400 44.35100 39.72000
H  -12.04800 45.73600 40.37900
H  -12.11800 44.33800 41.41300
H  -15.66500 41.08000 40.52200
H  -16.03700 39.19900 42.63600
H  -14.80900 41.00700 43.51200
H  -16.37700 41.62800 42.79000
H  -14.75300 42.43400 42.45900
H  -17.09000 37.60600 40.91600
H  -16.45600 38.64100 39.70200
H  -18.96700 38.98200 41.32400
H  -18.62800 39.60900 39.69600
H  -18.14600 40.50700 41.10400
H  -14.74200 34.16900 43.79300
H  -14.23700 32.82200 42.80100
H  -15.43500 33.88400 42.20400
H  -9.98200 33.22200 39.88500
H  -7.85900 32.67600 44.59700
H  -7.14800 33.96000 43.59000
H  -7.10400 32.16600 43.14800

