158

Mg 0.54700 44.00100 24.97500
C  2.51800 43.62600 27.94200
C  -2.30300 43.29800 26.92200
C  -1.24100 43.55100 22.22800
C  3.53600 44.01500 23.04400
N  0.26100 43.43000 27.19500
C  1.13400 43.50700 28.21600
C  0.45200 43.43100 29.63200
C  -1.02400 43.12300 29.12200
C  -1.04500 43.22700 27.64500
C  -1.62900 41.84600 29.73300
C  0.55500 44.73100 30.49800
C  1.09200 44.55600 31.96600
H  0.89900 43.19500 32.73000
N  -1.49100 43.84600 24.66000
C  -2.47400 43.53500 25.53800
C  -3.70000 43.55800 24.89100
C  -3.46800 43.72100 23.49900
C  -1.99600 43.64100 23.41400
C  -4.98800 43.44800 25.60300
C  -4.46200 43.77800 22.31800
O  -4.13500 43.92600 21.13100
C  -5.86300 44.02800 22.69500
N  1.09700 43.83500 22.91300
C  0.16300 43.70500 21.93400
C  0.75700 43.36800 20.58300
C  2.20800 43.99600 20.79600
C  2.31300 43.94700 22.38400
C  0.86900 41.87700 20.16500
C  2.51600 45.39200 20.22300
C  3.30000 45.41100 18.88000
N  2.64900 43.83800 25.32600
C  3.73200 43.95600 24.44300
C  4.94700 43.99900 25.25400
C  4.51100 43.91000 26.57600
C  3.11900 43.77100 26.63800
C  6.32000 44.15600 24.63100
C  5.03300 43.78300 27.95200
O  6.17900 43.78500 28.41400
C  3.71300 43.73200 28.90600
C  3.83700 42.48100 29.67400
O  3.62300 41.38200 29.26400
O  4.24700 42.80400 30.97200
C  4.80900 41.66700 31.79800
H  -3.14300 43.42700 27.60800
H  -1.76900 43.28100 21.31200
H  4.48400 44.16700 22.52400
H  0.81600 42.63300 30.27900
H  -1.72300 43.87600 29.48700
H  -1.86900 41.28200 28.83300
H  -2.52600 42.11000 30.29300
H  -0.92100 41.28500 30.34300
H  -0.40300 45.25100 30.48400
H  1.28500 45.35000 29.97600
H  0.81700 45.42000 32.57200
H  2.16000 44.63700 31.76300
H  -4.96200 43.05500 26.62000
H  -5.76700 42.86900 25.10700
H  -5.29000 44.49500 25.58500
H  -6.45300 44.54900 21.94100
H  -5.91900 44.57600 23.63600
H  -6.25200 43.01500 22.79700
H  0.14800 43.87200 19.83200
H  2.97600 43.32300 20.41300
H  1.87400 41.56500 19.88100
H  0.21200 41.83400 19.29600
H  0.58200 41.20000 20.97000
H  3.05400 46.04900 20.90600
H  1.52200 45.76400 19.97300
H  4.00700 44.58200 18.91800
H  3.88900 46.32400 18.79700
H  2.61100 45.40200 18.03500
H  6.63900 45.19300 24.73500
H  6.35000 43.75700 23.61700
H  7.10000 43.66700 25.21400
H  3.63500 44.59800 29.56300
H  4.37000 40.71700 31.49500
H  4.44300 41.88300 32.80200
H  5.89100 41.53000 31.80000
Mg -4.60400 25.72100 26.07400
C  -3.10400 27.07300 29.03000
C  -6.20200 23.45200 28.12400
C  -5.60800 24.28900 23.34200
C  -2.35800 27.83400 24.20900
N  -4.65300 25.34000 28.29400
C  -4.05500 26.06400 29.27500
C  -4.53800 25.62400 30.70600
C  -5.28300 24.26700 30.33100
C  -5.40900 24.33700 28.79800
C  -4.64100 22.90300 30.77200
C  -5.40300 26.69500 31.38100
C  -5.05200 27.21100 32.79200
H  -4.51700 26.22300 33.81200
N  -5.72800 24.19800 25.77700
C  -6.30300 23.41200 26.71400
C  -7.14900 22.33900 26.04800
C  -7.06600 22.55100 24.68700
C  -6.07900 23.68400 24.58300
C  -8.00500 21.37700 26.92100
C  -7.73900 21.79100 23.49800
O  -7.60300 22.08100 22.32200
C  -8.58800 20.65400 23.78500
N  -4.01600 25.97300 24.08400
C  -4.69100 25.30600 23.12800
C  -4.28800 25.78500 21.71500
C  -3.15500 26.90100 22.02800
C  -3.16100 26.90200 23.52300
C  -3.58800 24.66200 20.87000
C  -3.42400 28.32200 21.31300
C  -2.54800 28.61100 20.09500
N  -3.05600 27.18700 26.49200
C  -2.35700 28.00500 25.61800
C  -1.64000 29.01600 26.33200
C  -1.92100 28.74900 27.68000
C  -2.82200 27.61900 27.73300
C  -0.88700 30.25900 25.76900
C  -1.68600 29.15800 29.01400
O  -0.96500 30.07600 29.43600
C  -2.45600 28.13800 29.92100
C  -1.44600 27.49500 30.78000
O  -0.43300 26.93500 30.39200
O  -1.73800 27.69100 32.11800
C  -0.63900 27.37400 33.09900
H  -6.81400 22.79100 28.74000
H  -5.90500 23.70300 22.46900
H  -1.75700 28.46100 23.54800
H  -3.58600 25.49700 31.22300
H  -6.31000 24.21800 30.69300
H  -4.05200 22.63100 29.89600
H  -5.39500 22.14600 30.98900
H  -3.91600 23.02300 31.57700
H  -6.45900 26.42900 31.42800
H  -5.37900 27.59200 30.76300
H  -5.99500 27.60800 33.16800
H  -4.39300 28.07600 32.71600
H  -7.44900 20.95400 27.75800
H  -8.15600 20.46700 26.34100
H  -9.01000 21.78500 27.02600
H  -9.05700 20.39600 22.83500
H  -9.34400 21.15000 24.39400
H  -8.05100 19.84400 24.27800
H  -5.11000 26.13400 21.09000
H  -2.16700 26.50600 21.79600
H  -4.22300 24.56600 19.98900
H  -3.55700 23.69700 21.37500
H  -2.53200 24.85000 20.67700
H  -3.18100 29.07900 22.05800
H  -4.47800 28.49800 21.09700
H  -2.03500 29.57000 20.16500
H  -3.19700 28.73600 19.22800
H  -1.76600 27.92000 19.77800
H  -1.48800 31.13000 25.50700
H  -0.24900 30.14000 24.89300
H  -0.30000 30.55500 26.63800
H  -3.18100 28.53800 30.63000
H  -0.84100 26.30700 33.18400
H  -0.72200 27.82600 34.08700
H  0.37800 27.56800 32.75900

