158

Mg 53.35900 24.45700 45.11000
C  50.52400 26.41700 44.17300
C  51.76700 21.72400 43.72100
C  56.24600 22.67400 45.43200
C  54.87300 27.31700 46.15800
N  51.48700 24.15600 43.98900
C  50.44100 25.04800 43.83200
C  49.20700 24.44100 43.16500
C  49.47000 22.94700 43.48700
C  51.00200 22.90000 43.78300
C  48.50400 22.29100 44.52300
C  49.18500 24.77400 41.69200
C  47.68000 24.88400 41.10900
H  46.98000 23.56400 40.70000
N  53.97600 22.48200 44.52400
C  53.09100 21.51400 44.08800
C  53.74200 20.23300 44.05000
C  55.07800 20.43500 44.50000
C  55.20900 21.89100 44.75900
C  53.08100 18.89500 43.85500
C  56.13500 19.33200 44.80800
O  55.99200 18.14600 44.48500
C  57.42600 19.62500 45.39000
N  55.30400 24.94700 45.70500
C  56.26900 24.03000 45.80200
C  57.62800 24.72800 46.17900
C  57.21800 26.23200 46.38900
C  55.68000 26.14700 46.07100
C  58.14500 24.12300 47.47900
C  57.98000 27.32200 45.57300
C  58.52700 28.48500 46.47100
N  52.78100 26.43500 45.32900
C  53.56300 27.47600 45.74600
C  52.76800 28.66300 45.85800
C  51.54300 28.32000 45.18100
C  51.65800 26.91900 44.88100
C  53.13500 29.95500 46.42500
C  50.20400 28.76800 44.81600
O  49.67200 29.88700 45.01900
C  49.51000 27.62200 44.06800
C  49.17500 28.08700 42.67800
O  49.95100 28.13200 41.71400
O  47.87900 28.38200 42.63000
C  47.24500 28.48300 41.35600
H  51.26800 20.76700 43.55400
H  57.05700 22.02700 45.77400
H  55.26800 28.25500 46.55500
H  48.25800 24.72800 43.61700
H  49.27800 22.34800 42.59700
H  48.55900 21.22500 44.74400
H  47.54200 22.71000 44.22900
H  48.78300 22.69900 45.49500
H  49.64200 23.91900 41.19400
H  49.73700 25.65700 41.37100
H  47.68500 25.55200 40.24700
H  46.98100 25.18100 41.89100
H  53.67700 18.40900 43.08400
H  52.05500 18.94500 43.48900
H  53.03100 18.20500 44.69800
H  58.10300 18.77400 45.46600
H  57.37700 19.99500 46.41400
H  57.90900 20.35000 44.73500
H  58.41600 24.62900 45.43300
H  57.28500 26.56300 47.42500
H  59.12200 23.70900 47.23100
H  57.42500 23.40100 47.86100
H  58.19300 24.87700 48.26500
H  57.32900 27.77700 44.82600
H  58.80900 26.87400 45.02400
H  58.54400 29.40400 45.88400
H  59.56000 28.24500 46.72200
H  57.96300 28.54700 47.40100
H  54.01300 29.95200 47.07200
H  52.27200 30.40500 46.91600
H  53.48500 30.44100 45.51400
H  48.57100 27.25400 44.48000
H  46.59200 27.62000 41.22900
H  47.98000 28.55100 40.55300
H  46.60500 29.36500 41.35300
Mg 15.49500 51.81700 26.49800
C  18.04100 50.90600 28.78300
C  13.28900 51.76900 29.12900
C  13.02800 52.41800 24.35400
C  17.82400 51.30100 23.85200
N  15.71900 51.53500 28.74800
C  16.87200 51.34100 29.43500
C  16.56100 51.50900 30.95700
C  15.06000 51.17600 30.98900
C  14.63800 51.50400 29.54700
C  14.82300 49.75300 31.36400
C  16.93000 52.92700 31.51300
C  17.02300 53.06600 32.98800
H  16.23800 52.16800 33.92700
N  13.49700 52.07400 26.70800
C  12.72800 51.98400 27.88100
C  11.32100 52.16600 27.67500
C  11.24500 52.43500 26.25300
C  12.60400 52.37100 25.71900
C  10.20900 52.10900 28.72500
C  10.00500 52.76500 25.39000
O  10.08000 52.99600 24.20700
C  8.58900 52.84100 26.10400
N  15.38800 51.78500 24.39000
C  14.25600 52.28100 23.79000
C  14.43700 52.44900 22.27600
C  15.94700 51.91400 22.06600
C  16.44200 51.70800 23.49200
C  13.48300 51.59700 21.42600
C  16.78200 52.90900 21.18600
C  17.63400 52.40400 20.04600
N  17.50500 51.25200 26.33800
C  18.30400 51.10600 25.21400
C  19.66300 50.76700 25.55400
C  19.52900 50.54100 26.97900
C  18.23800 50.92500 27.37500
C  20.86400 50.54200 24.70300
C  20.24400 50.08400 28.17500
O  21.41700 49.67300 28.30200
C  19.25600 50.37500 29.40700
C  19.01300 49.11900 30.21500
O  18.31300 48.17700 29.91800
O  19.56800 49.35100 31.43000
C  19.21900 48.48200 32.58500
H  12.60300 51.67400 29.97300
H  12.23600 52.64800 23.63900
H  18.56700 51.20700 23.05800
H  17.14900 50.74100 31.45900
H  14.44800 51.91600 31.50600
H  14.07300 49.25100 30.75300
H  14.58300 49.63300 32.42100
H  15.74200 49.17400 31.27700
H  16.34100 53.65600 30.95600
H  17.98000 53.02100 31.23700
H  16.71900 54.11000 33.05000
H  18.04600 53.01400 33.36200
H  9.52900 52.94500 28.56100
H  10.66000 52.13800 29.71700
H  9.60700 51.20600 28.62500
H  8.44500 51.90600 26.64600
H  7.78700 52.93400 25.37200
H  8.48900 53.70200 26.76500
H  14.39800 53.50600 22.01300
H  15.89500 50.90300 21.66200
H  13.13900 50.70300 21.94600
H  14.06700 51.09500 20.65500
H  12.66400 52.15200 20.96700
H  17.57800 53.29000 21.82600
H  16.28000 53.80200 20.81500
H  17.40200 52.91300 19.11000
H  17.58900 51.31600 19.98800
H  18.68900 52.54900 20.27900
H  20.72100 51.09900 23.77700
H  20.83800 49.49800 24.39000
H  21.79300 50.81600 25.20100
H  19.68500 51.11700 30.08000
H  18.71200 49.08800 33.33600
H  20.09600 48.12600 33.12600
H  18.55400 47.63600 32.41500

