158

Mg 1.74200 -2.00100 44.65100
C  4.89100 -0.99200 43.70800
C  0.34800 0.36100 42.50300
C  -1.29900 -3.47600 44.98300
C  3.26000 -4.82300 46.26000
N  2.62000 -0.61000 42.99400
C  3.91300 -0.27100 42.92500
C  4.12500 0.95900 41.98000
C  2.66600 1.35600 41.72500
C  1.79300 0.33100 42.47800
C  2.33000 2.83000 42.12900
C  4.91600 0.65400 40.65500
C  6.22700 1.35300 40.56000
H  6.56200 2.09800 39.21300
N  -0.27000 -1.56600 43.99300
C  -0.60700 -0.55900 43.04900
C  -2.07700 -0.42700 43.02900
C  -2.62100 -1.52900 43.80500
C  -1.43200 -2.24500 44.32600
C  -2.90100 0.60400 42.36300
C  -3.99000 -1.92200 43.99600
O  -4.90000 -1.35500 43.45400
C  -4.43400 -3.02100 44.87100
N  1.11900 -3.82900 45.54600
C  -0.24500 -4.13000 45.67800
C  -0.48200 -5.39700 46.42600
C  0.94400 -5.81500 46.81100
C  1.87700 -4.71200 46.23100
C  -1.56000 -5.49900 47.56500
C  1.34100 -7.35400 46.47000
C  1.46900 -8.26700 47.69900
N  3.75500 -2.78100 45.01600
C  4.16100 -3.85500 45.73200
C  5.58900 -3.86100 45.69900
C  6.00300 -2.70200 44.96600
C  4.81400 -2.19000 44.54600
C  6.52000 -4.80800 46.40900
C  7.07400 -1.91400 44.49000
O  8.27200 -2.01300 44.69200
C  6.43300 -0.82200 43.53400
C  6.89900 0.52200 43.94400
O  7.75100 1.22200 43.42300
O  6.13200 0.96400 45.03800
C  6.51500 2.31100 45.46900
H  -0.10500 1.17500 41.93300
H  -2.18200 -4.05800 45.25600
H  3.76000 -5.68500 46.70600
H  4.63800 1.66000 42.63800
H  2.36000 1.29300 40.68100
H  1.62900 2.74600 42.96000
H  1.84900 3.38500 41.32400
H  3.20500 3.40700 42.42800
H  4.29500 0.92300 39.80100
H  5.07400 -0.42100 40.56000
H  7.00500 0.59200 40.62700
H  6.34400 2.07200 41.37100
H  -2.28300 1.46600 42.11200
H  -3.64700 0.91100 43.09600
H  -3.43100 0.19500 41.50300
H  -3.97300 -3.09700 45.85600
H  -4.30400 -4.01700 44.44800
H  -5.51000 -2.94200 45.02900
H  -0.72800 -6.08000 45.61300
H  1.01300 -5.67600 47.89000
H  -1.15300 -5.48400 48.57600
H  -2.15500 -6.41100 47.50500
H  -2.32500 -4.73100 47.45400
H  2.11600 -7.47800 45.71300
H  0.62000 -7.89700 45.86000
H  0.90900 -9.16400 47.43400
H  1.14100 -7.89300 48.66900
H  2.49100 -8.63800 47.77600
H  7.48200 -4.32000 46.56100
H  6.67500 -5.72400 45.83900
H  6.22300 -5.03200 47.43400
H  6.70300 -1.10700 42.51700
H  7.48900 2.18000 45.94000
H  5.75000 2.57000 46.20000
H  6.57400 3.01800 44.64200
Mg 47.40400 16.57500 28.58300
C  45.32700 15.97100 31.37300
C  49.70000 17.89300 30.82100
C  49.31500 17.30700 25.97000
C  44.83600 15.55800 26.51700
N  47.49700 16.92900 30.82700
C  46.51900 16.56900 31.70100
C  46.89100 16.96000 33.16100
C  48.17700 17.80400 32.95300
C  48.49500 17.51000 31.45800
C  48.03300 19.35400 33.29800
C  47.08600 15.76500 34.19800
C  46.15400 15.69300 35.41100
H  45.59300 16.96900 35.92500
N  49.28900 17.40700 28.44100
C  50.10800 17.78400 29.49000
C  51.39800 18.16300 28.93100
C  51.30200 18.04300 27.51400
C  49.94400 17.49100 27.23400
C  52.52800 18.55000 29.84700
C  52.30100 18.35400 26.46700
O  52.12800 18.11700 25.23200
C  53.72900 18.84900 26.79200
N  47.04700 16.53100 26.59100
C  47.99600 16.99200 25.70400
C  47.50300 16.87100 24.28300
C  46.18500 16.12400 24.43600
C  45.99000 16.02900 25.89700
C  47.38100 18.23900 23.57500
C  46.04400 14.69300 23.75100
C  46.61800 13.45100 24.40900
N  45.57100 15.74800 28.84700
C  44.61800 15.42600 27.91900
C  43.45000 14.87400 28.62300
C  43.78000 14.92000 29.95600
C  45.03800 15.60000 30.02900
C  42.16400 14.30200 28.11500
C  43.24200 14.77800 31.26800
O  42.13900 14.32900 31.51300
C  44.20600 15.44600 32.26200
C  43.39500 16.47200 32.94100
O  43.17500 17.63400 32.56400
O  42.80500 15.88000 33.95500
C  41.68400 16.65300 34.50300
H  50.41500 18.33700 31.51700
H  49.91600 17.44500 25.06900
H  44.00900 15.26800 25.86600
H  46.01300 17.52700 33.47000
H  49.02100 17.46000 33.55200
H  47.09100 19.57400 33.80000
H  48.18300 19.97100 32.41100
H  48.87900 19.60500 33.93800
H  48.13000 15.78700 34.51100
H  47.04500 14.85100 33.60600
H  46.70700 15.26400 36.24700
H  45.38600 14.99400 35.07800
H  52.28500 19.07600 30.77000
H  53.33500 19.11800 29.38300
H  53.00700 17.59500 30.06800
H  53.70500 19.84200 27.24100
H  54.40400 18.84600 25.93600
H  54.02100 18.11600 27.54500
H  48.12400 16.10400 23.82100
H  45.40400 16.77900 24.05000
H  46.39100 18.34600 23.13000
H  48.04700 18.08800 22.72600
H  47.75900 19.09600 24.13200
H  46.56300 14.81200 22.80000
H  44.98400 14.49600 23.59100
H  47.38600 13.71700 25.13500
H  47.13800 12.79400 23.71100
H  45.88100 12.86500 24.95800
H  42.40300 13.32600 27.69400
H  41.74300 14.88200 27.29300
H  41.43200 14.03200 28.87600
H  44.52700 14.61100 32.88500
H  42.05800 17.57900 34.94000
H  41.17500 15.93800 35.14900
H  41.02700 16.84500 33.65500

