158

Mg 34.51000 2.91900 28.94000
C  32.60600 3.95800 31.83300
C  37.28500 2.75100 30.95700
C  36.40600 2.71700 26.28600
C  31.62700 3.88900 27.00500
N  34.82700 3.38900 31.14300
C  33.95200 3.72500 32.12300
C  34.62800 3.74200 33.53700
C  36.12700 3.66500 33.12000
C  36.07000 3.15800 31.63700
C  36.99100 4.94100 33.33900
C  34.06400 2.56200 34.38900
C  33.93400 2.85900 35.91000
H  34.55800 4.14000 36.44100
N  36.58600 2.52900 28.63400
C  37.54200 2.44900 29.60800
C  38.81900 2.19700 28.95400
C  38.54200 2.10500 27.57200
C  37.12400 2.40300 27.39000
C  40.06400 2.00300 29.74000
C  39.54700 1.69800 26.44200
O  39.17600 1.51400 25.30200
C  40.92100 1.63900 26.77400
N  34.10600 3.34200 26.97200
C  35.10400 3.14900 26.05700
C  34.61800 3.42000 24.67600
C  33.07100 3.42600 24.79800
C  32.87200 3.53300 26.34300
C  35.09800 4.84700 24.22800
C  32.46300 2.17400 24.15800
C  30.87200 2.13300 23.96200
N  32.45100 3.68500 29.33800
C  31.43000 3.90700 28.40000
C  30.21900 4.26000 29.14700
C  30.64100 4.27400 30.50200
C  32.01000 3.99700 30.54900
C  28.86600 4.52000 28.71400
C  30.18100 4.51600 31.81600
O  29.09800 4.81300 32.23000
C  31.50200 4.21100 32.72400
C  31.73900 5.44400 33.47400
O  32.15800 6.49900 33.06300
O  31.25500 5.20900 34.79600
C  31.38700 6.31500 35.80800
H  38.23400 2.79300 31.49500
H  36.96600 2.60000 25.35500
H  30.88800 4.12300 26.23600
H  34.52200 4.72900 33.98700
H  36.38800 2.85700 33.80300
H  37.56100 5.20100 32.44700
H  37.64500 4.73800 34.18700
H  36.46400 5.81600 33.71900
H  34.63900 1.65300 34.21400
H  33.06200 2.22100 34.13100
H  34.31400 2.05000 36.53500
H  32.86800 2.89200 36.13600
H  40.57100 1.14000 29.30700
H  39.86600 1.59900 30.73300
H  40.64000 2.92800 29.74000
H  41.30200 2.53000 27.27200
H  41.35600 1.58100 25.77600
H  41.08400 0.68300 27.27100
H  34.95400 2.56300 24.09100
H  32.68200 4.33100 24.33100
H  35.22400 4.89100 23.14600
H  36.04400 5.08000 24.71500
H  34.45100 5.68900 24.47200
H  32.65800 1.37900 24.87800
H  32.95000 1.95600 23.20700
H  30.48500 2.24700 22.94900
H  30.38100 2.95200 24.48600
H  30.56400 1.17100 24.37300
H  28.17300 3.96000 29.34100
H  28.70600 4.25500 27.66800
H  28.79800 5.59700 28.86600
H  31.24000 3.33500 33.31700
H  32.10800 7.06400 35.47900
H  31.73600 5.96200 36.77800
H  30.43800 6.85100 35.80000
Mg 44.11000 42.33100 26.60700
C  42.84900 44.25900 29.21700
C  45.66200 40.43600 28.98300
C  45.38900 40.46700 24.24900
C  43.14600 44.79100 24.39400
N  44.09000 42.29700 28.91600
C  43.57400 43.22200 29.74300
C  43.84200 42.92100 31.23300
C  44.91400 41.87200 31.10000
C  44.88700 41.41300 29.63200
C  46.24300 42.42900 31.59800
C  42.58200 42.43400 32.02900
C  42.11500 43.48400 33.11100
H  41.52300 43.02200 34.44300
N  45.15400 40.60500 26.59800
C  45.74900 39.97800 27.63700
C  46.38000 38.75800 27.17000
C  46.16000 38.61900 25.79400
C  45.51100 39.89600 25.50600
C  47.00700 37.87900 28.14900
C  46.48200 37.40400 24.95400
O  46.26900 37.39800 23.75900
C  47.03300 36.06100 25.57600
N  44.38000 42.67800 24.63400
C  44.83200 41.71300 23.84900
C  44.61200 42.08500 22.34600
C  43.67300 43.35200 22.43300
C  43.72800 43.67500 23.88500
C  45.93300 42.36900 21.58100
C  42.24600 43.14000 21.86600
C  41.13200 42.58200 22.82100
N  43.25200 44.15300 26.70400
C  42.90000 45.08100 25.74300
C  42.19700 46.21800 26.32900
C  42.07500 45.84000 27.65300
C  42.75500 44.63400 27.84700
C  41.59300 47.43400 25.68900
C  41.63600 46.30200 28.92700
O  41.10000 47.39300 29.21800
C  42.08800 45.30200 30.00800
C  43.08800 46.00200 30.86100
O  44.19700 46.22700 30.50700
O  42.53700 46.49200 32.00700
C  43.37800 47.28300 32.84700
H  46.25300 39.93100 29.75000
H  45.62800 39.78800 23.42700
H  42.78800 45.56400 23.71000
H  44.26400 43.81800 31.68500
H  44.72000 41.02300 31.75600
H  46.29500 43.51000 31.46700
H  47.14000 42.06900 31.09400
H  46.32000 42.13600 32.64500
H  42.83500 41.48800 32.50700
H  41.76600 42.29000 31.32000
H  41.20300 43.96100 32.75200
H  42.80800 44.30900 33.27600
H  47.54800 38.52800 28.83700
H  47.70100 37.08000 27.88600
H  46.31300 37.26600 28.72400
H  46.43400 35.76500 26.43700
H  48.11600 36.13000 25.68100
H  46.83000 35.20700 24.93000
H  44.08100 41.20600 21.98100
H  44.05900 44.15200 21.80100
H  46.06600 43.37100 21.17300
H  46.13900 41.58300 20.85400
H  46.77300 42.17100 22.24600
H  42.30500 42.37100 21.09500
H  41.96600 44.04800 21.33100
H  40.86100 41.55800 22.56500
H  40.30300 43.28900 22.80200
H  41.37900 42.73000 23.87300
H  41.12300 47.04600 24.78500
H  42.22500 48.21800 25.27200
H  40.78600 47.88700 26.26400
H  41.19900 45.06200 30.59100
H  43.45300 46.67200 33.74600
H  42.85700 48.17400 33.19700
H  44.37000 47.57500 32.50100

