158

Mg 17.51400 -2.57400 27.44000
C  16.67600 -0.41300 30.15000
C  19.29700 -4.58800 29.75100
C  18.73600 -4.27400 24.84200
C  16.06100 -0.24700 25.30500
N  17.92400 -2.53800 29.74800
C  17.52800 -1.48200 30.56800
C  17.92400 -1.83700 32.03700
C  18.86000 -3.11700 31.87600
C  18.71600 -3.43800 30.37000
C  20.33400 -2.98400 32.42600
C  16.73600 -1.99900 33.01000
C  16.68500 -1.22500 34.29400
H  18.03000 -0.89500 35.00600
N  18.70900 -4.25900 27.30000
C  19.28000 -4.99800 28.39200
C  19.84600 -6.23400 27.83200
C  19.89000 -6.00700 26.40600
C  19.15800 -4.78400 26.13600
C  20.42600 -7.23000 28.70900
C  20.63600 -6.80500 25.35800
O  20.50000 -6.54300 24.16600
C  21.45200 -7.94800 25.77100
N  17.66500 -2.17200 25.39900
C  18.16500 -3.08800 24.51500
C  17.84700 -2.68500 23.08800
C  16.87900 -1.51800 23.26800
C  16.87100 -1.23300 24.78300
C  18.98600 -2.59400 22.16300
C  15.48900 -1.70100 22.62500
C  14.37300 -2.12600 23.58800
N  16.44300 -0.80300 27.63800
C  15.88600 0.02400 26.68000
C  15.08400 1.06100 27.32300
C  15.40000 0.90300 28.67400
C  16.25000 -0.21600 28.77900
C  14.29300 2.13800 26.75700
C  15.25600 1.53200 29.98700
O  14.61700 2.53400 30.25900
C  16.08500 0.66800 31.04100
C  16.97500 1.51700 31.78900
O  18.16300 1.70800 31.61200
O  16.27500 2.00500 32.88300
C  17.02800 3.10800 33.55500
H  19.85300 -5.20800 30.45800
H  18.85900 -4.96700 24.00700
H  15.45500 0.43500 24.70600
H  18.59400 -1.05400 32.39300
H  18.41100 -3.92800 32.45000
H  20.38600 -3.78800 33.16000
H  20.40100 -2.01200 32.91500
H  21.10300 -3.15600 31.67300
H  16.53200 -3.05600 33.18100
H  15.92000 -1.67400 32.36500
H  16.23900 -1.98100 34.94000
H  15.92200 -0.45700 34.17600
H  20.07000 -8.18900 28.33100
H  20.02800 -7.20800 29.72300
H  21.50900 -7.11100 28.73800
H  20.74600 -8.67700 26.17100
H  22.04500 -7.60200 26.61800
H  21.92200 -8.39300 24.89400
H  17.35800 -3.54600 22.63200
H  17.46400 -0.70800 22.83400
H  19.10700 -1.62800 21.67300
H  18.89800 -3.36800 21.40000
H  19.85100 -2.72800 22.81200
H  15.59800 -2.55100 21.95300
H  15.16600 -0.78700 22.12700
H  14.69500 -2.84300 24.34400
H  13.63600 -2.76400 23.10000
H  13.82100 -1.22200 23.84300
H  14.05800 1.82100 25.74100
H  15.00900 2.95200 26.64400
H  13.38700 2.31700 27.33500
H  15.31000 0.30400 31.71500
H  17.32800 3.97100 32.96200
H  17.91300 2.78200 34.10300
H  16.34900 3.37600 34.36400
Mg -0.25500 43.98900 25.36300
C  1.76300 43.81200 27.93900
C  -2.99400 43.05300 27.39600
C  -2.47300 43.75000 22.54400
C  2.18500 44.67300 23.20900
N  -0.59200 43.34900 27.44400
C  0.42300 43.51600 28.33500
C  0.01500 43.28000 29.74700
C  -1.59200 43.07900 29.62300
C  -1.76900 43.21500 28.08100
C  -1.94800 41.70600 30.11300
C  0.24500 44.63300 30.66600
C  0.52900 44.48500 32.21100
H  0.37000 43.15000 32.92200
N  -2.44900 43.44700 25.04800
C  -3.37200 43.05200 26.03100
C  -4.61000 42.72800 25.40000
C  -4.49800 43.08800 24.02200
C  -3.08500 43.47900 23.83600
C  -5.64700 42.06800 26.26200
C  -5.52300 43.05700 22.92400
O  -5.39700 43.57400 21.81700
C  -6.81700 42.34800 23.16200
N  -0.19900 44.28900 23.21800
C  -1.18500 44.16100 22.30200
C  -0.66200 44.38700 20.86900
C  0.74000 45.01800 21.14500
C  0.97400 44.49200 22.62700
C  -0.52100 43.04000 20.11900
C  0.79600 46.56600 21.00600
C  -0.34400 47.41600 21.52700
N  1.69000 44.16800 25.49700
C  2.59500 44.40000 24.51000
C  3.89800 44.55100 25.19400
C  3.63500 44.19600 26.53400
C  2.29600 44.00700 26.67100
C  5.17400 44.89300 24.46400
C  4.15600 44.03500 27.76600
O  5.35800 44.02000 28.08300
C  2.95300 43.82200 28.74200
C  3.18300 42.67500 29.66200
O  3.04700 41.46800 29.37800
O  3.74800 43.18900 30.80300
C  4.24700 42.20400 31.82200
H  -3.89300 42.85900 27.98500
H  -3.07700 43.66900 21.63800
H  2.93000 45.06700 22.51500
H  0.50400 42.42800 30.22000
H  -2.09600 43.86900 30.17900
H  -2.85900 41.86700 30.69000
H  -1.21500 41.34600 30.83500
H  -2.11000 40.86200 29.44200
H  -0.70800 45.15500 30.75500
H  0.88400 45.38000 30.19700
H  -0.04200 45.22500 32.77200
H  1.57900 44.77600 32.21200
H  -5.16600 41.25300 26.80300
H  -6.43700 41.58400 25.68700
H  -5.97800 42.79500 27.00400
H  -7.45300 42.76900 23.94100
H  -6.64000 41.29600 23.38500
H  -7.38600 42.38000 22.23300
H  -1.34000 45.15300 20.49400
H  1.52900 44.53500 20.56700
H  0.51300 42.76000 20.31600
H  -0.84800 43.20300 19.09200
H  -1.15800 42.30700 20.61300
H  1.06100 46.89400 20.00000
H  1.59100 46.83700 21.70100
H  -0.71000 48.21500 20.88200
H  0.03900 47.91800 22.41500
H  -1.17900 46.90800 22.01000
H  5.19500 45.45200 23.52900
H  5.67100 43.95700 24.21100
H  5.87400 45.52900 25.00500
H  3.02800 44.70700 29.37400
H  4.51000 42.78300 32.70700
H  5.15000 41.63200 31.60900
H  3.43700 41.50000 32.01700

