158

Mg 52.48500 23.54500 43.89100
C  49.94500 25.83400 43.41900
C  50.51900 21.16700 42.40000
C  55.15900 21.54500 43.56700
C  54.62800 26.22700 45.00800
N  50.49400 23.59900 42.94400
C  49.60300 24.61800 42.90500
C  48.43000 24.28500 41.99400
C  48.43900 22.70600 42.02500
C  49.92000 22.45100 42.56500
C  47.34500 22.05900 42.87000
C  48.55700 25.10200 40.60100
C  48.73700 24.32400 39.33100
H  49.12300 25.11000 38.03800
N  52.77600 21.64200 43.15300
C  51.80600 20.79300 42.67700
C  52.38200 19.49800 42.28400
C  53.74300 19.56200 42.70100
C  54.00200 20.95600 43.10100
C  51.62000 18.36800 41.74900
C  54.78600 18.49100 42.58500
O  54.45400 17.39300 42.09800
C  56.17400 18.53100 43.03900
N  54.54600 23.91200 44.11900
C  55.39600 22.84200 43.99400
C  56.79300 23.28200 44.52800
C  56.69700 24.78700 44.77000
C  55.24400 25.02000 44.56500
C  57.16400 22.48500 45.83300
C  57.63800 25.62000 43.73500
C  58.64500 26.58300 44.33900
N  52.33200 25.52600 44.29600
C  53.20200 26.48800 44.87800
C  52.50700 27.72900 45.26200
C  51.23300 27.50000 44.63100
C  51.19900 26.12900 44.10500
C  53.07800 28.96300 46.00700
C  49.92300 28.11800 44.31900
O  49.58600 29.26100 44.55900
C  49.11000 27.06000 43.54100
C  48.77100 27.69400 42.22200
O  49.67800 28.06400 41.42400
O  47.41200 27.78200 41.98700
C  46.96400 28.14000 40.61600
H  50.02100 20.46200 41.73000
H  56.04700 20.91600 43.65000
H  55.22900 27.00900 45.47600
H  47.49700 24.72500 42.34400
H  48.32400 22.28100 41.02800
H  47.61700 21.86000 43.90700
H  46.87200 21.20100 42.39100
H  46.53900 22.79200 42.90400
H  49.32200 25.87800 40.56200
H  47.54600 25.50700 40.54300
H  47.76300 23.90700 39.07200
H  49.54500 23.62100 39.53400
H  51.39000 18.60000 40.71000
H  50.69400 18.36800 42.32500
H  52.05300 17.37800 41.89300
H  56.16200 18.84700 44.08200
H  56.62700 19.21000 42.31600
H  56.66900 17.56000 43.04300
H  57.54400 23.03200 43.77800
H  56.99800 25.07400 45.77700
H  56.33600 21.82000 46.07800
H  57.32000 23.16800 46.66800
H  58.12900 22.02600 45.61700
H  56.94500 26.19000 43.11600
H  58.13400 24.97500 43.00900
H  58.77800 26.53000 45.41900
H  58.26700 27.58800 44.15200
H  59.61700 26.47500 43.85600
H  54.15900 28.98100 45.87000
H  52.77700 28.87100 47.05000
H  52.62000 29.92700 45.78500
H  48.20000 26.88200 44.11500
H  46.47400 29.11200 40.67400
H  46.18400 27.45400 40.28400
H  47.63100 28.13000 39.75400
Mg -4.39600 25.12200 26.29700
C  -3.23800 26.90500 29.10800
C  -6.25900 23.25400 28.37400
C  -5.47600 23.38600 23.54700
C  -2.76100 27.27600 24.25600
N  -4.74600 25.15700 28.51200
C  -4.13600 25.88000 29.50900
C  -4.77400 25.61800 30.84200
C  -5.49400 24.23600 30.53600
C  -5.60600 24.26800 29.05900
C  -4.65000 23.09200 31.02700
C  -5.68900 26.82600 31.20600
C  -5.76300 27.00500 32.73400
H  -5.39900 25.86700 33.62900
N  -5.63100 23.42900 26.00200
C  -6.34600 22.91300 26.96900
C  -7.28700 21.91000 26.42000
C  -7.04600 21.90900 24.95600
C  -5.95200 22.91600 24.76600
C  -8.27500 21.21200 27.30900
C  -7.67100 21.00000 23.95800
O  -7.30500 20.85900 22.79400
C  -8.90300 20.23200 24.36800
N  -4.14500 25.25800 24.17000
C  -4.63400 24.43000 23.23100
C  -4.26000 24.79200 21.77700
C  -3.57700 26.18000 22.09500
C  -3.49100 26.27500 23.61400
C  -3.31400 23.72400 21.03300
C  -4.28100 27.42400 21.55100
C  -3.68600 28.13400 20.32700
N  -3.10200 26.62700 26.60300
C  -2.48700 27.39600 25.63800
C  -1.63500 28.39200 26.30000
C  -1.95500 28.27100 27.63800
C  -2.79500 27.17700 27.75000
C  -0.78200 29.40900 25.58800
C  -1.76600 28.84800 28.98100
O  -1.10900 29.89100 29.33100
C  -2.40800 27.79100 29.96000
C  -1.27600 27.11800 30.78600
O  -0.51000 26.20000 30.33500
O  -1.43700 27.44300 32.07200
C  -0.79000 26.59900 33.02300
H  -6.83900 22.66200 29.08600
H  -5.87200 22.85200 22.68100
H  -2.19900 27.93700 23.59300
H  -3.93000 25.47300 31.51600
H  -6.51700 24.13900 30.89900
H  -5.21700 22.42300 31.67400
H  -3.67200 23.33500 31.44300
H  -4.41300 22.39300 30.22500
H  -6.72600 26.66000 30.91300
H  -5.33800 27.72700 30.70300
H  -6.77600 27.29300 33.01300
H  -5.14500 27.87900 32.94100
H  -7.95600 21.00500 28.33100
H  -8.34000 20.17400 26.98200
H  -9.12200 21.89400 27.22600
H  -9.59300 20.69400 25.07300
H  -8.51800 19.26700 24.69900
H  -9.52200 19.91100 23.53000
H  -5.17800 24.88000 21.19600
H  -2.59900 26.13700 21.61600
H  -3.28600 22.83400 21.66200
H  -2.29100 24.09600 20.97400
H  -3.87300 23.57100 20.11000
H  -4.39400 28.23500 22.27100
H  -5.25600 27.23000 21.10500
H  -4.38000 28.55100 19.59700
H  -3.02700 27.39500 19.87100
H  -3.01400 28.93700 20.63000
H  0.20200 29.01200 25.83600
H  -0.85900 30.38700 26.06300
H  -1.07300 29.36400 24.53900
H  -2.97600 28.24300 30.77400
H  0.12300 27.07800 33.37800
H  -0.51500 25.61700 32.63700
H  -1.40500 26.46400 33.91200

