158

Mg -2.10400 17.56400 26.94400
C  -2.69000 15.00200 29.32700
C  -2.25900 19.86200 29.26300
C  -1.79900 19.78100 24.51400
C  -2.75400 14.97200 24.51700
N  -2.49400 17.40500 28.95500
C  -2.50500 16.36600 29.83800
C  -2.38100 16.77500 31.31000
C  -2.72700 18.26600 31.16900
C  -2.54400 18.55900 29.64200
C  -3.96900 18.86500 31.85700
C  -1.10700 16.40200 32.04900
C  -0.95000 17.09200 33.43400
H  -0.89400 16.27200 34.75600
N  -1.89700 19.59100 26.90000
C  -1.89600 20.35100 28.01500
C  -1.48000 21.70600 27.67300
C  -1.22400 21.65100 26.27300
C  -1.64000 20.27400 25.83500
C  -1.35700 22.84800 28.69700
C  -0.68700 22.67800 25.30700
O  -0.49900 22.43600 24.13300
C  -0.12900 23.95000 25.69000
N  -2.28700 17.38700 24.86400
C  -2.07000 18.48600 24.10900
C  -2.35000 18.27700 22.66300
C  -2.57700 16.71300 22.54200
C  -2.60000 16.31600 24.04700
C  -3.56400 19.10800 22.11400
C  -1.47700 15.91500 21.76800
C  -0.16100 15.59900 22.44400
N  -2.47300 15.39500 26.84400
C  -2.72200 14.50200 25.79100
C  -2.97400 13.21500 26.23300
C  -2.91300 13.32900 27.69200
C  -2.65400 14.66300 27.96900
C  -3.44900 12.05700 25.33800
C  -3.07900 12.57200 28.94600
O  -3.44200 11.44800 29.22700
C  -2.93900 13.65400 30.07000
C  -1.91500 13.15300 31.04200
O  -0.71300 13.24800 30.88200
O  -2.53300 12.53500 32.10100
C  -1.68700 12.09900 33.24100
H  -2.27900 20.65600 30.01100
H  -1.64300 20.54800 23.75300
H  -2.84400 14.26000 23.69400
H  -3.08600 16.26200 31.96300
H  -1.86600 18.74100 31.64000
H  -3.59500 19.51400 32.64900
H  -4.67300 18.14700 32.27600
H  -4.49800 19.47400 31.12500
H  -0.38300 16.58200 31.25500
H  -1.13500 15.33300 32.26000
H  -1.69300 17.88100 33.54900
H  -0.01500 17.64400 33.34000
H  -0.47900 23.45800 28.48500
H  -1.53500 22.51600 29.72000
H  -2.32800 23.31700 28.53900
H  -0.41200 24.37500 26.65200
H  -0.46600 24.57100 24.85900
H  0.95800 23.94800 25.76800
H  -1.40300 18.58200 22.21800
H  -3.54900 16.49600 22.09900
H  -4.53800 18.61800 22.09300
H  -3.31000 19.52300 21.13900
H  -3.62300 19.93000 22.82700
H  -1.47800 16.44600 20.81600
H  -1.85300 14.91300 21.56400
H  0.18800 14.64700 22.04400
H  -0.35300 15.43100 23.50400
H  0.45200 16.47800 22.24800
H  -4.39600 12.39900 24.92100
H  -3.60800 11.20600 26.00000
H  -2.81800 11.86500 24.47100
H  -3.81900 13.73800 30.70700
H  -2.12600 11.22800 33.72800
H  -1.48600 13.03200 33.76700
H  -0.76300 11.73700 32.79100
Mg 1.97800 41.61800 25.18500
C  2.52500 42.15600 28.52500
C  -0.95000 40.01000 25.92700
C  1.46100 41.30000 21.88400
C  5.19600 42.73400 24.56900
N  0.75100 41.30200 27.05300
C  1.26300 41.56000 28.26200
C  0.26000 41.17400 29.32700
C  -0.74000 40.17200 28.58000
C  -0.36600 40.54000 27.11300
C  -0.72100 38.68900 28.98200
C  -0.49100 42.32400 29.97500
C  -0.32600 42.64700 31.46400
H  -0.86800 41.64500 32.47400
N  0.34700 40.84100 24.08400
C  -0.72300 40.18600 24.54400
C  -1.57200 39.79800 23.42900
C  -0.94200 40.26300 22.20000
C  0.32300 40.86600 22.65100
C  -2.95000 39.27600 23.69100
C  -1.57200 40.33500 20.83300
O  -1.01100 40.81400 19.83900
C  -2.88900 39.72500 20.62300
N  3.25100 41.72700 23.50300
C  2.72200 41.73100 22.28000
C  3.77200 42.17300 21.24300
C  4.92400 42.78300 22.09600
C  4.40800 42.44600 23.45800
C  4.14500 41.05800 20.28200
C  5.04400 44.34100 21.73000
C  3.72600 45.24900 21.89900
N  3.63300 42.19500 26.29600
C  4.85600 42.67000 25.86600
C  5.68400 43.00600 27.09100
C  4.73300 42.88100 28.10600
C  3.50700 42.47400 27.58500
C  7.10300 43.52900 27.08800
C  4.57900 43.09400 29.53200
O  5.32100 43.56500 30.38900
C  3.13100 42.56700 29.86000
C  3.34900 41.27500 30.61000
O  4.05400 40.39300 30.27400
O  2.66500 41.29900 31.82000
C  2.83500 40.13000 32.71400
H  -1.87200 39.47400 26.16100
H  1.27200 41.29800 20.80800
H  6.14200 43.21200 24.30400
H  0.76700 40.61900 30.11600
H  -1.75200 40.56900 28.66500
H  0.00900 38.52200 29.77400
H  -0.46800 38.02700 28.15400
H  -1.67700 38.27200 29.29900
H  -1.56600 42.25800 29.80700
H  -0.24400 43.18400 29.35300
H  -0.77800 43.62600 31.62700
H  0.74500 42.64100 31.66300
H  -3.68100 40.03500 23.40900
H  -3.10300 38.98300 24.72900
H  -3.09200 38.40900 23.04600
H  -3.64100 40.08500 21.32500
H  -2.70600 38.65300 20.69900
H  -3.17000 39.88000 19.58200
H  3.27500 42.96900 20.68800
H  5.87600 42.32000 21.83500
H  5.08500 41.08800 19.73100
H  3.35000 40.91300 19.55000
H  4.22900 40.12900 20.84500
H  5.57100 44.50300 20.79000
H  5.77200 44.70200 22.45600
H  3.88000 45.98200 22.69100
H  2.85800 44.60700 22.05000
H  3.58000 45.83100 20.98900
H  7.82800 42.71600 27.12800
H  7.10400 44.16800 27.97100
H  7.30300 44.13400 26.20400
H  2.68700 43.33400 30.49500
H  2.88000 39.14800 32.24200
H  1.95000 40.06000 33.34700
H  3.70400 40.24100 33.36300

