158

Mg 41.43300 8.94600 29.77900
C  43.40500 10.03800 32.42900
C  39.17000 7.68500 31.95200
C  39.80300 7.66900 27.12100
C  43.86900 10.09500 27.60500
N  41.36800 8.72300 32.01900
C  42.19300 9.38900 32.87800
C  41.64800 9.40100 34.38700
C  40.27900 8.64700 34.21100
C  40.26000 8.27400 32.65800
C  39.96300 7.38700 35.06700
C  41.45200 10.79300 34.99800
C  42.23600 11.01800 36.36000
H  41.66700 11.82400 37.51000
N  39.82200 7.75100 29.55700
C  38.96600 7.37400 30.56000
C  37.81300 6.60500 30.05500
C  38.00900 6.61200 28.64300
C  39.28600 7.43000 28.36700
C  36.69100 6.11600 30.88800
C  37.05700 6.05600 27.56300
O  37.24500 6.08700 26.34400
C  35.65900 5.42400 27.85900
N  41.69500 8.96300 27.60500
C  40.88800 8.40900 26.71100
C  41.40900 8.41600 25.27400
C  42.64700 9.32900 25.50700
C  42.76400 9.48000 26.97900
C  41.58400 7.11800 24.50400
C  42.49400 10.72100 24.80400
C  41.59000 11.72900 25.50000
N  43.32600 9.84900 29.92700
C  44.17700 10.26000 28.99700
C  45.36600 10.83000 29.59400
C  45.06900 10.89900 31.00300
C  43.86700 10.25900 31.10100
C  46.59100 11.34600 28.90300
C  45.53300 11.31600 32.30100
O  46.45000 12.07000 32.64800
C  44.46100 10.76200 33.30700
C  45.12200 9.89000 34.33000
O  45.32100 8.67400 34.12700
O  45.45200 10.58600 35.44300
C  45.79400 9.68400 36.52600
H  38.37800 7.30200 32.59800
H  39.21700 7.28000 26.28600
H  44.61000 10.54300 26.94100
H  42.26500 8.80400 35.05800
H  39.52200 9.43100 34.24600
H  40.59800 7.43400 35.95200
H  39.99700 6.46500 34.48600
H  38.94700 7.50000 35.44600
H  40.41300 11.08800 35.15100
H  41.93600 11.39400 34.22900
H  43.13500 11.62000 36.23000
H  42.54900 10.05100 36.75300
H  36.37900 5.09300 30.67500
H  35.91600 6.85200 30.67400
H  36.84300 6.08000 31.96600
H  35.86500 4.60900 28.55300
H  35.07700 5.24200 26.95600
H  35.02000 6.14000 28.37500
H  40.65000 8.98900 24.74200
H  43.59800 8.89100 25.20400
H  41.47900 7.19100 23.42100
H  40.85700 6.40200 24.88900
H  42.60800 6.77300 24.64400
H  42.02800 10.58300 23.82800
H  43.45000 11.21800 24.63800
H  41.74700 11.77600 26.57800
H  40.53100 11.60200 25.27500
H  41.89100 12.75400 25.28100
H  46.88000 10.55600 28.20900
H  47.36600 11.38900 29.66900
H  46.52000 12.35700 28.50100
H  44.11200 11.66700 33.80400
H  45.69700 10.18300 37.49000
H  46.73700 9.13900 36.48300
H  44.93500 9.02200 36.63800
Mg 55.47000 22.71100 44.27100
C  53.31100 25.44300 43.27500
C  53.05700 20.58400 43.10900
C  57.66200 20.32300 44.81000
C  57.79600 25.10200 45.31900
N  53.49200 23.04300 43.18500
C  52.81200 24.20600 42.95700
C  51.33700 23.94800 42.57900
C  51.19100 22.38600 42.95900
C  52.68800 21.96800 42.97200
C  50.33600 21.98000 44.26000
C  50.99900 24.32400 41.07800
C  49.56500 24.67300 40.76400
H  48.84200 23.98100 39.62500
N  55.45100 20.70400 43.84900
C  54.36700 19.96400 43.42500
C  54.65400 18.56200 43.51600
C  55.99300 18.43800 43.99300
C  56.45800 19.85500 44.26500
C  53.66300 17.56600 42.99600
C  56.80000 17.14100 44.00400
O  56.29500 16.08200 43.68200
C  58.19700 17.12600 44.23300
N  57.47300 22.68400 44.83400
C  58.19800 21.58500 44.96400
C  59.68500 21.85000 45.25000
C  59.62500 23.36400 45.56700
C  58.22900 23.78500 45.24900
C  60.35900 21.02000 46.40300
C  60.70000 24.20000 44.69300
C  61.09300 25.62200 45.23400
N  55.60700 24.82000 44.29900
C  56.56500 25.62000 44.82100
C  56.18500 27.00800 44.61900
C  54.87400 26.94500 44.21900
C  54.57100 25.61300 43.94200
C  57.01300 28.31700 44.87000
C  53.69700 27.73600 43.89900
O  53.47600 28.90800 44.08000
C  52.68700 26.81400 43.17200
C  52.57300 27.26600 41.75700
O  53.44500 27.06800 40.92500
O  51.27300 27.77200 41.57400
C  50.99900 28.21100 40.16000
H  52.34000 19.76900 42.99100
H  58.44300 19.61500 45.09500
H  58.46200 25.91100 45.62800
H  50.71800 24.50900 43.27900
H  50.70600 21.79600 42.18100
H  51.03200 21.55900 44.98500
H  49.52700 21.27900 44.05300
H  49.92500 22.85800 44.75900
H  51.09200 23.36700 40.56500
H  51.80900 24.93100 40.67200
H  49.78700 25.68800 40.43500
H  48.99600 24.43200 41.66200
H  52.61000 17.80100 43.14800
H  53.78100 16.64900 43.57400
H  53.87000 17.30200 41.95900
H  58.56200 17.91500 43.57400
H  58.75200 16.22200 43.98400
H  58.43400 17.35700 45.27100
H  60.16300 21.71500 44.28000
H  59.75500 23.54900 46.63400
H  59.72000 20.29200 46.90200
H  60.89000 21.44700 47.25400
H  60.94000 20.21000 45.96100
H  60.23700 24.39700 43.72600
H  61.63500 23.70000 44.43900
H  60.49600 26.32100 44.64800
H  62.12200 25.81300 44.92900
H  60.99400 25.81900 46.30100
H  57.48200 28.20000 45.84700
H  56.36400 29.18400 44.74900
H  57.81600 28.47000 44.14900
H  51.71400 26.80500 43.66300
H  51.88700 28.71400 39.77800
H  50.23100 28.98500 40.14900
H  50.74000 27.39300 39.48800

