158

Mg 35.66600 1.39600 29.78200
C  33.48600 2.48000 32.11900
C  38.24200 1.27400 32.23500
C  37.99700 0.41800 27.40700
C  33.18800 1.67300 27.30200
N  35.86800 1.95300 31.80300
C  34.77300 2.26300 32.61600
C  35.10400 2.35400 34.09200
C  36.70200 2.31700 34.03600
C  36.94200 1.78500 32.58700
C  37.49700 3.67100 34.22700
C  34.50600 1.24300 35.03600
C  34.22700 1.52100 36.44700
H  34.73900 2.87900 36.99900
N  37.72400 0.70500 29.85100
C  38.59500 0.70300 30.98400
C  39.92300 0.14400 30.62000
C  39.87100 0.06100 29.20500
C  38.48700 0.32700 28.80200
C  41.08200 -0.07600 31.61300
C  40.97800 -0.31600 28.28000
O  40.81500 -0.57200 27.07200
C  42.45500 -0.23500 28.73800
N  35.55400 1.05600 27.70200
C  36.69700 0.79500 26.95000
C  36.36200 0.63700 25.49200
C  34.77700 0.73600 25.49300
C  34.51700 1.25800 26.88200
C  37.15000 1.62700 24.56000
C  34.09500 -0.65100 25.20500
C  32.98800 -0.66700 24.06700
N  33.72000 2.07000 29.65800
C  32.83100 2.16400 28.61200
C  31.49900 2.59700 29.13900
C  31.72300 2.74100 30.55100
C  33.05700 2.33200 30.80900
C  30.27600 2.93900 28.31700
C  31.12500 3.15000 31.79600
O  29.97100 3.39200 32.19400
C  32.24400 2.98000 32.86100
C  32.46200 4.22400 33.67700
O  33.21500 5.09000 33.40800
O  31.63700 4.23800 34.80100
C  31.79000 5.41500 35.57700
H  38.98200 1.23200 33.03700
H  38.79400 0.45900 26.66100
H  32.38900 1.55600 26.56800
H  34.77600 3.33400 34.44000
H  37.14100 1.66700 34.79400
H  38.11500 3.58500 35.12200
H  36.79000 4.48500 34.38200
H  38.06300 3.91200 33.32700
H  35.18800 0.39700 34.95700
H  33.54300 0.89600 34.66200
H  34.71100 0.74400 37.03800
H  33.14600 1.48100 36.57800
H  40.43100 -0.26600 32.46600
H  41.74900 0.77200 31.77200
H  41.67500 -0.96400 31.39500
H  43.15900 -0.04700 27.92700
H  42.56100 -1.08100 29.41700
H  42.51500 0.64500 29.37800
H  36.79000 -0.34500 25.28900
H  34.33200 1.55000 24.92000
H  37.64000 2.37700 25.18100
H  36.56400 2.07600 23.75800
H  37.90700 1.00200 24.08600
H  33.54300 -0.85600 26.12200
H  34.94900 -1.30500 25.02900
H  33.17100 -1.42500 23.30600
H  32.90100 0.24200 23.47200
H  31.94900 -0.74400 24.38800
H  29.98500 3.97300 28.50100
H  29.46400 2.22800 28.47100
H  30.45700 2.76200 27.25700
H  31.90400 2.15500 33.48700
H  31.02700 6.14300 35.29800
H  32.78100 5.86800 35.54800
H  31.53800 5.12500 36.59700
Mg -4.83900 25.22600 25.30800
C  -3.28900 26.73200 28.01000
C  -6.44000 23.07000 27.44400
C  -5.99300 23.64400 22.59600
C  -2.93200 27.34700 23.19600
N  -4.84700 24.86700 27.41800
C  -4.16700 25.68600 28.37200
C  -4.57800 25.34300 29.75900
C  -5.40900 24.02500 29.57600
C  -5.58300 23.97300 28.07900
C  -4.78000 22.76700 30.18300
C  -5.23300 26.52600 30.51700
C  -4.89100 26.75900 32.01200
H  -4.80700 25.36800 32.75800
N  -6.08300 23.61400 25.05600
C  -6.67500 22.89800 26.03800
C  -7.55300 21.93100 25.46600
C  -7.41300 21.97400 24.03400
C  -6.50700 23.15700 23.83300
C  -8.42700 21.04400 26.29000
C  -8.08500 21.19600 22.89600
O  -7.90000 21.43500 21.70200
C  -8.95800 20.05800 23.22900
N  -4.54500 25.53200 23.13600
C  -5.11000 24.68200 22.26500
C  -4.53300 24.91900 20.83500
C  -3.79000 26.33200 20.95700
C  -3.71800 26.42400 22.50900
C  -3.65600 23.74700 20.32800
C  -4.63100 27.50100 20.33400
C  -4.15500 28.03400 18.98700
N  -3.53700 26.88900 25.51400
C  -2.77200 27.51100 24.58300
C  -1.90000 28.45100 25.24400
C  -2.04400 28.19000 26.62500
C  -3.02500 27.19100 26.71600
C  -1.02200 29.46300 24.52700
C  -1.54800 28.53100 27.93300
O  -0.67100 29.30800 28.36000
C  -2.36300 27.61600 28.86700
C  -1.49400 26.87900 29.94100
O  -1.05400 25.75800 29.81800
O  -1.51000 27.61700 31.08800
C  -0.88700 26.95600 32.23300
H  -7.02900 22.38200 28.05300
H  -6.18600 23.11900 21.65800
H  -2.41400 28.13700 22.65000
H  -3.68100 25.16100 30.35000
H  -6.41700 24.08900 29.98600
H  -5.53200 22.13400 30.65400
H  -4.12800 23.02000 31.01900
H  -4.32100 22.15700 29.40400
H  -6.31700 26.41400 30.54300
H  -5.11100 27.46300 29.97400
H  -5.61400 27.34900 32.57600
H  -3.94200 27.28700 32.10100
H  -8.12300 19.99700 26.30300
H  -9.34600 21.10400 25.70700
H  -8.59700 21.38600 27.31100
H  -8.40600 19.39200 23.89200
H  -9.28300 19.60400 22.29300
H  -9.90600 20.33200 23.69300
H  -5.41700 24.94100 20.19700
H  -2.80300 26.31800 20.49400
H  -4.27600 22.85400 20.40600
H  -2.75100 23.67600 20.93100
H  -3.39400 23.82700 19.27300
H  -4.60700 28.39500 20.95700
H  -5.64300 27.10500 20.24000
H  -4.02600 29.11600 19.03000
H  -5.03400 27.87400 18.36300
H  -3.28500 27.50600 18.59600
H  -1.41600 30.47600 24.61500
H  -0.96300 29.34000 23.44500
H  -0.08100 29.46300 25.07700
H  -3.12400 28.17200 29.41500
H  -0.79800 25.87300 32.14700
H  -1.41000 27.08800 33.18000
H  0.07900 27.45400 32.31200

