158

Mg 2.89400 -2.75800 43.71000
C  6.06100 -1.10800 43.17700
C  1.44600 -0.27900 42.04800
C  0.18800 -4.59600 43.63100
C  4.82700 -5.48400 45.05800
N  3.70300 -1.07900 42.67500
C  4.93000 -0.56300 42.49600
C  5.03000 0.76100 41.80800
C  3.52900 1.12800 41.72500
C  2.82900 -0.09800 42.23800
C  3.18900 2.45200 42.44400
C  5.86200 0.61200 40.43600
C  6.89200 1.78500 40.12400
H  6.49400 2.86000 39.11900
N  1.04500 -2.46300 42.89000
C  0.58800 -1.31700 42.31500
C  -0.77800 -1.46700 41.98600
C  -1.20100 -2.73000 42.47500
C  0.02000 -3.26700 43.08800
C  -1.56300 -0.42300 41.28100
C  -2.63200 -3.30800 42.39700
O  -3.51800 -2.67500 41.78400
C  -3.00000 -4.65100 43.08500
N  2.60900 -4.81700 44.23000
C  1.30000 -5.26100 44.13800
C  1.21600 -6.74900 44.66900
C  2.74300 -7.03100 45.02700
C  3.44200 -5.69700 44.77100
C  0.21300 -6.92000 45.81800
C  3.34000 -8.21000 44.23300
C  4.07400 -9.29900 45.02600
N  5.03400 -3.17100 44.23600
C  5.60400 -4.31200 44.70800
C  7.03900 -3.97900 44.97000
C  7.23600 -2.74300 44.40800
C  6.00100 -2.27000 43.94800
C  7.94300 -4.87900 45.77100
C  8.22200 -1.73900 44.17400
O  9.44300 -1.76000 44.36000
C  7.49300 -0.67500 43.26900
C  7.69300 0.59600 44.01600
O  7.21800 0.83500 45.15000
O  8.34400 1.55900 43.22200
C  8.26000 2.95900 43.77800
H  0.89900 0.58300 41.66000
H  -0.71500 -5.21000 43.62900
H  5.34100 -6.40800 45.33200
H  5.45100 1.53900 42.44500
H  3.04000 1.26200 40.76000
H  3.89300 3.24400 42.19000
H  3.19300 2.38400 43.53200
H  2.20000 2.73100 42.07900
H  5.20300 0.66300 39.56900
H  6.21900 -0.40300 40.26500
H  7.85600 1.38400 39.81100
H  6.98600 2.32800 41.06500
H  -0.85700 0.22800 40.76600
H  -2.28700 0.04800 41.94500
H  -2.19900 -0.95100 40.57000
H  -2.59900 -5.46900 42.48700
H  -4.08700 -4.71500 43.11500
H  -2.77900 -4.78000 44.14500
H  0.93400 -7.25000 43.74300
H  2.82100 -7.20900 46.10000
H  -0.29100 -7.88300 45.90400
H  -0.47200 -6.07600 45.73900
H  0.62500 -6.73800 46.81100
H  4.09900 -7.83100 43.54900
H  2.54100 -8.71300 43.68900
H  4.01500 -9.09000 46.09400
H  5.13800 -9.29100 44.78900
H  3.62600 -10.27900 44.86100
H  7.93900 -5.91100 45.41900
H  7.68700 -4.89500 46.83100
H  8.98300 -4.55900 45.71100
H  7.90900 -0.69300 42.26200
H  9.25400 3.36700 43.59600
H  8.14700 3.07800 44.85500
H  7.36900 3.42200 43.35200
Mg 42.23400 40.87100 26.50400
C  41.39300 43.39800 28.87200
C  43.00400 38.94100 29.06900
C  42.79400 38.58900 24.21800
C  41.79300 43.35400 23.98700
N  42.11200 41.12500 28.67000
C  41.69600 42.18800 29.44200
C  41.73300 41.89300 30.93800
C  42.66300 40.59300 30.92000
C  42.60400 40.15400 29.44400
C  44.09200 40.84200 31.49100
C  40.28600 41.69100 31.55600
C  39.88300 42.57900 32.74400
H  39.49100 41.76300 33.96000
N  42.82600 39.00100 26.65000
C  43.05600 38.32500 27.79500
C  43.55800 37.02900 27.42300
C  43.47400 36.94100 25.96500
C  42.94300 38.19900 25.55400
C  43.80300 36.00400 28.41000
C  43.83500 35.76700 25.11200
O  43.79600 35.76900 23.89100
C  44.46100 34.58400 25.57100
N  42.34800 41.06600 24.35500
C  42.54100 39.89800 23.62300
C  42.39200 40.16400 22.15200
C  42.20100 41.68800 22.08500
C  42.10200 42.08900 23.54300
C  43.45000 39.55600 21.15700
C  40.96000 42.11500 21.16000
C  41.27500 43.08600 19.99200
N  41.68400 42.94500 26.37800
C  41.53900 43.78400 25.29800
C  41.14000 45.11100 25.77000
C  40.97900 44.94800 27.19800
C  41.38800 43.65500 27.49800
C  40.84200 46.30700 24.92100
C  40.41700 45.58200 28.37100
O  39.72900 46.63100 28.45000
C  40.77700 44.63100 29.54100
C  41.71000 45.24900 30.50900
O  42.88200 45.46900 30.41300
O  41.01600 45.58700 31.57300
C  41.74900 46.25900 32.69500
H  43.25800 38.35000 29.95100
H  42.86800 37.86200 23.40600
H  41.54000 44.12800 23.25800
H  42.21500 42.67900 31.51900
H  42.27000 39.77000 31.51700
H  44.84900 41.08800 30.74600
H  44.43700 39.97900 32.06000
H  44.07900 41.73500 32.11600
H  40.00200 40.65300 31.72700
H  39.63600 41.95400 30.72100
H  38.94700 43.01400 32.39600
H  40.52300 43.43400 32.96200
H  44.87700 35.83700 28.32500
H  43.46800 34.97600 28.27200
H  43.44500 36.41100 29.35500
H  43.73300 33.91300 26.02600
H  45.10700 34.95100 26.36900
H  45.03900 34.11000 24.77800
H  41.41800 39.70700 21.97400
H  43.06200 42.16100 21.61400
H  44.09900 40.25400 20.62700
H  42.92100 38.97800 20.40000
H  44.11400 38.90000 21.71900
H  40.09100 42.50200 21.69200
H  40.57900 41.23600 20.63900
H  42.34100 43.20600 19.79800
H  40.86700 44.07000 20.22300
H  40.79700 42.81800 19.05000
H  41.26900 46.35200 23.91900
H  41.09100 47.13300 25.58600
H  39.75400 46.24700 24.90700
H  39.83500 44.28600 29.96700
H  42.59600 46.87100 32.38600
H  42.09600 45.49600 33.39200
H  41.08300 46.92800 33.24000

