158

Mg 44.21800 3.70500 47.02500
C  41.76400 6.29200 46.74700
C  41.70200 1.40100 47.07200
C  46.56600 1.46700 46.80300
C  46.58200 6.38200 46.54300
N  42.04000 3.83200 46.75800
C  41.23700 4.96000 46.82400
C  39.72800 4.56900 46.68700
C  39.78400 3.14000 47.25400
C  41.26300 2.72800 47.06700
C  39.25800 2.92000 48.65300
C  39.24200 4.45900 45.19700
C  38.38000 5.58800 44.57300
H  38.97500 6.33300 43.36100
N  44.17300 1.64000 46.82900
C  43.05600 0.93100 46.95700
C  43.39100 -0.44600 47.11000
C  44.83100 -0.54400 47.08300
C  45.29200 0.84700 46.89600
C  42.49700 -1.51400 47.38000
C  45.65200 -1.74100 47.19900
O  45.16200 -2.83400 47.35900
C  47.17600 -1.79100 47.16500
N  46.24700 3.89600 46.65100
C  47.09800 2.80300 46.75000
C  48.54900 3.24300 46.84700
C  48.44500 4.71000 46.25000
C  47.03300 5.06000 46.56300
C  49.19000 3.07400 48.25100
C  48.71600 4.92600 44.75200
C  50.22800 4.65400 44.49900
N  44.25100 5.93900 46.81900
C  45.29100 6.84800 46.66600
C  44.76700 8.20800 46.65400
C  43.34600 8.04000 46.65300
C  43.14700 6.62600 46.74200
C  45.55400 9.48900 46.51200
C  42.03700 8.67600 46.52700
O  41.68000 9.84200 46.34800
C  41.02000 7.64700 46.67800
C  40.12800 7.73300 47.92100
O  40.51800 7.48100 49.04400
O  38.87200 8.08800 47.54300
C  37.91000 8.15200 48.61500
H  40.87900 0.69200 47.18600
H  47.40300 0.76600 46.81700
H  47.40900 7.09200 46.46600
H  39.09100 5.36600 47.07000
H  39.20700 2.34500 46.78200
H  38.72400 3.84000 48.88800
H  40.17800 2.73400 49.20800
H  38.52800 2.11000 48.64700
H  38.65900 3.54300 45.10800
H  40.12700 4.39200 44.56400
H  38.05200 6.41300 45.20400
H  37.49800 5.16400 44.09400
H  42.89000 -2.41800 46.91600
H  41.45500 -1.38800 47.08300
H  42.46300 -1.67000 48.45900
H  47.60600 -1.20400 47.97600
H  47.47600 -1.49000 46.16100
H  47.57300 -2.78700 47.36100
H  49.10400 2.57800 46.18600
H  49.05700 5.44300 46.77700
H  49.62500 4.03600 48.52100
H  50.03300 2.40400 48.08100
H  48.41700 2.73700 48.94100
H  48.73900 5.98900 44.50900
H  48.00800 4.45300 44.07100
H  50.85400 5.51800 44.72100
H  50.41400 4.34200 43.47200
H  50.60800 3.81500 45.08200
H  45.11300 10.34500 46.00200
H  46.61800 9.34000 46.33400
H  45.49600 9.80300 47.55500
H  40.34300 7.70200 45.82500
H  37.16000 7.41800 48.32100
H  37.40200 9.11700 48.61900
H  38.08700 7.93900 49.66900
Mg 46.94700 25.28200 28.70300
C  47.42800 27.55800 31.37700
C  45.67500 23.00500 31.04800
C  47.00800 22.79400 26.34800
C  48.37800 27.51800 26.41100
N  46.72300 25.26900 30.90800
C  46.81900 26.36000 31.78400
C  46.33300 25.93300 33.15800
C  45.89300 24.43500 33.03700
C  46.10700 24.23300 31.53200
C  46.79200 23.54600 34.01500
C  45.31100 26.92300 33.86200
C  45.73600 27.11600 35.38300
H  44.74400 27.32800 36.49900
N  46.35100 23.23300 28.73200
C  45.83300 22.47600 29.77200
C  45.49300 21.20300 29.32400
C  45.76400 21.09000 27.98400
C  46.39100 22.41500 27.62300
C  44.88100 20.16300 30.21500
C  45.51000 19.89900 27.07500
O  46.02700 19.87100 25.94400
C  44.76500 18.65900 27.68400
N  47.59100 25.18600 26.71700
C  47.55700 24.02000 25.97500
C  48.24600 24.24500 24.60200
C  48.54200 25.77900 24.58000
C  48.17900 26.16500 25.97900
C  49.46400 23.31600 24.28500
C  47.70000 26.59800 23.55400
C  46.25100 27.01200 23.94900
N  47.76800 27.10000 28.79200
C  48.30200 27.95700 27.77900
C  48.73400 29.15800 28.44200
C  48.32800 29.09600 29.76700
C  47.79700 27.78000 30.01900
C  49.38000 30.30500 27.73800
C  48.33200 29.80800 30.97600
O  48.68900 30.93400 31.26000
C  47.79300 28.86500 32.14500
C  48.88600 28.71900 33.15400
O  50.00200 28.29500 32.77400
O  48.61000 29.08100 34.46100
C  49.61200 28.88300 35.54600
H  45.31200 22.39000 31.87400
H  47.13100 22.03000 25.57800
H  48.75800 28.24500 25.68900
H  47.27200 26.11300 33.68000
H  44.88500 24.18900 33.37100
H  47.44200 23.03000 33.30800
H  46.22500 22.77900 34.54100
H  47.42100 24.06200 34.74100
H  44.31200 26.49400 33.77900
H  45.25200 27.91300 33.40900
H  46.22700 28.08200 35.26300
H  46.51100 26.43000 35.72600
H  45.02500 20.55100 31.22400
H  45.47900 19.25200 30.19800
H  43.81100 19.97200 30.13100
H  45.50800 18.18800 28.32800
H  44.44500 17.89800 26.97200
H  43.86600 19.00000 28.19700
H  47.54700 24.00300 23.80200
H  49.57400 25.92500 24.26100
H  49.17900 22.47300 23.65500
H  49.91800 22.86100 25.16600
H  50.23300 23.90400 23.78400
H  47.67400 26.00700 22.63900
H  48.31800 27.48500 23.42000
H  46.16900 26.57600 24.94500
H  45.54000 26.61700 23.22300
H  46.13400 28.08400 24.10500
H  49.72800 30.93800 28.55400
H  48.74000 30.87400 27.06300
H  50.22800 29.96500 27.14400
H  46.99000 29.38400 32.66800
H  49.24700 28.16800 36.28300
H  49.87800 29.81300 36.04900
H  50.54500 28.43300 35.20800

