158

Mg 26.26300 0.78400 28.73700
C  28.09200 -0.05400 31.69800
C  23.52900 1.22600 30.66200
C  24.47300 0.84100 25.85600
C  29.11500 -0.30900 26.89700
N  25.93500 0.61900 30.92000
C  26.82400 0.41700 31.96500
C  26.22100 0.82900 33.32600
C  24.71800 1.01000 32.95300
C  24.71000 0.95300 31.42700
C  23.77000 -0.00800 33.71200
C  27.03400 1.98200 33.93200
C  27.55100 1.71000 35.31000
H  27.49500 2.81800 36.27600
N  24.24500 1.00500 28.33900
C  23.29200 1.23900 29.22200
C  22.03100 1.43300 28.50000
C  22.29400 1.23300 27.14300
C  23.70000 1.09700 27.06100
C  20.73500 1.71800 29.25000
C  21.36200 1.24500 25.93800
O  21.71100 1.11500 24.77300
C  19.89000 1.49800 26.24600
N  26.76900 0.30800 26.70500
C  25.85800 0.75300 25.69200
C  26.53700 0.58700 24.29900
C  28.06200 0.51500 24.69300
C  27.99000 0.09400 26.15800
C  26.02700 -0.65700 23.45400
C  28.90400 1.79800 24.34600
C  29.28500 1.90400 22.85400
N  28.14300 -0.00800 29.11300
C  29.18900 -0.47300 28.29200
C  30.28100 -0.95500 29.11800
C  29.90500 -0.72900 30.38700
C  28.63300 -0.21100 30.38800
C  31.58400 -1.35300 28.59400
C  30.37900 -0.86100 31.72500
O  31.41600 -1.24700 32.18000
C  29.22700 -0.44200 32.71600
C  28.83600 -1.42600 33.78300
O  27.95100 -2.22500 33.78600
O  29.62400 -1.21800 34.91100
C  29.39200 -2.11500 35.99100
H  22.85000 1.75200 31.33600
H  23.96400 1.02300 24.90700
H  30.07400 -0.52700 26.42200
H  26.43800 -0.04800 33.93700
H  24.41000 2.03700 33.14700
H  24.42400 -0.72100 34.21500
H  23.15700 -0.50200 32.95900
H  23.18100 0.53900 34.44800
H  26.47100 2.91400 33.88800
H  27.93400 2.10900 33.33000
H  28.60000 1.44700 35.17400
H  27.13100 0.80800 35.75600
H  19.98900 0.92500 29.21900
H  20.41100 2.74400 29.07400
H  21.11600 1.81600 30.26700
H  19.48700 0.94100 27.09200
H  19.38700 1.18200 25.33300
H  19.76300 2.54500 26.52100
H  26.25600 1.50500 23.78300
H  28.63400 -0.27900 24.21300
H  26.71000 -1.47600 23.23100
H  25.46900 -0.26900 22.60100
H  25.17200 -0.99400 24.03900
H  29.74700 1.93200 25.02300
H  28.29000 2.66200 24.59700
H  28.88800 1.14600 22.17900
H  30.36000 1.77200 22.73300
H  28.88300 2.83900 22.46500
H  32.34900 -1.10000 29.32800
H  31.91200 -0.77700 27.72900
H  31.55400 -2.42500 28.39900
H  29.67200 0.35900 33.30500
H  28.44500 -1.82000 36.44200
H  30.24400 -2.10900 36.67200
H  29.32400 -3.16100 35.69300
Mg -10.82700 16.90900 42.27500
C  -7.24600 16.73600 42.31300
C  -10.52000 20.24600 42.26200
C  -14.07300 17.00900 41.53900
C  -10.88100 13.42500 42.22700
N  -9.06600 18.29200 42.26000
C  -7.71600 18.05000 42.29200
C  -6.95500 19.39400 42.32200
C  -8.03500 20.34200 42.75800
C  -9.32300 19.60000 42.38400
C  -7.98700 20.81400 44.19100
C  -6.31800 19.67500 40.95900
C  -4.76000 19.60600 40.88100
H  -4.24100 18.70600 39.84300
N  -12.03500 18.42400 41.87700
C  -11.75500 19.70500 41.87100
C  -12.87000 20.52100 41.58900
C  -13.96900 19.62300 41.34600
C  -13.36800 18.26900 41.51800
C  -12.82800 22.06700 41.51500
C  -15.31000 20.00500 40.71500
O  -15.58200 21.19400 40.77500
C  -16.26700 19.02500 40.17700
N  -12.19200 15.38900 41.95300
C  -13.53500 15.69700 41.70000
C  -14.41600 14.45900 41.80100
C  -13.36600 13.30700 41.89500
C  -12.06100 14.09700 42.05900
C  -15.36500 14.50200 43.05800
C  -13.47000 12.26900 40.76200
C  -13.69500 10.84900 41.22800
N  -9.43000 15.36200 42.21700
C  -9.62100 13.98100 42.34000
C  -8.29600 13.30600 42.35800
C  -7.37700 14.37100 42.37200
C  -8.09300 15.59100 42.31400
C  -8.05700 11.89900 42.59400
C  -5.92900 14.65400 42.52100
O  -5.01100 13.86000 42.61900
C  -5.78900 16.20900 42.36000
C  -5.06600 16.68400 43.61200
O  -5.49200 16.61300 44.72600
O  -3.80700 17.07900 43.34300
C  -2.90600 17.44500 44.45900
H  -10.54100 21.32400 42.43500
H  -15.15500 17.05000 41.39700
H  -10.94000 12.34300 42.36000
H  -6.14600 19.39200 43.05200
H  -8.07200 21.21300 42.10300
H  -6.95800 20.92100 44.53500
H  -8.56400 20.12300 44.80600
H  -8.42100 21.80400 44.33200
H  -6.74200 20.60600 40.58200
H  -6.66700 19.00500 40.17300
H  -4.43500 19.24300 41.85600
H  -4.41000 20.63700 40.83400
H  -12.14700 22.48600 42.25600
H  -13.77500 22.42400 41.92000
H  -12.51000 22.48700 40.56100
H  -17.14600 19.50700 39.75000
H  -16.58000 18.47500 41.06500
H  -15.75400 18.35900 39.48400
H  -14.98500 14.37000 40.87600
H  -13.46000 12.81600 42.86300
H  -14.96600 13.87600 43.85500
H  -16.28700 14.01100 42.74700
H  -15.49900 15.52900 43.40000
H  -12.52800 12.16700 40.22300
H  -14.23200 12.61600 40.06400
H  -14.70200 10.69700 40.83900
H  -13.59800 10.71200 42.30500
H  -12.96900 10.24300 40.68600
H  -7.43800 11.80900 43.48600
H  -7.47200 11.42500 41.80600
H  -8.93500 11.29100 42.81400
H  -5.24900 16.32500 41.42000
H  -2.31600 16.56700 44.72200
H  -3.44500 17.78700 45.34300
H  -2.23000 18.26600 44.22100

