158

Mg 55.23700 24.64900 45.06200
C  52.25800 26.51000 43.97900
C  53.71500 21.84500 44.12400
C  58.15800 23.23500 45.66900
C  56.70300 27.92800 45.54400
N  53.33300 24.31400 43.94600
C  52.29500 25.10600 43.59100
C  51.25800 24.36200 42.89400
C  51.54100 22.89800 43.48900
C  52.98900 23.01800 43.85300
C  50.66700 22.48900 44.74900
C  51.47500 24.49200 41.37900
C  50.30700 25.04300 40.59100
H  50.10200 24.42900 39.22500
N  55.91300 22.77800 44.89100
C  55.12500 21.69700 44.47800
C  55.88900 20.46100 44.65600
C  57.19200 20.87600 45.11700
C  57.13200 22.35500 45.32300
C  55.30900 19.12800 44.36600
C  58.36400 19.79400 45.29900
O  58.15400 18.63300 44.98000
C  59.72500 20.23900 45.65900
N  57.23600 25.51200 45.44300
C  58.29200 24.62600 45.69900
C  59.52000 25.44500 46.08900
C  58.97300 26.94600 46.15000
C  57.57600 26.80100 45.70900
C  60.24900 24.95400 47.43600
C  59.71800 27.87400 45.18900
C  60.64300 28.87900 45.77400
N  54.63100 26.74600 45.02400
C  55.33500 27.91900 45.31800
C  54.43500 28.99800 45.37100
C  53.26400 28.53500 44.76300
C  53.39500 27.14000 44.57700
C  54.68500 30.37900 45.81300
C  51.87700 28.92800 44.46100
O  51.25000 30.00200 44.55800
C  51.23100 27.60900 43.84900
C  50.73400 28.01600 42.49800
O  51.46900 28.35200 41.49600
O  49.38200 28.08600 42.53400
C  48.82400 28.58200 41.32100
H  53.17900 20.90200 43.99300
H  59.00200 22.65700 46.05200
H  57.16900 28.86900 45.84200
H  50.29500 24.82200 43.11500
H  51.41400 22.12500 42.73000
H  50.03700 23.33600 45.02400
H  51.29400 22.23600 45.60400
H  50.03900 21.66800 44.40600
H  51.51400 23.46100 41.02600
H  52.38500 25.03800 41.12700
H  50.54600 26.08500 40.37800
H  49.38600 24.95700 41.16700
H  54.31900 19.12400 44.82200
H  55.91300 18.24200 44.56000
H  55.19400 19.09200 43.28200
H  60.20700 19.30400 45.94600
H  59.68600 20.79200 46.59800
H  60.09800 20.84000 44.83000
H  60.34400 25.23200 45.40700
H  59.00000 27.40800 47.13700
H  60.40100 25.77500 48.13600
H  61.25200 24.58500 47.22100
H  59.63300 24.26200 48.01000
H  59.00700 28.29000 44.47600
H  60.37300 27.27000 44.56100
H  61.17700 29.34800 44.94700
H  61.34300 28.40400 46.46100
H  60.04700 29.61800 46.31000
H  53.80700 30.97700 45.56700
H  55.53000 30.77000 45.24700
H  54.75600 30.47000 46.89600
H  50.34800 27.30800 44.41200
H  49.24400 29.57300 41.14800
H  47.75000 28.46100 41.46100
H  49.10800 28.06800 40.40300
Mg 49.38100 34.59000 27.22000
C  47.42600 33.81600 29.98100
C  50.00900 37.56600 28.70100
C  51.16100 35.64300 24.37200
C  48.24100 31.95500 25.49400
N  48.82200 35.45300 29.27800
C  48.05600 35.00000 30.27600
C  47.82900 35.98400 31.39500
C  48.49000 37.26300 30.81300
C  49.13900 36.75400 29.50100
C  47.63000 38.56400 30.62900
C  48.48500 35.54300 32.75100
C  47.43500 35.38300 33.86000
H  47.30800 36.64000 34.77400
N  50.52200 36.29400 26.67900
C  50.69200 37.37900 27.46600
C  51.55600 38.28300 26.81200
C  51.95000 37.79100 25.55300
C  51.23100 36.49100 25.50900
C  51.88600 39.61800 27.39900
C  52.78900 38.47100 24.49200
O  53.03400 37.94700 23.42100
C  53.40100 39.76800 24.74300
N  49.57800 33.99900 25.21400
C  50.46800 34.49300 24.25900
C  50.40000 33.67700 22.95300
C  49.62800 32.41700 23.40200
C  49.09200 32.78800 24.76900
C  49.81700 34.55500 21.79400
C  50.40500 31.06400 23.37900
C  50.38900 30.29400 22.02600
N  48.15300 33.11800 27.61300
C  47.85300 32.03400 26.86900
C  47.04800 31.09900 27.61200
C  46.73100 31.87800 28.73300
C  47.52500 33.06300 28.77800
C  46.57500 29.75200 27.17800
C  45.88100 31.92700 29.92500
O  45.04700 31.11600 30.33900
C  46.19600 33.17800 30.72300
C  46.68200 32.65600 31.95000
O  47.83300 32.31100 32.16300
O  45.59800 32.43200 32.83000
C  45.86700 31.98000 34.20600
H  50.14500 38.58500 29.06700
H  51.81300 35.78300 23.50800
H  47.88200 31.04900 25.00300
H  46.74800 36.08600 31.49000
H  49.38100 37.46000 31.40900
H  48.30700 39.37500 30.89700
H  46.73500 38.52200 31.25000
H  47.19900 38.46700 29.63200
H  49.07200 36.33100 33.22400
H  49.11100 34.65900 32.63700
H  47.75700 34.62500 34.57400
H  46.46100 35.10000 33.46100
H  52.81800 39.65300 27.96400
H  51.08400 39.89800 28.08200
H  51.84000 40.46800 26.71800
H  54.17600 39.78400 25.50900
H  52.59900 40.50200 24.82500
H  53.89600 40.04000 23.81000
H  51.42300 33.42900 22.67200
H  48.73800 32.38200 22.77400
H  49.53200 35.54800 22.14200
H  48.89400 34.10900 21.42300
H  50.57500 34.59700 21.01200
H  50.04900 30.36300 24.13400
H  51.44600 31.27500 23.62300
H  49.89600 29.32400 22.08800
H  51.39400 30.25500 21.60600
H  49.84100 30.86500 21.27600
H  46.71000 29.11200 28.05000
H  47.33200 29.43900 26.45900
H  45.50500 29.70900 26.97400
H  45.33300 33.83300 30.84200
H  45.20000 31.12700 34.33200
H  45.56000 32.72900 34.93500
H  46.90800 31.68500 34.34500

