158

Mg 1.77100 -1.44300 44.54900
C  5.24500 -0.82200 44.04400
C  1.11800 1.22900 42.65100
C  -1.48800 -2.34800 44.78300
C  2.77600 -4.46600 46.19100
N  3.04100 -0.11200 43.24400
C  4.41700 -0.00000 43.25900
C  4.90500 1.16700 42.39400
C  3.56700 2.01200 42.25100
C  2.51000 0.99600 42.69900
C  3.41500 3.30200 43.06900
C  5.49300 0.61700 41.08500
C  6.86500 1.23600 40.72900
H  7.16600 1.61100 39.30100
N  0.06900 -0.66800 43.80400
C  0.02200 0.52500 43.09000
C  -1.33900 0.88900 42.93200
C  -2.15500 -0.12300 43.57200
C  -1.20300 -1.08700 44.12300
C  -1.78700 2.17800 42.25800
C  -3.73100 -0.12700 43.65100
O  -4.30400 0.77900 43.07300
C  -4.52800 -1.18900 44.27900
N  0.74200 -3.20800 45.27300
C  -0.61500 -3.36400 45.27000
C  -1.09500 -4.76700 45.91400
C  0.35700 -5.30400 46.39700
C  1.34600 -4.29500 45.85300
C  -2.19900 -4.73800 46.99400
C  0.55000 -6.78700 45.80300
C  -0.38400 -7.96300 46.36900
N  3.60300 -2.44400 45.19400
C  3.84200 -3.63700 45.84000
C  5.29700 -3.76400 46.05900
C  5.87600 -2.68300 45.39900
C  4.81600 -1.96000 44.86600
C  6.01100 -4.91700 46.79200
C  7.13400 -2.03100 44.99200
O  8.25100 -2.46000 45.22500
C  6.73300 -0.76600 44.16200
C  7.14800 0.49100 44.90800
O  6.89400 0.71900 46.05100
O  7.82100 1.39100 44.07200
C  8.03100 2.72700 44.66800
H  0.83800 2.17000 42.17300
H  -2.54600 -2.55700 44.95300
H  2.94300 -5.44800 46.63700
H  5.62800 1.79700 42.91100
H  3.43300 2.36100 41.22700
H  4.34500 3.73200 43.44000
H  2.76000 3.19900 43.93400
H  2.91800 4.09300 42.50800
H  4.84100 0.83500 40.23800
H  5.60200 -0.46300 41.18800
H  7.61600 0.45800 40.86800
H  7.16400 2.07300 41.36100
H  -2.69300 2.49900 42.77100
H  -2.05900 1.87300 41.24700
H  -0.99600 2.92700 42.31600
H  -4.41600 -2.17200 43.81900
H  -5.60600 -1.03500 44.32500
H  -4.16200 -1.19900 45.30500
H  -1.36600 -5.31500 45.01100
H  0.34600 -5.27400 47.48600
H  -1.88200 -5.09200 47.97500
H  -3.12400 -5.29400 46.84000
H  -2.43700 -3.67500 46.95600
H  1.59500 -7.01700 46.01300
H  0.44600 -6.70100 44.72100
H  -1.03800 -7.56000 47.14300
H  0.28900 -8.72300 46.76600
H  -1.04000 -8.39000 45.61100
H  5.46700 -5.84300 46.97800
H  6.29100 -4.57000 47.78600
H  6.83900 -5.22900 46.15500
H  7.03400 -0.87300 43.12000
H  7.84200 3.49300 43.91500
H  9.05300 2.72100 45.04600
H  7.40900 2.97000 45.53000
Mg 24.03100 -5.49500 45.16800
C  26.02900 -3.11300 43.73000
C  21.59900 -4.64200 42.94400
C  22.33600 -8.33600 46.10700
C  26.74000 -6.79100 46.87800
N  23.87800 -4.09100 43.33600
C  24.74700 -3.19600 43.06500
C  24.24900 -2.26300 41.85900
C  22.73900 -2.57300 41.91200
C  22.73000 -3.83100 42.75400
C  21.87500 -1.41300 42.44900
C  24.91200 -2.71800 40.53600
C  25.70700 -1.59900 39.93000
H  25.19300 -1.11500 38.60400
N  22.18600 -6.28000 44.80600
C  21.34900 -5.74300 43.86500
C  20.18400 -6.60300 43.76100
C  20.39600 -7.69700 44.57100
C  21.69400 -7.46900 45.23300
C  18.95200 -6.17800 42.95300
C  19.36900 -8.74800 44.85800
O  18.39600 -8.87700 44.12500
C  19.50300 -9.79500 45.85300
N  24.53100 -7.49300 46.24800
C  23.59500 -8.28300 46.69700
C  24.11400 -9.28700 47.82300
C  25.55600 -8.71600 48.06400
C  25.61500 -7.67200 47.00300
C  23.14100 -9.57100 48.99500
C  26.66300 -9.80200 47.80700
C  28.00900 -9.88200 48.56400
N  25.93800 -5.07600 45.40100
C  26.86900 -5.59300 46.18100
C  28.16500 -4.86800 45.92000
C  27.81800 -3.90300 44.98300
C  26.51000 -4.07600 44.66600
C  29.48800 -5.27600 46.37600
C  28.38500 -2.78600 44.14100
O  29.55100 -2.34000 44.11700
C  27.18700 -2.20400 43.37800
C  26.95300 -0.70200 43.57000
O  26.02700 -0.14800 44.11200
O  28.01700 -0.18600 42.85400
C  27.91400 1.28200 42.88000
H  20.81600 -4.44100 42.20900
H  21.81400 -9.15800 46.60100
H  27.59800 -6.93000 47.54000
H  24.34500 -1.23800 42.21900
H  22.32300 -2.64000 40.90700
H  22.29800 -0.46800 42.10900
H  21.91400 -1.58000 43.52600
H  20.84500 -1.51700 42.10800
H  24.21300 -3.15400 39.82200
H  25.65800 -3.46700 40.79600
H  26.71400 -1.97600 39.75100
H  25.87700 -0.72800 40.56200
H  18.76400 -5.13100 42.71700
H  18.16500 -6.42400 43.66600
H  19.00700 -6.73000 42.01400
H  18.52100 -10.23500 46.03000
H  19.88900 -9.34600 46.76800
H  20.17200 -10.47600 45.32700
H  24.33500 -10.28600 47.44600
H  25.57900 -8.35500 49.09200
H  22.62400 -10.51700 48.83200
H  22.52700 -8.67500 49.08300
H  23.70800 -9.70200 49.91700
H  26.89800 -9.73100 46.74500
H  26.24000 -10.80500 47.86400
H  28.81600 -9.59100 47.89300
H  28.18100 -10.89000 48.94100
H  28.07500 -9.14100 49.36100
H  29.37800 -5.64600 47.39500
H  30.14200 -4.40700 46.30200
H  29.97700 -6.05200 45.78700
H  27.31800 -2.38300 42.31100
H  28.73900 1.50200 42.20300
H  28.07000 1.74000 43.85700
H  27.04600 1.68700 42.35900

