158

Mg 44.02300 4.28600 46.65800
C  42.04900 7.27900 47.01400
C  41.15100 2.59400 46.14900
C  45.76600 1.65400 45.56100
C  46.93200 6.13000 46.55500
N  41.89400 4.97600 46.37400
C  41.28200 6.14900 46.72100
C  39.73400 6.09400 46.80300
C  39.54400 4.47300 46.81000
C  40.93600 3.97600 46.45700
C  39.09900 3.85000 48.18600
C  39.06100 6.88800 45.59200
C  39.92200 6.99800 44.26600
H  39.21900 6.87600 42.89100
N  43.46600 2.23100 46.16300
C  42.25600 1.72800 45.98400
C  42.25100 0.30400 45.62800
C  43.66900 0.04400 45.48000
C  44.40300 1.31600 45.67300
C  41.05000 -0.59900 45.48000
C  44.27600 -1.25200 45.06800
O  43.59900 -2.27800 44.94800
C  45.69100 -1.47000 44.94000
N  45.99500 3.95700 46.07300
C  46.44800 2.72400 45.85100
C  47.98800 2.62900 45.86800
C  48.38400 4.05200 46.17200
C  47.01000 4.76400 46.35500
C  48.54000 1.59500 46.90300
C  49.22700 4.71100 44.96500
C  50.73600 4.73500 44.94900
N  44.49600 6.26200 46.85200
C  45.72500 6.86800 46.76300
C  45.47900 8.31300 46.98900
C  44.05500 8.50100 47.14900
C  43.48800 7.21500 46.96500
C  46.48400 9.41200 46.81400
C  43.04800 9.46100 47.42200
O  43.11600 10.71200 47.58900
C  41.67900 8.70000 47.28900
C  40.92300 8.85800 48.59200
O  40.85700 8.00800 49.53200
O  40.15500 9.93300 48.55400
C  39.12400 9.87100 49.55400
H  40.23700 1.99700 46.14900
H  46.39100 0.87500 45.11900
H  47.82800 6.75500 46.53200
H  39.32900 6.50600 47.72800
H  38.85000 4.06300 46.07600
H  39.93300 3.37600 48.70300
H  38.34600 3.08500 47.99600
H  38.61000 4.63300 48.76500
H  38.80700 7.91700 45.84400
H  38.16300 6.29900 45.40500
H  40.61900 6.16600 44.36600
H  40.34000 7.98200 44.47700
H  40.75400 -0.88200 46.49100
H  41.33500 -1.31300 44.70800
H  40.19000 -0.10800 45.02400
H  46.33000 -1.22700 45.78900
H  46.04600 -0.91600 44.07000
H  45.95700 -2.50600 44.73000
H  48.34300 2.29700 44.89200
H  48.98100 4.15400 47.07800
H  49.41300 2.11100 47.30300
H  48.89700 0.65400 46.48500
H  47.85800 1.60200 47.75300
H  48.86400 5.71900 44.76700
H  48.94500 4.19000 44.05000
H  51.11400 3.88800 45.52200
H  51.13000 5.58300 45.50900
H  51.18600 4.71300 43.95600
H  46.06900 10.42000 46.81100
H  46.95100 9.35000 45.83100
H  47.22200 9.30400 47.60900
H  41.11000 9.16400 46.48400
H  38.39900 10.65500 49.33200
H  39.51400 9.89800 50.57100
H  38.51400 8.98000 49.41000
Mg 17.22000 51.99000 26.46800
C  18.79700 50.45800 29.09700
C  14.71100 53.00600 28.63200
C  15.65200 53.56100 23.79500
C  19.51000 50.58400 24.37900
N  16.74100 51.58000 28.57900
C  17.63800 51.12400 29.46900
C  17.28500 51.46800 30.90100
C  15.80700 51.90100 30.73900
C  15.73000 52.20400 29.24400
C  14.70700 50.92300 31.37900
C  18.26200 52.41100 31.55700
C  18.60900 52.22300 33.04700
H  17.57800 51.60300 33.93500
N  15.50800 53.10800 26.28100
C  14.63200 53.44600 27.33000
C  13.64700 54.42200 26.81400
C  13.85600 54.57600 25.38500
C  15.03300 53.71200 25.09300
C  12.53800 55.08600 27.73400
C  13.13700 55.43200 24.33600
O  13.53000 55.51000 23.15700
C  12.05100 56.36600 24.75000
N  17.42100 51.91500 24.34000
C  16.77100 52.77000 23.47900
C  17.30900 52.61600 21.98700
C  18.40200 51.53400 22.17800
C  18.48500 51.32400 23.68100
C  16.15000 52.43500 20.99200
C  19.74800 51.99400 21.53000
C  20.42700 53.20100 22.16800
N  18.69800 50.72100 26.60700
C  19.58200 50.23000 25.68000
C  20.67600 49.37300 26.25500
C  20.41200 49.50600 27.57100
C  19.19500 50.28000 27.75700
C  21.69400 48.55600 25.58700
C  20.82600 49.17400 28.91100
O  21.82100 48.47200 29.20900
C  19.87100 49.76600 29.99900
C  19.36000 48.73400 30.99300
O  18.67100 47.77500 30.76300
O  19.92000 48.98400 32.26800
C  19.57300 48.08300 33.32700
H  13.95200 53.33600 29.34500
H  15.29100 54.06100 22.89300
H  20.34100 50.22500 23.76800
H  17.41000 50.45800 31.29100
H  15.64800 52.80800 31.32100
H  15.25800 50.01500 31.62400
H  13.93900 50.72800 30.63000
H  14.15000 51.36300 32.20600
H  17.72600 53.36000 31.57000
H  19.18200 52.44700 30.97300
H  18.65200 53.17300 33.57800
H  19.55000 51.69800 33.21000
H  11.52600 55.13600 27.33400
H  12.98000 56.06300 27.93200
H  12.45300 54.47300 28.63100
H  11.64400 56.95900 23.93100
H  12.34100 57.00500 25.58400
H  11.23900 55.69900 25.04000
H  17.72700 53.60000 21.77300
H  18.07200 50.58600 21.75500
H  15.26700 52.04400 21.49800
H  16.38300 51.67700 20.24500
H  15.84800 53.35200 20.48500
H  19.59000 52.18600 20.46900
H  20.57100 51.29100 21.65900
H  19.94100 53.48000 23.10400
H  20.36900 54.11200 21.57200
H  21.50400 53.04600 22.23400
H  21.28700 48.17300 24.65100
H  21.98900 47.66500 26.14100
H  22.63000 49.09200 25.42900
H  20.39000 50.56900 30.52200
H  20.16700 48.35000 34.20000
H  19.83900 47.09200 32.95900
H  18.48900 48.14300 33.42500

