158

Mg -1.65400 16.96900 27.02900
C  -2.08600 14.79100 29.85100
C  -2.48400 19.59800 29.20500
C  -1.67500 19.10200 24.48700
C  -1.98800 14.28900 24.96400
N  -2.34200 17.14500 29.24400
C  -2.30800 16.12900 30.22500
C  -2.67100 16.68100 31.71900
C  -2.89000 18.22500 31.39900
C  -2.57800 18.31900 29.86100
C  -4.30500 18.70300 31.94000
C  -1.56900 16.38300 32.73000
C  -1.50100 17.41000 33.85400
H  -1.13700 16.79100 35.23700
N  -1.86500 18.99100 26.88200
C  -2.16400 19.90300 27.93400
C  -2.12400 21.28000 27.45800
C  -1.76600 21.11100 26.04500
C  -1.75100 19.67800 25.72700
C  -2.21200 22.49900 28.35900
C  -1.43700 22.16700 25.04600
O  -1.27800 21.97900 23.82700
C  -1.10600 23.53000 25.51700
N  -1.73100 16.73800 25.00000
C  -1.81300 17.77500 24.10500
C  -1.88800 17.27600 22.61900
C  -2.16400 15.73800 22.82800
C  -1.95100 15.56100 24.38100
C  -2.94500 17.92000 21.79400
C  -1.15000 14.80700 22.06800
C  0.36000 14.93100 22.64400
N  -1.76400 14.94100 27.28600
C  -1.88700 13.95400 26.32900
C  -1.94700 12.64000 26.97000
C  -1.95200 12.92900 28.36200
C  -1.87700 14.32500 28.45500
C  -2.17500 11.22700 26.30900
C  -2.03300 12.32600 29.62800
O  -2.10900 11.16000 29.96800
C  -2.10400 13.53600 30.63900
C  -0.91500 13.42300 31.53200
O  0.18700 13.92600 31.40200
O  -1.18900 12.57300 32.57700
C  -0.26600 12.48300 33.72600
H  -2.65500 20.45200 29.86300
H  -1.66900 19.82100 23.66500
H  -2.27000 13.40400 24.39000
H  -3.52800 16.14000 32.11900
H  -2.10100 18.82100 31.85700
H  -5.07000 18.85800 31.17900
H  -4.23600 19.59500 32.56300
H  -4.74700 17.92900 32.56700
H  -0.56900 16.35200 32.29900
H  -1.84900 15.41300 33.14000
H  -2.42400 17.98900 33.89200
H  -0.69000 18.09600 33.60800
H  -1.26100 23.02600 28.43700
H  -2.70700 22.38800 29.32300
H  -2.77000 23.24400 27.79100
H  -0.70200 24.14900 24.71600
H  -0.38100 23.51100 26.33000
H  -2.05400 24.03200 25.71300
H  -0.93200 17.49700 22.14300
H  -3.15200 15.40400 22.51400
H  -3.65800 18.40500 22.46000
H  -3.53000 17.18400 21.24300
H  -2.66600 18.60400 20.99300
H  -1.07700 15.04800 21.00800
H  -1.54900 13.79300 22.10400
H  1.13300 15.00200 21.87900
H  0.45300 14.10700 23.35100
H  0.43200 15.90200 23.13400
H  -2.66400 11.27600 25.33600
H  -2.95300 10.83300 26.96300
H  -1.38000 10.48400 26.24300
H  -3.08600 13.42100 31.09700
H  -1.02500 12.46300 34.50900
H  0.21600 13.46000 33.77000
H  0.41200 11.63100 33.78400
Mg 25.85300 0.66100 28.83900
C  27.75900 0.50100 31.74700
C  22.97400 1.06800 30.81200
C  24.08000 0.82100 26.03500
C  28.65000 -0.36600 27.06600
N  25.46300 0.52300 31.00300
C  26.38900 0.58400 32.04800
C  25.72300 0.92700 33.39600
C  24.17000 0.82000 33.09100
C  24.18100 0.76200 31.49500
C  23.43300 -0.35900 33.74500
C  26.11300 2.20300 34.04300
C  26.55500 2.17800 35.52600
H  26.05600 3.31200 36.45600
N  23.84100 0.85500 28.41600
C  22.84000 1.12100 29.36000
C  21.59500 1.30800 28.64800
C  21.84700 1.33400 27.27100
C  23.23500 0.99500 27.21300
C  20.25000 1.34800 29.38300
C  20.87400 1.65200 26.15900
O  21.08300 1.37200 24.95600
C  19.62400 2.38500 26.47400
N  26.26400 0.10100 26.85900
C  25.39600 0.44300 25.86300
C  26.10100 0.25500 24.48100
C  27.57300 0.11800 24.87800
C  27.48600 -0.05000 26.36600
C  25.55400 -0.81700 23.41900
C  28.42700 1.29400 24.34000
C  29.07600 0.95200 23.02800
N  27.79300 0.12000 29.25000
C  28.83900 -0.25500 28.42400
C  30.05600 -0.44900 29.11000
C  29.65200 -0.09300 30.47000
C  28.28700 0.24300 30.47900
C  31.35000 -0.95400 28.59100
C  30.13400 0.05100 31.80900
O  31.26600 -0.18700 32.32600
C  28.92700 0.52600 32.70200
C  28.82600 -0.49500 33.81600
O  28.54100 -1.68600 33.65300
O  29.20900 0.08800 35.04400
C  29.16200 -0.92200 36.16100
H  22.16400 1.36300 31.48300
H  23.61600 0.95100 25.05500
H  29.62000 -0.49900 26.58200
H  25.89200 0.05700 34.03200
H  23.65200 1.70400 33.46200
H  24.13300 -1.17200 33.93700
H  22.67700 -0.71100 33.04300
H  22.89300 -0.03600 34.63500
H  25.24100 2.85400 33.97300
H  26.90500 2.61000 33.41400
H  27.61500 2.42300 35.47200
H  26.39900 1.26200 36.09600
H  19.98600 2.39400 29.53600
H  20.27500 0.75300 30.29600
H  19.49000 0.93400 28.71900
H  19.84500 3.19900 27.16400
H  18.80800 1.72700 26.77300
H  19.24500 2.92000 25.60300
H  26.08000 1.15900 23.87300
H  27.87900 -0.79000 24.36000
H  24.66500 -1.20500 23.91500
H  26.13800 -1.68300 23.10800
H  25.14500 -0.44500 22.47900
H  29.29000 1.46100 24.98600
H  27.92900 2.23100 24.09100
H  29.12400 1.88700 22.47000
H  28.55600 0.22600 22.40300
H  30.12100 0.73000 23.24300
H  31.83500 -0.24300 27.92200
H  31.19000 -1.89100 28.05700
H  32.03400 -1.13900 29.42000
H  29.04200 1.51900 33.13600
H  28.19000 -1.14900 36.59900
H  29.83500 -0.57900 36.94600
H  29.61700 -1.84100 35.79100

