158

Mg 24.84400 1.81600 30.07400
C  27.04000 1.81500 32.90300
C  22.24700 2.05500 32.20100
C  22.87800 1.69300 27.31700
C  27.68200 1.13300 28.08700
N  24.64800 2.00200 32.37400
C  25.67100 1.97600 33.27400
C  25.14800 2.11000 34.72400
C  23.63700 2.03300 34.46500
C  23.48200 2.03100 32.92700
C  22.87000 0.87500 35.15700
C  25.78300 3.38800 35.34900
C  26.65500 3.07700 36.63100
H  26.54200 4.16200 37.72000
N  22.83800 1.94800 29.76300
C  21.91800 1.90400 30.79600
C  20.57100 1.79700 30.18300
C  20.75200 1.61200 28.77000
C  22.17800 1.75000 28.57500
C  19.24200 1.86000 30.97800
C  19.71600 1.43200 27.64600
O  20.01000 1.46400 26.47900
C  18.29800 1.37800 28.03400
N  25.24500 1.50900 28.00500
C  24.28300 1.62200 27.04500
C  24.90700 1.35300 25.63000
C  26.42800 1.44900 25.90500
C  26.53200 1.38500 27.43400
C  24.43600 0.02200 24.92800
C  27.06100 2.77200 25.37200
C  26.35700 4.10100 25.71400
N  26.86300 1.43300 30.31300
C  27.91100 1.21300 29.37500
C  29.18400 0.96600 30.08800
C  28.82800 1.23200 31.42900
C  27.41700 1.50700 31.51000
C  30.52100 0.57200 29.40600
C  29.41800 1.40400 32.81400
O  30.55600 1.44600 33.25900
C  28.20900 1.61000 33.82800
C  28.10900 0.38000 34.72100
O  27.61000 -0.73600 34.50500
O  28.76800 0.68600 35.88700
C  29.00800 -0.41600 36.89400
H  21.37800 2.20800 32.84300
H  22.25300 1.52800 26.43700
H  28.51200 0.85600 27.43300
H  25.49100 1.23200 35.27100
H  23.31200 2.98600 34.88200
H  22.13400 0.45800 34.47000
H  22.45300 1.23600 36.09800
H  23.51700 0.00300 35.25900
H  24.99800 4.12500 35.52400
H  26.37100 3.93100 34.60900
H  27.69300 2.92900 36.33100
H  26.37600 2.10900 37.04800
H  18.76000 2.83500 31.06000
H  19.40200 1.60900 32.02600
H  18.54900 1.13800 30.54700
H  17.68600 1.56200 27.15100
H  18.13300 2.30200 28.58800
H  18.08900 0.41500 28.50200
H  24.72900 2.15800 24.91600
H  27.07500 0.71500 25.42500
H  25.15500 -0.79100 24.83100
H  24.28800 0.42600 23.92700
H  23.49200 -0.25600 25.39700
H  27.19000 2.67900 24.29400
H  28.08100 2.85700 25.74700
H  26.38800 4.81200 24.88900
H  27.03500 4.44500 26.49500
H  25.36000 3.98800 26.14100
H  31.23000 0.46900 30.22600
H  30.86600 1.35800 28.73300
H  30.42300 -0.27900 28.73200
H  28.41300 2.54000 34.35900
H  28.29100 -0.17800 37.68100
H  29.96300 -0.21500 37.38100
H  28.87600 -1.40400 36.45400
Mg 47.28100 25.08500 28.47000
C  47.97500 27.53100 30.91400
C  46.49500 23.00500 31.08300
C  46.84600 22.69200 26.22300
C  48.75100 27.13700 26.17200
N  47.22200 25.19900 30.78200
C  47.43300 26.38400 31.51400
C  47.09500 26.15900 32.99500
C  46.62000 24.66000 33.03600
C  46.75600 24.24000 31.58400
C  47.38900 23.77900 33.97000
C  46.02800 27.15000 33.46900
C  46.44600 28.05500 34.65300
H  45.61500 28.34100 35.89200
N  46.70800 23.18500 28.58700
C  46.40800 22.45800 29.75200
C  45.95800 21.14000 29.46400
C  45.99300 21.03700 28.05100
C  46.55100 22.28400 27.57200
C  45.53500 20.19900 30.52400
C  45.74800 19.82000 27.23500
O  45.95400 19.72400 26.01100
C  45.37100 18.54500 27.89700
N  47.55000 24.98800 26.54500
C  47.40200 23.86700 25.79300
C  47.78400 24.00200 24.29800
C  48.23200 25.47800 24.28200
C  48.20300 25.90800 25.72500
C  48.64600 22.87300 23.68700
C  47.44900 26.40200 23.21300
C  48.06500 26.41000 21.78600
N  48.11600 26.91400 28.44000
C  48.72400 27.64200 27.46000
C  49.14500 28.91000 27.87900
C  48.87200 28.94200 29.24300
C  48.26100 27.65400 29.55000
C  49.81100 29.89900 26.92700
C  48.91200 29.72000 30.44000
O  49.28000 30.81200 30.64400
C  48.52400 28.74500 31.58100
C  49.72300 28.51500 32.42300
O  50.71600 27.96400 32.00200
O  49.55800 29.03600 33.75200
C  50.73900 28.73100 34.56800
H  46.28400 22.18000 31.76600
H  46.53300 22.01000 25.42900
H  49.30700 27.60900 25.35900
H  48.00600 26.34800 33.56300
H  45.55500 24.57500 33.25000
H  48.25400 23.26200 33.55500
H  46.79200 23.02800 34.48500
H  47.57700 24.38200 34.85900
H  45.09800 26.64000 33.71800
H  45.78000 27.83200 32.65700
H  46.81700 29.00900 34.27900
H  47.34300 27.62000 35.09400
H  46.19800 19.35400 30.71200
H  44.54500 19.79400 30.31700
H  45.34300 20.51600 31.54900
H  45.26200 17.77900 27.12900
H  44.41100 18.62200 28.40900
H  46.15200 18.22300 28.58600
H  46.90900 23.97100 23.64900
H  49.29100 25.50900 24.02300
H  49.60900 23.25400 23.34800
H  48.03400 22.38100 22.93100
H  48.86500 22.07100 24.39200
H  47.48400 27.40000 23.65000
H  46.41800 26.04700 23.21000
H  49.12200 26.16800 21.89900
H  47.98200 27.39500 21.32700
H  47.50000 25.70000 21.18200
H  49.22800 29.88000 26.00600
H  50.85300 29.67100 26.69900
H  49.75100 30.88300 27.39100
H  47.81300 29.22900 32.25200
H  51.68000 28.88100 34.03900
H  50.66700 27.67300 34.82200
H  50.62600 29.29900 35.49100

