158

Mg 24.36500 -5.56100 46.30500
C  26.45700 -3.35900 44.61400
C  21.85600 -4.56600 44.16000
C  22.57100 -8.17900 47.29500
C  27.12700 -6.71100 47.98600
N  24.20900 -4.18500 44.49800
C  25.18500 -3.36200 44.06600
C  24.60400 -2.34900 43.00400
C  23.00800 -2.68500 42.94400
C  23.00800 -3.90400 43.94800
C  22.08800 -1.44400 43.47200
C  25.29300 -2.50500 41.64400
C  26.08100 -1.32700 41.17900
H  25.75900 -0.87500 39.73600
N  22.50000 -6.29900 45.78700
C  21.63600 -5.71800 44.86000
C  20.39400 -6.40100 44.85100
C  20.57600 -7.46800 45.79500
C  21.91100 -7.37300 46.36300
C  19.16900 -6.06000 43.96000
C  19.49200 -8.50200 46.07400
O  18.38200 -8.29200 45.66200
C  19.81600 -9.75900 46.81800
N  24.79700 -7.26900 47.41600
C  23.85200 -8.13200 47.77300
C  24.37200 -9.28300 48.59000
C  25.80100 -8.76700 48.95800
C  25.96500 -7.50000 48.06200
C  23.65200 -9.58900 49.97500
C  27.01200 -9.81200 48.80300
C  27.58800 -10.30200 50.17900
N  26.37700 -5.05500 46.53400
C  27.38400 -5.62900 47.22400
C  28.57200 -4.86000 47.05100
C  28.20000 -3.96600 46.03800
C  26.91200 -4.18000 45.65300
C  29.94800 -5.18300 47.55000
C  28.78100 -2.97300 45.15200
O  29.94200 -2.58100 45.15500
C  27.68600 -2.46400 44.18100
C  27.51800 -1.02800 44.48800
O  26.91400 -0.59600 45.46500
O  28.14300 -0.22100 43.57600
C  28.30500 1.23600 43.72900
H  21.11600 -4.19900 43.44600
H  22.02400 -9.02300 47.72100
H  27.99200 -7.14200 48.49200
H  24.73600 -1.32200 43.34300
H  22.57000 -2.85800 41.96100
H  21.78900 -0.93600 42.55500
H  22.63900 -0.68200 44.02400
H  21.26800 -1.66300 44.15500
H  24.53100 -2.93100 40.99100
H  25.97400 -3.35600 41.66900
H  27.15800 -1.49200 41.16800
H  26.05800 -0.46900 41.85200
H  18.47300 -6.89200 43.84800
H  19.49800 -5.78300 42.95800
H  18.72900 -5.14200 44.34800
H  18.99200 -10.34300 46.40900
H  19.90000 -9.55300 47.88500
H  20.76000 -10.17200 46.46300
H  24.26000 -10.22300 48.05000
H  25.73200 -8.28000 49.93000
H  23.25100 -8.62300 50.28200
H  24.34600 -9.84700 50.77500
H  22.90700 -10.38300 50.02700
H  27.81400 -9.32200 48.25100
H  26.66200 -10.61300 48.15200
H  28.33200 -11.02900 49.85500
H  26.80600 -10.65400 50.85300
H  27.96100 -9.30100 50.39600
H  30.27200 -6.10700 47.07100
H  29.87800 -5.29300 48.63300
H  30.65100 -4.45400 47.14900
H  28.15200 -2.55300 43.20000
H  28.78200 1.33300 44.70500
H  27.34100 1.73100 43.61300
H  28.98000 1.56400 42.93900
Mg 1.61300 41.91100 26.13900
C  3.22200 42.10900 29.33200
C  -1.20800 40.91400 27.75400
C  0.55300 40.94100 23.27200
C  4.89400 42.35500 24.65900
N  1.06600 41.60500 28.33900
C  1.80800 41.98200 29.46400
C  0.96100 41.91000 30.71500
C  -0.48400 41.64300 30.12600
C  -0.21900 41.34200 28.62300
C  -1.41600 40.65500 30.92700
C  1.22900 43.14600 31.62000
C  0.16800 43.68000 32.64700
H  -0.31000 42.62200 33.70700
N  -0.13200 41.02500 25.59400
C  -1.19900 40.74500 26.37500
C  -2.27700 40.25600 25.48600
C  -1.85300 40.27700 24.13400
C  -0.40100 40.78000 24.27100
C  -3.57500 39.81200 26.04800
C  -2.55300 40.00800 22.86600
O  -1.93700 40.10000 21.78600
C  -4.02300 39.56800 22.92400
N  2.59600 41.65300 24.20700
C  1.79900 41.41400 23.23200
C  2.67900 41.23100 21.89000
C  3.94900 42.08500 22.25800
C  3.79100 42.06000 23.82700
C  2.98200 39.79000 21.56600
C  3.91900 43.46100 21.59500
C  2.65000 44.32100 21.94600
N  3.59600 42.24600 26.77400
C  4.81700 42.30400 26.09500
C  5.92700 42.39000 27.07000
C  5.33000 42.21300 28.34700
C  3.94400 42.18300 28.08500
C  7.38800 42.71600 26.78400
C  5.56200 42.15000 29.75000
O  6.66000 42.02900 30.35400
C  4.16400 42.19300 30.48500
C  4.07300 41.02600 31.45700
O  4.01300 39.84500 31.03600
O  4.07600 41.41700 32.73900
C  4.35200 40.35000 33.68800
H  -2.14700 40.70400 28.27000
H  0.29900 40.41800 22.34700
H  5.79900 42.73400 24.18100
H  1.19700 40.96800 31.21000
H  -0.96800 42.61800 30.17000
H  -0.96100 40.28900 31.84700
H  -1.65400 39.78800 30.31100
H  -2.33700 41.18000 31.18000
H  1.50100 44.01300 31.01800
H  2.07300 42.88300 32.25800
H  -0.74800 44.18000 32.33000
H  0.72800 44.35600 33.29300
H  -3.73000 38.77900 25.73700
H  -4.47300 40.31500 25.68900
H  -3.56000 39.81700 27.13800
H  -4.25800 39.48700 21.86200
H  -4.69300 40.32200 23.33400
H  -4.23800 38.64700 23.46500
H  2.08500 41.67600 21.09100
H  4.82700 41.56700 21.87400
H  3.96900 39.56400 21.16300
H  2.27100 39.53800 20.77900
H  2.71500 39.19600 22.44100
H  3.89000 43.25100 20.52600
H  4.80600 43.98600 21.94800
H  1.75700 43.71200 22.08300
H  2.44600 44.93200 21.06600
H  2.91800 44.94600 22.79800
H  7.61500 43.68300 27.23100
H  7.57700 42.74500 25.71000
H  8.12100 42.01200 27.17700
H  4.12300 43.13200 31.03700
H  5.37400 39.99000 33.80500
H  3.63400 39.57500 33.41800
H  4.08900 40.63600 34.70700

