158

Mg -1.24400 17.61300 26.87300
C  -1.92400 15.35000 29.54200
C  -2.38100 20.08800 29.01300
C  -1.10400 19.74700 24.31000
C  -0.90100 14.97000 24.85600
N  -1.88200 17.70900 29.06400
C  -1.95400 16.68600 30.00800
C  -2.43700 17.22700 31.42000
C  -2.78900 18.75900 31.07000
C  -2.30400 18.84800 29.62800
C  -4.26600 19.08800 31.26500
C  -1.37900 17.01900 32.57000
C  -1.82300 16.32400 33.85100
H  -0.79100 16.15500 34.93700
N  -1.57400 19.64800 26.73900
C  -1.98100 20.50600 27.69100
C  -1.92900 21.81400 27.16800
C  -1.54700 21.70200 25.78200
C  -1.36400 20.29700 25.56500
C  -2.29300 23.13800 27.96700
C  -1.27900 22.83900 24.77300
O  -0.99000 22.69800 23.57900
C  -1.43000 24.29200 25.23200
N  -0.93200 17.47800 24.83400
C  -0.80600 18.40500 23.92100
C  -0.61400 17.91200 22.48400
C  -0.33700 16.37700 22.80600
C  -0.69900 16.26600 24.30900
C  -1.71700 18.29200 21.47100
C  1.13600 15.87000 22.56200
C  1.30400 14.39500 22.45300
N  -1.28700 15.58000 27.14600
C  -1.20300 14.61300 26.17800
C  -1.53400 13.29400 26.68500
C  -1.69400 13.51600 28.09700
C  -1.61500 14.91500 28.29400
C  -1.69400 12.09300 25.96700
C  -2.04300 12.97200 29.36800
O  -2.21500 11.83300 29.69200
C  -2.04000 14.11800 30.37900
C  -0.84500 13.91700 31.27300
O  0.30000 14.24200 30.92400
O  -1.24600 13.48700 32.51700
C  -0.14600 13.26200 33.52100
H  -2.83000 20.92100 29.55800
H  -0.99100 20.42100 23.45800
H  -0.79500 14.19000 24.09900
H  -3.29700 16.57800 31.58200
H  -2.27000 19.41600 31.76800
H  -4.82000 18.24700 31.68200
H  -4.77000 19.34100 30.33200
H  -4.42500 19.92800 31.94100
H  -1.01700 18.01100 32.83800
H  -0.52700 16.39700 32.29400
H  -2.31600 15.36800 33.67400
H  -2.56800 16.99900 34.27200
H  -2.91800 23.73900 27.30700
H  -1.39000 23.71400 28.16500
H  -2.80400 22.88600 28.89600
H  -1.19400 24.91600 24.37100
H  -0.77200 24.54200 26.06400
H  -2.48100 24.54200 25.38100
H  0.32800 18.31000 22.10700
H  -1.05200 15.83700 22.18500
H  -2.28700 19.10200 21.92600
H  -2.31800 17.40200 21.28300
H  -1.32500 18.61700 20.50700
H  1.63100 16.08400 23.51000
H  1.58300 16.50000 21.79400
H  1.95900 14.27700 21.59000
H  0.41300 13.79200 22.27900
H  1.89000 13.97300 23.26900
H  -1.76800 12.36500 24.91400
H  -2.59500 11.54700 26.24600
H  -0.78900 11.50000 26.09600
H  -2.99800 14.14200 30.89900
H  0.51200 12.43100 33.26900
H  -0.56500 12.94500 34.47600
H  0.45900 14.16800 33.57200
Mg 26.33000 50.01200 26.77200
C  24.04100 51.12900 29.21400
C  28.45200 49.23800 29.21800
C  28.31800 48.74600 24.34000
C  24.21500 51.31300 24.27200
N  26.13700 50.02300 28.95700
C  25.11900 50.38300 29.75100
C  25.42300 50.13900 31.21300
C  27.00300 49.89800 31.23200
C  27.25900 49.67700 29.67300
C  27.96800 51.04200 31.85500
C  24.57800 49.01900 31.87700
C  24.12200 49.16200 33.35700
H  24.99500 49.94200 34.42400
N  28.16700 49.09600 26.77000
C  28.92800 48.89600 27.90200
C  30.13000 48.07900 27.56500
C  30.06400 47.90100 26.16000
C  28.85200 48.65400 25.61100
C  31.17800 47.66300 28.63200
C  30.92200 47.02300 25.25400
O  30.80000 46.98800 24.05500
C  31.93500 46.10400 25.89500
N  26.40900 50.19700 24.63800
C  27.23200 49.44700 23.87000
C  26.83000 49.38900 22.34900
C  25.41900 50.03400 22.35200
C  25.36000 50.63400 23.83000
C  27.95300 50.01200 21.40400
C  24.24100 49.14600 21.94800
C  23.25700 49.75400 20.91700
N  24.64900 51.11500 26.70100
C  23.82300 51.55500 25.63800
C  22.65900 52.17300 26.19500
C  22.73900 52.01900 27.57800
C  23.90000 51.30800 27.81900
C  21.58000 52.72600 25.41700
C  21.92700 52.36200 28.81100
O  20.83000 52.87400 28.91500
C  22.82800 51.68900 29.92700
C  23.23600 52.66200 30.89900
O  23.97600 53.64600 30.76500
O  22.60500 52.42100 32.16500
C  23.07400 53.21400 33.26400
H  29.01100 48.88800 30.08800
H  28.73100 48.04200 23.61500
H  23.48400 51.60100 23.51400
H  25.17400 51.04100 31.77300
H  27.25900 48.90600 31.60200
H  28.68300 51.33800 31.08800
H  28.51800 50.52400 32.64100
H  27.46100 51.90900 32.27900
H  25.14400 48.09400 31.76400
H  23.65000 48.84100 31.33300
H  24.04600 48.23200 33.92100
H  23.21600 49.76400 33.42500
H  31.07100 48.30100 29.50900
H  32.14600 47.62300 28.13300
H  30.93300 46.64200 28.92600
H  32.86500 46.64100 26.08600
H  32.22100 45.30800 25.20700
H  31.40000 45.77300 26.78500
H  26.79900 48.31900 22.14300
H  25.51500 50.88300 21.67500
H  28.91900 50.02500 21.90900
H  27.64500 51.03500 21.18700
H  28.02000 49.45900 20.46700
H  23.71200 48.82000 22.84400
H  24.71300 48.26100 21.52100
H  22.21600 49.66700 21.22800
H  23.28100 49.32200 19.91600
H  23.43300 50.82500 20.81400
H  20.70300 52.84700 26.05300
H  21.27800 52.16700 24.53200
H  21.85100 53.75900 25.19700
H  22.28200 50.86200 30.38100
H  24.15900 53.32000 33.26300
H  22.68600 52.90800 34.23600
H  22.80500 54.25500 33.08200

