158

Mg 54.99600 24.91700 44.12400
C  51.93200 26.88700 43.36200
C  53.13400 22.23000 43.03600
C  57.86100 23.43600 43.89100
C  56.48900 27.93200 44.77600
N  52.84000 24.73100 43.06900
C  51.82100 25.59900 42.89800
C  50.60300 24.86200 42.29900
C  50.91000 23.41700 42.90900
C  52.37500 23.44000 43.12700
C  50.13500 23.07600 44.30100
C  50.48600 24.90600 40.71800
C  49.06900 24.49000 40.29000
H  48.65300 24.64300 38.80100
N  55.42700 23.05900 43.63300
C  54.51800 22.05200 43.18100
C  55.24800 20.79800 43.08800
C  56.61400 21.06700 43.38400
C  56.67800 22.53200 43.60900
C  54.59000 19.45700 42.66500
C  57.66400 20.03400 43.48900
O  57.39900 18.88100 43.41200
C  59.06700 20.40800 43.83200
N  56.93600 25.62400 44.12100
C  57.96400 24.76600 44.15100
C  59.22200 25.41100 44.65900
C  58.79300 26.95800 44.67300
C  57.23600 26.88400 44.52800
C  59.70900 24.90400 46.06000
C  59.43100 27.74300 43.46100
C  60.15800 29.07200 43.86400
N  54.35300 26.95700 44.21300
C  55.13200 28.02800 44.55900
C  54.31400 29.23000 44.62500
C  53.05800 28.77200 44.18200
C  53.11500 27.39500 43.91100
C  54.72800 30.64100 44.98300
C  51.75800 29.29700 43.86100
O  51.33500 30.45800 43.93200
C  50.91300 28.02000 43.36100
C  50.42000 28.27100 41.99800
O  51.16700 28.68000 41.12200
O  49.10000 27.90200 41.82400
C  48.71200 27.97400 40.42400
H  52.44500 21.39300 42.90800
H  58.78800 22.93000 44.16900
H  57.03300 28.87100 44.89800
H  49.74200 25.26800 42.83100
H  50.74400 22.68400 42.12000
H  49.37600 23.82500 44.52800
H  50.86900 23.02100 45.10500
H  49.65200 22.10400 44.20600
H  51.05000 24.02500 40.41100
H  50.85800 25.81800 40.25300
H  48.26900 24.88800 40.91500
H  48.91400 23.41600 40.38800
H  53.70700 19.70800 42.07700
H  54.19900 18.99000 43.56900
H  55.19600 18.73700 42.11600
H  59.45000 21.11300 43.09400
H  59.70000 19.53700 44.00400
H  58.89600 20.95400 44.75900
H  59.88100 25.07800 43.85600
H  59.10000 27.42500 45.60900
H  60.14800 23.90600 46.06500
H  58.93100 25.06700 46.80500
H  60.52200 25.48100 46.50100
H  58.68600 27.93400 42.68900
H  60.18100 27.08000 43.03000
H  59.82200 29.77600 43.10400
H  61.21500 28.93400 44.09100
H  59.62400 29.38400 44.76200
H  53.94400 31.28100 44.57900
H  55.71300 30.87200 44.57600
H  54.83200 30.72900 46.06400
H  50.19900 27.83200 44.16300
H  47.86200 27.33400 40.19100
H  49.51300 27.69000 39.74200
H  48.41500 28.99300 40.17300
Mg 42.26600 41.59500 27.10500
C  41.30400 43.63200 29.66200
C  43.31300 39.24700 29.61100
C  43.36800 39.56900 24.68500
C  41.41700 43.98700 24.78800
N  42.40000 41.51800 29.46100
C  41.78200 42.47400 30.20100
C  41.82200 42.02100 31.71800
C  42.58400 40.58100 31.61400
C  42.67800 40.35800 30.14900
C  43.83400 40.57000 32.51000
C  40.36500 42.00600 32.30600
C  40.20100 42.74700 33.64200
H  39.57800 41.96700 34.85100
N  43.10000 39.65900 27.13800
C  43.47900 38.90600 28.24600
C  44.13200 37.70000 27.75600
C  44.17200 37.76100 26.31300
C  43.53200 39.05200 25.97600
C  44.63700 36.52800 28.70600
C  44.54400 36.75100 25.26600
O  44.60100 36.91600 24.06800
C  44.91200 35.33900 25.74500
N  42.45800 41.73400 25.04200
C  42.88700 40.75700 24.25800
C  42.77000 41.01200 22.73800
C  41.98800 42.36600 22.77600
C  41.83600 42.74500 24.28900
C  44.16700 41.00800 22.06500
C  40.58100 42.24400 22.26600
C  39.63600 41.23000 22.97200
N  41.63900 43.47000 27.09400
C  41.35100 44.34700 26.10200
C  40.88500 45.64600 26.68600
C  40.73300 45.32700 28.03900
C  41.30400 44.02600 28.27900
C  40.37000 46.90000 25.91800
C  40.37300 45.87000 29.23900
O  39.98200 47.00700 29.51000
C  40.80900 44.81700 30.39800
C  41.89100 45.58300 31.13000
O  42.88200 46.15700 30.61400
O  41.51500 45.69700 32.40000
C  42.59800 46.16200 33.36200
H  43.61000 38.52500 30.37400
H  43.76300 38.95000 23.87700
H  41.02400 44.71900 24.08000
H  42.42000 42.78700 32.21100
H  42.06100 39.73300 32.05600
H  44.72000 40.64200 31.87900
H  43.87800 39.68800 33.14900
H  44.00500 41.39400 33.20300
H  40.10700 40.96200 32.48400
H  39.79500 42.48200 31.50800
H  39.56100 43.61300 33.47300
H  41.16400 43.09300 34.01800
H  43.80700 35.82500 28.77900
H  45.08400 36.82200 29.65600
H  45.51400 36.17500 28.16400
H  44.18600 35.02600 26.49600
H  45.93100 35.49500 26.10000
H  44.83100 34.67000 24.88800
H  42.10100 40.26400 22.31200
H  42.50900 43.12300 22.19000
H  44.86800 40.29000 22.49000
H  44.47700 42.04700 21.95600
H  44.16700 40.78600 20.99800
H  40.50500 41.95500 21.21800
H  40.11900 43.22400 22.38400
H  40.15200 40.28400 23.13800
H  38.85800 40.91100 22.27800
H  39.12600 41.66600 23.83100
H  39.56300 46.60800 25.24700
H  41.14000 47.58600 25.56500
H  39.88000 47.39800 26.75500
H  39.91700 44.59400 30.98400
H  43.50700 46.47200 32.84600
H  43.05100 45.47000 34.07100
H  42.27000 47.01800 33.95200

