158

Mg 36.13600 48.83800 24.97000
C  36.40200 47.06600 28.06100
C  34.49200 51.31900 26.64500
C  35.53700 50.23400 21.99600
C  37.66600 46.13500 23.36500
N  35.20800 49.00900 27.16200
C  35.73500 48.27000 28.24000
C  35.39500 48.96500 29.53000
C  34.52500 50.21300 28.97500
C  34.78700 50.23200 27.51000
C  33.05300 50.20000 29.39700
C  36.66800 49.38400 30.33700
C  36.68400 49.80800 31.83800
H  35.43500 49.60300 32.65300
N  35.22900 50.52700 24.46100
C  34.62000 51.50400 25.25700
C  34.27000 52.61200 24.42500
C  34.59200 52.35300 23.10600
C  35.14100 50.98600 23.15000
C  33.59600 53.79000 25.03600
C  34.52200 53.21600 21.86600
O  34.97900 52.93200 20.77900
C  33.89900 54.65300 21.98300
N  36.34800 48.10400 22.99500
C  36.01100 48.90000 21.94000
C  36.49900 48.31900 20.63700
C  37.46900 47.22500 21.09800
C  37.26600 47.16900 22.59500
C  35.30400 47.72900 19.78600
C  38.97500 47.42300 20.70200
C  39.81400 48.40000 21.56600
N  36.90500 47.02200 25.54700
C  37.40300 45.97200 24.74700
C  37.92200 44.96200 25.55600
C  37.53300 45.33600 26.87900
C  36.78200 46.53400 26.77700
C  38.58700 43.78600 25.08300
C  37.62900 44.97100 28.26600
O  38.21600 44.10800 28.91200
C  36.84300 46.07500 29.10400
C  35.98500 45.50500 30.16100
O  34.80800 45.15900 30.03400
O  36.59400 45.50600 31.36400
C  35.80600 45.14700 32.51000
H  33.88900 52.02000 27.22600
H  35.43500 50.74300 21.03500
H  38.22200 45.39200 22.78800
H  34.78000 48.38300 30.21500
H  34.97700 51.14900 29.30200
H  32.90600 51.04000 30.07700
H  32.74300 49.28600 29.90400
H  32.41900 50.32500 28.52000
H  37.00600 50.25600 29.77700
H  37.39000 48.57500 30.22500
H  37.05400 50.83200 31.88200
H  37.45400 49.22600 32.34300
H  33.08600 53.52200 25.96200
H  32.91100 54.06600 24.23500
H  34.32400 54.56400 25.27700
H  33.91200 55.10100 20.99000
H  34.52900 55.29100 22.60300
H  32.84600 54.58600 22.25800
H  37.05500 49.08200 20.09200
H  37.16100 46.29000 20.63000
H  34.71400 48.59300 19.47800
H  34.70500 47.04400 20.38500
H  35.74200 47.21700 18.92900
H  38.99200 47.62100 19.63100
H  39.49700 46.47000 20.78500
H  40.30100 49.06200 20.85100
H  40.51800 47.98400 22.28700
H  39.05200 49.00500 22.05700
H  37.81000 43.20100 24.58900
H  39.09100 43.36500 25.95200
H  39.42500 44.05400 24.44000
H  37.68100 46.48800 29.66600
H  35.29400 44.20100 32.33800
H  35.15600 45.93600 32.88800
H  36.49000 44.88900 33.31800
Mg 16.54600 51.13300 25.60500
C  18.62700 50.18300 28.36800
C  14.27600 52.38600 27.87800
C  14.75700 52.44900 23.02900
C  19.01700 50.00600 23.51500
N  16.56400 51.33300 27.93600
C  17.49900 50.89200 28.87500
C  17.06400 51.23600 30.28400
C  15.55200 51.72800 30.09900
C  15.43500 51.79400 28.50400
C  14.47100 50.81000 30.78400
C  18.02300 52.26500 30.94100
C  17.92000 52.45500 32.43400
H  17.02800 51.58100 33.29700
N  14.83600 52.40600 25.50400
C  14.05500 52.76700 26.50300
C  12.97900 53.59200 26.11600
C  13.14300 53.64300 24.65800
C  14.27900 52.84000 24.34100
C  11.92600 54.13300 27.06300
C  12.28300 54.48900 23.66000
O  12.34300 54.23200 22.47400
C  11.45500 55.60300 24.15600
N  16.81500 51.17700 23.53200
C  15.92000 51.64100 22.62800
C  16.26600 51.33000 21.17200
C  17.74500 50.95900 21.40600
C  17.84000 50.59300 22.90500
C  15.47800 50.20600 20.44500
C  18.69500 52.19600 21.09400
C  19.78500 51.77800 20.04900
N  18.33900 50.10700 25.82100
C  19.22900 49.75300 24.88200
C  20.33200 49.02800 25.52100
C  20.16300 49.23700 26.92700
C  18.91300 49.97300 27.04800
C  21.47900 48.40000 24.82100
C  20.76900 48.98700 28.17300
O  21.81300 48.41100 28.46400
C  19.82900 49.73900 29.21600
C  19.47800 48.82000 30.33600
O  18.55300 47.98800 30.24600
O  20.15200 49.16200 31.49500
C  19.52000 48.54300 32.69800
H  13.56900 52.78700 28.60700
H  14.23200 52.82400 22.14800
H  19.79200 49.65600 22.82900
H  16.99800 50.37000 30.94300
H  15.49800 52.73800 30.50500
H  14.99400 49.99600 31.28600
H  13.81100 50.52600 29.96400
H  13.95800 51.42200 31.52600
H  17.83200 53.21500 30.44200
H  19.06000 51.97300 30.77500
H  17.65500 53.49300 32.63100
H  18.97400 52.32200 32.68000
H  11.01500 54.50100 26.59200
H  12.33900 54.77000 27.84600
H  11.46200 53.27800 27.55400
H  10.43100 55.35400 24.43400
H  11.50500 56.21500 23.25600
H  11.96100 56.08800 24.99100
H  16.14300 52.26500 20.62600
H  18.04600 50.01200 20.95900
H  14.64000 50.02700 21.11800
H  15.91600 49.26700 20.10700
H  14.93800 50.62500 19.59600
H  19.33600 52.46400 21.93400
H  18.13600 52.96700 20.56300
H  20.78300 51.88200 20.47500
H  19.91100 52.38400 19.15200
H  19.57100 50.73800 19.80300
H  21.00600 47.55200 24.32600
H  22.10900 47.87500 25.54000
H  21.98800 49.05300 24.11200
H  20.40900 50.52800 29.69500
H  19.93200 49.03700 33.57700
H  19.72500 47.47300 32.72100
H  18.43500 48.64600 32.69000

