158

Mg 17.53400 -0.96000 28.53700
C  16.79200 1.20300 31.07600
C  19.60000 -2.79000 30.76600
C  19.02000 -2.53600 25.88500
C  16.02300 1.28500 26.27900
N  18.25500 -0.66400 30.64900
C  17.63000 0.11700 31.50700
C  17.82200 -0.31700 32.96500
C  18.95100 -1.36500 32.85600
C  18.88500 -1.68600 31.34600
C  20.41300 -0.93700 33.22200
C  16.35900 -0.77300 33.57600
C  15.89800 -0.34100 34.96600
H  17.07500 -0.00100 35.94500
N  18.96400 -2.46500 28.35200
C  19.63000 -3.11500 29.39100
C  20.36600 -4.27200 28.82000
C  20.27700 -4.15800 27.35300
C  19.43600 -2.96100 27.14600
C  20.96500 -5.40000 29.61300
C  20.93200 -5.02100 26.35400
O  20.96800 -4.75300 25.16000
C  21.62500 -6.29300 26.77000
N  17.66000 -0.62200 26.38100
C  18.26200 -1.46200 25.51100
C  18.00700 -1.08800 24.03700
C  16.94300 0.06900 24.24500
C  16.82800 0.28900 25.70400
C  19.22900 -0.70700 23.13300
C  15.57800 -0.20800 23.53000
C  14.48600 -1.13600 24.20400
N  16.47200 0.81300 28.62300
C  15.82800 1.59300 27.69700
C  15.22500 2.77000 28.31900
C  15.51700 2.55400 29.66500
C  16.28300 1.40100 29.75500
C  14.61300 3.93400 27.76400
C  15.38800 3.15500 31.00600
O  14.83900 4.19000 31.30700
C  16.09700 2.24900 31.94200
C  17.01300 3.07600 32.76000
O  18.02600 3.63300 32.34500
O  16.47800 3.28900 34.00000
C  17.16700 4.33600 34.83700
H  20.09500 -3.41100 31.51500
H  19.37800 -3.05400 24.99300
H  15.42300 1.93700 25.64200
H  18.21100 0.60800 33.38900
H  18.64000 -2.22800 33.44500
H  21.18400 -1.07300 32.46400
H  20.78100 -1.50800 34.07400
H  20.42600 0.13700 33.40300
H  16.45500 -1.85100 33.69900
H  15.61700 -0.60000 32.79600
H  15.36500 -1.11500 35.51700
H  15.35800 0.60500 35.01600
H  20.33300 -6.25700 29.38400
H  20.86500 -5.28400 30.69300
H  22.03900 -5.49300 29.45400
H  22.48900 -6.16500 27.42100
H  21.91300 -6.78000 25.83800
H  20.89900 -6.89900 27.31300
H  17.40100 -1.89100 23.61600
H  17.32100 0.98100 23.78300
H  20.15200 -0.97200 23.64800
H  19.28300 0.36100 22.92200
H  19.27500 -1.23700 22.18200
H  15.80200 -0.66900 22.56800
H  15.02800 0.73200 23.49700
H  13.49500 -0.71600 24.37900
H  14.75800 -1.62300 25.14000
H  14.36400 -2.05000 23.62200
H  14.63000 4.80500 28.42000
H  13.56300 3.72300 27.56100
H  15.13200 4.08100 26.81700
H  15.27700 1.77500 32.48100
H  16.66300 5.25600 34.54300
H  18.24200 4.45600 34.69900
H  16.95400 3.96500 35.83900
Mg -1.76200 34.85500 25.73500
C  -3.77000 33.33900 28.31800
C  -1.10000 37.47800 27.99900
C  0.04700 36.40900 23.37700
C  -2.82100 32.44100 23.66600
N  -2.67600 35.54700 27.79500
C  -3.20600 34.59100 28.70000
C  -3.17300 35.17700 30.19200
C  -2.47200 36.54900 30.01300
C  -2.08500 36.54500 28.50600
C  -3.41500 37.80600 30.24700
C  -2.49900 34.23300 31.22300
C  -3.19600 34.07900 32.64400
H  -2.52400 34.82300 33.74600
N  -0.66400 36.73700 25.66400
C  -0.50400 37.61200 26.73900
C  0.35300 38.69900 26.29900
C  0.76300 38.33600 25.03200
C  0.05900 37.13500 24.63300
C  0.66200 39.94300 27.09100
C  1.78100 38.93600 24.17300
O  2.13200 38.47700 23.10500
C  2.59500 40.10100 24.71800
N  -1.61700 34.58400 23.72100
C  -0.71300 35.30500 22.97100
C  -0.44500 34.45500 21.60900
C  -1.19400 33.12900 21.88900
C  -1.93300 33.39200 23.15400
C  -1.12600 35.18400 20.38500
C  -0.30400 31.80100 21.98800
C  0.97900 31.82900 22.87500
N  -3.10000 33.27600 25.86600
C  -3.33900 32.32900 24.92000
C  -4.24800 31.32200 25.49300
C  -4.45700 31.64000 26.87600
C  -3.76200 32.84000 27.03600
C  -4.80800 30.15700 24.69900
C  -5.05800 31.24600 28.07900
O  -5.82600 30.35900 28.36800
C  -4.55200 32.33400 29.15900
C  -5.67800 32.87100 29.91800
O  -6.30800 33.90100 29.72700
O  -5.89300 32.12000 31.03600
C  -6.95200 32.53200 31.98800
H  -0.75200 38.17200 28.76700
H  0.70300 36.56200 22.51700
H  -3.04000 31.61700 22.98300
H  -4.20600 35.36400 30.48600
H  -1.64100 36.65300 30.71100
H  -4.34200 37.45000 30.69700
H  -3.60000 38.42300 29.36800
H  -2.83800 38.41500 30.94300
H  -1.49200 34.59800 31.42100
H  -2.46000 33.20000 30.87900
H  -3.26500 33.01700 32.87900
H  -4.19000 34.49100 32.47000
H  1.71400 40.14900 27.28600
H  0.01200 39.90700 27.96500
H  0.21900 40.80500 26.59400
H  2.07300 41.05200 24.82500
H  3.38800 40.31300 24.00100
H  3.21500 39.76000 25.54700
H  0.63900 34.46400 21.50000
H  -1.96000 32.85200 21.16500
H  -1.73800 35.97400 20.81900
H  -1.80700 34.52300 19.84800
H  -0.39700 35.65600 19.72700
H  0.13300 31.50900 21.03300
H  -0.96500 31.05800 22.43400
H  0.88300 31.12600 23.70300
H  1.09400 32.86500 23.19100
H  1.87000 31.58900 22.29500
H  -3.93400 29.76400 24.17800
H  -5.50000 30.53200 23.94500
H  -5.34000 29.42600 25.30800
H  -3.89900 31.88200 29.90500
H  -6.51600 33.45100 32.38000
H  -6.97100 31.76000 32.75700
H  -7.91700 32.71500 31.51600

