158

Mg 45.33700 3.82700 47.62800
C  43.46500 6.80600 47.04200
C  42.39900 2.05400 46.94000
C  47.13400 1.04100 47.18800
C  48.17000 5.71600 48.07400
N  43.19300 4.37800 47.19100
C  42.69600 5.64300 46.96800
C  41.19500 5.57900 46.55400
C  40.82400 4.06300 46.83700
C  42.20800 3.44400 47.08300
C  39.83100 3.79600 48.02200
C  40.87100 6.01100 45.03900
C  39.88800 7.19500 44.91300
H  38.82900 7.09600 43.75600
N  44.85300 1.79100 47.07300
C  43.56200 1.27800 46.89200
C  43.69900 -0.03500 46.45400
C  45.02200 -0.40900 46.40900
C  45.74300 0.80500 46.92900
C  42.55100 -0.97600 46.12400
C  45.61300 -1.84800 46.13000
O  44.82600 -2.71200 45.69000
C  47.03400 -2.22000 46.40900
N  47.32300 3.44500 47.69700
C  47.82700 2.15500 47.60200
C  49.21700 2.10100 48.14100
C  49.69900 3.64300 48.30200
C  48.31600 4.30400 48.02200
C  49.34300 1.22900 49.41300
C  50.78500 3.93500 47.23300
C  52.24300 3.98700 47.76600
N  45.83600 5.80700 47.59100
C  47.00800 6.46500 47.80000
C  46.82400 7.90200 47.65600
C  45.47200 8.04900 47.44500
C  44.90300 6.77500 47.39400
C  47.88700 8.96600 47.64900
C  44.42300 9.04000 47.18900
O  44.56500 10.23200 47.16900
C  43.08100 8.22600 47.04300
C  42.27000 8.59300 48.23600
O  42.02600 7.84100 49.20800
O  41.63200 9.85600 48.02400
C  40.30300 10.01400 48.52900
H  41.50100 1.47100 46.72700
H  47.75400 0.14500 47.26300
H  49.04800 6.27900 48.39700
H  40.61500 6.15700 47.27300
H  40.37700 3.66600 45.92500
H  39.01800 3.14900 47.68900
H  39.28300 4.71900 48.21100
H  40.34000 3.42800 48.91300
H  40.48300 5.12800 44.53100
H  41.77400 6.37600 44.54900
H  40.42000 8.12600 44.71800
H  39.34700 7.36000 45.84500
H  42.69200 -1.37700 45.12000
H  41.61500 -0.42000 46.07400
H  42.59300 -1.80200 46.83400
H  47.57100 -1.44700 45.85900
H  47.35800 -3.18500 46.01900
H  47.33100 -2.00600 47.43600
H  49.81600 1.68900 47.32900
H  50.09300 3.89700 49.28500
H  49.94200 0.32000 49.46500
H  48.38000 0.90800 49.81100
H  49.68000 1.85700 50.23800
H  50.64900 4.98600 46.98000
H  50.69200 3.27600 46.37000
H  52.62900 5.00700 47.77800
H  52.95600 3.50300 47.09800
H  52.41800 3.61600 48.77500
H  48.62400 8.64200 48.38500
H  47.51000 9.94600 47.94000
H  48.34700 8.91800 46.66200
H  42.53600 8.42700 46.12000
H  39.80800 10.78700 47.94200
H  40.44400 10.36500 49.55200
H  39.87400 9.01300 48.55300
Mg 35.73000 47.89200 25.87100
C  36.21600 46.00200 28.77800
C  34.61100 50.47100 27.68900
C  34.84600 49.30800 22.88100
C  36.74900 44.96000 24.09600
N  35.41600 48.14300 27.97300
C  35.83200 47.32600 29.01700
C  35.62000 47.98600 30.34300
C  34.84700 49.30300 29.99300
C  34.92900 49.31400 28.45000
C  33.41000 49.36100 30.63600
C  37.02500 48.24600 31.00700
C  37.03000 48.69100 32.48400
H  35.66900 48.65100 33.17600
N  34.71600 49.60000 25.36300
C  34.48800 50.58400 26.29500
C  34.11100 51.73200 25.55800
C  33.99500 51.43300 24.19200
C  34.43200 50.01400 24.06400
C  33.86000 53.10800 26.21100
C  33.53600 52.26800 23.00200
O  33.52600 51.83900 21.88000
C  33.27200 53.68400 23.20200
N  35.90600 47.27900 23.85000
C  35.49600 48.07800 22.78800
C  35.63500 47.38200 21.49000
C  36.38900 46.06000 21.84600
C  36.40800 46.10200 23.36000
C  34.28100 47.21600 20.67500
C  37.86100 46.13600 21.36000
C  38.58900 44.83300 21.04500
N  36.27700 45.79900 26.25800
C  36.67800 44.76700 25.45800
C  37.14400 43.64700 26.22600
C  36.86300 44.05600 27.51400
C  36.42400 45.43800 27.48500
C  37.80800 42.28600 25.80500
C  36.86000 43.64200 28.91100
O  37.25600 42.63400 29.46900
C  36.45000 44.94300 29.69500
C  35.24600 44.63200 30.44400
O  34.17500 44.39500 29.97300
O  35.52700 44.67100 31.77000
C  34.51300 44.44400 32.76600
H  34.32500 51.35500 28.26300
H  34.62200 49.69800 21.88600
H  37.18400 44.06100 23.65400
H  35.03000 47.21100 30.83300
H  35.38900 50.16500 30.38200
H  33.12700 48.41200 31.09200
H  32.63700 49.60000 29.90600
H  33.44500 50.08900 31.44600
H  37.44400 49.10500 30.48300
H  37.66900 47.37800 30.86300
H  37.53300 49.64800 32.62000
H  37.58900 47.91100 33.00200
H  33.01600 53.53000 25.66500
H  34.71100 53.78000 26.09300
H  33.60700 53.00100 27.26500
H  34.07000 54.12900 23.79600
H  32.25900 53.77000 23.59500
H  33.09900 54.16200 22.23800
H  36.18000 48.08400 20.85900
H  35.91500 45.14200 21.50000
H  33.59800 47.94000 21.11900
H  33.95700 46.17700 20.61900
H  34.30600 47.62200 19.66400
H  38.54900 46.50000 22.12300
H  38.00800 46.75400 20.47400
H  37.93500 44.02100 20.72900
H  39.14000 44.56700 21.94700
H  39.18900 45.24200 20.23200
H  38.14500 42.25500 24.76900
H  37.11400 41.44700 25.85700
H  38.69800 42.20300 26.42700
H  37.23400 45.12000 30.43100
H  33.55700 44.81800 32.39800
H  34.72600 45.06100 33.63800
H  34.52700 43.38000 33.00200

