158

Mg 23.98500 -6.85600 46.10500
C  26.35000 -4.83200 44.61800
C  21.67300 -5.53900 43.96400
C  22.14000 -9.73600 46.47600
C  26.68200 -8.54900 47.66800
N  24.08100 -5.47700 44.31700
C  25.12200 -4.71900 43.94700
C  24.81100 -3.67300 42.87200
C  23.23700 -3.67200 42.94700
C  22.94300 -5.03600 43.76200
C  22.61800 -2.41500 43.62900
C  25.36700 -4.09700 41.46000
C  25.83700 -2.92700 40.47500
H  25.37200 -2.82800 38.98100
N  22.15400 -7.45200 45.44200
C  21.27500 -6.65400 44.63300
C  19.99900 -7.29500 44.60100
C  20.09600 -8.54100 45.28900
C  21.50100 -8.62800 45.76800
C  18.83800 -6.78600 43.84300
C  18.94800 -9.52700 45.41400
O  17.85000 -9.17100 45.01600
C  19.16800 -10.80800 46.09700
N  24.38600 -8.92400 47.03500
C  23.44100 -9.87400 47.04300
C  24.01400 -11.14000 47.72800
C  25.44000 -10.69700 48.32800
C  25.54500 -9.34300 47.59300
C  23.01800 -11.91300 48.68100
C  26.54200 -11.73900 47.97800
C  26.86000 -12.86300 48.94400
N  26.07000 -6.62200 46.29600
C  26.97800 -7.35600 46.96600
C  28.31900 -6.71000 46.87200
C  28.07200 -5.62400 46.02900
C  26.71300 -5.72600 45.62300
C  29.60000 -7.11400 47.41900
C  28.64300 -4.47900 45.39600
O  29.74900 -3.97900 45.59800
C  27.60200 -3.96100 44.33600
C  27.53900 -2.47600 44.31000
O  27.94800 -1.77400 43.38300
O  27.01700 -2.04100 45.43800
C  26.99300 -0.60200 45.75800
H  20.85900 -4.99700 43.47900
H  21.60700 -10.66900 46.66900
H  27.58700 -8.94200 48.13600
H  25.18600 -2.70400 43.20000
H  22.75500 -3.74700 41.97200
H  21.97600 -1.81100 42.98800
H  23.42300 -1.78500 44.00800
H  21.92500 -2.58200 44.45300
H  24.62600 -4.63300 40.86700
H  26.13000 -4.86800 41.56500
H  26.92200 -3.03400 40.49700
H  25.55200 -2.00700 40.98600
H  18.05100 -6.65400 44.58700
H  18.55300 -7.40100 42.99000
H  19.00700 -5.75500 43.53100
H  19.45000 -10.69200 47.14300
H  19.71100 -11.50600 45.46000
H  18.15000 -11.19300 46.14100
H  24.21000 -11.76300 46.85600
H  25.23400 -10.46800 49.37400
H  22.03500 -11.44400 48.63700
H  23.38900 -11.97800 49.70400
H  22.91400 -12.92400 48.29000
H  27.49500 -11.21800 47.89300
H  26.35100 -12.19400 47.00600
H  27.04700 -13.75700 48.35000
H  25.95600 -12.87900 49.55300
H  27.66100 -12.60000 49.63600
H  29.92800 -8.13400 47.21700
H  29.59100 -7.04500 48.50700
H  30.31200 -6.33600 47.14600
H  27.99300 -4.17700 43.34200
H  27.55300 0.07200 45.11000
H  27.17300 -0.51800 46.83000
H  25.96800 -0.29200 45.55400
Mg 30.56300 58.41400 38.88600
C  27.39100 56.83800 37.97000
C  32.02900 55.52700 37.70600
C  33.37500 59.99500 39.10800
C  28.66300 61.27000 39.61000
N  29.72100 56.50300 37.67300
C  28.44800 56.08300 37.53600
C  28.44300 54.83900 36.71100
C  29.83200 54.20100 37.11400
C  30.59800 55.49200 37.49100
C  29.64400 53.09400 38.24400
C  28.26700 55.01000 35.19600
C  27.00400 54.41900 34.56700
H  26.34000 55.34500 33.57200
N  32.51800 57.86500 38.41500
C  32.93000 56.61800 38.09000
C  34.35800 56.57700 38.15900
C  34.80200 57.84800 38.58900
C  33.59600 58.62400 38.82100
C  35.12600 55.29600 37.83500
C  36.27700 58.29500 38.53100
O  37.07700 57.54800 38.05200
C  36.70400 59.62100 38.93900
N  30.99700 60.42600 39.27800
C  32.26400 60.87100 39.19500
C  32.30000 62.46400 39.25500
C  30.76500 62.75100 39.60600
C  30.08000 61.44400 39.51600
C  33.29500 63.20900 40.17100
C  30.12500 63.96600 38.86000
C  29.33200 64.96600 39.67400
N  28.48600 58.93100 38.93000
C  27.88900 60.10200 39.36700
C  26.45500 59.99000 39.35600
C  26.26400 58.66700 38.90400
C  27.49800 58.11100 38.60600
C  25.51000 61.02900 39.61900
C  25.19500 57.81600 38.62500
O  23.97200 57.88600 38.70900
C  25.92200 56.54000 38.04100
C  25.64100 55.38100 38.91400
O  26.08900 55.13500 40.01900
O  24.59000 54.62100 38.28300
C  24.03600 53.50600 39.03500
H  32.51500 54.57500 37.48000
H  34.30400 60.56300 39.19200
H  28.06700 62.18400 39.58500
H  27.66600 54.22900 37.17100
H  30.32700 53.78200 36.23800
H  30.44000 53.24600 38.97300
H  29.75700 52.07600 37.87100
H  28.67800 53.16300 38.74400
H  29.12500 54.58300 34.67700
H  28.36400 56.08400 35.03700
H  26.30900 54.22400 35.38300
H  27.35100 53.50500 34.08500
H  35.46600 54.74800 38.71300
H  36.01300 55.42600 37.21500
H  34.51700 54.68800 37.16600
H  37.77300 59.61200 39.15300
H  36.26100 59.94900 39.88000
H  36.56100 60.41300 38.20500
H  32.47700 62.74900 38.21800
H  30.67900 62.92300 40.67900
H  33.81200 63.94100 39.55000
H  33.94600 62.42600 40.55900
H  32.94000 63.83400 40.99100
H  29.43100 63.56400 38.12200
H  30.93400 64.54600 38.41600
H  28.44100 65.10800 39.06300
H  29.83900 65.92900 39.63200
H  29.03400 64.68900 40.68600
H  24.56400 60.57800 39.91500
H  25.49600 61.62500 38.70600
H  25.85000 61.66800 40.43400
H  25.56700 56.28900 37.04200
H  23.40800 52.84600 38.43600
H  23.64000 53.77600 40.01300
H  24.88500 52.83900 39.18500

