158

Mg 9.04800 3.83800 27.58800
C  10.60400 2.29600 30.39100
C  7.10900 5.66100 29.88500
C  7.27900 4.98700 25.03100
C  10.61900 1.50200 25.59600
N  8.70900 3.79200 29.88600
C  9.68100 3.30100 30.80900
C  9.31000 3.69300 32.28600
C  8.06100 4.67600 31.98700
C  7.91400 4.71100 30.44400
C  6.77800 4.29900 32.75800
C  10.64400 4.27400 32.94900
C  11.14300 3.59300 34.25400
H  11.28000 4.37700 35.56900
N  7.53500 5.21300 27.43200
C  6.86700 5.85700 28.45300
C  5.98200 6.80500 27.85300
C  6.11000 6.70300 26.46000
C  7.02100 5.61000 26.23900
C  5.24200 7.72400 28.83400
C  5.54100 7.52400 25.29100
O  5.69900 7.44300 24.10100
C  4.62100 8.56700 25.76600
N  8.94300 3.26500 25.58300
C  8.16000 3.95400 24.68500
C  8.42600 3.36200 23.28400
C  9.51300 2.25600 23.44000
C  9.73200 2.33700 24.92500
C  7.07400 2.79700 22.67400
C  10.77500 2.57700 22.63300
C  11.64800 1.41300 22.09100
N  10.42900 2.23300 27.89500
C  10.96300 1.38500 26.95300
C  11.91300 0.51100 27.60300
C  11.86500 0.87400 28.90400
C  10.92700 1.87800 29.08900
C  12.68600 -0.56600 26.99100
C  12.34700 0.51900 30.20900
O  13.00500 -0.45000 30.54300
C  11.56800 1.50700 31.25000
C  10.85400 0.76000 32.27600
O  9.65500 0.40500 32.21800
O  11.66600 0.48700 33.33800
C  11.14600 -0.01600 34.61700
H  6.54600 6.37700 30.48700
H  6.67200 5.23900 24.15900
H  11.24200 0.76800 25.08100
H  8.96800 2.78300 32.77900
H  8.34200 5.68700 32.28100
H  5.98000 4.09300 32.04500
H  6.40400 5.11000 33.38200
H  6.82900 3.36600 33.31900
H  10.30000 5.29300 33.12400
H  11.42100 4.21400 32.18600
H  12.15700 3.28100 34.00400
H  10.58700 2.67900 34.46400
H  4.88600 7.12000 29.66900
H  4.41200 8.23500 28.34500
H  5.95400 8.46600 29.19600
H  5.18600 9.16800 26.47900
H  3.70400 8.12000 26.14900
H  4.26800 9.11200 24.89100
H  8.79600 4.17500 22.66000
H  9.13100 1.31900 23.03400
H  6.57300 3.42100 21.93400
H  6.43700 2.69000 23.55200
H  7.31500 1.83400 22.22300
H  11.38500 3.25100 23.23400
H  10.58400 3.38700 21.92900
H  11.60400 1.39400 21.00200
H  11.22500 0.53700 22.58300
H  12.66300 1.66500 22.39700
H  13.32400 -0.22900 26.17300
H  12.06700 -1.45600 26.87500
H  13.40500 -0.86400 27.75400
H  12.35300 2.15700 31.63600
H  11.19700 0.76400 35.37600
H  11.82000 -0.78800 34.99000
H  10.18800 -0.52800 34.52400
Mg -2.20300 35.18000 26.58400
C  -3.71500 33.33600 29.21600
C  -0.67400 37.14500 28.72200
C  -1.39200 36.94200 23.92200
C  -4.06800 32.96400 24.42100
N  -2.27100 35.24900 28.74700
C  -2.94500 34.43600 29.62500
C  -2.53800 34.80300 31.04500
C  -1.59000 36.05000 30.84300
C  -1.40100 36.11200 29.30500
C  -2.10900 37.39600 31.51000
C  -1.81700 33.59100 31.74600
C  -2.46300 32.86400 32.93500
H  -1.70700 32.89100 34.30700
N  -1.09200 36.77700 26.30700
C  -0.50600 37.48700 27.33500
C  0.21000 38.58100 26.73400
C  0.05900 38.49800 25.36300
C  -0.79200 37.32300 25.13300
C  0.89200 39.59600 27.60800
C  0.65800 39.36200 24.28300
O  0.55400 39.08100 23.09500
C  1.45900 40.58900 24.54400
N  -2.62400 34.96200 24.50500
C  -2.22900 35.89300 23.59400
C  -2.67800 35.60300 22.12900
C  -3.40400 34.21700 22.36400
C  -3.30600 34.00400 23.83800
C  -3.54200 36.70500 21.53900
C  -2.89500 32.96600 21.63000
C  -1.54300 32.35300 22.12000
N  -3.71200 33.51600 26.79400
C  -4.30600 32.74000 25.78400
C  -5.13300 31.69500 26.39100
C  -4.92500 31.93800 27.76000
C  -4.02400 32.98400 27.95100
C  -5.82800 30.65200 25.66100
C  -5.17100 31.38100 29.08800
O  -5.74300 30.36500 29.51000
C  -4.48200 32.37200 30.03400
C  -5.59300 33.02700 30.81300
O  -6.10300 34.10200 30.55600
O  -5.84200 32.29800 31.95100
C  -6.79500 32.93000 32.91200
H  -0.14100 37.71200 29.48800
H  -1.17400 37.57400 23.05800
H  -4.55100 32.24600 23.75600
H  -3.40700 35.13300 31.61500
H  -0.58500 35.82200 31.19900
H  -3.12100 37.27600 31.89900
H  -2.17400 38.13600 30.71300
H  -1.54300 37.73500 32.37700
H  -0.87000 33.93200 32.16300
H  -1.71700 32.68400 31.14900
H  -2.76900 31.84600 32.69300
H  -3.37400 33.45900 33.00600
H  1.17800 39.13800 28.55500
H  0.24900 40.46200 27.76300
H  1.84600 39.95700 27.22300
H  1.50600 41.21100 23.65000
H  2.49700 40.39000 24.80900
H  1.01700 41.20100 25.33000
H  -1.86600 35.55300 21.40300
H  -4.44100 34.34000 22.05300
H  -3.09200 37.10400 20.63000
H  -3.65600 37.45600 22.32100
H  -4.49700 36.26800 21.24800
H  -2.74900 33.32800 20.61200
H  -3.69000 32.22400 21.55800
H  -1.68400 31.27700 22.02000
H  -1.25200 32.62700 23.13400
H  -0.77300 32.68600 21.42400
H  -5.17900 30.14500 24.94700
H  -6.63500 31.16700 25.13800
H  -6.25200 29.93500 26.36300
H  -3.77300 31.80100 30.63400
H  -7.29900 32.17600 33.51700
H  -7.56900 33.49000 32.38600
H  -6.22200 33.54900 33.60200

