158

Mg 17.23500 -2.15500 27.58800
C  16.26300 0.13300 29.96600
C  19.53800 -3.51500 29.72100
C  18.51500 -3.94600 24.98400
C  15.46000 -0.17500 25.21400
N  17.79300 -1.74900 29.59600
C  17.16100 -0.83400 30.42500
C  17.58300 -0.97900 31.94600
C  18.69700 -2.09600 31.85400
C  18.73000 -2.49600 30.33800
C  20.12900 -1.71300 32.34000
C  16.35700 -1.41600 32.80800
C  16.24400 -0.66900 34.11800
H  17.52700 -0.32000 34.81800
N  18.71000 -3.65400 27.46100
C  19.57900 -4.07900 28.43200
C  20.32200 -5.15200 27.88900
C  19.93900 -5.37300 26.54900
C  19.00300 -4.30400 26.26300
C  21.46000 -5.91400 28.65800
C  20.33000 -6.52400 25.61500
O  19.92100 -6.55300 24.44300
C  21.29100 -7.71600 26.09000
N  17.15300 -1.92500 25.35600
C  17.75000 -2.85500 24.55000
C  17.29600 -2.59100 23.08900
C  16.24300 -1.43800 23.17700
C  16.23500 -1.14800 24.67500
C  18.47800 -2.34800 22.12900
C  14.78800 -1.79800 22.66800
C  14.34600 -1.27000 21.34500
N  16.07900 -0.36300 27.55900
C  15.40400 0.26400 26.56200
C  14.65600 1.39800 27.02800
C  14.98000 1.44500 28.36400
C  15.82900 0.33800 28.67600
C  13.66500 2.25400 26.19700
C  14.89100 2.09800 29.55600
O  14.35400 3.12500 29.81300
C  15.57000 1.32300 30.68800
C  16.44300 2.24700 31.44700
O  17.53500 2.68000 31.10900
O  15.75300 2.59200 32.59400
C  16.39800 3.50100 33.60200
H  20.21700 -4.07200 30.37100
H  18.87900 -4.57200 24.16700
H  14.95500 0.40600 24.43900
H  17.90100 0.05200 32.10300
H  18.42300 -2.95800 32.46200
H  20.12000 -0.68800 32.71100
H  20.79300 -1.61100 31.48200
H  20.59700 -2.42800 33.01600
H  16.41000 -2.48600 33.00700
H  15.38500 -1.21500 32.35800
H  15.58500 -1.16500 34.83100
H  15.66100 0.23000 33.91700
H  22.34400 -5.90300 28.02000
H  21.21200 -6.93400 28.94900
H  21.95200 -5.27600 29.39200
H  21.04600 -8.15000 27.06000
H  22.28100 -7.26100 26.13300
H  21.23500 -8.46900 25.30400
H  16.79300 -3.51100 22.79100
H  16.62300 -0.56100 22.65400
H  18.16400 -1.65800 21.34700
H  18.91800 -3.23600 21.67400
H  19.32600 -1.87300 22.62400
H  13.99600 -1.50700 23.35700
H  14.69200 -2.87200 22.50600
H  13.56400 -1.84700 20.85000
H  15.17600 -1.07900 20.66500
H  13.88500 -0.33400 21.65900
H  12.81100 1.66600 25.86300
H  14.09600 2.54900 25.24100
H  13.32800 3.12500 26.75900
H  14.85900 0.91500 31.40600
H  17.13700 4.15900 33.14500
H  16.81500 2.95700 34.44900
H  15.62600 4.17200 33.97800
Mg 8.77600 48.75400 26.23900
C  6.48800 48.32500 28.74000
C  11.04600 50.12000 28.53900
C  10.78800 49.46500 23.64600
C  6.12800 48.14900 23.92200
N  8.72300 49.14400 28.36500
C  7.76200 48.72400 29.17700
C  8.22000 49.04400 30.66200
C  9.49100 49.90400 30.60000
C  9.74100 49.82700 29.07500
C  9.39900 51.38400 31.01900
C  8.40600 47.75300 31.49100
C  9.18800 47.78800 32.83600
H  8.66600 47.08300 34.03800
N  10.72000 49.36800 26.21500
C  11.47000 49.95400 27.21600
C  12.70600 50.24400 26.68000
C  12.77700 49.91200 25.25200
C  11.34600 49.56000 25.01300
C  13.82400 50.87200 27.48200
C  14.00800 49.93500 24.23200
O  13.81800 49.52400 23.10600
C  15.34000 50.40300 24.57000
N  8.45500 48.97100 24.07400
C  9.53400 49.10900 23.23100
C  9.12700 48.79700 21.76900
C  7.72600 48.12900 21.95600
C  7.37600 48.46300 23.42100
C  9.17900 49.99800 20.78200
C  7.87400 46.54900 21.95000
C  8.20400 45.99000 20.52500
N  6.72700 48.29900 26.27500
C  5.73700 48.23300 25.30300
C  4.44900 47.95700 25.89500
C  4.71700 47.95900 27.27000
C  6.06400 48.21900 27.42800
C  3.28300 47.65900 25.08900
C  4.13900 47.76900 28.58400
O  3.04900 47.42000 28.92800
C  5.37000 47.85100 29.63100
C  5.49000 46.46000 29.99200
O  6.10300 45.64700 29.36600
O  4.76700 46.17800 31.16500
C  4.91400 44.82500 31.80300
H  11.79100 50.42400 29.27700
H  11.56600 49.76200 22.93900
H  5.42000 47.88500 23.13400
H  7.55800 49.62600 31.30400
H  10.32400 49.43700 31.12700
H  9.50600 52.08100 30.18800
H  10.18500 51.69600 31.70800
H  8.44000 51.51100 31.52100
H  8.83100 47.03300 30.79100
H  7.43200 47.27700 31.60100
H  9.23100 48.82900 33.15800
H  10.19500 47.51100 32.52500
H  14.80100 50.70600 27.02800
H  13.89700 50.59400 28.53300
H  13.63800 51.94600 27.48800
H  15.94100 49.77800 25.23200
H  15.28500 51.41500 24.97100
H  15.90700 50.34900 23.64100
H  9.93300 48.19100 21.35500
H  7.12800 48.56700 21.15700
H  9.49800 50.94700 21.21200
H  8.20600 50.20600 20.33800
H  9.91300 49.82100 19.99600
H  6.85300 46.23600 22.17100
H  8.59000 46.26900 22.72200
H  7.99800 46.77100 19.79300
H  7.62700 45.15600 20.12500
H  9.25100 45.77200 20.31600
H  3.05200 46.76300 24.51300
H  3.28900 48.44700 24.33500
H  2.44000 47.88600 25.74000
H  5.11900 48.56400 30.41600
H  4.02500 44.20400 31.69000
H  5.06100 44.92000 32.87900
H  5.71900 44.23800 31.36100

