158

Mg 1.00100 8.36100 26.40300
C  1.81500 10.22800 29.11700
C  1.19600 5.49900 28.46700
C  0.79400 6.49500 23.67400
C  1.37800 11.19600 24.35000
N  1.41900 7.93000 28.57000
C  1.51600 8.91100 29.44300
C  1.52600 8.36400 30.90400
C  1.56600 6.74800 30.68300
C  1.40500 6.71200 29.11200
C  2.82600 5.95800 31.21700
C  0.32800 8.95100 31.79500
C  -0.09700 8.28300 33.16800
H  1.07200 7.71300 33.97100
N  0.95500 6.25000 26.10700
C  1.09600 5.23600 27.06000
C  1.03400 3.99200 26.39100
C  0.79700 4.28400 24.95000
C  0.89200 5.75600 24.86600
C  0.96800 2.71900 27.13400
C  0.51600 3.33000 23.87100
O  -0.02600 3.69000 22.83200
C  0.72200 1.94300 24.04400
N  1.05200 8.85600 24.31900
C  0.77800 7.85500 23.44400
C  0.62300 8.39900 22.01100
C  0.46600 9.93200 22.31800
C  0.98900 10.06100 23.75900
C  1.76400 7.90500 21.09200
C  -0.95300 10.45900 22.15600
C  -1.33000 10.70600 20.69500
N  1.67000 10.29100 26.61100
C  1.82200 11.31300 25.69500
C  2.13300 12.51600 26.42500
C  2.21300 12.14100 27.74400
C  1.88800 10.77300 27.81400
C  2.46400 13.83400 25.81800
C  2.58800 12.54400 29.08900
O  2.89500 13.68200 29.49100
C  2.22500 11.33700 30.07000
C  3.45200 10.93600 30.79100
O  4.38400 10.23600 30.27500
O  3.51000 11.52200 32.02500
C  4.76600 11.49900 32.77000
H  1.17400 4.60300 29.09000
H  0.65400 5.85100 22.80400
H  1.37300 12.11300 23.75700
H  2.50600 8.63500 31.29700
H  0.64000 6.23800 30.94800
H  3.57500 6.53700 31.75700
H  3.28300 5.45300 30.36600
H  2.44200 5.24800 31.95000
H  -0.53000 8.93800 31.12200
H  0.59100 9.99100 31.99200
H  -0.86900 7.52600 33.03000
H  -0.56000 9.04700 33.79300
H  0.26300 2.01000 26.70000
H  0.74600 2.76800 28.20000
H  1.91500 2.18600 27.04300
H  1.66200 1.71700 24.54700
H  0.86500 1.56200 23.03300
H  -0.13100 1.40500 24.45900
H  -0.25100 8.00300 21.49500
H  1.13300 10.54300 21.71100
H  2.34300 7.09600 21.53800
H  2.51000 8.69700 21.16500
H  1.41400 7.76400 20.07000
H  -1.01700 11.30200 22.84500
H  -1.59200 9.70100 22.60800
H  -0.50300 10.44200 20.03500
H  -1.36500 11.79000 20.58400
H  -2.31300 10.38000 20.35500
H  1.48300 14.30700 25.84000
H  3.03100 13.81600 24.88700
H  3.06200 14.41400 26.52200
H  1.53800 11.76600 30.80000
H  5.05700 12.52700 32.98300
H  5.56500 10.83900 32.43200
H  4.51300 11.20900 33.79000
Mg -1.89100 33.88700 27.13800
C  -3.73000 31.90900 29.32600
C  -0.42700 35.52100 29.71800
C  -0.60100 36.22300 24.90100
C  -3.71400 32.55000 24.53500
N  -2.37900 33.98400 29.24300
C  -3.00300 32.95300 29.93400
C  -2.64800 33.01100 31.38600
C  -1.74700 34.29400 31.51400
C  -1.50800 34.69700 30.04800
C  -2.38800 35.36300 32.40700
C  -2.00100 31.67300 31.91200
C  -2.82800 31.00300 33.00700
H  -2.08300 30.83800 34.32400
N  -0.57200 35.55300 27.29800
C  -0.02700 36.06400 28.49900
C  0.97800 37.01200 28.14300
C  0.94000 37.26900 26.68200
C  -0.09800 36.31000 26.20500
C  1.70600 37.72200 29.19800
C  1.74100 38.18300 25.82700
O  1.46100 38.34900 24.65900
C  2.82600 39.02200 26.40700
N  -2.17200 34.32600 24.98600
C  -1.51300 35.29500 24.33200
C  -1.86500 35.24400 22.84200
C  -2.70600 33.99700 22.65800
C  -2.87600 33.56600 24.13600
C  -2.45100 36.58600 22.20100
C  -1.99300 32.91900 21.84400
C  -0.91800 32.07600 22.52000
N  -3.43600 32.51200 26.91500
C  -3.94400 31.95300 25.78200
C  -4.74300 30.76600 26.15400
C  -4.68600 30.72500 27.50800
C  -3.90900 31.79200 27.91600
C  -5.53800 29.88400 25.25700
C  -5.17300 29.97600 28.63400
O  -5.94800 28.99700 28.69300
C  -4.51600 30.71400 29.91300
C  -5.55300 31.06500 30.94900
O  -6.30600 32.02200 30.92700
O  -5.69300 30.06100 31.90700
C  -6.84400 29.98800 32.77000
H  0.20700 35.82100 30.55500
H  -0.30200 36.96500 24.15800
H  -4.27800 32.10300 23.71400
H  -3.58500 33.13900 31.92800
H  -0.72300 34.06900 31.81300
H  -3.11700 35.86200 31.76800
H  -1.65800 36.12600 32.67900
H  -2.87800 35.03000 33.32200
H  -1.04300 31.99300 32.32300
H  -1.66000 31.06200 31.07700
H  -3.00800 29.98500 32.66300
H  -3.73600 31.52400 33.31100
H  1.37600 38.75900 29.25300
H  2.76400 37.70500 28.93300
H  1.54100 37.37300 30.21700
H  2.54800 39.74000 27.17800
H  3.24300 39.67900 25.64400
H  3.52500 38.33300 26.88300
H  -0.91600 35.18200 22.30900
H  -3.68500 34.24300 22.24600
H  -2.44700 37.37500 22.95300
H  -3.50800 36.52800 21.94100
H  -1.80000 36.74700 21.34200
H  -1.49100 33.38000 20.99300
H  -2.78200 32.29200 21.43000
H  0.08100 32.35700 22.18500
H  -1.19900 31.04500 22.30500
H  -0.92200 32.25800 23.59500
H  -5.12800 28.87600 25.32200
H  -5.56200 30.27100 24.23800
H  -6.59700 29.72500 25.46100
H  -3.79200 30.02600 30.34800
H  -6.78500 29.03000 33.28800
H  -7.79600 30.07600 32.24800
H  -6.86300 30.81600 33.47800

