158

Mg 25.41200 50.04200 26.18500
C  23.34700 51.22800 28.81400
C  27.70000 49.37200 28.57400
C  27.61100 49.41300 23.76700
C  23.23100 51.26700 23.93400
N  25.38800 50.06100 28.52300
C  24.48300 50.70200 29.36400
C  24.82600 50.39100 30.82000
C  26.33300 50.09600 30.68500
C  26.53300 49.79200 29.18200
C  27.38400 51.18300 31.21400
C  23.97100 49.24100 31.35300
C  23.61900 49.31700 32.92600
H  24.37300 50.24500 33.84400
N  27.39300 49.37900 26.22000
C  28.14100 49.21100 27.30300
C  29.44900 48.74400 26.93800
C  29.47000 48.71200 25.51300
C  28.13800 49.10400 25.07700
C  30.58700 48.35700 27.88900
C  30.60500 48.43000 24.53900
O  30.54400 48.68700 23.32200
C  31.94900 47.91700 25.03500
N  25.40900 50.27400 24.15500
C  26.44500 49.94700 23.34400
C  25.99600 50.01500 21.85300
C  24.54300 50.52300 21.85000
C  24.36900 50.70200 23.40900
C  26.98200 50.63400 20.83300
C  23.50100 49.53000 21.31100
C  22.22400 50.10900 20.76800
N  23.65500 51.07600 26.32000
C  22.88000 51.55100 25.32000
C  21.69800 52.25800 25.84900
C  21.86700 52.11600 27.21500
C  23.07000 51.46700 27.43300
C  20.65800 52.93400 25.03800
C  21.32400 52.41800 28.50300
O  20.27100 53.02400 28.82000
C  22.21600 51.85800 29.60200
C  22.60300 53.02200 30.43900
O  23.15500 53.98400 30.03800
O  22.06600 52.88500 31.71500
C  22.43600 54.00600 32.61000
H  28.51900 49.22300 29.28100
H  28.22000 49.22300 22.88100
H  22.45500 51.55600 23.22100
H  24.67500 51.34400 31.32500
H  26.60400 49.16500 31.18100
H  26.88300 52.14400 31.32100
H  28.15000 51.39800 30.47000
H  27.83300 50.98800 32.18800
H  24.47900 48.32400 31.05400
H  23.00800 49.21300 30.84400
H  23.67500 48.28800 33.28000
H  22.56400 49.59100 32.92500
H  30.47500 48.78800 28.88400
H  31.58400 48.61100 27.52800
H  30.61000 47.27000 27.96500
H  32.46300 47.52700 24.15600
H  31.80800 47.04600 25.67600
H  32.48200 48.73300 25.52200
H  25.97000 48.98900 21.48600
H  24.39800 51.44400 21.28500
H  27.89900 50.87300 21.37100
H  26.51500 51.56600 20.51500
H  27.19100 49.90500 20.05100
H  23.22400 48.76600 22.03800
H  23.99100 48.97900 20.50900
H  21.50900 50.09300 21.59100
H  21.94700 49.66000 19.81500
H  22.34800 51.18400 20.63000
H  20.34400 52.53900 24.07200
H  21.06400 53.94200 24.95600
H  19.77800 53.02900 25.67400
H  21.60600 51.10800 30.10600
H  21.65500 54.75900 32.50300
H  23.41800 54.45100 32.44700
H  22.39100 53.71700 33.66000
Mg -4.94000 25.57100 25.81300
C  -3.21900 27.11700 28.46100
C  -5.93000 23.10600 28.24900
C  -6.40800 23.90000 23.31800
C  -3.36300 27.58400 23.56400
N  -4.61600 25.22400 28.02300
C  -4.00600 26.07700 28.86400
C  -4.41900 25.68700 30.32700
C  -4.74100 24.15100 30.14900
C  -5.07500 24.15700 28.74300
C  -3.57100 23.15600 30.63200
C  -5.55500 26.66700 30.84000
C  -5.37600 26.97500 32.34200
H  -4.85200 25.88000 33.29300
N  -6.17600 23.92000 25.86100
C  -6.45500 23.03500 26.90700
C  -7.40900 22.06000 26.36900
C  -7.68900 22.38000 24.95400
C  -6.70800 23.41900 24.61400
C  -8.12400 21.07500 27.23100
C  -8.69700 21.63700 23.99000
O  -8.76500 21.89700 22.80000
C  -9.50600 20.49300 24.48900
N  -4.64700 25.54500 23.72400
C  -5.45400 24.82600 22.93800
C  -5.21400 25.09900 21.44700
C  -4.36300 26.38100 21.58700
C  -4.01800 26.47800 23.01600
C  -4.70000 23.88800 20.43900
C  -5.00700 27.64500 20.87400
C  -4.00900 28.44900 20.02500
N  -3.60500 27.07200 25.93500
C  -3.16500 27.87800 24.91000
C  -2.37400 28.98700 25.54500
C  -2.33400 28.72300 26.91700
C  -3.06500 27.50500 27.07600
C  -1.62900 30.01900 24.78500
C  -1.89700 29.14500 28.23600
O  -1.23800 30.07500 28.60100
C  -2.56600 28.15800 29.26400
C  -1.44500 27.76400 30.15300
O  -0.28200 27.62100 29.82000
O  -1.94700 27.82000 31.42200
C  -1.07000 27.68900 32.59000
H  -6.29000 22.37400 28.97400
H  -7.11400 23.39100 22.65900
H  -2.90700 28.10500 22.72000
H  -3.49400 25.80800 30.89200
H  -5.62900 23.97400 30.75600
H  -2.60300 23.65700 30.64800
H  -3.56900 22.36600 29.88100
H  -3.83100 22.74400 31.60700
H  -6.50600 26.15200 30.70400
H  -5.55200 27.62900 30.32700
H  -6.40300 27.19200 32.63700
H  -4.78500 27.88800 32.40500
H  -9.19800 21.11300 27.05100
H  -8.08200 21.37500 28.27800
H  -7.76100 20.06700 27.03100
H  -10.33000 20.62300 25.19100
H  -8.71500 19.83800 24.85500
H  -9.83900 19.86300 23.66400
H  -6.19700 25.38300 21.07200
H  -3.40300 26.27700 21.08000
H  -5.45400 23.68900 19.67700
H  -4.39400 23.04300 21.05600
H  -3.81300 24.21700 19.89700
H  -5.37700 28.30800 21.65600
H  -5.87800 27.38900 20.27000
H  -3.91000 29.43200 20.48300
H  -4.22600 28.55600 18.96200
H  -2.97700 28.09900 19.98000
H  -2.19800 30.28000 23.89200
H  -0.61800 29.65300 24.60600
H  -1.51000 30.92800 25.37400
H  -3.21400 28.81200 29.84800
H  0.01900 27.65700 32.57300
H  -1.38500 26.87700 33.24400
H  -1.21700 28.65700 33.06900

