158

Mg 24.13400 -4.90200 45.97800
C  26.17500 -2.49300 44.39700
C  21.63800 -4.02100 43.85700
C  22.56200 -7.72900 46.92700
C  27.06800 -5.92000 47.74600
N  23.96000 -3.35800 44.42100
C  24.86400 -2.46100 43.91200
C  24.32400 -1.56500 42.81900
C  22.78100 -1.95000 42.88200
C  22.76200 -3.17300 43.78400
C  21.71800 -0.89700 43.30300
C  24.92100 -1.91300 41.38200
C  25.56000 -0.73900 40.53200
H  26.02200 -1.05200 39.07500
N  22.33200 -5.71700 45.45100
C  21.48200 -5.25500 44.52800
C  20.35800 -6.20400 44.47000
C  20.53800 -7.29200 45.41800
C  21.84000 -6.91000 46.01800
C  19.13000 -5.93100 43.55800
C  19.63100 -8.43300 45.76800
O  18.57800 -8.58300 45.15300
C  19.76100 -9.40700 46.94600
N  24.75200 -6.55400 47.18200
C  23.89300 -7.61100 47.39200
C  24.62400 -8.80200 48.06400
C  25.98500 -8.11400 48.42800
C  25.97400 -6.79900 47.69000
C  23.87500 -9.49400 49.20800
C  27.17700 -8.99300 48.21800
C  28.24000 -9.03200 49.31200
N  26.13300 -4.24600 46.26900
C  27.16100 -4.76600 47.04600
C  28.30800 -3.93600 46.85400
C  28.01000 -3.04400 45.82900
C  26.63500 -3.29400 45.50500
C  29.65000 -4.16600 47.53500
C  28.55300 -1.98400 44.95300
O  29.71100 -1.56500 44.90700
C  27.43600 -1.61500 44.00400
C  27.19200 -0.25600 44.17600
O  27.33800 0.57800 43.33000
O  26.80400 -0.03900 45.49700
C  26.41900 1.39100 45.83300
H  20.82500 -3.66700 43.22100
H  22.14500 -8.72500 47.09000
H  27.99000 -6.25500 48.22500
H  24.57700 -0.51500 42.97000
H  22.41600 -2.40600 41.96200
H  21.22700 -1.15100 44.24200
H  20.92700 -0.92700 42.55300
H  22.10200 0.12300 43.31800
H  24.16300 -2.50100 40.86400
H  25.78200 -2.56900 41.50800
H  26.46700 -0.31400 40.96100
H  24.77100 0.01000 40.47300
H  19.38400 -5.79400 42.50700
H  18.63400 -5.11000 44.07500
H  18.45600 -6.78600 43.59900
H  20.54800 -10.13900 46.76400
H  18.79200 -9.86300 47.14800
H  20.02600 -8.72700 47.75500
H  24.91300 -9.47700 47.25800
H  25.92200 -7.90100 49.49500
H  23.35000 -10.41500 48.95300
H  23.25800 -8.68000 49.58800
H  24.60300 -9.79700 49.96100
H  27.64800 -8.65600 47.29400
H  26.88400 -10.02100 48.00500
H  28.71400 -10.01400 49.30100
H  27.68500 -8.78500 50.21700
H  29.12100 -8.39400 49.24400
H  30.15800 -4.97500 47.01000
H  29.40700 -4.48800 48.54800
H  30.29300 -3.28900 47.45900
H  27.84300 -1.83700 43.01700
H  25.34900 1.50600 46.00800
H  26.72300 2.20200 45.17200
H  26.95800 1.49800 46.77500
Mg 49.33700 45.35800 42.38200
C  46.04400 46.31200 41.36700
C  48.87800 42.40200 40.79700
C  52.66400 44.93600 42.41600
C  49.83700 48.67000 43.38500
N  47.58400 44.45900 41.25900
C  46.38500 45.05500 40.93700
C  45.53800 44.04600 40.18800
C  46.38900 42.64300 40.30500
C  47.73300 43.20300 40.81600
C  45.60600 41.57800 41.28400
C  45.13500 44.46000 38.68700
C  43.94400 43.73400 38.06100
H  44.23600 42.65500 37.04400
N  50.59000 43.72700 41.93700
C  50.21100 42.64000 41.23600
C  51.34200 41.76100 41.19400
C  52.41300 42.34200 41.87500
C  51.93400 43.75500 42.08200
C  51.32400 40.39300 40.44300
C  53.83700 41.91100 42.14200
O  54.15800 40.81400 41.75600
C  54.91500 42.64700 42.86000
N  50.96800 46.66800 42.70700
C  52.22700 46.22700 42.67400
C  53.28900 47.32000 42.91900
C  52.43500 48.41200 43.63000
C  50.98700 47.96600 43.26300
C  54.51300 46.93200 43.86300
C  52.81900 49.86600 43.23100
C  53.87600 50.52400 44.15000
N  48.18200 47.08100 42.52100
C  48.54800 48.35700 42.95300
C  47.39800 49.17500 42.90200
C  46.38100 48.44200 42.30200
C  46.89100 47.16300 42.03100
C  47.42200 50.62800 43.33900
C  44.93900 48.40800 41.87200
O  44.00500 49.23700 41.89800
C  44.79800 47.10400 41.09700
C  43.55400 46.46800 41.33500
O  42.66800 46.30400 40.55300
O  43.56600 45.90800 42.60700
C  42.45500 44.93900 42.85700
H  48.71700 41.46700 40.25600
H  53.73500 44.72700 42.38000
H  50.00500 49.67700 43.77300
H  44.63200 43.85000 40.76200
H  46.44600 42.26700 39.28300
H  46.29000 41.36100 42.10400
H  45.41100 40.65900 40.73100
H  44.66900 41.91300 41.73100
H  46.06100 44.19500 38.17700
H  45.12300 45.54500 38.59200
H  43.30200 44.50100 37.62600
H  43.34300 43.38100 38.89900
H  52.23700 39.79700 40.42500
H  50.92100 40.52400 39.43900
H  50.69600 39.98500 41.23500
H  55.36000 43.36100 42.16600
H  55.61800 41.96100 43.33000
H  54.52600 43.06000 43.79100
H  53.69500 47.64300 41.96000
H  52.50900 48.28000 44.71000
H  54.46800 45.92300 44.27500
H  54.73100 47.55700 44.72900
H  55.39800 46.80200 43.24000
H  52.01700 50.60100 43.16600
H  53.34000 49.85900 42.27400
H  54.16400 49.88600 44.98500
H  53.52000 51.45100 44.60100
H  54.75700 50.76500 43.55500
H  47.70200 51.45000 42.68100
H  48.01000 50.73500 44.25000
H  46.45900 51.03700 43.64400
H  44.76900 47.41000 40.05200
H  42.58400 43.98000 42.35600
H  41.46200 45.20000 42.48900
H  42.41900 44.81600 43.94000

