158

Mg 17.04300 52.47900 26.28900
C  18.97000 51.11500 28.82900
C  14.77900 53.50100 28.73000
C  14.93400 53.40700 23.84500
C  19.39000 51.54400 23.95200
N  16.97800 52.34700 28.57000
C  17.85900 51.81000 29.35200
C  17.65300 52.14400 30.75800
C  16.12300 52.60400 30.72600
C  15.96500 52.93000 29.28300
C  15.05100 51.56000 31.21500
C  18.66200 53.16500 31.40400
C  18.74200 53.16800 32.90600
H  17.74100 52.24400 33.66900
N  15.17400 53.36400 26.26300
C  14.44300 53.78600 27.37300
C  13.18900 54.31500 26.90900
C  13.26900 54.33400 25.48900
C  14.46700 53.64600 25.14900
C  12.03700 54.79900 27.79400
C  12.32600 54.92000 24.38400
O  12.44200 54.86500 23.14200
C  11.19300 55.90800 24.75700
N  17.18900 52.39400 24.25300
C  16.12600 52.76700 23.43300
C  16.48700 52.62200 21.94100
C  17.93900 52.08200 22.01000
C  18.21300 52.08000 23.47600
C  15.46200 51.79200 21.28500
C  19.00900 52.93000 21.23600
C  19.58600 54.15600 21.90800
N  18.85800 51.64900 26.31300
C  19.69000 51.25200 25.27900
C  20.73400 50.45600 25.77200
C  20.54600 50.35000 27.13800
C  19.42100 51.17100 27.46700
C  21.69900 49.67500 24.95900
C  21.02600 49.78300 28.34600
O  22.01100 49.11700 28.59500
C  20.11300 50.35700 29.51400
C  19.74700 49.32600 30.53800
O  18.76500 48.57100 30.46400
O  20.52600 49.52200 31.62800
C  20.41900 48.47900 32.65400
H  14.09400 53.92400 29.46800
H  14.30100 53.67500 22.99700
H  20.08600 51.15800 23.20400
H  17.71200 51.25200 31.38200
H  15.97100 53.53700 31.26900
H  14.66700 50.90400 30.43300
H  14.24900 52.06500 31.75400
H  15.54400 50.90800 31.93600
H  18.20300 54.09700 31.07600
H  19.68600 53.09200 31.03800
H  18.80700 54.22400 33.16800
H  19.69700 52.69600 33.13400
H  12.17900 54.44300 28.81500
H  11.14900 54.32100 27.38000
H  11.93900 55.88400 27.82300
H  10.77200 56.40800 23.88400
H  11.41000 56.69400 25.48100
H  10.47300 55.27800 25.27700
H  16.45800 53.59800 21.45700
H  18.00800 51.04900 21.66900
H  14.78600 52.46100 20.75200
H  14.81100 51.24800 21.97000
H  15.87900 51.09500 20.55800
H  18.55300 53.28500 20.31100
H  19.80200 52.27400 20.87800
H  20.65700 53.97000 21.98800
H  19.23900 54.32800 22.92600
H  19.36200 55.09700 21.40600
H  21.27600 49.31200 24.02200
H  22.00500 48.79000 25.51600
H  22.62900 50.22600 24.82500
H  20.63700 51.20700 29.95000
H  20.07600 47.51400 32.28100
H  19.75200 48.84800 33.43300
H  21.38200 48.38800 33.15600
Mg -12.22700 16.75200 41.21800
C  -9.12400 14.99600 41.22300
C  -10.51400 19.66700 40.56700
C  -15.13700 18.09900 40.82700
C  -13.74300 13.56800 41.78700
N  -10.01800 17.19900 40.78300
C  -8.92800 16.35300 40.90400
C  -7.65000 17.13800 40.60500
C  -8.10700 18.68600 40.54700
C  -9.64100 18.53500 40.62900
C  -7.53800 19.43500 41.73400
C  -6.84500 16.59000 39.32600
C  -5.33700 16.94600 39.20600
H  -4.95000 17.57800 37.82900
N  -12.81000 18.69500 40.66500
C  -11.95400 19.83000 40.52400
C  -12.80500 20.93600 40.12200
C  -14.15300 20.44000 40.02000
C  -14.10300 19.02900 40.51300
C  -12.14500 22.29700 39.69600
C  -15.28800 21.20200 39.50200
O  -15.20200 22.38300 39.33600
C  -16.58600 20.49300 39.23000
N  -14.15100 15.96100 41.36100
C  -15.23200 16.79700 41.27700
C  -16.58000 16.04400 41.41500
C  -16.10700 14.61600 41.58900
C  -14.57800 14.69100 41.53800
C  -17.49500 16.78900 42.46300
C  -16.56400 13.52800 40.55200
C  -17.21900 12.30900 41.11600
N  -11.63700 14.63700 41.58000
C  -12.37700 13.48800 41.77300
C  -11.46100 12.37800 41.98600
C  -10.16700 12.95300 41.68300
C  -10.32600 14.31200 41.46500
C  -11.79500 11.04100 42.39500
C  -8.78100 12.62800 41.60100
O  -8.19700 11.54800 41.64900
C  -8.02200 13.95800 41.20200
C  -6.98600 14.26000 42.27100
O  -7.11800 13.98700 43.44700
O  -5.80300 14.82300 41.80900
C  -4.87000 15.26600 42.90000
H  -10.01800 20.63700 40.49100
H  -16.14700 18.50900 40.75800
H  -14.17700 12.59100 42.00900
H  -6.87500 17.01200 41.36200
H  -7.71700 19.16300 39.64800
H  -7.01800 20.35100 41.45400
H  -6.96500 18.79600 42.40600
H  -8.41100 19.71700 42.32500
H  -7.22400 17.06800 38.42300
H  -6.84300 15.51600 39.14000
H  -4.72700 16.07100 39.43100
H  -5.10200 17.66800 39.98800
H  -12.72500 22.76900 38.90300
H  -11.15000 22.10000 39.29700
H  -12.10900 22.95600 40.56400
H  -16.34900 19.48600 38.88700
H  -17.04400 20.96700 38.36200
H  -17.08000 20.44700 40.20100
H  -17.04000 16.12900 40.43000
H  -16.32700 14.32400 42.61600
H  -18.50200 16.91000 42.06300
H  -17.05000 17.74500 42.73700
H  -17.63300 16.12500 43.31700
H  -15.65100 13.19500 40.05700
H  -17.14900 13.95300 39.73600
H  -16.83400 12.18000 42.12700
H  -16.96000 11.40000 40.57300
H  -18.30500 12.39500 41.13200
H  -11.85100 10.43400 41.49100
H  -12.74700 10.86300 42.89600
H  -11.03600 10.55300 43.00600
H  -7.61300 13.78600 40.20700
H  -3.83400 15.48000 42.63800
H  -4.83900 14.57400 43.74200
H  -5.38300 16.11100 43.35900

