158

Mg 8.27500 2.37600 28.08100
C  9.68300 1.03500 30.90200
C  6.58400 4.61500 30.09700
C  6.46800 3.34600 25.31100
C  9.69100 -0.19700 26.14300
N  8.01000 2.65500 30.22900
C  8.92600 2.13500 31.13100
C  8.78000 2.78900 32.52300
C  7.62900 3.78700 32.26100
C  7.38000 3.67200 30.72600
C  6.31200 3.51000 33.05500
C  10.09600 3.41900 33.01600
C  10.57000 3.00500 34.45800
H  10.76900 4.11700 35.57900
N  6.66700 3.74600 27.76300
C  6.16600 4.59000 28.73600
C  5.14600 5.38900 28.15200
C  5.08200 5.06500 26.72400
C  6.09600 4.00100 26.52000
C  4.23600 6.26800 28.96800
C  4.07400 5.64800 25.63700
O  4.14100 5.24900 24.50600
C  3.01200 6.63000 25.97800
N  8.19200 1.74500 26.03500
C  7.42400 2.27500 25.08900
C  7.65100 1.72500 23.71000
C  8.80500 0.70400 24.01400
C  8.92300 0.76300 25.50000
C  6.51200 1.10400 22.99600
C  10.21200 1.02700 23.20000
C  10.82500 -0.00000 22.23400
N  9.45900 0.76900 28.35200
C  9.99100 -0.18800 27.51100
C  10.81700 -1.13400 28.28000
C  10.66000 -0.71300 29.64700
C  9.88200 0.51200 29.61200
C  11.66000 -2.25000 27.79800
C  11.02800 -1.01000 31.01100
O  11.78700 -1.92200 31.42800
C  10.41100 0.15700 31.87000
C  9.54500 -0.42200 32.99500
O  8.33400 -0.46300 32.97700
O  10.40900 -0.76700 34.06700
C  9.75800 -1.04200 35.28000
H  6.11100 5.22500 30.87000
H  5.81200 3.50300 24.45200
H  9.99000 -0.98900 25.45300
H  8.45000 2.07400 33.27700
H  7.83400 4.82000 32.54200
H  5.38000 3.72900 32.53300
H  6.32900 4.08100 33.98300
H  6.30700 2.44100 33.26600
H  10.02200 4.50200 32.91000
H  10.96400 3.12100 32.42800
H  11.60200 2.68000 34.33100
H  10.12800 2.08500 34.84100
H  3.25400 5.81300 28.83900
H  4.18000 7.25000 28.49700
H  4.46900 6.32000 30.03100
H  3.46600 7.45100 26.53200
H  2.31000 6.12600 26.64300
H  2.65400 7.14200 25.08500
H  8.00600 2.49400 23.02400
H  8.37400 -0.28900 23.89000
H  5.65300 1.25200 23.65100
H  6.64700 0.04800 22.76300
H  6.46700 1.62700 22.04100
H  10.93800 1.30700 23.96300
H  10.11000 1.92800 22.59600
H  11.90300 -0.04600 22.38600
H  10.57000 0.31700 21.22300
H  10.34300 -0.96000 22.42100
H  11.87500 -2.12400 26.73700
H  11.16800 -3.20700 27.97200
H  12.59100 -2.23300 28.36500
H  11.20500 0.78600 32.27400
H  8.99600 -1.79700 35.08500
H  9.36400 -0.08100 35.61200
H  10.44600 -1.43200 36.03000
Mg 42.84900 41.85200 26.11400
C  41.96000 44.16900 28.52300
C  44.05800 39.68400 28.48300
C  43.83300 39.78800 23.66800
C  42.23500 44.37200 23.61600
N  42.93300 41.96200 28.26600
C  42.52400 42.96500 29.10600
C  42.53300 42.42000 30.57500
C  43.56100 41.26800 30.45600
C  43.55700 40.89600 28.96800
C  44.97000 41.49400 30.96100
C  41.09900 41.89100 30.99000
C  40.92800 41.68700 32.52400
H  40.07800 42.65400 33.32100
N  43.55500 39.88100 26.10300
C  44.04300 39.16300 27.11100
C  44.43600 37.86800 26.62400
C  43.93700 37.75300 25.28600
C  43.73800 39.19400 24.90600
C  44.99800 36.89400 27.59800
C  43.71300 36.52800 24.44300
O  43.36800 36.50300 23.29300
C  43.79500 35.25800 25.10100
N  43.16800 42.09100 23.94800
C  43.64200 41.05500 23.17200
C  43.89500 41.55800 21.74400
C  43.22200 42.88100 21.75100
C  42.86500 43.17300 23.18300
C  45.36600 41.68800 21.38900
C  41.90800 43.03100 20.79700
C  40.61500 42.51100 21.40300
N  42.31400 43.95900 26.01800
C  42.02600 44.79000 24.98400
C  41.53300 46.03300 25.55200
C  41.47200 45.83600 26.89700
C  41.98300 44.54700 27.12500
C  41.20400 47.24400 24.82900
C  41.04300 46.38500 28.13400
O  40.45200 47.37100 28.35400
C  41.24900 45.25500 29.29500
C  42.02500 45.92900 30.37100
O  43.23500 46.06800 30.43100
O  41.15700 46.41600 31.30500
C  41.60200 47.35600 32.32800
H  44.47000 38.96500 29.19400
H  44.11300 39.12500 22.84600
H  41.81800 44.99500 22.82200
H  42.83500 43.21900 31.25100
H  43.20500 40.41200 31.02800
H  45.06500 42.42600 31.51900
H  45.65100 41.51800 30.11100
H  45.23900 40.73300 31.69400
H  40.97000 40.89300 30.57100
H  40.22900 42.45100 30.64700
H  41.93200 41.64100 32.94600
H  40.54000 40.67900 32.67100
H  45.57400 36.12000 27.09300
H  44.11100 36.42600 28.02600
H  45.56200 37.34900 28.41200
H  44.78500 34.87600 25.35100
H  43.24600 34.55900 24.47000
H  43.08700 35.33000 25.92600
H  43.48100 40.74700 21.14500
H  43.83500 43.71000 21.39800
H  45.51600 41.37800 20.35500
H  45.90800 40.96200 21.99400
H  45.79900 42.67500 21.55700
H  42.07300 42.43400 19.89900
H  41.75300 44.05000 20.44200
H  40.08800 43.43600 21.63700
H  40.65600 41.81400 22.24000
H  39.91300 42.02300 20.72600
H  40.93800 48.06300 25.49700
H  40.47800 47.11300 24.02600
H  42.09800 47.67400 24.37800
H  40.36500 44.78100 29.72100
H  41.71600 46.77100 33.24000
H  40.80500 48.09100 32.44600
H  42.65800 47.61000 32.24200

