158

Mg 1.04200 7.69600 25.88500
C  1.84600 9.98600 28.52600
C  1.26300 5.14200 28.11800
C  0.21700 5.67700 23.41000
C  1.44500 10.39300 23.72700
N  1.34600 7.66300 28.11700
C  1.67900 8.64400 29.02900
C  1.75700 8.11800 30.46300
C  1.66300 6.57800 30.28100
C  1.39900 6.40400 28.73700
C  3.03500 5.87200 30.56200
C  0.65300 8.78800 31.31800
C  0.86300 8.70400 32.84400
H  2.12300 8.00800 33.39000
N  0.82300 5.65600 25.79800
C  0.84600 4.80000 26.84400
C  0.56500 3.46500 26.38800
C  0.29900 3.60200 24.94900
C  0.40500 5.05300 24.65400
C  0.68200 2.20700 27.33100
C  -0.08700 2.52700 23.93100
O  0.02100 2.64700 22.70300
C  -0.38500 1.21400 24.42300
N  1.07300 7.96500 23.80400
C  0.47900 7.02200 23.06900
C  0.47000 7.46300 21.54700
C  0.81300 8.99600 21.68600
C  1.04800 9.17100 23.16800
C  1.38500 6.56100 20.65000
C  -0.31400 9.97300 21.10700
C  -1.67500 9.97300 21.77900
N  1.43400 9.85500 26.04000
C  1.59300 10.75000 25.06000
C  1.82400 12.05100 25.63300
C  2.02300 11.79000 26.97100
C  1.73900 10.41400 27.19800
C  2.04500 13.35900 24.89100
C  2.39500 12.42200 28.22600
O  2.79200 13.54800 28.55700
C  2.24300 11.25000 29.29800
C  3.58400 10.99500 29.93600
O  4.52900 10.48700 29.38300
O  3.58400 11.40700 31.21700
C  4.87500 11.33800 31.96700
H  1.41500 4.30500 28.80300
H  -0.08700 5.06700 22.55700
H  1.55100 11.18900 22.98700
H  2.69800 8.34600 30.96300
H  0.80000 6.20600 30.83300
H  3.50300 5.51600 29.64400
H  2.95100 4.95900 31.15300
H  3.72400 6.46600 31.16200
H  -0.32300 8.34600 31.11500
H  0.41100 9.80800 31.01900
H  0.02000 8.12200 33.21400
H  0.67400 9.71200 33.21400
H  -0.33400 1.91900 27.60300
H  1.06200 2.38400 28.33700
H  1.28700 1.42400 26.87400
H  0.49300 0.69200 24.80300
H  -0.93300 0.58300 23.72200
H  -1.10100 1.40000 25.22300
H  -0.55100 7.33100 21.19000
H  1.75900 9.28800 21.23100
H  1.73500 5.67600 21.18200
H  2.26500 7.13900 20.36600
H  0.81500 6.21600 19.78800
H  -0.52500 9.71600 20.06800
H  -0.04500 11.02900 21.13500
H  -1.69300 10.75100 22.54200
H  -1.75900 9.04900 22.35100
H  -2.45700 9.97900 21.01900
H  2.42500 13.44400 23.87200
H  2.70600 13.95600 25.52000
H  1.05700 13.82000 24.90100
H  1.45800 11.54100 29.99600
H  4.78700 12.10600 32.73500
H  5.64900 11.66100 31.27100
H  5.10800 10.33200 32.31700
Mg 53.67400 23.30400 45.77000
C  51.41500 25.87800 44.93200
C  51.52000 21.02200 44.41700
C  56.15600 21.06300 45.86600
C  55.79800 25.82800 47.01800
N  51.79200 23.50600 44.60900
C  50.94600 24.61100 44.51600
C  49.69200 24.27700 43.65900
C  49.64900 22.75100 43.93300
C  51.03900 22.34800 44.40800
C  48.37500 22.28500 44.74500
C  49.98400 24.61400 42.12800
C  48.74800 24.99300 41.24200
H  48.35400 23.90200 40.18400
N  53.83000 21.23400 45.30800
C  52.76900 20.51800 44.68700
C  53.19800 19.22200 44.45800
C  54.60000 19.09700 44.88500
C  54.92800 20.48000 45.37400
C  52.26700 18.11400 43.79600
C  55.39900 17.80700 44.83600
O  54.95900 16.74800 44.49600
C  56.76900 17.79300 45.46500
N  55.69600 23.43600 46.11600
C  56.49200 22.39200 46.22300
C  57.81400 22.74800 46.93600
C  57.82400 24.28400 47.19300
C  56.34300 24.52200 46.78400
C  58.05600 22.02400 48.24700
C  58.96000 25.00100 46.44600
C  59.48500 26.27600 47.18000
N  53.58300 25.43100 46.12100
C  54.56300 26.31000 46.62100
C  54.04200 27.60200 46.66400
C  52.72800 27.52300 46.08300
C  52.51200 26.17800 45.69100
C  54.75600 28.85800 47.04500
C  51.58000 28.27500 45.61200
O  51.32400 29.49500 45.60700
C  50.68800 27.22200 44.90100
C  50.55700 27.72500 43.49900
O  51.50000 27.93300 42.73500
O  49.27600 28.15300 43.30400
C  48.89400 28.65200 42.00800
H  50.67300 20.44800 44.03400
H  57.02700 20.40800 45.93000
H  56.41500 26.56200 47.54000
H  48.91000 24.90500 44.08500
H  49.62100 22.18800 43.00000
H  48.69400 21.83600 45.68600
H  47.89600 21.45500 44.22600
H  47.68800 23.10000 44.97400
H  50.33600 23.65900 41.73700
H  50.78100 25.35400 42.04600
H  49.01500 25.87000 40.65200
H  47.84100 25.08600 41.83900
H  51.43400 18.59500 43.28400
H  51.81000 17.43700 44.51700
H  52.91600 17.63200 43.06400
H  57.40200 18.59100 45.07600
H  57.19600 16.81600 45.23900
H  56.78700 18.01900 46.53100
H  58.58300 22.50100 46.20400
H  57.95000 24.48300 48.25800
H  58.27000 22.64600 49.11600
H  58.97900 21.44500 48.20900
H  57.19800 21.41800 48.54000
H  58.55300 25.27200 45.47200
H  59.84900 24.38300 46.32100
H  58.95000 27.11500 46.73500
H  60.50200 26.38000 46.80000
H  59.40000 26.26500 48.26700
H  54.24000 29.72100 46.62300
H  55.77500 28.83500 46.65700
H  54.81500 29.01600 48.12200
H  49.76800 27.17600 45.48400
H  48.50200 29.66300 42.12100
H  48.03600 28.07000 41.67300
H  49.70000 28.75100 41.28100

