158

Mg 25.24800 0.69300 30.05000
C  27.27000 0.82100 32.97000
C  22.47300 1.19100 31.99300
C  23.41500 0.78100 27.24400
C  28.11600 0.56200 28.12900
N  24.92900 0.69200 32.22800
C  25.85300 0.86100 33.19600
C  25.21100 1.09100 34.53600
C  23.70700 0.91700 34.19600
C  23.66800 0.85500 32.70000
C  22.97100 -0.22600 34.99900
C  25.49800 2.53900 35.08300
C  26.12300 2.63700 36.51500
H  25.43600 3.58200 37.61200
N  23.22100 0.84500 29.69900
C  22.24900 1.06800 30.60900
C  20.97900 1.15100 29.92000
C  21.23900 0.76800 28.53000
C  22.68300 0.80200 28.44500
C  19.67100 1.45800 30.64300
C  20.36000 0.50800 27.31500
O  20.73300 0.08200 26.23900
C  18.93900 0.67000 27.54100
N  25.65300 0.41900 28.04200
C  24.73500 0.52300 27.00100
C  25.34400 0.69800 25.64900
C  26.84100 0.56500 25.95100
C  26.86400 0.63100 27.48400
C  24.84200 -0.23900 24.49500
C  27.67800 1.71100 25.21800
C  28.04000 2.95800 25.90800
N  27.28100 0.45400 30.40400
C  28.31400 0.51300 29.56000
C  29.55600 0.51000 30.26600
C  29.25700 0.54900 31.60400
C  27.82600 0.60300 31.63200
C  30.97900 0.60100 29.73400
C  29.68800 0.79600 32.99100
O  30.80900 1.04300 33.38800
C  28.44000 0.96300 33.86900
C  28.44300 -0.09400 34.98100
O  28.40100 -1.31100 34.86500
O  28.68600 0.55500 36.14500
C  28.75500 -0.39200 37.28700
H  21.61000 1.47500 32.59800
H  22.90800 1.04700 26.31400
H  28.93900 0.68700 27.42200
H  25.59700 0.39700 35.28300
H  23.06100 1.76900 34.40700
H  22.30600 0.20600 35.74600
H  23.70400 -0.77900 35.58700
H  22.42400 -0.94000 34.38300
H  24.65400 3.22100 34.98400
H  26.13400 3.08300 34.38600
H  27.15500 2.94800 36.35100
H  26.13600 1.62500 36.91700
H  19.02800 2.09500 30.03600
H  19.76700 1.81900 31.66700
H  19.24600 0.45500 30.67800
H  18.33900 0.42600 26.66400
H  18.62400 1.68200 27.79600
H  18.56800 0.02400 28.33600
H  25.02500 1.71000 25.40200
H  27.17600 -0.45000 25.74000
H  24.13200 -0.95700 24.90500
H  25.61600 -0.82300 23.99500
H  24.41800 0.42500 23.74200
H  26.94900 2.04700 24.48000
H  28.58500 1.23000 24.85100
H  27.81300 3.81000 25.26800
H  29.11300 3.01100 26.09200
H  27.56300 3.12600 26.87400
H  31.06000 1.63100 29.38800
H  30.97500 -0.07800 28.88100
H  31.70500 0.20000 30.44000
H  28.57500 1.96200 34.28200
H  27.75700 -0.37700 37.72500
H  29.26000 0.02200 38.15900
H  29.21100 -1.36500 37.10400
Mg 17.09700 53.14900 25.91600
C  19.10100 51.61100 28.34900
C  14.88100 54.11500 28.47900
C  15.09500 54.32200 23.60900
C  19.31900 51.86100 23.55100
N  17.03500 52.83300 28.16300
C  18.06700 52.32100 28.93700
C  17.83200 52.64700 30.40900
C  16.33300 53.18400 30.40800
C  16.05500 53.44500 28.91200
C  15.24400 52.15400 30.98400
C  18.89900 53.50100 31.00700
C  18.82900 53.53500 32.51300
H  17.95300 52.59900 33.32800
N  15.27700 54.12700 25.93300
C  14.47600 54.32400 27.06500
C  13.32600 55.04500 26.60800
C  13.38700 55.14500 25.19400
C  14.63000 54.52800 24.87300
C  12.31900 55.57700 27.57500
C  12.48000 55.87500 24.23100
O  12.69400 55.92300 23.01000
C  11.20600 56.59600 24.75200
N  17.20000 53.11000 23.84800
C  16.19800 53.63100 23.11800
C  16.46900 53.39000 21.58100
C  18.02500 52.96200 21.63000
C  18.20400 52.59700 23.09500
C  15.58000 52.41100 20.86400
C  18.99600 54.11200 21.14700
C  20.33300 53.59600 20.45900
N  18.75000 51.84800 25.88200
C  19.59100 51.46000 24.82600
C  20.76500 50.67200 25.27200
C  20.52700 50.65300 26.64500
C  19.34900 51.40700 26.96800
C  21.82500 50.10000 24.45600
C  21.16900 50.15800 27.89100
O  22.21700 49.51900 28.09500
C  20.23700 50.88300 29.00000
C  19.87700 49.71600 29.82100
O  19.25600 48.76300 29.41700
O  20.28700 49.89400 31.13100
C  19.73200 48.82300 32.02400
H  14.12600 54.31400 29.24200
H  14.39000 54.44600 22.78500
H  20.01900 51.58500 22.76000
H  17.81300 51.70400 30.95400
H  16.31500 54.12700 30.95300
H  14.97300 52.46600 31.99300
H  15.69700 51.17100 31.11500
H  14.33300 52.12300 30.38700
H  18.82500 54.55200 30.72600
H  19.92800 53.33100 30.69000
H  18.75900 54.57200 32.84200
H  19.81500 53.25200 32.88200
H  11.33300 55.28200 27.21600
H  12.51300 56.64600 27.65800
H  12.29700 55.18300 28.59100
H  10.86100 57.39400 24.09400
H  11.40000 57.25200 25.60100
H  10.33200 55.94600 24.74500
H  16.27800 54.34400 21.09000
H  18.42600 52.03900 21.21100
H  15.05300 51.75800 21.56000
H  16.22900 51.82500 20.21300
H  14.83000 52.94100 20.27600
H  19.24100 54.72600 22.01400
H  18.38200 54.71100 20.47600
H  20.14500 53.92500 19.43800
H  20.39400 52.50900 20.52600
H  21.12800 54.15000 20.95900
H  21.57200 50.07000 23.39600
H  21.88900 49.12300 24.93500
H  22.76700 50.64400 24.52600
H  20.84800 51.60500 29.54200
H  19.99100 47.81700 31.69200
H  18.65400 48.85800 32.17900
H  20.22300 48.75900 32.99500

