158

Mg 9.55100 4.07900 27.35900
C  10.36200 2.47000 30.31300
C  7.75500 6.32400 29.07300
C  8.23700 5.25500 24.39900
C  10.63700 1.22000 25.54500
N  8.95400 4.24900 29.50300
C  9.63700 3.59100 30.51000
C  9.40700 4.27900 31.82900
C  8.29900 5.35500 31.49200
C  8.35200 5.36700 29.88800
C  6.91200 5.18600 32.05500
C  10.79000 4.86500 32.58900
C  10.80200 4.59900 34.08800
H  12.15700 4.59700 34.83600
N  8.30300 5.65700 26.76600
C  7.69100 6.51500 27.64700
C  6.99900 7.61700 26.92900
C  7.18200 7.25200 25.51500
C  7.95000 5.97300 25.53100
C  6.20300 8.73500 27.63400
C  6.72900 8.02300 24.26700
O  6.98900 7.69200 23.07400
C  5.86800 9.15500 24.40400
N  9.62400 3.45200 25.17600
C  8.94500 4.08900 24.20800
C  9.04100 3.35300 22.83900
C  10.01300 2.16100 23.21900
C  10.03500 2.23900 24.74600
C  7.64800 2.86200 22.37100
C  11.40500 2.02500 22.46400
C  11.25000 1.10300 21.21800
N  10.54600 2.32200 27.75600
C  10.95300 1.24800 26.92500
C  11.56200 0.25600 27.71900
C  11.33000 0.65500 29.04400
C  10.69500 1.92000 29.00800
C  12.33300 -0.95400 27.33400
C  11.64100 0.27000 30.42000
O  12.20700 -0.68000 30.92600
C  11.02800 1.49800 31.32100
C  10.04700 0.85400 32.21900
O  9.00600 0.29200 31.91100
O  10.62100 0.74200 33.52200
C  9.83600 0.04700 34.56300
H  7.20800 7.04300 29.68700
H  7.79700 5.70300 23.50600
H  10.75000 0.19700 25.18100
H  8.91000 3.54400 32.46200
H  8.62200 6.29600 31.93600
H  6.17000 5.37500 31.27900
H  6.63400 6.01700 32.70300
H  6.86900 4.23900 32.59300
H  10.75700 5.95000 32.49200
H  11.70000 4.54400 32.08200
H  10.19900 3.74800 34.40300
H  10.34800 5.46700 34.56600
H  6.81200 9.59900 27.90100
H  5.66300 8.22800 28.43400
H  5.37700 9.18100 27.08100
H  6.34700 10.05000 24.80300
H  4.99700 8.93000 25.02000
H  5.42000 9.48200 23.46600
H  9.36000 4.06500 22.07800
H  9.42900 1.25400 23.06300
H  7.21800 3.40100 21.52700
H  6.95000 2.98500 23.19900
H  7.75200 1.84100 22.00300
H  12.22200 1.74200 23.12800
H  11.73400 2.96700 22.02400
H  12.22200 0.66500 20.98700
H  10.84300 1.67500 20.38500
H  10.52200 0.31400 21.40500
H  13.01700 -0.71900 26.51800
H  11.72800 -1.82300 27.07400
H  13.05500 -1.32800 28.06000
H  11.71100 1.98900 32.01400
H  9.37000 -0.85500 34.16700
H  8.90300 0.54800 34.82300
H  10.51100 -0.03900 35.41400
Mg 30.39100 58.52100 39.09900
C  27.40700 56.66500 37.77000
C  32.22600 55.81100 37.93500
C  33.09900 60.33800 39.22000
C  28.35500 61.35400 39.23800
N  29.76500 56.36100 38.28300
C  28.59400 55.91000 37.82900
C  28.77300 54.52700 37.19000
C  30.26800 54.19900 37.50300
C  30.82000 55.49100 38.02000
C  30.48100 53.08600 38.52700
C  28.43300 54.50300 35.66800
C  27.62200 53.25000 35.21900
H  26.88300 53.39500 33.91800
N  32.38500 58.05300 38.75500
C  32.92600 56.90100 38.31600
C  34.41100 56.95800 38.25500
C  34.65100 58.37200 38.51800
C  33.35000 58.99700 38.85600
C  35.36600 55.87700 37.91900
C  36.01900 59.02500 38.57300
O  36.95500 58.35900 38.08100
C  36.35600 60.45700 39.02900
N  30.67500 60.50200 39.07100
C  31.87200 61.05000 39.26300
C  31.81000 62.51600 39.75700
C  30.32300 62.82900 39.65000
C  29.72500 61.47700 39.30500
C  32.35500 62.80200 41.16700
C  30.00100 63.98200 38.63700
C  28.89400 64.98100 39.00200
N  28.25500 58.91200 38.79200
C  27.69300 60.12700 38.83400
C  26.29900 59.99600 38.46000
C  26.11300 58.69000 37.93700
C  27.30100 58.00100 38.22100
C  25.37600 61.14800 38.39300
C  25.29300 57.73200 37.28000
O  24.16000 57.95600 36.79000
C  26.08600 56.37800 37.18600
C  25.45100 55.25500 37.99800
O  25.43900 55.07900 39.21200
O  25.03700 54.34100 37.04300
C  24.74600 53.03900 37.67600
H  32.71000 54.84400 37.78100
H  33.96100 60.97100 39.44200
H  27.71900 62.22800 39.39700
H  28.10500 53.82900 37.69500
H  30.83200 53.95200 36.60400
H  30.45300 52.10100 38.06200
H  29.73500 53.17200 39.31700
H  31.52000 53.18600 38.83900
H  29.39900 54.45300 35.16500
H  27.98600 55.45400 35.37900
H  26.78300 53.04100 35.88300
H  28.35800 52.45700 35.08200
H  35.37900 55.66000 36.85100
H  34.90900 54.96800 38.31100
H  36.39500 56.03300 38.24300
H  37.44000 60.56700 39.08100
H  35.90900 60.76100 39.97600
H  36.02800 61.18500 38.28800
H  32.34800 63.18300 39.08300
H  29.89700 63.07000 40.62400
H  32.52700 61.86000 41.68600
H  31.79100 63.57200 41.69300
H  33.32200 63.24800 40.93500
H  29.86800 63.54400 37.64800
H  30.87000 64.63600 38.55700
H  28.37700 64.45900 39.80700
H  28.38900 65.25700 38.07700
H  29.20300 65.96900 39.34300
H  25.28600 61.54000 37.38000
H  25.59200 62.00800 39.02700
H  24.35000 60.81600 38.55100
H  26.12100 56.13900 36.12300
H  24.30600 52.35300 36.95200
H  24.04700 53.10000 38.51000
H  25.61200 52.58100 38.15500

