158

Mg 2.46500 -1.58000 44.25900
C  5.53000 -0.47200 43.37400
C  0.96800 0.86000 42.32500
C  -0.51800 -3.24100 44.49200
C  4.07100 -4.44200 45.70800
N  3.19500 -0.08300 42.96800
C  4.50300 0.30100 42.84600
C  4.62100 1.52800 41.92900
C  3.25400 2.11000 42.05200
C  2.40100 0.89100 42.38300
C  3.03800 3.30200 43.03600
C  5.12300 1.04800 40.58200
C  6.21200 1.90600 39.94200
H  5.72000 2.57700 38.63300
N  0.49600 -1.14700 43.62700
C  0.04300 -0.07900 42.83900
C  -1.30000 -0.18900 42.59400
C  -1.81700 -1.32400 43.27700
C  -0.60700 -1.94900 43.88000
C  -2.08700 0.71000 41.70900
C  -3.29200 -1.78200 43.37200
O  -4.16800 -1.14100 42.74700
C  -3.69600 -3.10400 44.07100
N  1.88000 -3.40800 45.09600
C  0.59800 -3.90700 45.05900
C  0.42200 -5.33700 45.62500
C  1.97000 -5.66000 45.88600
C  2.66800 -4.45600 45.55900
C  -0.39700 -5.47000 46.96800
C  2.51600 -6.87200 44.98900
C  3.39700 -7.93300 45.61500
N  4.38500 -2.24600 44.70700
C  4.91200 -3.40200 45.30300
C  6.32300 -3.34300 45.31100
C  6.66400 -2.23600 44.54300
C  5.39200 -1.63400 44.20100
C  7.34300 -4.40600 45.88900
C  7.68000 -1.35700 44.01700
O  8.89500 -1.43200 44.03300
C  7.00000 -0.19800 43.27300
C  7.38200 1.11200 44.00500
O  6.72400 1.54900 44.94800
O  8.50200 1.60700 43.39800
C  8.83000 2.96900 43.94900
H  0.54600 1.62400 41.66900
H  -1.41200 -3.86800 44.44800
H  4.47900 -5.36900 46.11500
H  5.27000 2.24900 42.42700
H  2.89800 2.51700 41.10500
H  3.97700 3.68600 43.43600
H  2.50600 2.93600 43.91400
H  2.36000 4.06400 42.65200
H  4.19000 1.10700 40.02200
H  5.38000 -0.00400 40.71200
H  7.09100 1.36500 39.59400
H  6.45500 2.73500 40.60600
H  -2.77300 1.30200 42.31500
H  -2.65400 0.06200 41.04100
H  -1.63400 1.34900 40.95100
H  -4.76300 -3.13900 44.29300
H  -3.24500 -3.15600 45.06200
H  -3.40300 -3.95900 43.46200
H  -0.03100 -5.87400 44.79100
H  2.16200 -5.97100 46.91200
H  0.17400 -5.69000 47.87000
H  -1.15700 -6.24100 46.84300
H  -0.87500 -4.50000 47.11100
H  3.13600 -6.47900 44.18400
H  1.64500 -7.43700 44.65700
H  2.93900 -8.92100 45.57400
H  3.41900 -7.60000 46.65300
H  4.35900 -8.00200 45.10700
H  7.42000 -5.19500 45.14100
H  6.86800 -4.76000 46.80500
H  8.35000 -4.01100 46.01800
H  7.27200 -0.13500 42.21900
H  9.70300 2.71800 44.55000
H  8.09700 3.54800 44.51100
H  9.16600 3.48400 43.04900
Mg 36.07100 49.45600 24.60200
C  36.05900 47.65100 27.57500
C  34.60400 52.08300 26.18000
C  35.86900 50.97400 21.61300
C  37.24300 46.52500 23.03300
N  35.32700 49.75100 26.62700
C  35.65400 48.97200 27.73900
C  35.54700 49.75400 29.04500
C  34.85700 51.11100 28.55800
C  34.97400 51.01600 27.05100
C  33.44700 51.30700 28.98300
C  36.82800 49.85500 29.93700
C  36.57500 49.68200 31.50100
H  35.17100 49.81900 32.07700
N  35.31500 51.18400 24.03200
C  34.78700 52.19500 24.79900
C  34.43200 53.32100 24.03000
C  34.85800 53.07000 22.70500
C  35.40700 51.68100 22.71300
C  33.78200 54.50400 24.65700
C  34.78100 53.97500 21.47500
O  35.16600 53.62400 20.33500
C  34.01400 55.36500 21.54700
N  36.29700 48.77600 22.51500
C  36.29000 49.66400 21.48100
C  36.72800 49.02800 20.13900
C  37.33300 47.67400 20.65300
C  36.90900 47.61800 22.15800
C  35.62200 48.93700 19.08300
C  38.89200 47.49400 20.37300
C  39.99000 47.96100 21.34000
N  36.47500 47.43300 25.07300
C  37.00200 46.36900 24.40900
C  37.17600 45.18600 25.25300
C  36.77200 45.69600 26.50500
C  36.38600 47.04700 26.31700
C  37.53400 43.86800 24.67600
C  36.64600 45.30000 27.86900
O  36.79100 44.22600 28.40900
C  36.18100 46.56700 28.65000
C  35.01600 46.35600 29.43500
O  33.86300 46.46500 28.94900
O  35.34900 45.95900 30.74800
C  34.25300 45.27300 31.39200
H  34.36100 53.00200 26.71700
H  35.86600 51.52400 20.67000
H  37.70200 45.67900 22.51700
H  34.82100 49.09000 29.51400
H  35.34000 51.94400 29.06800
H  33.06700 50.59200 29.71200
H  32.76600 51.29200 28.13100
H  33.28400 52.29300 29.41700
H  37.11100 50.90600 29.88500
H  37.62600 49.23900 29.52200
H  37.20300 50.37000 32.06700
H  37.01200 48.69000 31.61500
H  34.51700 55.19900 25.06200
H  33.28900 54.17300 25.57100
H  32.99600 55.00700 24.09500
H  32.93000 55.25000 21.52300
H  34.36900 55.99800 20.73400
H  34.32800 55.88600 22.45100
H  37.50800 49.60000 19.63700
H  36.80300 46.86800 20.14600
H  34.65900 49.02600 19.58500
H  35.79200 48.00400 18.54500
H  35.81700 49.75800 18.39400
H  39.22400 47.98600 19.45900
H  38.96400 46.41800 20.21500
H  39.59900 48.15700 22.33800
H  40.56900 48.79100 20.93600
H  40.74400 47.19100 21.50500
H  37.63400 43.14600 25.48700
H  38.53600 43.99200 24.26600
H  36.71100 43.77200 23.96800
H  37.06900 46.87900 29.19900
H  33.35200 45.85700 31.20000
H  34.23100 45.42100 32.47200
H  34.25900 44.23000 31.07700

