158

Mg 9.74200 47.29400 24.80600
C  7.78400 47.38500 27.68300
C  12.32900 48.87100 26.63200
C  11.52400 47.28300 22.06600
C  6.95200 46.15000 22.98900
N  10.07700 47.91500 27.00100
C  9.11900 47.81800 27.98100
C  9.69800 48.44100 29.25700
C  10.95600 49.31300 28.80700
C  11.17400 48.66300 27.40000
C  10.86500 50.86400 28.74000
C  10.02300 47.30700 30.24700
C  9.89200 47.58300 31.78400
H  9.67200 46.37900 32.71700
N  11.70400 47.93200 24.45400
C  12.55600 48.53600 25.31300
C  13.79300 48.73000 24.52200
C  13.62400 48.23100 23.22900
C  12.24500 47.74800 23.17200
C  15.05900 49.20600 25.17900
C  14.66000 48.24900 22.09000
O  14.49000 47.74900 20.93100
C  15.90700 49.04400 22.22600
N  9.26700 46.75600 22.78200
C  10.25000 46.83500 21.83100
C  9.77900 46.27700 20.50000
C  8.21000 46.02300 20.72900
C  8.08000 46.37500 22.23200
C  10.22300 47.13100 19.19900
C  7.81500 44.63000 20.46300
C  8.35500 43.59000 21.50600
N  7.78400 46.83500 25.18300
C  6.78500 46.43600 24.36800
C  5.52900 46.28800 25.14500
C  5.85000 46.66300 26.45600
C  7.23400 46.99000 26.41500
C  4.20200 46.06200 24.69500
C  5.36000 46.83900 27.79300
O  4.24900 46.60600 28.28900
C  6.66000 47.16400 28.65000
C  6.87800 46.01700 29.60300
O  7.34200 44.97000 29.33500
O  6.49900 46.22900 30.84000
C  6.41000 45.10500 31.78400
H  13.19800 49.29400 27.14100
H  12.22900 47.04900 21.26500
H  6.15900 45.66500 22.41500
H  8.94600 49.06000 29.74600
H  11.77400 49.04800 29.47800
H  11.22300 51.16200 27.75500
H  11.43400 51.38500 29.50900
H  9.78200 50.97300 28.79800
H  11.03800 46.99300 30.00000
H  9.36900 46.44700 30.10600
H  9.15500 48.36400 31.97100
H  10.86900 47.88900 32.16000
H  15.88500 48.66300 24.71900
H  15.01500 49.25600 26.26700
H  15.16200 50.28300 25.04500
H  16.26100 49.37800 21.25100
H  16.64800 48.39900 22.69800
H  15.73300 49.88800 22.89400
H  10.23100 45.28600 20.45100
H  7.57200 46.66500 20.12200
H  9.53900 47.97000 19.06700
H  10.15600 46.49500 18.31700
H  11.21200 47.56500 19.34600
H  8.18600 44.30100 19.49200
H  6.72900 44.59500 20.38200
H  8.70400 42.70600 20.97100
H  7.54300 43.35800 22.19600
H  9.19700 43.90000 22.12400
H  4.06800 46.90900 24.02300
H  3.49900 46.05800 25.52800
H  4.11500 45.09300 24.20200
H  6.56700 48.08600 29.22400
H  7.25400 44.43200 31.63500
H  5.45400 44.61200 31.60300
H  6.48300 45.42600 32.82300
Mg -12.24200 38.54500 41.94900
C  -10.15100 35.87300 40.74400
C  -10.40600 40.76300 40.18100
C  -14.80400 40.88200 42.40100
C  -14.40900 36.05900 43.33300
N  -10.51500 38.32800 40.42500
C  -9.78200 37.20000 40.28200
C  -8.48500 37.54500 39.51600
C  -8.46200 39.06900 39.47100
C  -9.83400 39.47000 40.12800
C  -7.28100 39.71100 40.17900
C  -8.55200 36.86100 38.12500
C  -7.53400 35.72600 37.82600
H  -6.50100 36.04500 36.69400
N  -12.56900 40.60300 41.46200
C  -11.63400 41.29500 40.76200
C  -12.04100 42.63400 40.58700
C  -13.36000 42.71200 41.16300
C  -13.63300 41.38800 41.74300
C  -11.40000 43.64700 39.62000
C  -14.23500 43.91900 41.17600
O  -13.83600 44.95300 40.61700
C  -15.56600 44.10100 41.88400
N  -14.33000 38.42700 42.56600
C  -15.12700 39.57400 42.73800
C  -16.45800 39.16600 43.30000
C  -16.27100 37.73500 43.79200
C  -14.89400 37.33500 43.17000
C  -17.02300 40.09700 44.44600
C  -17.44600 36.70200 43.48400
C  -17.74200 35.71300 44.62200
N  -12.39400 36.38400 42.01200
C  -13.25600 35.53700 42.72500
C  -12.69100 34.22500 42.81300
C  -11.49800 34.27600 42.05800
C  -11.32900 35.61100 41.58000
C  -13.19400 33.12800 43.63700
C  -10.34700 33.56100 41.55900
O  -10.10100 32.33500 41.68100
C  -9.42600 34.53300 40.73100
C  -8.04500 34.54600 41.33200
O  -7.10100 33.96300 40.84900
O  -8.03500 35.29500 42.44000
C  -6.71600 35.80100 42.87600
H  -9.69200 41.50300 39.81300
H  -15.52000 41.67400 42.63100
H  -15.08400 35.39200 43.87400
H  -7.53900 37.19400 39.92900
H  -8.59900 39.52100 38.48900
H  -7.13400 39.12800 41.08900
H  -7.26800 40.78700 40.34800
H  -6.38600 39.63100 39.56300
H  -8.52500 37.74200 37.48300
H  -9.50100 36.34300 37.98500
H  -7.96900 34.73200 37.71800
H  -6.92800 35.59500 38.72200
H  -12.08900 43.84700 38.79900
H  -10.40000 43.30900 39.34800
H  -11.28300 44.59000 40.15500
H  -15.82800 45.15600 41.80800
H  -15.21700 43.92100 42.90100
H  -16.34900 43.42800 41.53600
H  -17.19500 39.19900 42.49800
H  -15.95200 37.77400 44.83400
H  -17.81400 40.65000 43.94000
H  -16.25700 40.75600 44.85400
H  -17.48900 39.48100 45.21500
H  -17.33700 36.19100 42.52700
H  -18.34400 37.29300 43.30800
H  -17.64400 34.72700 44.16800
H  -18.70800 35.84400 45.11200
H  -17.01500 35.82000 45.42700
H  -12.81800 32.16000 43.30500
H  -14.27400 33.09700 43.48900
H  -13.06800 33.31700 44.70300
H  -9.31900 34.23600 39.68700
H  -6.07100 36.11600 42.05600
H  -6.23700 34.97100 43.39600
H  -6.78400 36.73000 43.44200

