158

Mg 0.94900 7.68300 25.41200
C  1.37200 9.91700 28.13100
C  1.05400 5.03600 27.52400
C  0.42700 5.88100 22.77800
C  1.36000 10.67100 23.27700
N  1.00300 7.50100 27.60600
C  1.09100 8.56400 28.55000
C  1.17000 7.98700 29.96100
C  1.18900 6.40300 29.74200
C  1.10700 6.28900 28.22400
C  2.46000 5.69600 30.31800
C  0.00300 8.44000 30.85300
C  0.42300 8.81100 32.24200
H  1.54600 7.95500 32.95000
N  0.60800 5.73800 25.19800
C  0.78500 4.76900 26.19100
C  0.61300 3.48800 25.59200
C  0.35300 3.65500 24.20500
C  0.39400 5.14700 23.98300
C  0.64900 2.19800 26.37300
C  0.19200 2.55700 23.14500
O  0.11700 2.87100 21.99800
C  0.19900 1.06200 23.54700
N  1.01400 8.24400 23.27000
C  0.59600 7.26400 22.47000
C  0.60000 7.83200 20.94800
C  0.86200 9.31800 21.16800
C  1.02600 9.43800 22.69400
C  1.65700 7.10100 20.10400
C  -0.21500 10.28400 20.50600
C  -1.56800 10.51900 21.29300
N  1.36300 9.80000 25.58100
C  1.50300 10.87300 24.63900
C  1.64600 12.20900 25.31900
C  1.63000 11.87300 26.71000
C  1.48400 10.40900 26.78200
C  1.92700 13.63100 24.63300
C  1.84500 12.41800 28.05800
O  2.08900 13.57600 28.37700
C  1.64700 11.19900 29.03300
C  2.94400 11.10400 29.78700
O  4.07000 11.29600 29.28100
O  2.73700 11.05300 31.14200
C  3.83200 11.51800 31.99000
H  1.15000 4.12900 28.12400
H  0.23000 5.32400 21.86000
H  1.51000 11.58800 22.70400
H  2.03400 8.42000 30.46500
H  0.27200 5.93200 30.09700
H  2.77500 6.36200 31.12300
H  3.24300 5.69800 29.56000
H  2.19700 4.72700 30.74100
H  -0.73000 7.63800 30.77300
H  -0.33000 9.37300 30.39800
H  -0.44000 8.94800 32.89300
H  0.85700 9.80900 32.29400
H  -0.28800 1.64200 26.31600
H  0.66700 2.29500 27.45900
H  1.38800 1.51300 25.95700
H  -0.55300 0.80000 24.29300
H  1.16100 0.75800 23.95900
H  -0.12200 0.65400 22.58900
H  -0.42200 7.73800 20.58100
H  1.88800 9.50100 20.84900
H  1.04700 6.40100 19.53200
H  2.50200 6.67100 20.64100
H  2.16100 7.79100 19.42600
H  -0.55400 9.75900 19.61200
H  0.39600 11.18000 20.39500
H  -1.70100 11.58500 21.47600
H  -1.55100 10.11700 22.30600
H  -2.42900 10.09600 20.77400
H  0.95700 14.12500 24.58300
H  2.27100 13.55700 23.60100
H  2.56200 14.25400 25.26300
H  0.89200 11.39500 29.79400
H  3.73600 11.09900 32.99100
H  3.82000 12.60800 31.96200
H  4.83000 11.27300 31.62600
Mg 6.45200 53.97800 42.69000
C  5.62200 50.69400 42.19600
C  9.31300 53.58600 40.69000
C  6.86400 57.42600 42.53800
C  3.10600 54.55400 43.83400
N  7.39000 52.33100 41.70800
C  6.86100 51.11000 41.54400
C  7.83200 50.19700 40.78500
C  9.16500 51.03800 40.72700
C  8.67000 52.41700 41.14900
C  10.39900 50.49800 41.57500
C  7.32400 49.64900 39.41100
C  6.52900 50.69900 38.50300
H  6.59200 50.54700 36.93400
N  8.01700 55.30000 41.93500
C  9.07000 54.91100 41.15300
C  9.89300 56.09500 40.97300
C  9.30200 57.19200 41.54600
C  7.99300 56.72000 42.08300
C  11.26000 56.03000 40.27200
C  9.92700 58.62300 41.59800
O  11.06200 58.84600 41.19600
C  9.26400 59.79700 42.40900
N  5.16100 55.68800 43.06800
C  5.55800 56.99800 42.96100
C  4.53000 58.01400 43.44000
C  3.25200 57.12600 43.47500
C  3.82500 55.71900 43.48400
C  5.03400 58.75200 44.82700
C  2.16400 57.32500 42.31700
C  0.99500 58.19700 42.64000
N  4.73000 52.92600 43.05300
C  3.53600 53.19400 43.69000
C  2.85200 51.96100 44.01200
C  3.57600 50.98500 43.32400
C  4.74800 51.60900 42.82000
C  1.60000 51.84400 44.80600
C  3.56900 49.52900 43.20600
O  2.88400 48.61000 43.59400
C  5.04600 49.22700 42.42400
C  4.59000 48.63600 41.10600
O  3.79000 49.16100 40.32800
O  5.27300 47.44900 40.82000
C  4.64500 46.61500 39.78900
H  10.19200 53.52200 40.04500
H  7.04400 58.50200 42.51100
H  2.05600 54.45800 44.12100
H  8.01200 49.23300 41.26200
H  9.59700 51.07300 39.72600
H  10.71000 51.29300 42.25200
H  11.18700 50.30200 40.84800
H  10.26900 49.56100 42.11700
H  6.72900 48.77300 39.67000
H  8.19600 49.30800 38.85300
H  6.85700 51.73100 38.62800
H  5.53000 50.73900 38.93700
H  11.42700 56.98500 39.77400
H  11.27000 55.33700 39.43000
H  12.04600 55.77700 40.98400
H  8.58400 60.23300 41.67800
H  10.04900 60.52000 42.63000
H  8.70000 59.42000 43.26300
H  4.43600 58.77400 42.66500
H  2.75500 57.33000 44.42400
H  4.74800 59.79800 44.94100
H  6.12100 58.67400 44.81500
H  4.68300 58.16100 45.67200
H  1.87100 56.29900 42.09600
H  2.70200 57.54600 41.39500
H  1.20400 58.71500 43.57600
H  0.13600 57.52900 42.70000
H  0.82200 58.80800 41.75400
H  1.33100 52.74300 45.36100
H  1.68700 51.09300 45.59100
H  0.78000 51.61000 44.12700
H  5.74000 48.53300 42.89800
H  4.35200 45.76000 40.39800
H  5.37700 46.31000 39.04100
H  3.74500 47.07000 39.37600

