158

Mg 17.52000 -0.87300 27.97000
C  16.45900 1.18600 30.57500
C  19.56400 -2.53300 29.99500
C  19.12000 -2.41700 25.26500
C  15.95400 1.25900 25.74600
N  18.05300 -0.53800 30.08600
C  17.41000 0.24600 31.02400
C  17.88300 -0.11900 32.41100
C  18.98700 -1.17700 32.09300
C  18.89400 -1.45200 30.60200
C  20.45400 -0.69500 32.39900
C  16.74500 -0.51500 33.44000
C  17.00700 -0.26500 34.98600
H  18.42500 0.18500 35.53400
N  18.86500 -2.50700 27.73700
C  19.56100 -3.03900 28.69700
C  20.31400 -4.16400 28.23100
C  20.20500 -4.16800 26.85400
C  19.38500 -2.95600 26.53900
C  21.08500 -5.04300 29.15900
C  20.76700 -5.02300 25.74800
O  20.49600 -4.94500 24.55800
C  21.57900 -6.09700 26.19400
N  17.46000 -0.69200 25.78700
C  18.25600 -1.35400 24.90400
C  17.99800 -0.76700 23.46900
C  16.78700 0.09400 23.66000
C  16.78800 0.24400 25.11900
C  19.26400 -0.05700 22.86900
C  15.47300 -0.30700 23.00900
C  14.36900 -0.93500 23.86300
N  16.43200 0.81000 28.04600
C  15.78300 1.55600 27.06400
C  14.95600 2.61100 27.63800
C  15.15800 2.49400 29.00300
C  16.08400 1.39700 29.24100
C  14.14500 3.66800 26.92000
C  14.88200 3.11700 30.34600
O  14.28300 4.10400 30.68800
C  15.65100 2.15400 31.36200
C  16.50700 3.03800 32.24700
O  17.60900 3.42600 31.94900
O  15.84600 3.39500 33.43200
C  16.66200 4.07400 34.48400
H  20.11500 -3.13400 30.72100
H  19.60600 -2.85500 24.39100
H  15.51900 1.92500 24.99800
H  18.32400 0.79300 32.81400
H  18.78600 -2.07900 32.67100
H  20.38600 0.39100 32.34100
H  21.12000 -1.09300 31.63300
H  20.83900 -0.86900 33.40400
H  16.55300 -1.58700 33.46600
H  15.73500 -0.13700 33.27800
H  16.78200 -1.24900 35.39800
H  16.30900 0.47600 35.37400
H  22.15500 -4.84400 29.09500
H  21.19100 -6.11300 28.98200
H  20.86000 -4.86400 30.21000
H  20.95200 -6.66100 26.88600
H  22.47500 -5.64500 26.61900
H  21.93300 -6.72700 25.37800
H  17.75700 -1.52900 22.72800
H  17.01500 1.04300 23.17600
H  20.04900 0.04000 23.61900
H  18.97500 0.91400 22.46600
H  19.65800 -0.64100 22.03700
H  15.78600 -0.98300 22.21300
H  15.06500 0.57600 22.51700
H  14.65300 -1.41800 24.79900
H  14.03100 -1.76600 23.24400
H  13.52500 -0.25100 23.95000
H  13.13000 3.27500 26.96100
H  14.55200 3.84800 25.92400
H  14.22900 4.61000 27.46300
H  15.02600 1.60300 32.06600
H  17.29800 3.31200 34.93700
H  15.86100 4.45200 35.11800
H  17.31000 4.81800 34.02000
Mg 42.44900 41.97100 25.78800
C  41.91600 44.44100 28.45800
C  43.60500 39.98200 28.35900
C  43.30700 39.93600 23.44600
C  41.86400 44.60200 23.53300
N  42.73000 42.25600 28.14800
C  42.34600 43.24800 29.06200
C  42.25000 42.70000 30.52500
C  43.08100 41.38200 30.36500
C  43.19600 41.20000 28.84400
C  44.55000 41.40500 31.00600
C  40.81000 42.59200 31.04400
C  40.57600 41.89800 32.41700
H  39.87500 42.79000 33.48900
N  43.21700 40.15200 25.89600
C  43.59400 39.41400 27.05100
C  44.01000 38.11800 26.60500
C  43.86700 38.04300 25.21300
C  43.50300 39.39500 24.80300
C  44.52400 37.06000 27.59300
C  44.08900 36.80700 24.30200
O  44.10400 36.82900 23.11200
C  44.41000 35.50800 25.01100
N  42.66900 42.26700 23.79400
C  43.04700 41.23700 22.98000
C  43.10800 41.75900 21.51500
C  42.69400 43.27500 21.54300
C  42.29900 43.35200 23.03400
C  44.49100 41.37200 20.90900
C  41.57000 43.74300 20.51000
C  40.18100 43.12700 20.66000
N  41.97800 44.07700 25.93500
C  41.80000 44.99700 24.93000
C  41.32900 46.23500 25.50700
C  41.33700 46.02200 26.87000
C  41.89400 44.77000 27.07800
C  40.93100 47.52200 24.71100
C  41.15500 46.71100 28.08200
O  40.83800 47.89200 28.27500
C  41.44600 45.68100 29.19600
C  42.47800 46.19300 30.15400
O  43.54200 46.71800 29.87800
O  41.91100 46.14900 31.44000
C  42.84600 46.39800 32.55700
H  43.91600 39.31500 29.16600
H  43.52700 39.17900 22.69100
H  41.65700 45.36600 22.78100
H  42.72600 43.47600 31.12400
H  42.60100 40.45800 30.68700
H  44.98400 42.40400 31.01400
H  45.24400 40.78100 30.44100
H  44.56700 41.04300 32.03400
H  40.14400 42.03000 30.38900
H  40.41400 43.60600 31.10700
H  41.51800 41.49300 32.78700
H  39.89800 41.04500 32.42800
H  43.93200 36.17700 27.35200
H  44.39100 37.40000 28.61900
H  45.56500 36.78700 27.41600
H  44.65000 34.81400 24.20600
H  43.52900 35.13100 25.53100
H  45.30000 35.61400 25.63200
H  42.24800 41.28400 21.04300
H  43.59200 43.87900 21.41300
H  44.92000 42.29600 20.52300
H  44.36400 40.66200 20.09200
H  45.16600 40.91100 21.63000
H  41.95700 43.51300 19.51700
H  41.48500 44.82100 20.64700
H  39.84500 42.49000 19.84200
H  39.47100 43.91000 20.92500
H  40.05900 42.59200 21.60200
H  41.04700 47.43000 23.63100
H  41.56500 48.32600 25.08400
H  39.88600 47.78500 24.87600
H  40.45500 45.61000 29.64400
H  42.71700 47.46600 32.73400
H  43.87900 46.19800 32.27400
H  42.52700 45.71200 33.34100

