158

Mg 8.39700 3.56200 28.22200
C  9.93100 1.93600 30.88800
C  6.40900 5.28900 30.34000
C  6.67100 4.54400 25.59800
C  9.97200 1.05200 26.15600
N  8.18900 3.57800 30.30400
C  9.01400 2.95800 31.21000
C  8.81900 3.47100 32.64200
C  7.40400 4.18400 32.48900
C  7.34300 4.44900 30.99800
C  6.20600 3.24500 32.90300
C  10.00900 4.37900 33.20700
C  10.65300 3.91300 34.50800
H  10.89300 4.86100 35.71300
N  6.84700 4.88800 27.96500
C  6.16200 5.49000 28.96100
C  5.16100 6.32800 28.37300
C  5.24500 6.20100 26.98700
C  6.24100 5.14800 26.79900
C  4.04900 7.11600 29.11100
C  4.41100 6.81800 25.85400
O  4.53700 6.57400 24.68900
C  3.35900 7.77400 26.15800
N  8.38900 2.94700 26.18100
C  7.62100 3.57500 25.29600
C  7.68700 2.86900 23.88600
C  8.93100 1.93900 24.03600
C  9.22300 2.04300 25.55500
C  6.25500 2.25500 23.43900
C  10.30900 2.43700 23.41300
C  11.21300 1.32000 22.71800
N  9.64700 1.78900 28.43400
C  10.21100 0.91600 27.53800
C  11.05800 -0.03000 28.21800
C  11.04000 0.33800 29.54100
C  10.11000 1.37300 29.60500
C  11.91400 -1.15400 27.52700
C  11.62500 0.10500 30.86700
O  12.50300 -0.64500 31.25800
C  10.83300 1.17800 31.77700
C  10.12000 0.33300 32.72900
O  9.06100 -0.32400 32.56700
O  10.86600 0.33900 33.91400
C  10.38200 -0.40400 35.12300
H  5.81700 5.93800 30.98900
H  6.01100 4.83700 24.77900
H  10.40600 0.28200 25.51500
H  8.78200 2.59700 33.29300
H  7.41800 5.10200 33.07700
H  6.49900 2.21000 33.08000
H  5.50100 3.22000 32.07300
H  5.73100 3.72300 33.76000
H  9.64800 5.39800 33.34500
H  10.74400 4.47500 32.40800
H  11.67000 3.61800 34.25000
H  10.15700 3.06100 34.97300
H  3.09800 6.78300 28.69500
H  4.26700 8.16200 28.89500
H  3.91900 7.02100 30.18900
H  2.61400 7.30800 26.80200
H  2.97300 8.12400 25.20100
H  3.67500 8.51100 26.89700
H  7.93900 3.61400 23.13100
H  8.82800 0.92700 23.64500
H  5.51100 2.47500 24.20400
H  6.53900 1.21000 23.31400
H  5.93600 2.73500 22.51300
H  10.89200 3.07400 24.07800
H  10.04400 3.09400 22.58400
H  10.97900 1.32200 21.65300
H  11.04000 0.37000 23.22300
H  12.23500 1.55400 23.01700
H  12.89200 -1.14100 28.00800
H  12.05300 -1.01500 26.45500
H  11.54200 -2.16200 27.71500
H  11.46100 1.84400 32.36800
H  10.34400 0.37700 35.88200
H  11.16600 -1.11600 35.37800
H  9.46900 -0.96300 34.91700
Mg 35.96200 48.63400 24.62500
C  36.41500 46.83700 27.58500
C  34.77600 51.32600 26.44100
C  35.65200 50.32200 21.81500
C  37.31200 45.94500 22.92100
N  35.52600 48.93400 26.80900
C  35.85800 48.10100 27.84200
C  35.59600 48.77500 29.14700
C  34.90400 50.11700 28.74800
C  35.06900 50.17800 27.27200
C  33.36600 50.25900 29.02100
C  36.86000 48.98800 30.04000
C  36.76000 48.73800 31.53500
H  35.43700 48.82200 32.29600
N  35.24100 50.47000 24.19000
C  34.82700 51.42800 25.06500
C  34.54800 52.65700 24.33700
C  34.70300 52.28600 23.00100
C  35.18200 50.95200 22.94000
C  34.18900 53.92600 25.07300
C  34.39900 53.21200 21.78800
O  34.59300 52.89600 20.62200
C  34.02100 54.60500 21.98600
N  36.44600 48.23100 22.67000
C  36.09400 49.04800 21.67900
C  36.46800 48.49900 20.33600
C  37.00500 47.07100 20.66600
C  36.90800 47.06400 22.17600
C  35.40200 48.53900 19.25700
C  38.45800 46.59300 20.13200
C  39.67300 47.05300 20.93300
N  36.72700 46.77700 25.05700
C  37.10800 45.72400 24.29100
C  37.59200 44.64000 25.07600
C  37.31600 45.03600 26.38200
C  36.71800 46.36600 26.30200
C  38.24600 43.41700 24.50200
C  37.44300 44.56500 27.73700
O  37.86700 43.52300 28.16200
C  36.72800 45.66600 28.60500
C  35.46100 45.27600 29.15900
O  34.43800 44.86000 28.57400
O  35.62100 45.35200 30.56400
C  34.54300 44.68000 31.33000
H  34.46000 52.16900 27.05900
H  35.73500 50.95400 20.92800
H  37.72600 45.10500 22.36000
H  35.04600 48.00300 29.68600
H  35.44500 50.97600 29.14700
H  32.86900 49.43600 29.53400
H  32.74300 50.42300 28.14200
H  33.25000 51.03200 29.78100
H  37.27400 49.98500 29.88600
H  37.59400 48.26500 29.68400
H  37.47900 49.41500 31.99700
H  37.03200 47.70300 31.74300
H  33.37400 54.48000 24.60600
H  35.13300 54.45100 25.21900
H  33.75400 53.78200 26.06200
H  34.56700 55.14400 22.76000
H  33.01500 54.57900 22.40400
H  34.00200 55.17100 21.05500
H  37.32900 49.10300 20.04800
H  36.22000 46.42200 20.27800
H  34.43600 48.53800 19.76000
H  35.31900 47.66000 18.61800
H  35.58900 49.44200 18.67500
H  38.54800 46.94900 19.10600
H  38.62500 45.52100 20.02700
H  39.40200 48.00200 21.39600
H  40.59200 47.35100 20.42900
H  39.99900 46.36600 21.71400
H  38.28200 42.52100 25.12200
H  39.10500 43.78500 23.94200
H  37.55300 42.97200 23.78800
H  37.34100 46.03200 29.42900
H  34.86500 44.79600 32.36400
H  34.50400 43.62800 31.04700
H  33.58900 45.18400 31.17700

