158

Mg 46.91700 16.94800 28.94000
C  45.43500 16.17300 31.96300
C  49.17700 18.81300 30.72200
C  48.43700 17.69900 25.97300
C  44.32400 15.52500 27.28700
N  47.27200 17.41000 31.17000
C  46.65400 16.89900 32.14800
C  47.19300 17.27900 33.55800
C  48.20100 18.41300 33.16800
C  48.23000 18.22300 31.61600
C  48.04800 19.83600 33.75700
C  47.74300 16.02200 34.38500
C  48.75700 16.19200 35.49400
H  48.47400 17.24200 36.61300
N  48.62300 18.07200 28.41200
C  49.36000 18.76400 29.33200
C  50.41900 19.41100 28.55200
C  50.34600 18.98400 27.18600
C  49.08100 18.19500 27.14600
C  51.36500 20.33600 29.23400
C  51.33400 19.22900 25.97000
O  51.10100 18.84400 24.82100
C  52.56800 19.84200 26.26800
N  46.51000 16.61700 26.87800
C  47.23400 17.09700 25.79500
C  46.58300 16.65500 24.44300
C  45.32800 15.79400 24.91900
C  45.36000 16.01200 26.46900
C  46.19000 17.84800 23.48100
C  45.24700 14.29700 24.56900
C  44.39200 14.01200 23.34000
N  45.20900 16.06800 29.50500
C  44.20000 15.53600 28.69600
C  43.14700 14.89100 29.47800
C  43.61600 15.12700 30.74300
C  44.84500 15.87100 30.74700
C  41.89500 14.17900 29.02500
C  43.26100 14.97100 32.17500
O  42.32500 14.46000 32.73100
C  44.43600 15.64700 32.91900
C  43.89400 16.73400 33.77000
O  43.25900 17.67200 33.31100
O  44.18400 16.55600 35.12500
C  43.67300 17.62500 36.02100
H  49.90500 19.44500 31.23600
H  48.81200 17.96700 24.98300
H  43.55100 14.89100 26.84700
H  46.43800 17.63100 34.26000
H  49.15700 18.02600 33.52000
H  47.00800 19.99500 34.04500
H  48.22400 20.47400 32.89100
H  48.82000 20.05600 34.49400
H  48.08400 15.31500 33.62900
H  46.83000 15.79500 34.93600
H  49.71100 16.42600 35.02100
H  48.91600 15.20800 35.93600
H  50.85000 20.94000 29.98100
H  51.67900 21.17300 28.61000
H  52.27400 19.97100 29.71100
H  53.29800 19.64200 25.48500
H  53.01000 19.44600 27.18300
H  52.42200 20.90200 26.47300
H  47.27200 16.00900 23.89900
H  44.39900 16.30900 24.67300
H  45.29100 17.49100 22.97900
H  46.95200 17.97400 22.71200
H  45.99200 18.75400 24.05300
H  44.97700 13.73000 25.46000
H  46.26600 14.08500 24.24500
H  43.85800 13.07200 23.47700
H  45.12800 13.83300 22.55600
H  43.58100 14.68300 23.05600
H  41.77600 13.22200 29.53400
H  41.94000 14.01400 27.94900
H  40.98600 14.75200 29.20700
H  44.89100 14.88800 33.55400
H  44.37900 17.77700 36.83700
H  42.71700 17.33800 36.45700
H  43.52200 18.60700 35.57100
Mg 36.13400 49.92600 25.01700
C  36.39200 47.86700 28.04000
C  34.60800 52.28800 26.92900
C  35.27100 51.32700 22.23100
C  37.02000 46.97200 23.22400
N  35.70400 50.05200 27.24400
C  35.90100 49.12000 28.28500
C  35.61500 49.80200 29.68100
C  34.87900 51.15600 29.28100
C  35.13000 51.16700 27.71800
C  33.39300 51.10600 29.71800
C  36.92200 50.13300 30.41700
C  37.00000 49.80900 31.93300
H  35.70900 49.40900 32.70800
N  35.24800 51.72600 24.65500
C  34.64600 52.52300 25.57500
C  33.92200 53.60200 24.83200
C  34.11900 53.38700 23.43000
C  34.94100 52.11900 23.38200
C  33.05700 54.65300 25.47600
C  33.58700 54.10100 22.17400
O  33.63100 53.68900 21.00900
C  33.03100 55.50900 22.25600
N  36.23400 49.23800 22.96000
C  35.85300 50.06900 22.00400
C  36.07300 49.54800 20.58300
C  36.54000 48.05800 20.91300
C  36.56400 47.99100 22.45200
C  34.88500 49.62400 19.62700
C  37.99600 47.67100 20.43900
C  39.32800 48.28500 21.05700
N  36.77200 47.84700 25.45500
C  37.15000 46.76600 24.63600
C  37.49800 45.60300 25.37800
C  37.20500 45.93600 26.77500
C  36.74700 47.31500 26.71200
C  38.20900 44.38100 24.93700
C  37.17800 45.51100 28.10400
O  37.39500 44.40600 28.55000
C  36.71000 46.74100 29.04000
C  35.55700 46.23100 29.79800
O  34.35400 46.44600 29.51500
O  35.91600 45.41300 30.88800
C  34.77500 45.08700 31.74500
H  34.22200 53.14500 27.48400
H  34.97400 51.74500 21.26700
H  37.25100 46.12300 22.57900
H  34.95600 49.19600 30.30300
H  35.35600 51.97600 29.81900
H  33.13900 50.19200 30.25400
H  32.83300 51.17800 28.78600
H  33.09900 52.05100 30.17500
H  37.17200 51.18000 30.24900
H  37.69300 49.52100 29.94800
H  37.40600 50.69200 32.42600
H  37.74500 49.01900 32.02300
H  31.97200 54.55800 25.42700
H  33.28000 55.60500 24.99600
H  33.37000 54.82800 26.50500
H  33.82600 56.23800 22.41300
H  32.19000 55.55400 22.94900
H  32.67500 55.71200 21.24600
H  36.85900 50.13200 20.10200
H  35.80000 47.34800 20.54300
H  34.93500 48.83900 18.87200
H  34.71800 50.52700 19.04000
H  34.07400 49.33500 20.29500
H  38.08400 47.93400 19.38500
H  38.07100 46.58500 20.38500
H  39.76800 47.43000 21.57100
H  39.08900 49.11100 21.72700
H  40.01100 48.75300 20.34900
H  38.37300 44.42000 23.86000
H  37.64700 43.45100 25.02800
H  39.18100 44.50300 25.41400
H  37.42900 46.97800 29.82400
H  34.18300 44.35300 31.19900
H  34.14100 45.92500 32.03400
H  35.22400 44.72300 32.66900

