158

Mg 40.37300 9.89800 29.00900
C  42.32700 11.18100 31.68400
C  38.11000 8.67900 31.35000
C  38.67600 8.47700 26.55600
C  43.04600 10.60300 26.86100
N  40.32200 9.72300 31.27800
C  41.15100 10.56400 32.08300
C  40.55100 10.52100 33.56600
C  39.41900 9.52000 33.42300
C  39.17600 9.34300 31.95300
C  39.71300 8.14300 34.19500
C  40.11300 11.96600 34.01700
C  40.44500 12.39600 35.48000
H  40.50100 13.94000 35.76700
N  38.62400 8.71700 28.90900
C  37.83600 8.34500 29.98400
C  36.74600 7.47900 29.47100
C  36.80000 7.58400 28.08400
C  38.03700 8.30000 27.77200
C  35.57400 7.02800 30.25800
C  35.77600 7.18100 26.97500
O  35.95500 7.45300 25.86700
C  34.44900 6.53900 27.42200
N  40.73900 9.72600 27.03500
C  39.89800 9.01800 26.24400
C  40.50800 8.74100 24.85300
C  41.92000 9.38900 24.90000
C  41.93100 9.93600 26.34700
C  40.57600 7.28400 24.33400
C  42.19100 10.53000 23.86700
C  41.82100 11.95200 24.27400
N  42.23600 10.80600 29.18000
C  43.23400 11.06600 28.25300
C  44.41700 11.77600 28.82100
C  44.05600 11.90500 30.12700
C  42.74000 11.23200 30.33200
C  45.68400 12.04600 28.14300
C  44.45500 12.34600 31.41400
O  45.53000 12.85000 31.77900
C  43.34700 12.01600 32.43400
C  43.92700 11.44700 33.63100
O  44.26600 10.30000 33.86100
O  43.88800 12.43100 34.59700
C  44.06200 11.83300 35.92200
H  37.41100 8.53000 32.17700
H  38.31100 7.82300 25.76100
H  43.98100 10.70800 26.30700
H  41.29200 10.14000 34.26800
H  38.55700 10.06400 33.81000
H  40.75400 8.04600 34.50200
H  39.63100 7.50200 33.31700
H  39.02000 7.81100 34.96800
H  39.04700 12.12800 33.86200
H  40.61100 12.66100 33.34000
H  41.46300 12.06600 35.68800
H  39.79000 11.82100 36.13500
H  35.80800 7.19800 31.30900
H  35.41900 5.95000 30.22000
H  34.67000 7.56500 29.96900
H  33.70900 7.20100 27.87000
H  34.56300 5.76600 28.18100
H  33.95200 6.03200 26.59500
H  39.91300 9.28500 24.12000
H  42.76100 8.70000 24.83000
H  40.08200 7.36600 23.36500
H  40.02700 6.65500 25.03400
H  41.57000 6.84200 24.39800
H  41.61400 10.36500 22.95800
H  43.27500 10.47800 23.76400
H  41.24100 12.52700 23.55200
H  42.69800 12.50900 24.60400
H  41.13800 11.89800 25.12200
H  45.87100 13.10400 28.32700
H  45.74700 12.13800 27.05900
H  46.45300 11.45500 28.64000
H  42.93100 13.00900 32.60700
H  45.05500 11.39500 36.02100
H  43.37100 11.00500 36.08000
H  43.99700 12.65800 36.63100
Mg 47.11300 16.58300 28.05500
C  44.88200 16.52700 30.68900
C  49.36200 18.41200 30.14600
C  48.78600 17.48900 25.28700
C  44.63100 15.18100 26.04800
N  47.04200 17.40000 30.14300
C  46.07100 17.18200 31.03900
C  46.44100 17.74400 32.38500
C  47.79300 18.57900 32.10200
C  48.14000 18.00100 30.75200
C  47.74200 20.14900 32.12300
C  46.63100 16.67300 33.45600
C  46.18000 16.90800 34.97900
H  45.79300 18.36500 35.38900
N  48.93200 17.60300 27.76800
C  49.64700 18.26300 28.71800
C  50.74400 18.90600 28.07700
C  50.62800 18.71400 26.65800
C  49.41700 17.89500 26.50400
C  51.89000 19.64800 28.87000
C  51.61400 19.08200 25.57600
O  51.39800 18.90100 24.38900
C  52.83900 19.93200 25.91600
N  46.83200 16.25700 26.03900
C  47.66800 16.70100 25.07000
C  47.17600 16.29800 23.64700
C  45.84000 15.50500 23.96200
C  45.85100 15.48300 25.47200
C  46.95400 17.59300 22.73100
C  45.65100 14.06300 23.37700
C  44.83300 13.98700 22.07900
N  45.15200 15.83600 28.30500
C  44.25200 15.31200 27.36200
C  42.93500 15.06300 27.95900
C  43.10300 15.48900 29.31100
C  44.50800 15.92100 29.45200
C  41.71400 14.38700 27.29700
C  42.46400 15.62000 30.54500
O  41.32600 15.35800 30.97000
C  43.61900 16.21000 31.45900
C  42.97500 17.49700 31.94400
O  42.65300 18.48900 31.31600
O  42.78800 17.40100 33.33100
C  42.11400 18.52700 34.00300
H  49.95700 19.14400 30.69600
H  49.34300 17.72800 24.37900
H  43.82700 14.87400 25.37700
H  45.72900 18.46600 32.78500
H  48.59900 18.32700 32.79100
H  46.84200 20.46200 32.65200
H  48.00100 20.58200 31.15700
H  48.54000 20.49600 32.77900
H  47.68700 16.44800 33.60200
H  46.14200 15.72800 33.22000
H  47.01300 16.67000 35.63900
H  45.37000 16.24000 35.27300
H  52.91500 19.51600 28.52400
H  51.92500 19.32100 29.90900
H  51.76700 20.72800 28.78000
H  53.59700 19.37500 26.46600
H  52.50100 20.74300 26.56200
H  53.05700 20.40400 24.95800
H  47.93100 15.58600 23.31300
H  44.94800 16.06000 23.67200
H  45.91300 17.76400 22.45800
H  47.49500 17.44000 21.79700
H  47.24500 18.51300 23.23900
H  45.21500 13.42800 24.14900
H  46.59500 13.54400 23.21600
H  43.91300 13.41100 22.18400
H  45.45200 13.57100 21.28400
H  44.53400 14.96200 21.69600
H  41.06400 15.11600 26.81400
H  41.26700 13.79900 28.09900
H  42.13200 13.64400 26.61800
H  44.00600 15.57400 32.25500
H  42.83500 19.34400 34.03500
H  42.06400 18.22100 35.04800
H  41.10300 18.80500 33.70400

