158

Mg 43.23900 4.22100 47.38600
C  40.70000 6.61000 46.98800
C  40.74900 1.72600 47.23800
C  45.65800 1.95600 47.25800
C  45.59000 6.88800 47.53200
N  41.02100 4.19000 47.05100
C  40.18900 5.26400 46.86800
C  38.69300 4.94400 46.65200
C  38.77700 3.43300 47.03300
C  40.27400 3.01700 47.12500
C  38.12700 3.02700 48.35400
C  38.29200 5.30200 45.19500
C  37.12500 6.32500 44.96500
H  37.25900 7.41500 43.84300
N  43.17600 2.14100 47.18300
C  42.07500 1.28700 47.09100
C  42.55900 -0.05800 46.84900
C  43.98200 -0.03200 46.76400
C  44.32300 1.39000 47.08800
C  41.70000 -1.22300 46.63500
C  44.84400 -1.20600 46.58100
O  44.43400 -2.32000 46.48100
C  46.29100 -0.96500 46.41000
N  45.37400 4.43500 47.31500
C  46.10400 3.29600 47.44400
C  47.58700 3.65200 47.66200
C  47.53300 5.19400 47.93600
C  46.08100 5.55000 47.60900
C  48.19100 2.88200 48.85600
C  48.56800 6.09300 47.20300
C  49.96800 5.40100 46.93600
N  43.22800 6.36200 47.24700
C  44.24700 7.26000 47.32800
C  43.70500 8.64000 47.15200
C  42.27300 8.42700 47.04800
C  42.04100 6.97900 47.08500
C  44.63200 9.86200 47.14900
C  41.03500 9.08300 46.99000
O  40.78200 10.30000 47.05900
C  39.99000 7.93000 46.92900
C  39.05300 8.04700 48.15700
O  39.20900 7.43800 49.23700
O  37.91500 8.71900 47.77800
C  36.78200 8.34200 48.62200
H  39.99800 0.94800 47.39100
H  46.52600 1.29300 47.27400
H  46.41000 7.60500 47.61900
H  38.20200 5.64400 47.32800
H  38.28200 2.84100 46.26300
H  37.75100 3.88800 48.90700
H  38.75500 2.42600 49.01200
H  37.17500 2.49600 48.30800
H  38.01400 4.36600 44.71200
H  39.15700 5.71900 44.68000
H  36.70300 6.84800 45.82300
H  36.39400 5.63100 44.55100
H  41.64100 -1.69900 47.61400
H  41.96600 -1.93800 45.85700
H  40.65900 -0.97600 46.42800
H  46.41200 -0.14400 45.70400
H  46.78100 -1.86100 46.03000
H  46.63400 -0.78800 47.42900
H  48.13700 3.37600 46.76200
H  47.63500 5.48400 48.98200
H  47.50600 2.17100 49.31700
H  48.69500 3.55400 49.55200
H  48.96700 2.21100 48.48800
H  48.73200 6.91500 47.90000
H  48.18000 6.52400 46.28000
H  49.81600 4.78100 46.05300
H  50.32100 4.79300 47.76900
H  50.74700 6.15500 46.82500
H  44.37700 10.49000 46.29500
H  45.70100 9.71900 46.98800
H  44.35700 10.44300 48.02900
H  39.44800 8.13300 46.00500
H  36.57900 7.27700 48.50600
H  35.86400 8.77200 48.22400
H  36.88800 8.61100 49.67300
Mg 26.32900 50.00600 25.35600
C  24.34500 51.33600 28.03100
C  28.83000 49.44500 27.61800
C  28.39800 48.98200 22.82900
C  24.20000 51.53300 23.09000
N  26.52000 50.25200 27.65000
C  25.59700 50.81300 28.48500
C  26.19900 50.89300 29.88500
C  27.55700 50.12800 29.76200
C  27.68400 49.96000 28.27000
C  28.63100 51.03000 30.43600
C  25.28200 50.34900 31.09500
C  25.87600 49.56000 32.21400
H  25.14700 49.26600 33.52500
N  28.31800 49.23000 25.25600
C  29.16900 49.07700 26.31500
C  30.46600 48.54500 25.82300
C  30.37600 48.50500 24.36600
C  29.00500 48.96400 24.09800
C  31.63200 48.27700 26.80500
C  31.47900 48.20800 23.41100
O  31.31500 48.25900 22.21500
C  32.78500 47.73100 23.98100
N  26.23700 50.15000 23.26100
C  27.23200 49.62000 22.43400
C  26.84300 49.72100 20.91700
C  25.47700 50.55800 20.95600
C  25.28400 50.74800 22.51000
C  27.92700 50.40300 20.06500
C  24.35100 49.83800 20.14700
C  23.79500 50.64800 18.99800
N  24.50500 51.08000 25.47600
C  23.79300 51.71300 24.47100
C  22.66600 52.45900 25.00700
C  22.84400 52.35100 26.38700
C  23.96000 51.51500 26.62800
C  21.75700 53.25300 24.17800
C  22.31600 52.73500 27.70400
O  21.44400 53.54800 28.06000
C  23.26100 52.11700 28.82300
C  23.80600 53.23600 29.62000
O  24.45200 54.17800 29.18400
O  23.41800 53.09800 30.89400
C  23.94500 54.11900 31.80000
H  29.59500 49.30300 28.38400
H  28.82700 48.59300 21.90300
H  23.64200 52.03000 22.29300
H  26.41400 51.95200 30.02300
H  27.65600 49.15600 30.24600
H  28.33100 51.87000 31.06200
H  29.35600 51.22600 29.64600
H  29.09900 50.45800 31.23800
H  24.62700 49.66400 30.55600
H  24.65700 51.13200 31.52400
H  26.90000 49.91900 32.31600
H  26.01100 48.60100 31.71500
H  31.87200 47.21400 26.84200
H  31.44500 48.44100 27.86600
H  32.54800 48.83100 26.59700
H  32.75200 46.84800 24.62000
H  33.15400 48.64000 24.45600
H  33.48900 47.39800 23.21800
H  26.64700 48.73900 20.48600
H  25.72900 51.58800 20.70400
H  28.29600 49.77300 19.25500
H  28.71100 50.66000 20.77600
H  27.51100 51.31200 19.63100
H  23.58100 49.64600 20.89500
H  24.68900 48.88000 19.75200
H  22.74900 50.43900 18.77200
H  24.41300 50.34200 18.15300
H  23.77200 51.72900 19.13200
H  21.03800 52.60800 23.67200
H  22.33900 53.83600 23.46400
H  21.07200 53.82800 24.80100
H  22.70600 51.47400 29.50700
H  23.95300 55.06300 31.25600
H  24.94800 53.95300 32.19400
H  23.36700 54.28400 32.71000

