158

Mg 34.36500 2.14900 29.45500
C  32.28400 3.36900 32.02200
C  36.94000 2.16200 31.53500
C  36.33800 1.60300 26.76000
C  31.62200 2.74700 27.18000
N  34.56400 2.70800 31.51100
C  33.57900 2.99000 32.46300
C  34.10700 2.83900 33.95300
C  35.64800 2.47000 33.79000
C  35.74100 2.52800 32.18300
C  36.58400 3.45600 34.59700
C  33.26000 1.79700 34.77000
C  33.03700 2.01400 36.32500
H  33.84700 3.04500 37.01700
N  36.40700 1.96100 29.20400
C  37.32300 1.97100 30.20400
C  38.67100 1.59500 29.69200
C  38.56400 1.43500 28.24600
C  37.08400 1.70100 28.01200
C  39.85900 1.35500 30.65900
C  39.54200 0.95100 27.21800
O  39.23100 0.89500 26.04400
C  40.95100 0.43000 27.64900
N  33.98400 2.13000 27.31100
C  35.02800 1.91700 26.44800
C  34.62300 2.02900 25.00900
C  33.04100 2.02100 25.17700
C  32.84400 2.31700 26.59500
C  35.18800 3.34700 24.29400
C  32.38400 0.71500 24.67600
C  32.21800 -0.41600 25.71900
N  32.40600 3.01100 29.46500
C  31.42800 3.16400 28.52800
C  30.22000 3.69100 29.10300
C  30.53700 3.79100 30.45700
C  31.85700 3.36200 30.65100
C  28.88800 3.96400 28.43400
C  29.95900 4.12300 31.76300
O  28.87000 4.53700 32.11500
C  31.07600 3.66700 32.76700
C  31.18400 4.68000 33.85000
O  31.71300 5.80400 33.74400
O  30.45200 4.31600 34.97200
C  30.30800 5.23900 36.03900
H  37.65800 1.93700 32.32600
H  36.90600 1.29400 25.88000
H  30.75000 2.75400 26.52200
H  33.97400 3.84900 34.33900
H  35.81500 1.42600 34.05300
H  37.41600 3.85000 34.01300
H  36.93200 3.04700 35.54500
H  36.03000 4.35300 34.87500
H  33.60400 0.80000 34.49500
H  32.21500 1.95700 34.50600
H  33.08200 1.07600 36.87800
H  32.04300 2.42900 36.49000
H  39.91600 1.92900 31.58400
H  40.77700 1.62400 30.13500
H  39.95600 0.28500 30.83900
H  40.87500 -0.08500 28.60700
H  41.50600 1.34800 27.83800
H  41.50000 -0.28100 27.03000
H  34.92300 1.14700 24.44400
H  32.56700 2.85400 24.65800
H  35.97700 3.87400 24.83000
H  34.39900 3.98700 23.90000
H  35.68800 3.07500 23.36400
H  32.99500 0.33300 23.85900
H  31.45800 1.00800 24.18200
H  32.40100 -0.04700 26.72800
H  32.86900 -1.27200 25.54400
H  31.23100 -0.86800 25.62600
H  28.78200 3.54900 27.43200
H  29.01500 5.04600 28.38300
H  27.97700 3.91200 29.03000
H  30.67500 2.83500 33.34600
H  29.98800 6.26500 35.85400
H  31.29600 5.42600 36.45800
H  29.66600 4.68600 36.72400
Mg 48.03200 35.85900 27.89200
C  46.16300 33.90500 30.16900
C  48.29800 38.18400 30.29100
C  49.56900 37.66100 25.43100
C  47.46300 33.35200 25.42400
N  47.29700 36.02300 29.99100
C  46.65200 35.09600 30.76700
C  46.75600 35.45400 32.31500
C  47.13300 36.95500 32.19300
C  47.50300 37.12800 30.65400
C  46.15300 37.97700 32.71800
C  47.85800 34.53500 33.03000
C  48.00600 34.86200 34.45600
H  46.96700 35.56300 35.20500
N  48.75000 37.71200 27.85100
C  48.93000 38.51700 28.95700
C  49.71700 39.69700 28.58800
C  50.01200 39.55200 27.18600
C  49.45900 38.24200 26.75900
C  50.13500 40.68900 29.64200
C  50.67400 40.56700 26.21300
O  50.68800 40.44800 24.96500
C  51.31100 41.81100 26.83200
N  48.21200 35.63400 25.62600
C  48.92900 36.50800 24.89500
C  49.17300 36.06100 23.45600
C  48.64200 34.59500 23.47300
C  48.03700 34.54700 24.87800
C  48.44900 36.86700 22.32900
C  49.74700 33.45000 23.22700
C  49.31800 32.47700 22.06600
N  47.05600 33.95200 27.78300
C  46.88900 33.07300 26.70700
C  46.21800 31.91900 27.18800
C  45.81300 32.26100 28.48800
C  46.36100 33.48500 28.83400
C  45.77000 30.77100 26.33900
C  45.02600 31.79300 29.62200
O  44.43900 30.70900 29.77400
C  45.14100 32.89800 30.76900
C  45.32000 32.33200 32.12500
O  45.95600 31.35500 32.52200
O  44.52300 33.07600 32.93200
C  44.43100 32.73700 34.31600
H  48.28300 39.01500 30.99900
H  50.21300 38.15600 24.70200
H  47.48400 32.53600 24.70000
H  45.74800 35.40500 32.72800
H  48.03500 37.07100 32.79300
H  46.64100 38.71900 33.35000
H  45.35100 37.59400 33.34900
H  45.59900 38.49800 31.93800
H  48.78700 34.70300 32.48500
H  47.69300 33.46200 32.93400
H  48.90100 35.48000 34.52700
H  48.15000 33.89300 34.93400
H  51.20900 40.55200 29.76900
H  49.68800 40.44200 30.60500
H  49.80600 41.69300 29.37300
H  51.55700 41.88900 27.89100
H  50.78300 42.65700 26.39200
H  52.33200 41.88000 26.45800
H  50.23200 36.02500 23.19700
H  47.86800 34.52100 22.70900
H  49.16000 37.59100 21.93100
H  47.58300 37.42900 22.68100
H  48.16600 36.26300 21.46700
H  49.93200 32.87800 24.13600
H  50.62000 34.00900 22.89200
H  49.95900 32.46400 21.18500
H  48.30900 32.74800 21.75400
H  49.41000 31.43900 22.38800
H  46.71300 30.58700 25.82600
H  44.98300 30.93900 25.60300
H  45.46900 29.95600 26.99700
H  44.14400 33.33800 30.76100
H  43.75200 33.40800 34.84200
H  45.44900 32.70700 34.70400
H  43.96900 31.75500 34.42800

