158

Mg 9.55400 48.04100 26.74500
C  7.61800 47.92300 29.59800
C  12.17000 49.49500 28.38200
C  11.32500 47.67600 23.88500
C  6.61800 47.20800 25.02800
N  9.72200 48.86800 28.71600
C  8.89000 48.47400 29.75900
C  9.63000 48.68900 31.08800
C  10.89600 49.48400 30.63300
C  10.97600 49.28200 29.13700
C  10.90300 50.93500 31.11800
C  9.93900 47.54600 32.11900
C  9.60400 47.86000 33.58900
H  9.61900 46.63200 34.54200
N  11.51300 48.54900 26.13500
C  12.40300 49.10200 27.01500
C  13.71400 49.13700 26.37000
C  13.45600 48.54900 25.07200
C  12.05800 48.23900 24.95800
C  14.95900 49.73800 26.98400
C  14.43300 48.31100 23.94500
O  14.08500 47.79700 22.87300
C  15.93400 48.53900 24.18500
N  9.02400 47.59600 24.76400
C  9.88800 47.48300 23.79200
C  9.34900 46.77900 22.62400
C  7.83300 46.87400 22.86200
C  7.78300 47.30400 24.34100
C  9.84800 47.30500 21.27000
C  7.06200 45.53600 22.58900
C  5.82600 45.82700 21.68700
N  7.46100 47.65900 27.15300
C  6.45500 47.26900 26.39000
C  5.26400 47.00800 27.13400
C  5.64200 47.32600 28.53000
C  7.01500 47.59100 28.39800
C  3.89100 46.63800 26.58900
C  5.21400 47.49700 29.86500
O  4.13200 47.31600 30.42200
C  6.55500 47.67900 30.68400
C  6.88600 46.37100 31.32000
O  7.47500 45.48400 30.80000
O  6.30400 46.29200 32.49800
C  6.30400 45.04300 33.24300
H  12.95000 50.03200 28.92600
H  11.83900 47.32100 22.99000
H  5.76200 46.97500 24.39200
H  8.93700 49.30400 31.66300
H  11.83600 49.03500 30.95200
H  10.83300 51.49100 30.18300
H  11.84100 51.10700 31.64600
H  10.03500 51.14900 31.74100
H  11.02800 47.53400 32.15000
H  9.72800 46.51800 31.82400
H  8.70300 48.43200 33.81200
H  10.54400 48.29900 33.92400
H  15.64400 48.93000 27.24300
H  14.70300 50.35800 27.84300
H  15.41700 50.37900 26.23000
H  16.18800 48.15100 25.17200
H  16.17500 49.60100 24.15700
H  16.52300 48.08400 23.38900
H  9.60600 45.73900 22.82900
H  7.41200 47.64200 22.21300
H  10.23300 48.30800 21.45600
H  9.05000 47.28300 20.52700
H  10.63900 46.66300 20.88300
H  6.77400 44.99100 23.48700
H  7.73300 44.91700 21.99300
H  5.74600 45.17100 20.82100
H  5.75900 46.84700 21.30800
H  4.89200 45.60500 22.20300
H  3.81500 46.36400 25.53600
H  3.26300 47.51900 26.72400
H  3.51700 45.79500 27.17000
H  6.42700 48.49700 31.39400
H  5.84000 45.03300 34.23000
H  7.35700 44.79200 33.36800
H  5.84700 44.24700 32.65500
Mg -11.39100 38.36900 41.89700
C  -9.27400 35.69000 40.63400
C  -9.37300 40.47000 40.03000
C  -13.92000 40.50500 41.70200
C  -13.62200 35.77100 43.08600
N  -9.55200 38.07700 40.49900
C  -8.86800 36.98000 40.17300
C  -7.61500 37.32400 39.35100
C  -7.48100 38.85300 39.55700
C  -8.92400 39.18900 40.04900
C  -6.35600 39.32400 40.51800
C  -7.78600 36.85100 37.79000
C  -6.88100 35.70000 37.38500
H  -5.59600 36.01000 36.68600
N  -11.49100 40.30700 41.31800
C  -10.52900 41.00200 40.66000
C  -10.85000 42.43000 40.76800
C  -12.21300 42.44600 41.09400
C  -12.64900 41.03500 41.38200
C  -9.87800 43.44800 40.24900
C  -13.07300 43.77400 41.13200
O  -12.53700 44.86200 40.95400
C  -14.54800 43.73800 41.44100
N  -13.48200 38.21400 42.36700
C  -14.36500 39.25700 42.28700
C  -15.73600 38.93500 42.99900
C  -15.56500 37.42200 43.33400
C  -14.07600 37.06100 42.90700
C  -15.98800 39.78500 44.21300
C  -16.73800 36.43000 42.81300
C  -17.28500 35.44900 43.85900
N  -11.46400 36.21000 41.96200
C  -12.40600 35.29200 42.54700
C  -11.87000 33.96800 42.46900
C  -10.66800 34.08000 41.74400
C  -10.47200 35.43000 41.43100
C  -12.55300 32.78400 43.12500
C  -9.60200 33.30500 41.06800
O  -9.35700 32.12700 41.12800
C  -8.68200 34.32200 40.37600
C  -7.21100 34.25900 40.77700
O  -6.73500 34.90800 41.69900
O  -6.52800 33.27800 40.06400
C  -5.09800 33.08200 40.50100
H  -8.67600 41.14100 39.52300
H  -14.80000 41.15100 41.71700
H  -14.32600 35.07500 43.54700
H  -6.77100 36.80200 39.80300
H  -7.31000 39.16900 38.52800
H  -6.63800 40.28800 40.94300
H  -5.39000 39.38800 40.01700
H  -6.29800 38.59500 41.32600
H  -7.64700 37.66000 37.07400
H  -8.82500 36.56300 37.62500
H  -7.38300 34.99600 36.72200
H  -6.66700 35.11300 38.27800
H  -10.20800 44.37500 40.71900
H  -9.90900 43.47300 39.16000
H  -8.91300 43.16200 40.66600
H  -15.02200 43.09300 40.70000
H  -15.03800 44.70200 41.30300
H  -14.82000 43.25400 42.37900
H  -16.58900 39.01400 42.32500
H  -15.54100 37.23600 44.40800
H  -15.06300 39.98900 44.75200
H  -16.66700 39.33600 44.93700
H  -16.54200 40.70700 44.04000
H  -16.21600 35.86000 42.04500
H  -17.51300 37.02500 42.33000
H  -18.37000 35.54300 43.91000
H  -16.75500 35.66600 44.78700
H  -17.13700 34.43500 43.48800
H  -13.48600 32.47800 42.65200
H  -12.76500 32.90200 44.18800
H  -11.90200 31.92400 42.96900
H  -8.79200 34.20600 39.29800
H  -4.61700 32.24600 39.99300
H  -5.11400 33.06500 41.59100
H  -4.52800 33.93500 40.13200

