158

Mg 47.28000 17.02400 28.18100
C  45.39500 16.69800 31.19300
C  49.66800 18.39200 30.01700
C  48.92900 17.27500 25.36900
C  44.58000 15.72800 26.44300
N  47.50400 17.45900 30.33300
C  46.65000 17.32700 31.40000
C  47.30600 17.80400 32.71200
C  48.54400 18.63000 32.21200
C  48.51900 18.18300 30.76300
C  48.38800 20.18300 32.36200
C  47.72900 16.63300 33.57300
C  48.19100 16.92700 35.06200
H  47.78500 18.26300 35.78400
N  49.06100 17.65500 27.81900
C  49.97000 18.08600 28.65600
C  51.23700 18.39300 27.92300
C  51.03600 18.03200 26.57000
C  49.65100 17.56900 26.57500
C  52.39100 18.87300 28.69800
C  51.96700 18.03700 25.44600
O  51.67400 17.67300 24.30000
C  53.40600 18.56300 25.59800
N  46.92400 16.21900 26.22000
C  47.72400 16.63500 25.22000
C  47.00700 16.49100 23.81800
C  45.56900 15.95300 24.28200
C  45.68200 16.04600 25.71600
C  46.79400 17.84600 23.04800
C  45.14000 14.54500 23.86400
C  45.55500 14.24200 22.45000
N  45.45900 16.30600 28.70100
C  44.47500 15.71100 27.87300
C  43.37800 15.32500 28.70700
C  43.67300 15.66600 30.01100
C  44.94300 16.28800 29.95500
C  42.10800 14.68500 28.13000
C  43.18500 15.54800 31.39500
O  42.10300 15.15100 31.89200
C  44.32900 16.17700 32.23700
C  43.63100 17.24500 33.05700
O  43.51700 18.47500 32.79400
O  43.15700 16.57200 34.18400
C  42.71300 17.58500 35.15100
H  50.41100 18.91200 30.62700
H  49.40000 17.50800 24.41100
H  43.69000 15.40500 25.89900
H  46.63400 18.50000 33.21400
H  49.45600 18.37400 32.75200
H  49.32000 20.47800 32.84400
H  47.63300 20.48900 33.08600
H  48.15900 20.58200 31.37300
H  48.68300 16.30300 33.16200
H  47.04900 15.78400 33.63700
H  49.27800 16.87100 35.12300
H  47.81500 16.12400 35.69500
H  52.13700 18.70500 29.74500
H  52.68400 19.91700 28.58200
H  53.29600 18.34200 28.40200
H  54.02200 17.82700 26.11300
H  53.42200 19.52500 26.11000
H  53.79800 18.66900 24.58600
H  47.56400 15.84900 23.13500
H  44.71800 16.61800 24.13700
H  45.73800 18.09700 22.94800
H  47.23200 17.90800 22.05200
H  47.14100 18.70900 23.61700
H  44.09500 14.24600 23.77900
H  45.63600 13.79600 24.48100
H  46.47600 13.69600 22.65300
H  45.63900 15.08900 21.76900
H  44.94800 13.49900 21.93200
H  41.34000 15.44600 28.26800
H  41.82900 13.75800 28.63100
H  42.28900 14.28900 27.13100
H  44.64100 15.44700 32.98300
H  43.47600 18.33900 35.34900
H  42.56800 17.07400 36.10300
H  41.74400 17.97100 34.83600
Mg 5.57200 54.12200 40.98300
C  4.61800 50.71500 40.32100
C  8.60300 53.46600 39.60500
C  6.13400 57.48600 41.16300
C  2.31900 54.51100 42.35700
N  6.30900 52.41600 39.81100
C  5.83700 51.14600 39.75600
C  6.78200 50.30400 38.93200
C  8.17900 51.01000 39.21200
C  7.67200 52.37500 39.60600
C  9.12000 50.42800 40.27600
C  6.33700 50.28800 37.42800
C  7.24600 49.39100 36.47300
H  6.30900 48.56600 35.50500
N  7.17900 55.34900 40.36400
C  8.34800 54.84300 39.94400
C  9.29400 55.97400 39.85100
C  8.51800 57.16500 40.09800
C  7.19800 56.72400 40.52900
C  10.65300 55.77900 39.39600
C  9.04100 58.50800 40.06500
O  10.18900 58.74700 39.63100
C  8.25500 59.73700 40.42200
N  4.34000 55.70100 41.48200
C  4.88200 56.95800 41.60000
C  3.93800 57.97100 42.31300
C  2.75600 57.02000 42.79900
C  3.16100 55.63200 42.21100
C  4.61600 58.86000 43.47800
C  1.30100 57.53300 42.33200
C  0.54100 58.30800 43.34500
N  3.72500 52.83300 41.25900
C  2.57800 53.18100 41.98300
C  1.77700 51.94200 42.12200
C  2.60400 50.99700 41.53400
C  3.68600 51.54900 40.96700
C  0.42900 51.81000 42.79600
C  2.51300 49.63100 41.27700
O  1.71500 48.78800 41.64700
C  3.93000 49.37000 40.43500
C  3.50500 48.62200 39.15600
O  2.45300 48.59200 38.50400
O  4.63200 47.87600 38.83200
C  4.70600 46.64000 38.10200
H  9.62200 53.25600 39.27300
H  6.33900 58.54200 41.35200
H  1.40500 54.73000 42.91400
H  6.95700 49.31500 39.35600
H  8.63600 51.11000 38.22800
H  10.12800 50.24600 39.90300
H  8.75000 49.47900 40.66400
H  9.15900 51.10100 41.13300
H  6.44400 51.29200 37.01700
H  5.29400 50.02300 37.25800
H  7.95400 48.62700 36.79100
H  7.82000 50.10900 35.88800
H  11.33000 56.24000 40.11600
H  10.66000 55.98100 38.32500
H  10.87600 54.72700 39.57100
H  8.91200 60.54600 40.10200
H  8.05600 59.74900 41.49400
H  7.37200 59.75300 39.78400
H  3.50700 58.60800 41.54100
H  2.63500 56.83400 43.86600
H  4.19100 58.71000 44.47000
H  4.26100 59.88200 43.34500
H  5.69700 58.73200 43.52600
H  0.72600 56.67400 41.98600
H  1.45000 58.15500 41.45000
H  -0.15200 58.98600 42.84700
H  1.23700 58.88700 43.95200
H  -0.02200 57.56600 43.91100
H  0.01100 50.88200 42.40600
H  -0.19900 52.66200 42.53800
H  0.64000 51.73700 43.86300
H  4.39000 48.65000 41.11100
H  4.15400 45.86000 38.62500
H  5.73800 46.35200 37.90300
H  4.32000 46.90400 37.11700

