158

Mg -2.45900 17.31300 26.59500
C  -2.55200 15.36200 29.43800
C  -2.69500 20.09400 28.57500
C  -2.68800 19.17000 23.81800
C  -2.83700 14.32100 24.66100
N  -2.54500 17.68300 28.76100
C  -2.55400 16.73300 29.76000
C  -2.58600 17.31100 31.13500
C  -2.47400 18.82800 30.86100
C  -2.63000 18.85900 29.32700
C  -3.51600 19.65200 31.59400
C  -1.49000 16.81000 32.16400
C  -0.69300 17.63600 33.24900
H  -0.41700 17.00800 34.60500
N  -2.53700 19.32100 26.22700
C  -2.65000 20.33700 27.14200
C  -2.52700 21.61800 26.50000
C  -2.36700 21.35700 25.08900
C  -2.56000 19.87600 24.97700
C  -2.74800 22.92700 27.26300
C  -2.00900 22.27600 23.98100
O  -2.03700 21.87500 22.83000
C  -1.78300 23.78100 24.18900
N  -2.77200 16.82300 24.55600
C  -2.82300 17.77000 23.61200
C  -2.90100 17.16900 22.20800
C  -3.12000 15.67700 22.48700
C  -2.82200 15.56700 23.99400
C  -4.07200 17.84600 21.35300
C  -2.10900 14.77000 21.72000
C  -0.58800 14.90200 22.17000
N  -2.47300 15.20000 26.84500
C  -2.64600 14.09800 26.02200
C  -2.76200 12.87300 26.73800
C  -2.77700 13.37300 28.09200
C  -2.58000 14.80000 28.12500
C  -2.76800 11.53900 26.15100
C  -2.91900 12.95300 29.48600
O  -3.14300 11.83300 29.89500
C  -2.70100 14.11900 30.42900
C  -1.47100 13.77500 31.22100
O  -0.28300 13.91700 30.83300
O  -1.85200 13.33300 32.43800
C  -0.81600 12.98700 33.44200
H  -2.67900 20.95700 29.24400
H  -2.84200 19.79500 22.93500
H  -3.07300 13.37500 24.16900
H  -3.61300 17.11100 31.43900
H  -1.49200 19.26700 31.03900
H  -4.07800 20.25000 30.87600
H  -2.96600 20.36800 32.20500
H  -4.13800 18.99700 32.20500
H  -0.73600 16.32300 31.54600
H  -1.98900 16.09900 32.82200
H  -1.34300 18.50600 33.34700
H  0.28600 17.86000 32.82700
H  -1.74300 23.32700 27.40000
H  -3.23600 22.87700 28.23700
H  -3.30900 23.59200 26.60700
H  -1.08100 23.90200 25.01400
H  -2.69400 24.18300 24.63100
H  -1.55600 24.36500 23.29600
H  -1.90600 17.28100 21.77800
H  -4.13200 15.35700 22.23800
H  -4.51200 17.16100 20.62900
H  -3.62400 18.54700 20.64900
H  -4.80000 18.42200 21.92500
H  -2.29000 15.12300 20.70400
H  -2.51600 13.76200 21.80100
H  -0.33700 14.08900 22.85100
H  -0.40900 15.84500 22.68700
H  -0.08100 14.88400 21.20500
H  -1.94800 11.39400 25.44800
H  -3.76000 11.48000 25.70300
H  -2.72100 10.85000 26.99400
H  -3.56800 14.24300 31.07800
H  -0.99300 13.60100 34.32500
H  0.20900 13.10200 33.08900
H  -0.85400 11.99000 33.87900
Mg 8.29500 2.52000 27.81300
C  9.68100 1.00300 30.49700
C  6.52700 4.50900 29.93100
C  6.64400 3.78500 25.10800
C  9.64900 0.11000 25.66400
N  8.27800 2.85200 29.94000
C  9.00500 2.14400 30.88900
C  8.79300 2.75300 32.29700
C  7.56700 3.72600 32.06000
C  7.51200 3.73000 30.53400
C  6.24200 3.15900 32.67000
C  10.07900 3.39500 32.95400
C  10.39700 2.95200 34.37900
H  10.32000 4.03800 35.42600
N  6.70300 3.97500 27.55200
C  6.14300 4.71200 28.53400
C  5.17400 5.65000 27.93300
C  5.19700 5.42800 26.54600
C  6.30400 4.39400 26.33000
C  4.30300 6.61900 28.76000
C  4.36800 6.08200 25.45800
O  4.38500 5.84400 24.23000
C  3.37800 7.04600 25.85700
N  8.11500 2.01900 25.66400
C  7.49000 2.76800 24.77300
C  7.74200 2.32700 23.32000
C  8.79400 1.15800 23.44700
C  8.85900 1.07400 24.99700
C  6.42300 2.02200 22.50800
C  10.13700 1.38000 22.80400
C  10.75000 0.09400 22.21500
N  9.28800 0.77900 27.93400
C  9.80900 -0.10600 27.00200
C  10.63100 -1.10800 27.60900
C  10.52600 -0.74400 28.99500
C  9.70600 0.43300 29.15300
C  11.39500 -2.29000 27.01600
C  10.92800 -1.15900 30.31700
O  11.55800 -2.11000 30.67500
C  10.48800 -0.05100 31.34300
C  9.76100 -0.65300 32.44400
O  8.86500 -1.44700 32.29700
O  10.27000 -0.25800 33.64400
C  9.73100 -0.89600 34.86300
H  5.93200 5.20300 30.52800
H  6.18200 4.32900 24.28200
H  10.17500 -0.56700 24.98800
H  8.48200 1.95700 32.97300
H  7.68400 4.72800 32.47200
H  5.71700 2.49600 31.98100
H  5.48100 3.90600 32.89800
H  6.41800 2.56800 33.56800
H  10.04400 4.46300 32.74000
H  10.91900 3.02100 32.36800
H  11.45000 2.68000 34.31200
H  9.75200 2.10200 34.60100
H  4.72300 6.62600 29.76600
H  3.26000 6.30500 28.75200
H  4.44400 7.63000 28.37800
H  3.77100 8.03600 26.09000
H  2.72700 6.69000 26.65600
H  2.71500 7.21400 25.00800
H  8.24000 3.12300 22.76500
H  8.43500 0.15600 23.21100
H  5.61600 2.12000 23.23300
H  6.55200 1.03400 22.06700
H  6.20000 2.82200 21.80200
H  10.81600 1.67900 23.60200
H  10.11600 2.17400 22.05600
H  10.87000 0.36200 21.16500
H  10.05300 -0.74400 22.20400
H  11.64600 -0.25300 22.73000
H  12.26700 -2.36000 27.66700
H  11.60800 -1.90800 26.01800
H  10.85200 -3.23000 26.91500
H  11.33500 0.32900 31.91300
H  9.16200 -0.10600 35.35300
H  10.56700 -1.17000 35.50600
H  9.05600 -1.73800 34.70800

