158

Mg 16.37200 -2.45900 27.99800
C  15.35600 -0.45000 30.66700
C  18.53200 -4.17700 30.22400
C  17.94900 -3.99300 25.39900
C  14.68200 -0.37100 25.82600
N  16.90400 -2.33500 30.15900
C  16.30100 -1.42000 31.00800
C  16.81300 -1.69700 32.42300
C  18.00400 -2.79900 32.28700
C  17.80700 -3.17600 30.80800
C  19.36500 -2.13900 32.58600
C  15.68000 -2.07700 33.38400
C  15.57300 -1.34900 34.74400
H  16.88500 -0.67200 35.18800
N  18.07800 -3.85100 27.87200
C  18.71200 -4.51100 28.88100
C  19.50000 -5.58900 28.39200
C  19.40300 -5.48100 26.93300
C  18.43100 -4.37400 26.64200
C  20.11100 -6.65500 29.28900
C  20.13600 -6.26600 25.90600
O  20.01900 -6.10700 24.69900
C  21.16900 -7.37800 26.35300
N  16.30100 -2.30100 25.98100
C  16.98600 -3.00600 25.02900
C  16.68100 -2.62100 23.62900
C  15.53800 -1.52700 23.80500
C  15.48800 -1.39400 25.31100
C  17.81100 -2.26000 22.67100
C  14.19400 -1.99700 23.13600
C  13.13000 -0.93800 22.97100
N  15.09400 -0.83500 28.16000
C  14.41900 -0.10800 27.20300
C  13.55300 0.92200 27.86000
C  13.87300 0.81300 29.20100
C  14.83100 -0.19400 29.34100
C  12.77900 1.97200 27.09200
C  13.59400 1.37000 30.54300
O  12.87900 2.32200 30.88400
C  14.50500 0.51100 31.52300
C  15.39500 1.53200 32.17800
O  16.29200 2.17800 31.59400
O  14.81100 1.80000 33.34600
C  15.01800 3.16300 33.75400
H  19.15500 -4.62000 31.00400
H  18.30700 -4.61800 24.57900
H  14.19100 0.38100 25.20600
H  17.31700 -0.77000 32.69700
H  17.90000 -3.66100 32.94600
H  19.90400 -1.91400 31.66500
H  20.00300 -2.92700 32.98500
H  19.25000 -1.30500 33.27800
H  15.79100 -3.15600 33.49100
H  14.68600 -1.87800 32.98300
H  15.18200 -2.04700 35.48400
H  14.80200 -0.57800 34.76700
H  21.17700 -6.48400 29.13900
H  19.73100 -7.62000 28.95400
H  19.88400 -6.43300 30.33200
H  20.71200 -7.99900 27.12300
H  22.09700 -6.94200 26.72500
H  21.47100 -8.01200 25.52000
H  16.17000 -3.46500 23.16600
H  15.95100 -0.55700 23.53000
H  18.65700 -1.94000 23.27900
H  17.56200 -1.40300 22.04600
H  18.13000 -3.08800 22.03800
H  13.84700 -2.73600 23.85900
H  14.28500 -2.47800 22.16200
H  13.70500 -0.03200 22.78100
H  12.44500 -0.88700 23.81700
H  12.51600 -1.34300 22.16700
H  13.18500 2.18600 26.10300
H  12.68000 2.88400 27.68200
H  11.74800 1.64900 26.94800
H  13.98500 0.04600 32.36100
H  14.42600 3.87000 33.17200
H  16.04500 3.52900 33.73700
H  14.64300 3.11300 34.77600
Mg 47.02100 25.52200 28.11700
C  48.18300 27.79800 30.49700
C  46.26300 23.37300 30.66900
C  46.35200 23.30500 25.75900
C  48.69900 27.51900 25.61400
N  47.27500 25.54600 30.32100
C  47.48700 26.71500 30.99400
C  47.10400 26.57200 32.47600
C  46.46600 25.11400 32.53300
C  46.69000 24.61400 31.07100
C  47.09300 24.29300 33.63900
C  46.16900 27.71600 33.02500
C  45.35200 27.46500 34.22000
H  45.21100 28.58000 35.31500
N  46.22500 23.69700 28.22400
C  45.94400 22.98400 29.36500
C  45.34900 21.76600 28.89200
C  45.29400 21.73700 27.44900
C  45.98300 22.94600 27.08100
C  44.62400 20.86800 29.89800
C  44.65800 20.67300 26.56400
O  44.80200 20.64900 25.29800
C  44.04100 19.37700 27.03200
N  47.26300 25.54800 25.96400
C  46.84700 24.48300 25.22500
C  47.12000 24.77200 23.72200
C  47.79000 26.18600 23.69100
C  48.02000 26.43500 25.18200
C  48.03800 23.74300 23.04700
C  47.12200 27.37500 22.96700
C  47.98700 28.22900 22.08400
N  48.24200 27.41400 28.02200
C  48.91400 27.97900 26.98100
C  49.68600 29.00600 27.50900
C  49.37700 29.11300 28.84000
C  48.52800 27.99900 29.16200
C  50.63200 29.84600 26.68300
C  49.67900 29.75800 30.10500
O  50.44400 30.69300 30.35600
C  48.87900 28.99000 31.19000
C  49.90500 28.57900 32.18600
O  50.33400 27.43800 32.36800
O  49.96000 29.65300 33.10500
C  50.50600 29.39400 34.44900
H  46.03800 22.68600 31.48700
H  46.27500 22.51600 25.00800
H  49.23400 28.01500 24.80200
H  47.92300 26.60700 33.19500
H  45.39500 25.26200 32.67400
H  46.33300 24.17400 34.41100
H  47.93600 24.75000 34.15700
H  47.44900 23.31500 33.31600
H  45.51600 27.89400 32.17100
H  46.74400 28.63300 33.15000
H  45.74300 26.57400 34.71000
H  44.31900 27.19700 34.00000
H  43.58700 20.66000 29.63300
H  44.53900 21.36700 30.86300
H  45.21200 19.95700 30.00900
H  44.05900 18.74800 26.14300
H  42.98900 19.53200 27.27000
H  44.60800 18.87700 27.81700
H  46.17700 24.75600 23.17600
H  48.81100 26.01300 23.35300
H  48.41000 23.96800 22.04800
H  47.39500 22.86400 23.01000
H  48.87300 23.39700 23.65600
H  46.57700 28.09300 23.57900
H  46.42000 26.87300 22.30000
H  47.58500 28.15300 21.07300
H  49.04500 27.96800 22.05700
H  47.86700 29.24900 22.44900
H  51.65000 29.57200 26.96000
H  50.37300 30.87700 26.92700
H  50.32000 29.79000 25.64000
H  48.13400 29.70400 31.54100
H  50.69100 28.32000 34.47200
H  49.88100 29.69700 35.28900
H  51.46400 29.90500 34.54000

