158

Mg 0.73400 7.51300 25.34100
C  1.43000 9.58500 28.16800
C  1.44600 4.79200 27.28700
C  0.08600 5.76000 22.81000
C  0.88400 10.45200 23.42700
N  1.43500 7.22000 27.52100
C  1.40100 8.13800 28.55600
C  1.49400 7.48600 29.94500
C  1.69200 5.96500 29.58100
C  1.60700 6.00300 28.04800
C  3.02700 5.34200 30.10600
C  0.32100 7.78800 30.91500
C  0.58400 8.09400 32.44900
H  1.63200 7.19200 33.06000
N  0.72800 5.52500 25.06400
C  1.04600 4.53300 25.98300
C  0.71400 3.22000 25.39300
C  0.34200 3.58200 24.03500
C  0.37800 4.98000 23.92400
C  0.97600 1.94800 26.17300
C  -0.04700 2.66400 22.87400
O  -0.44600 2.94700 21.73600
C  0.09900 1.20300 23.09100
N  0.63200 8.06100 23.29400
C  0.24700 7.07100 22.46400
C  -0.38000 7.70900 21.15300
C  0.00800 9.21600 21.25900
C  0.54400 9.31900 22.69700
C  -0.10800 6.99400 19.75200
C  -1.24700 10.23800 21.06700
C  -0.98400 11.38000 20.12700
N  1.15000 9.52400 25.68200
C  1.18500 10.61100 24.76200
C  1.59300 11.81400 25.48400
C  1.63800 11.44700 26.82200
C  1.35000 10.09000 26.86900
C  1.72000 13.20500 24.90400
C  1.73600 11.99100 28.16200
O  2.10300 13.09100 28.55400
C  1.67400 10.74700 29.13800
C  2.91100 10.67900 29.85000
O  3.99000 10.38400 29.40000
O  2.71100 10.95100 31.20500
C  3.84900 10.72400 32.08200
H  1.49300 3.84400 27.82700
H  -0.27200 5.20900 21.93800
H  0.87500 11.39600 22.87900
H  2.42900 7.91300 30.30700
H  0.82200 5.37300 29.86500
H  2.86400 4.42100 30.66700
H  3.60900 6.05700 30.68800
H  3.73500 5.02200 29.34200
H  -0.26400 6.86900 30.93300
H  -0.30900 8.61300 30.58300
H  -0.27400 7.91500 33.09700
H  0.88600 9.13500 32.56700
H  0.11300 1.29500 26.04800
H  1.05100 2.07400 27.25300
H  1.85600 1.41400 25.81400
H  -0.50200 0.85100 23.92900
H  1.13600 0.96000 23.32400
H  -0.32100 0.66500 22.24100
H  -1.44000 7.56400 21.36500
H  0.80300 9.44800 20.55000
H  0.80400 6.42600 19.93000
H  0.07900 7.78900 19.03000
H  -0.93500 6.31700 19.53400
H  -1.62100 10.63100 22.01200
H  -2.11900 9.84100 20.54700
H  -1.44000 11.25100 19.14600
H  0.09800 11.51400 20.14500
H  -1.53200 12.22900 20.53500
H  0.86800 13.57800 24.33600
H  2.66600 13.16900 24.36300
H  1.92600 13.80200 25.79200
H  0.84300 10.88600 29.83000
H  3.50300 10.23700 32.99400
H  4.25700 11.67800 32.41400
H  4.66200 10.19200 31.58700
Mg -11.65800 38.40600 42.85300
C  -9.61900 35.80300 41.73900
C  -9.46100 40.60400 41.43600
C  -13.82000 40.99600 43.56300
C  -14.28700 36.11500 43.41300
N  -9.82800 38.11800 41.46900
C  -9.14100 36.96800 41.24800
C  -7.88500 37.18900 40.49100
C  -7.78400 38.77100 40.64700
C  -9.09500 39.20600 41.20300
C  -6.55600 39.31600 41.33400
C  -8.01300 36.80100 38.92900
C  -7.11600 35.65100 38.48600
H  -6.03000 35.82100 37.39400
N  -11.67500 40.53500 42.60400
C  -10.63600 41.21800 42.01500
C  -10.89200 42.64600 42.23200
C  -12.13000 42.84300 42.84900
C  -12.56800 41.43500 43.03200
C  -10.10100 43.74800 41.67100
C  -12.78600 44.15800 43.27000
O  -12.24500 45.25700 43.09400
C  -14.00300 44.13300 44.01200
N  -13.85200 38.49600 43.38000
C  -14.43800 39.74300 43.62300
C  -15.91700 39.57800 44.03600
C  -16.09400 37.95100 43.99200
C  -14.68000 37.45800 43.50800
C  -16.32200 40.04800 45.44200
C  -17.22500 37.57900 42.98800
C  -18.43600 36.92100 43.56900
N  -11.91200 36.34200 42.65700
C  -13.02000 35.55700 42.98300
C  -12.67500 34.20500 42.64200
C  -11.31100 34.27000 42.35100
C  -10.93800 35.59600 42.24900
C  -13.56700 33.05200 42.77100
C  -10.14900 33.44000 41.85500
O  -10.08400 32.27600 41.67400
C  -9.03700 34.44700 41.39800
C  -7.86600 34.17400 42.23400
O  -7.72800 34.42300 43.42400
O  -7.04000 33.33700 41.58900
C  -5.99000 32.60300 42.30500
H  -8.64200 41.27000 41.15700
H  -14.61400 41.69700 43.82800
H  -15.12900 35.45200 43.62200
H  -7.04900 36.71600 41.00500
H  -7.72300 39.19800 39.64600
H  -5.88900 39.91700 40.71600
H  -6.08300 38.47400 41.83900
H  -6.86800 39.95100 42.16400
H  -7.72800 37.69300 38.37000
H  -9.05800 36.58100 38.71500
H  -7.87800 34.95300 38.14000
H  -6.57200 35.33400 39.37600
H  -10.85900 44.20700 41.03600
H  -9.31300 43.46600 40.97200
H  -9.75100 44.51700 42.35900
H  -13.96400 43.46700 44.87400
H  -14.72300 43.82700 43.25400
H  -14.32500 45.14200 44.27100
H  -16.53200 40.16500 43.35300
H  -16.26800 37.47400 44.95600
H  -16.81800 39.41000 46.17400
H  -16.94500 40.93700 45.33900
H  -15.41200 40.33700 45.96700
H  -16.90000 36.89400 42.20600
H  -17.62500 38.50800 42.58300
H  -18.34200 35.83900 43.66000
H  -19.26600 37.15400 42.90200
H  -18.61100 37.34700 44.55700
H  -13.34400 32.54900 43.71200
H  -13.45700 32.30500 41.98500
H  -14.60300 33.38400 42.69600
H  -8.87600 34.33100 40.32600
H  -5.26100 33.25400 42.78700
H  -5.36200 32.24100 41.49100
H  -6.40600 31.91300 43.03900

