158

Mg 43.88000 3.14200 47.88800
C  41.63700 5.65900 47.03600
C  41.29300 0.83400 47.61600
C  46.09200 0.58300 47.90000
C  46.43700 5.45200 47.52500
N  41.82000 3.27500 47.39100
C  41.11000 4.34300 47.07100
C  39.61600 4.11700 46.94100
C  39.46500 2.64200 47.32700
C  40.95600 2.24700 47.55200
C  38.66000 2.44900 48.69800
C  39.11500 4.38000 45.51500
C  37.73900 5.08400 45.35800
H  37.71500 6.19900 44.24000
N  43.65500 0.93600 47.99100
C  42.48800 0.25600 47.86100
C  42.86100 -1.14900 48.02800
C  44.29700 -1.26900 48.18600
C  44.76500 0.09600 48.05100
C  41.87300 -2.26500 47.85100
C  45.07700 -2.52300 48.42200
O  44.53700 -3.66300 48.46400
C  46.56100 -2.52200 48.71600
N  45.99900 2.97700 47.60700
C  46.70700 1.82300 47.77600
C  48.20000 2.08000 47.88200
C  48.27900 3.67100 47.69200
C  46.79300 4.08400 47.63500
C  48.69600 1.77400 49.26300
C  49.09600 4.14400 46.44300
C  48.60600 3.83400 45.05900
N  44.10700 5.16200 47.40400
C  45.16800 5.98300 47.47500
C  44.77200 7.36700 47.38100
C  43.35500 7.29700 47.23700
C  43.04800 5.89200 47.19200
C  45.69900 8.48200 47.49400
C  42.08300 8.05800 47.09800
O  41.76100 9.24300 47.16900
C  40.91000 6.97600 46.87600
C  39.90600 7.27700 47.87700
O  40.06500 7.03000 49.09500
O  38.81100 7.85700 47.31900
C  37.87300 8.41300 48.34400
H  40.43500 0.17500 47.46500
H  46.92600 -0.10400 48.05700
H  47.25400 6.17600 47.56200
H  39.12900 4.79600 47.64100
H  38.95300 2.03900 46.57700
H  39.29200 2.43100 49.58600
H  38.23500 1.44600 48.72000
H  37.83100 3.14100 48.85000
H  38.99300 3.45300 44.95500
H  39.85900 4.87200 44.88800
H  37.38600 5.51600 46.29400
H  37.13000 4.22200 45.08500
H  40.90000 -1.77300 47.86500
H  41.94200 -3.00000 48.65300
H  42.08900 -2.77400 46.91100
H  47.03100 -2.54300 47.73200
H  46.77100 -3.46100 49.22700
H  46.90300 -1.67100 49.30500
H  48.72100 1.51900 47.10600
H  48.58300 4.24600 48.56700
H  49.08200 0.76000 49.35900
H  47.92600 1.91300 50.02200
H  49.53800 2.43800 49.46200
H  50.06800 3.65400 46.49500
H  49.18300 5.22200 46.57300
H  48.36200 4.79500 44.60500
H  47.73000 3.18600 45.06500
H  49.34400 3.29700 44.46300
H  46.42800 8.57400 48.29900
H  45.01300 9.32600 47.43300
H  46.13100 8.68000 46.51300
H  40.42900 7.06300 45.90100
H  38.23000 9.37600 48.70900
H  37.60600 7.69800 49.12200
H  36.90400 8.62500 47.89100
Mg 48.02100 34.62100 27.26800
C  45.87700 33.07200 29.76600
C  48.67100 37.16900 29.52700
C  49.22100 36.32800 24.84900
C  47.10400 31.99400 25.23600
N  47.25700 35.02000 29.26900
C  46.49400 34.24300 30.18700
C  46.77500 34.79600 31.59800
C  47.03900 36.33200 31.35500
C  47.75800 36.15300 29.97400
C  45.85000 37.24300 31.29900
C  47.99400 34.03400 32.39100
C  47.60400 33.54800 33.84000
H  48.07900 34.38600 35.01100
N  48.90200 36.45300 27.16000
C  49.17600 37.29600 28.24700
C  49.81000 38.54300 27.75800
C  50.02700 38.26700 26.34300
C  49.33600 36.99300 26.07800
C  50.24000 39.67400 28.62200
C  50.69300 39.22600 25.45000
O  50.80100 38.98600 24.29200
C  51.03000 40.61700 25.92800
N  48.10300 34.25700 25.29400
C  48.77000 35.12700 24.51000
C  48.78900 34.58600 23.00900
C  48.29400 33.07300 23.21300
C  47.74500 33.11000 24.67700
C  47.94300 35.44100 21.98200
C  49.40800 32.01100 23.10900
C  50.71600 32.00600 23.95900
N  46.82500 32.90400 27.43800
C  46.59400 31.87600 26.57000
C  45.76300 30.85600 27.07700
C  45.47600 31.25400 28.34500
C  46.09400 32.52200 28.49200
C  45.63000 29.55200 26.40900
C  44.82200 30.90800 29.58200
O  44.20300 29.95800 29.95700
C  44.98600 32.12400 30.53100
C  45.49000 31.60500 31.76600
O  46.60700 31.12900 31.86700
O  44.48400 31.56200 32.71200
C  44.84000 30.83700 33.97900
H  48.88700 37.89700 30.31200
H  49.73900 36.81000 24.01700
H  46.86200 31.31500 24.41600
H  45.82500 34.81500 32.13200
H  47.68600 36.80200 32.09600
H  44.98500 36.58300 31.23900
H  45.81800 37.87500 30.41100
H  45.74700 37.84600 32.20200
H  48.87200 34.67500 32.47500
H  48.37300 33.16400 31.85500
H  47.85000 32.50800 34.05400
H  46.53300 33.63400 34.02000
H  51.31800 39.81300 28.69400
H  50.01200 39.41500 29.65600
H  49.68000 40.55000 28.29600
H  50.20200 41.19200 26.34200
H  51.28400 41.28500 25.10600
H  51.86200 40.61800 26.63300
H  49.82800 34.51700 22.68800
H  47.55000 32.81200 22.46100
H  48.55600 36.23300 21.55100
H  47.06900 35.91700 22.42800
H  47.53000 34.77400 21.22500
H  49.81500 32.23200 22.12200
H  49.07100 30.97500 23.08700
H  50.75800 31.01100 24.40100
H  50.69700 32.78300 24.72300
H  51.57500 32.05300 23.28900
H  46.08300 28.83000 27.08900
H  46.28500 29.55000 25.53800
H  44.63000 29.25100 26.09800
H  44.01600 32.60500 30.65000
H  45.19400 31.63400 34.63400
H  45.54400 30.01700 33.83700
H  43.97300 30.37200 34.44700

