158

Mg 8.27700 2.88900 27.45000
C  9.58400 1.35400 30.43500
C  6.19200 4.68100 29.47000
C  6.62100 3.80700 24.66500
C  9.97200 0.35000 25.67200
N  8.02900 3.12200 29.72400
C  8.69300 2.42800 30.69800
C  8.36900 3.04300 32.11600
C  7.21900 4.00700 31.75900
C  7.10300 3.91400 30.26500
C  5.85200 3.92300 32.56100
C  9.61700 3.61700 32.91200
C  9.26600 4.56000 33.97600
H  10.12700 4.41600 35.25500
N  6.63300 4.04800 27.10100
C  5.95800 4.74900 28.08900
C  5.03900 5.68100 27.41800
C  5.13500 5.42900 25.97100
C  6.20500 4.46000 25.81100
C  4.16200 6.67600 28.22900
C  4.35800 6.08300 24.84900
O  4.42100 5.80900 23.68600
C  3.30500 7.12800 25.24200
N  8.25500 2.19000 25.45500
C  7.52000 2.77400 24.45200
C  7.98800 2.24500 23.04900
C  9.18100 1.24900 23.47700
C  9.10200 1.17500 24.97200
C  6.90700 1.68500 22.18500
C  10.61400 1.59000 23.02200
C  11.42500 2.53900 23.82600
N  9.59900 1.30400 27.89000
C  10.13500 0.35800 27.03400
C  10.95900 -0.56200 27.79800
C  10.77700 -0.15400 29.12500
C  9.94000 0.90400 29.13500
C  11.65500 -1.74500 27.22200
C  11.16700 -0.56800 30.46500
O  11.85800 -1.54700 30.84100
C  10.40100 0.40400 31.33500
C  9.61800 -0.28300 32.33600
O  8.70600 -1.01300 32.14300
O  10.07800 0.10200 33.60000
C  9.29800 -0.53100 34.65100
H  5.69600 5.32100 30.20200
H  6.19700 4.09500 23.70100
H  10.63800 -0.31900 25.12300
H  8.02300 2.20100 32.71500
H  7.53400 5.00700 32.05800
H  5.01000 3.74900 31.89000
H  5.75400 4.84800 33.12900
H  5.99400 3.06400 33.21600
H  10.33500 4.06000 32.22200
H  10.09800 2.81900 33.47800
H  8.24200 4.31900 34.25900
H  9.31500 5.57900 33.59200
H  4.27600 7.68300 27.83000
H  4.33800 6.48600 29.28800
H  3.19000 6.21500 28.04800
H  2.58300 6.62200 25.88200
H  2.80900 7.38700 24.30600
H  3.81000 8.03600 25.57400
H  8.49200 3.12100 22.63900
H  9.08100 0.29000 22.96800
H  5.96300 1.46400 22.68300
H  7.06000 0.65600 21.86000
H  6.63000 2.30200 21.32900
H  10.50900 2.11700 22.07400
H  11.15600 0.66500 22.82900
H  10.94400 2.80300 24.76800
H  11.59800 3.51100 23.36400
H  12.40800 2.13700 24.07400
H  10.98300 -2.32300 26.58800
H  11.82200 -2.48100 28.00800
H  12.61600 -1.43600 26.81100
H  11.14600 1.04800 31.80100
H  9.08000 -1.57900 34.44700
H  8.32200 -0.06200 34.77300
H  9.89700 -0.43300 35.55700
Mg 24.72000 -6.06900 45.67900
C  26.80600 -3.70700 44.39200
C  22.18200 -4.91400 43.73300
C  22.96700 -8.95000 46.33600
C  27.45800 -7.30100 47.54900
N  24.57500 -4.44700 44.17000
C  25.58800 -3.67300 43.75100
C  25.12400 -2.74200 42.52500
C  23.56300 -2.96100 42.63200
C  23.40300 -4.15700 43.53900
C  22.70000 -1.78800 43.08900
C  25.72300 -3.29000 41.19200
C  26.44700 -2.24500 40.27800
H  25.94100 -2.22200 38.76100
N  22.75200 -6.82000 45.18000
C  21.91700 -6.16700 44.38200
C  20.71800 -7.00000 44.30400
C  20.88800 -8.15100 44.98200
C  22.25600 -8.00900 45.57400
C  19.59600 -6.62300 43.30800
C  19.86900 -9.29600 45.10000
O  18.72600 -9.11400 44.62400
C  20.13600 -10.50900 45.86000
N  25.12600 -7.82900 46.78900
C  24.25700 -8.84000 46.93600
C  24.84100 -10.04000 47.75300
C  26.19000 -9.46800 48.22800
C  26.29900 -8.11900 47.47100
C  23.87800 -10.59500 48.84000
C  27.34100 -10.51000 48.09200
C  28.32200 -10.54900 49.29600
N  26.67400 -5.47100 46.19600
C  27.70200 -6.14900 46.83500
C  28.94400 -5.46500 46.61900
C  28.61800 -4.41700 45.69300
C  27.30300 -4.54500 45.45600
C  30.30400 -5.73900 47.22600
C  29.15600 -3.29500 44.99200
O  30.31100 -2.88600 44.96500
C  28.01400 -2.91600 43.96900
C  27.69300 -1.46600 44.02900
O  26.96400 -0.98000 44.84900
O  28.30100 -0.90000 42.95700
C  28.28500 0.55900 42.99900
H  21.42200 -4.41400 43.12800
H  22.41600 -9.87900 46.49900
H  28.32800 -7.80200 47.98100
H  25.41200 -1.72700 42.79900
H  23.23900 -3.43100 41.70300
H  22.18200 -2.10800 43.99300
H  22.05000 -1.43000 42.29000
H  23.27700 -0.95500 43.49100
H  24.95200 -3.80400 40.61900
H  26.47700 -4.02200 41.48300
H  27.40300 -2.76900 40.27000
H  26.50500 -1.26500 40.75100
H  20.00000 -6.05500 42.47000
H  18.70800 -6.19000 43.76800
H  19.35500 -7.55400 42.79500
H  19.23100 -11.11100 45.78800
H  20.34300 -10.27900 46.90500
H  20.95400 -11.02000 45.35200
H  24.95200 -10.74800 46.93200
H  26.07300 -9.27500 49.29400
H  23.60100 -11.59200 48.49800
H  23.02500 -9.92900 48.97100
H  24.38500 -10.63700 49.80400
H  27.87200 -10.27000 47.17100
H  26.86900 -11.48800 47.99600
H  29.34900 -10.87700 49.13800
H  27.93100 -11.16300 50.10700
H  28.34800 -9.49800 49.58400
H  30.39400 -5.27500 48.20800
H  31.05700 -5.37300 46.52800
H  30.63300 -6.76300 47.40200
H  28.27500 -3.28400 42.97700
H  28.45000 0.82400 41.95500
H  29.12500 1.03400 43.50600
H  27.34300 1.00600 43.31500

