158

Mg 24.83600 -5.77500 46.75900
C  26.96400 -3.41900 45.23600
C  22.21200 -4.40700 44.81400
C  22.93600 -8.58900 47.31700
C  27.44000 -7.11600 48.36300
N  24.65500 -4.29700 44.93300
C  25.65700 -3.37200 44.65700
C  25.12300 -2.31900 43.66700
C  23.57600 -2.37500 43.98700
C  23.44200 -3.74000 44.62100
C  23.13400 -1.25400 44.99800
C  25.51900 -2.86800 42.18100
C  26.34000 -1.94300 41.27900
H  26.18300 -2.05600 39.72900
N  22.81000 -6.41800 46.17900
C  21.94000 -5.75100 45.33500
C  20.69300 -6.39300 45.28100
C  20.79300 -7.69000 45.97800
C  22.25200 -7.61500 46.52400
C  19.62200 -5.88600 44.42700
C  19.82000 -8.83000 46.11700
O  18.71800 -8.68400 45.58800
C  20.10600 -10.05700 46.96200
N  25.08100 -7.60200 47.82600
C  24.22200 -8.67100 47.92100
C  24.88900 -9.79900 48.71600
C  26.31500 -9.20800 49.26100
C  26.27400 -7.88000 48.46200
C  24.10900 -10.31500 49.94800
C  27.69100 -10.07900 49.07500
C  28.55400 -10.10900 50.35200
N  26.75500 -5.33800 46.84600
C  27.76900 -5.98100 47.58800
C  29.06700 -5.27100 47.43600
C  28.74400 -4.29100 46.48000
C  27.39000 -4.39600 46.13800
C  30.28800 -5.64700 48.06800
C  29.31200 -3.18100 45.71200
O  30.44400 -2.73000 45.64700
C  28.17400 -2.60400 44.79700
C  28.02300 -1.12100 45.14400
O  28.68200 -0.22300 44.69700
O  27.02100 -0.91000 46.08200
C  26.98000 0.45100 46.64400
H  21.47600 -3.76000 44.33400
H  22.48500 -9.54100 47.60400
H  28.34800 -7.43900 48.87600
H  25.58200 -1.36200 43.91500
H  23.03600 -2.16600 43.06300
H  23.99100 -0.69400 45.37200
H  22.49900 -1.50300 45.84800
H  22.51800 -0.62500 44.35400
H  24.61400 -3.22700 41.69200
H  26.01700 -3.83100 42.29600
H  27.42000 -1.95000 41.42900
H  25.85000 -0.98800 41.46900
H  19.77100 -6.24000 43.40700
H  19.53100 -4.80000 44.42300
H  18.65200 -6.24700 44.76700
H  20.96600 -10.57400 46.53500
H  19.30000 -10.78300 47.07600
H  20.31300 -9.76000 47.99000
H  25.01900 -10.64300 48.03900
H  26.19000 -8.77200 50.25200
H  23.69200 -11.31200 49.81000
H  23.35500 -9.60400 50.28600
H  24.76300 -10.27200 50.81900
H  28.28600 -9.63200 48.27900
H  27.48200 -11.08200 48.70500
H  29.38900 -9.47900 50.04700
H  29.00600 -11.10000 50.36900
H  28.20300 -9.83700 51.34800
H  30.74700 -4.77200 48.52900
H  30.92100 -5.93400 47.22800
H  30.12400 -6.38700 48.85100
H  28.40400 -2.65000 43.73300
H  26.57700 0.57000 47.65000
H  26.32500 0.98900 45.95800
H  27.89700 1.03700 46.70400
Mg -2.49700 35.71900 26.75900
C  -4.05600 33.67800 29.15900
C  -0.86800 37.22300 29.16300
C  -1.54500 37.83100 24.39800
C  -4.29500 33.80800 24.24900
N  -2.63100 35.50000 28.98700
C  -3.25000 34.63600 29.82600
C  -2.95700 34.92400 31.35700
C  -2.00300 36.20800 31.22900
C  -1.85300 36.32500 29.70400
C  -2.50200 37.51700 31.85000
C  -2.27400 33.66200 32.10000
C  -2.99100 33.18400 33.36800
H  -2.27800 33.20300 34.71400
N  -1.43400 37.32400 26.77900
C  -0.69900 37.69300 27.89800
C  0.09100 38.83800 27.51700
C  -0.02500 39.01800 26.12800
C  -1.05300 38.05800 25.67700
C  0.89600 39.62900 28.56300
C  0.65200 39.90500 25.21500
O  0.44500 40.02800 23.98400
C  1.80600 40.62000 25.83800
N  -2.86600 35.80500 24.63600
C  -2.29900 36.78300 23.86300
C  -2.46300 36.46100 22.37200
C  -3.33200 35.19200 22.30800
C  -3.55000 34.90500 23.81100
C  -3.04300 37.63100 21.50100
C  -2.73100 33.94100 21.54300
C  -2.55500 34.26600 20.03400
N  -3.97900 34.12400 26.66400
C  -4.42800 33.37900 25.57500
C  -5.14700 32.23000 26.06500
C  -5.01900 32.28200 27.49700
C  -4.35600 33.50000 27.76100
C  -5.74400 31.10500 25.25400
C  -5.27300 31.57600 28.71100
O  -5.75900 30.47800 28.94000
C  -4.72500 32.50400 29.85700
C  -5.94300 33.00400 30.56800
O  -6.87000 33.59900 30.05400
O  -5.91800 32.76500 31.81500
C  -6.93800 33.29500 32.67200
H  -0.12600 37.49700 29.91500
H  -1.17800 38.48000 23.60000
H  -4.68400 33.17300 23.45000
H  -3.94200 35.23700 31.70300
H  -1.03700 35.98400 31.68100
H  -3.43100 37.34800 32.39500
H  -2.79400 38.24900 31.09800
H  -1.87700 37.81600 32.69200
H  -1.23000 33.82900 32.36200
H  -2.21700 32.88300 31.34000
H  -3.49200 32.23700 33.16600
H  -3.88800 33.78900 33.49700
H  0.65200 39.43500 29.60700
H  0.67800 40.68400 28.39400
H  1.93200 39.32100 28.41800
H  1.43400 41.41700 26.48100
H  2.41800 40.98200 25.01200
H  2.42600 39.91900 26.39600
H  -1.53800 36.12900 21.90100
H  -4.36000 35.33000 21.97500
H  -3.14100 38.58600 22.01700
H  -4.05500 37.33500 21.22600
H  -2.34800 37.81100 20.68000
H  -3.40800 33.08900 21.61000
H  -1.83500 33.65700 22.09400
H  -2.52300 35.34600 19.89600
H  -3.48500 33.98200 19.54100
H  -1.67200 33.80300 19.59300
H  -5.56500 31.19800 24.18300
H  -6.82000 31.05500 25.42500
H  -5.31900 30.14100 25.53300
H  -4.11400 31.88200 30.51100
H  -7.45000 34.18400 32.30100
H  -6.42100 33.60000 33.58200
H  -7.65800 32.49200 32.82300

