158

Mg -2.35900 17.68200 27.12800
C  -2.56300 15.44900 29.76600
C  -2.41500 20.25500 29.39700
C  -2.47800 19.82400 24.47400
C  -2.83200 14.98200 24.91900
N  -2.36900 17.80200 29.41100
C  -2.37400 16.77700 30.26500
C  -2.23700 17.32300 31.71900
C  -2.46400 18.82800 31.53500
C  -2.40400 18.99500 30.01900
C  -3.86300 19.34200 32.13200
C  -0.90800 16.94000 32.39800
C  -0.58200 17.70200 33.67300
H  -0.25000 16.93200 34.96000
N  -2.46500 19.73400 26.94000
C  -2.44800 20.66400 28.02800
C  -2.36700 22.02600 27.46600
C  -2.17700 21.84900 26.06200
C  -2.32500 20.43800 25.74800
C  -2.51900 23.23800 28.38600
C  -1.90500 22.87700 24.99300
O  -1.96300 22.67900 23.76700
C  -1.65700 24.25300 25.36100
N  -2.68500 17.40200 25.00300
C  -2.61600 18.43400 24.15600
C  -2.82600 17.92200 22.70900
C  -2.64500 16.36100 22.85000
C  -2.63100 16.22800 24.34700
C  -4.18300 18.23400 21.98700
C  -1.40900 15.70800 22.11600
C  -0.06500 15.69000 22.91100
N  -2.56000 15.57900 27.25700
C  -2.80200 14.63900 26.30400
C  -3.01400 13.35700 26.90800
C  -2.87300 13.61600 28.28500
C  -2.65300 14.95400 28.45500
C  -3.29700 12.06900 26.24100
C  -2.94300 13.03400 29.64700
O  -3.22500 11.86400 30.05100
C  -2.75500 14.25500 30.62600
C  -1.72200 13.96800 31.63000
O  -0.50200 13.95100 31.43900
O  -2.28500 13.59700 32.84400
C  -1.44300 13.12100 33.90800
H  -2.33500 21.09200 30.09300
H  -2.43200 20.50600 23.62300
H  -3.17400 14.18200 24.25800
H  -3.05300 16.83400 32.25100
H  -1.66200 19.38700 32.01500
H  -4.48000 19.89700 31.42400
H  -3.69400 20.07600 32.92000
H  -4.40700 18.47800 32.51400
H  -0.05200 16.91200 31.72400
H  -1.20400 15.96500 32.78300
H  -1.32000 18.47200 33.89900
H  0.36100 18.19700 33.44000
H  -3.20100 22.95900 29.18900
H  -2.81000 24.18300 27.92700
H  -1.55400 23.30800 28.88700
H  -0.63500 24.23100 25.73900
H  -2.44100 24.58400 26.04300
H  -1.69800 24.83000 24.43600
H  -2.07100 18.18100 21.96700
H  -3.59600 15.90300 22.57900
H  -4.08900 19.07300 21.29800
H  -4.91600 18.54900 22.72900
H  -4.69800 17.42700 21.46600
H  -1.22800 16.09900 21.11500
H  -1.78900 14.69000 22.03600
H  0.69800 15.19800 22.30900
H  -0.28500 15.07200 23.78200
H  0.23200 16.70000 23.19300
H  -2.75700 11.23200 26.68300
H  -2.83000 12.10100 25.25700
H  -4.38600 12.02700 26.21600
H  -3.71600 14.24900 31.14000
H  -0.99700 13.94200 34.46900
H  -0.61800 12.49100 33.57700
H  -2.07900 12.54900 34.58300
Mg 45.54600 4.95800 48.24600
C  43.89500 7.74600 47.10600
C  42.77200 3.13600 47.26600
C  47.38000 2.11900 48.71100
C  48.43700 6.79300 48.65700
N  43.52500 5.44800 47.30400
C  43.01500 6.67400 46.97200
C  41.60800 6.57700 46.39000
C  41.21600 5.08900 46.76100
C  42.63400 4.51700 47.05000
C  40.15500 5.00900 47.90100
C  41.64200 7.02700 44.85300
C  40.74100 8.23800 44.31900
H  39.71900 7.97300 43.17400
N  45.15600 2.92900 48.09100
C  43.94100 2.35800 47.60700
C  44.03500 0.94200 47.78900
C  45.31900 0.60300 48.05300
C  46.06900 1.89300 48.27800
C  42.82100 0.08600 47.56800
C  45.89900 -0.81700 48.01000
O  45.16000 -1.80700 47.81500
C  47.31100 -1.08800 48.20200
N  47.65000 4.55000 48.43700
C  48.14600 3.33600 48.76800
C  49.62900 3.32600 49.18300
C  50.01300 4.78700 48.84600
C  48.60500 5.45900 48.58800
C  49.89300 2.87400 50.71300
C  50.92200 5.10200 47.64100
C  52.35300 4.33000 47.60000
N  46.08700 6.82900 47.94600
C  47.26700 7.47400 48.30500
C  47.10500 8.87700 48.26300
C  45.79500 9.02800 47.79000
C  45.22200 7.77100 47.64000
C  48.18900 9.93300 48.44000
C  44.84100 10.07000 47.34800
O  44.99000 11.27300 47.29100
C  43.57300 9.22100 46.78700
C  42.25500 9.71000 47.26800
O  41.55600 9.33300 48.22700
O  41.93400 10.74800 46.36000
C  40.55800 11.22600 46.74300
H  41.87900 2.56800 46.99400
H  47.87800 1.17800 48.95400
H  49.39600 7.29300 48.81000
H  40.92900 7.19300 46.98000
H  40.76400 4.59600 45.90000
H  39.95400 5.92900 48.45000
H  40.53500 4.27900 48.61700
H  39.30200 4.55700 47.39600
H  41.24600 6.13300 44.37100
H  42.58900 7.28000 44.37700
H  41.51700 8.93700 44.00600
H  40.15800 8.65200 45.14200
H  42.76500 -0.70700 48.31300
H  42.96800 -0.35800 46.58300
H  41.86200 0.58700 47.44100
H  47.47600 -1.88300 47.47500
H  47.63600 -1.24100 49.23000
H  47.84500 -0.28300 47.69600
H  50.27700 2.72000 48.55100
H  50.50700 5.18200 49.73400
H  50.86900 3.20000 51.07100
H  49.87600 1.78500 50.74900
H  49.20400 3.38500 51.38700
H  51.16600 6.14200 47.85800
H  50.32100 5.05700 46.73200
H  52.54400 3.57400 48.36200
H  53.06700 5.14700 47.70500
H  52.47800 3.83800 46.63500
H  49.16200 9.48200 48.63500
H  47.93000 10.64100 49.22700
H  48.28100 10.40100 47.46000
H  43.57700 9.21700 45.69700
H  40.76700 11.82100 47.63300
H  39.83800 10.40800 46.77300
H  40.10400 11.91300 46.02800

