158

Mg 34.29100 2.90100 29.25900
C  32.37400 3.48500 31.93000
C  36.95800 2.34300 31.37700
C  36.18900 2.93900 26.59000
C  31.42600 3.46300 27.14600
N  34.52500 2.80900 31.33100
C  33.64600 3.17900 32.25000
C  34.21300 3.21000 33.73600
C  35.73900 2.82100 33.56900
C  35.77000 2.66400 31.96900
C  36.85300 3.75200 34.08500
C  33.48200 2.24900 34.79100
C  33.13200 2.81500 36.13100
H  34.24500 3.83900 36.67400
N  36.30000 2.42800 29.02700
C  37.25000 2.18100 29.99900
C  38.46200 1.80400 29.32900
C  38.32500 2.09100 27.91400
C  36.87100 2.44300 27.76100
C  39.68100 1.29900 30.10500
C  39.33200 2.03900 26.78300
O  39.02800 2.46700 25.72100
C  40.76700 1.34800 27.01300
N  33.89000 3.28800 27.18400
C  34.87600 3.35400 26.31600
C  34.42300 3.66800 24.84900
C  32.83300 3.52600 24.99200
C  32.68900 3.41600 26.50600
C  35.02800 4.95400 24.31400
C  32.29800 2.16500 24.37900
C  30.91100 2.10400 23.70300
N  32.27300 3.36800 29.41000
C  31.23600 3.56100 28.56200
C  30.03600 3.95400 29.25400
C  30.44800 3.92300 30.53100
C  31.78600 3.48900 30.59000
C  28.66100 4.21300 28.70300
C  29.93200 4.06400 31.83600
O  28.79700 4.31900 32.24900
C  31.16100 3.83200 32.80700
C  31.27500 5.09500 33.59200
O  31.81700 6.17500 33.27400
O  30.63300 4.89400 34.80100
C  30.37200 5.98900 35.71200
H  37.81800 2.08200 31.99800
H  36.69000 2.99400 25.62100
H  30.60300 3.43000 26.42800
H  34.10200 4.23100 34.10100
H  35.97100 1.81300 33.91100
H  37.46000 3.14000 34.75100
H  36.48900 4.56700 34.71200
H  37.43400 4.17200 33.26400
H  34.16300 1.43200 35.03000
H  32.60200 1.90500 34.24700
H  32.93200 2.12100 36.94700
H  32.23200 3.42500 36.04800
H  39.31400 1.10900 31.11300
H  40.38800 2.12700 30.16400
H  40.03300 0.39700 29.60600
H  40.60200 0.37700 27.48000
H  41.36800 2.10300 27.52000
H  41.15400 1.15400 26.01300
H  34.84500 2.81800 24.31300
H  32.29900 4.44200 24.74000
H  34.19800 5.28100 23.68800
H  35.83900 4.65700 23.65000
H  35.29600 5.66700 25.09400
H  32.12900 1.42000 25.15600
H  33.02300 1.65500 23.74400
H  30.05300 1.64000 24.18800
H  31.06500 1.51800 22.79700
H  30.53000 3.08200 23.40600
H  28.12000 3.32800 29.03800
H  28.64000 4.37200 27.62500
H  28.37900 5.15200 29.17900
H  30.81800 3.00100 33.42400
H  30.62100 5.66300 36.72200
H  29.35500 6.36800 35.81000
H  31.03600 6.83500 35.53500
Mg 54.17700 24.28100 45.32000
C  51.55700 26.55700 44.27900
C  52.22100 21.73600 43.85800
C  56.80300 22.39900 45.10200
C  55.98700 27.13200 45.96500
N  52.22800 24.18400 44.13300
C  51.37900 25.24100 43.82600
C  50.29800 24.77600 42.81600
C  50.23800 23.28500 43.08600
C  51.62300 22.98400 43.77000
C  49.15700 22.84900 44.15200
C  50.61600 25.24300 41.34300
C  50.79900 24.19200 40.21200
H  51.85600 23.13500 40.36500
N  54.38600 22.22200 44.78900
C  53.48900 21.35800 44.22000
C  54.12700 20.13700 44.07900
C  55.46800 20.30800 44.35500
C  55.64100 21.67600 44.83900
C  53.43900 18.88500 43.42400
C  56.58400 19.20500 44.26800
O  56.29500 17.99800 44.01500
C  58.04800 19.46500 44.37500
N  56.13000 24.66100 45.40200
C  57.05900 23.76200 45.36200
C  58.42100 24.26800 45.79000
C  58.17200 25.79000 45.91800
C  56.66600 25.88300 45.80300
C  59.04300 23.63600 47.03500
C  58.83100 26.55500 44.78000
C  58.10500 26.56300 43.48800
N  53.75900 26.43300 45.51200
C  54.59100 27.41000 45.82600
C  53.82900 28.64600 45.95600
C  52.67500 28.40100 45.28500
C  52.64700 27.01200 45.03000
C  54.32700 29.96800 46.33500
C  51.43000 28.90300 44.73600
O  51.02400 30.07300 44.73100
C  50.68400 27.77600 44.03600
C  50.45200 28.27700 42.63000
O  51.28200 28.86000 41.95200
O  49.20800 28.00300 42.22400
C  48.73000 28.35300 40.87500
H  51.66700 20.93200 43.36800
H  57.80000 22.00100 44.90500
H  56.57300 28.05000 46.05100
H  49.41800 25.34600 43.11200
H  50.16300 22.57800 42.25900
H  49.69200 22.39200 44.98400
H  48.38200 22.24800 43.67600
H  48.60200 23.72900 44.47900
H  51.48600 25.87800 41.17400
H  49.75200 25.84100 41.05400
H  51.10000 24.67900 39.28500
H  49.80100 23.76800 40.09600
H  53.86200 17.98200 43.86300
H  53.40300 18.88700 42.33400
H  52.41800 18.91300 43.80600
H  58.43800 20.05700 43.54600
H  58.53400 18.49600 44.48000
H  58.27000 19.93900 45.33100
H  58.93100 23.93900 44.88500
H  58.51900 26.02600 46.92400
H  60.03600 23.25200 46.80200
H  58.31600 22.88400 47.34000
H  59.26600 24.37700 47.80300
H  59.83500 26.17900 44.58700
H  58.91200 27.57800 45.14800
H  57.67200 27.55200 43.33500
H  57.30200 25.83600 43.36900
H  58.85000 26.52700 42.69300
H  55.16700 30.21100 45.68500
H  54.75900 29.86600 47.33100
H  53.48400 30.64600 46.46600
H  49.67700 27.83000 44.44900
H  49.40600 28.89300 40.21300
H  47.79300 28.91000 40.89700
H  48.42700 27.38500 40.47800

