158

Mg 17.73300 -0.91500 27.46000
C  16.29200 0.45100 30.40100
C  19.59900 -2.96800 29.43400
C  18.86000 -2.21600 24.71600
C  15.67400 1.29400 25.51300
N  17.99500 -1.12300 29.67100
C  17.30800 -0.47400 30.70400
C  17.74800 -0.90400 32.11500
C  19.00900 -1.81000 31.73200
C  18.92600 -1.99600 30.18800
C  20.37000 -1.23800 32.21900
C  16.60200 -1.59100 32.86300
C  16.49200 -1.22600 34.38100
H  17.82000 -0.64900 35.11600
N  19.12100 -2.40300 27.12700
C  19.67400 -3.21300 28.02800
C  20.36200 -4.32000 27.35400
C  20.08900 -4.16500 25.95800
C  19.33300 -2.88900 25.88300
C  20.99400 -5.44400 28.11200
C  20.57200 -4.98700 24.81400
O  20.14800 -4.87100 23.68100
C  21.46200 -6.06400 25.23000
N  17.16000 -0.52700 25.43900
C  18.01000 -1.10900 24.53600
C  17.78800 -0.54800 23.12400
C  16.77000 0.62800 23.35800
C  16.48000 0.47600 24.81500
C  19.03600 -0.24600 22.22300
C  15.55400 0.59000 22.39000
C  15.90900 0.63900 20.86900
N  16.30400 0.54000 27.80000
C  15.51600 1.29000 26.94600
C  14.46400 1.99600 27.68500
C  14.77600 1.66000 29.07700
C  15.87000 0.79200 29.08800
C  13.40200 2.99300 27.13700
C  14.30400 1.91700 30.43900
O  13.36700 2.55800 30.92500
C  15.34200 1.14200 31.29200
C  16.12600 2.18800 32.03900
O  17.04300 2.83800 31.58400
O  15.57000 2.27000 33.31400
C  16.05400 3.41800 34.08800
H  20.14600 -3.66700 30.07100
H  19.28700 -2.54900 23.76700
H  15.08900 2.09800 25.06100
H  17.97500 -0.00900 32.69400
H  18.84900 -2.76800 32.22800
H  20.87400 -1.99500 32.82000
H  20.23700 -0.29700 32.75300
H  21.02800 -1.17200 31.35300
H  16.72200 -2.65300 32.64800
H  15.68000 -1.23300 32.40600
H  16.10500 -2.03000 35.00700
H  15.72700 -0.47000 34.20800
H  20.29900 -6.27400 28.23700
H  21.24900 -5.20100 29.14300
H  21.97000 -5.79800 27.78200
H  22.34900 -5.60300 25.66500
H  21.78900 -6.47700 24.27600
H  20.90800 -6.79000 25.82600
H  17.28100 -1.40100 22.67200
H  17.27300 1.59400 23.30900
H  18.95200 0.73200 21.75000
H  19.04900 -1.03300 21.46900
H  19.90800 -0.32900 22.87200
H  14.90400 1.43200 22.62800
H  15.00200 -0.32900 22.58600
H  15.11500 1.24600 20.43300
H  15.90200 -0.41500 20.59200
H  16.90700 0.98300 20.59900
H  12.96000 3.52200 27.98200
H  12.67400 2.38500 26.59900
H  13.78400 3.80800 26.52300
H  14.70000 0.49400 31.88900
H  17.08000 3.70100 33.85300
H  16.11700 3.18200 35.15100
H  15.41400 4.29600 34.00500
Mg 9.70000 48.40200 25.05700
C  7.30900 49.03900 27.74600
C  12.18600 49.43300 27.03900
C  11.58800 48.29100 22.33600
C  6.81200 48.13200 22.96100
N  9.70000 49.27300 27.14800
C  8.68300 49.34300 28.07100
C  9.32300 49.55800 29.48700
C  10.70100 50.26000 29.00400
C  10.91100 49.57500 27.65100
C  10.79400 51.78000 28.97700
C  9.50400 48.14200 30.24100
C  9.38100 48.25400 31.79900
H  9.23800 47.06500 32.80800
N  11.66400 48.62800 24.72200
C  12.51000 49.02700 25.67800
C  13.83100 48.97900 25.07800
C  13.76100 48.59500 23.66400
C  12.29900 48.55100 23.48400
C  15.06700 49.24600 25.87200
C  14.79200 48.37200 22.60500
O  14.50000 48.20200 21.45500
C  16.23100 48.31500 22.94600
N  9.24600 48.26100 23.01900
C  10.27600 48.10100 22.12400
C  9.78100 47.59400 20.75400
C  8.16100 47.66900 20.91000
C  8.06600 48.04500 22.37000
C  10.27600 48.40000 19.47200
C  7.44100 46.37500 20.63300
C  8.15300 45.07700 21.10200
N  7.53900 48.43600 25.22700
C  6.53300 48.33100 24.29400
C  5.25400 48.37600 24.90000
C  5.53800 48.55800 26.25200
C  6.93000 48.67000 26.41900
C  3.82900 48.26600 24.36100
C  4.90200 48.83900 27.55000
O  3.73600 48.95100 27.86200
C  6.10100 49.06700 28.59900
C  6.00900 48.02600 29.64700
O  6.39800 46.85800 29.41700
O  5.55700 48.44100 30.85400
C  5.61700 47.35800 31.86800
H  12.96800 49.93500 27.61400
H  12.13600 48.25300 21.39200
H  5.88900 47.91300 22.42000
H  8.63900 50.23800 29.99600
H  11.49900 49.96400 29.68500
H  9.82500 52.26600 28.86700
H  11.49500 52.01800 28.17600
H  11.30600 52.12700 29.87500
H  10.47300 47.69800 30.00900
H  8.71200 47.48400 29.88500
H  8.47200 48.80400 32.04100
H  10.25600 48.82500 32.11100
H  14.90200 49.83100 26.77700
H  15.79400 49.79500 25.27200
H  15.53900 48.27900 26.04400
H  16.65100 47.53500 22.31100
H  16.21400 48.05000 24.00300
H  16.74100 49.27800 22.93600
H  10.20000 46.58800 20.75600
H  7.73400 48.46100 20.29500
H  9.45800 49.00500 19.08000
H  10.63100 47.85900 18.59600
H  11.01100 49.14900 19.76600
H  7.23100 46.25800 19.56900
H  6.45000 46.36100 21.08800
H  7.30500 44.47200 21.42200
H  8.90200 45.19800 21.88500
H  8.55500 44.55800 20.23200
H  3.73200 48.59700 23.32700
H  3.12600 48.81900 24.98400
H  3.46000 47.24400 24.43800
H  5.93000 50.08000 28.96000
H  4.76400 46.68700 31.76900
H  5.62800 47.76300 32.88000
H  6.48900 46.71100 31.76800

