158

Mg 36.89100 50.45900 27.24400
C  37.01500 48.31800 29.83300
C  35.22400 52.78600 29.25000
C  36.13200 52.33000 24.51400
C  37.77000 47.72000 25.14900
N  36.30600 50.53400 29.19100
C  36.61500 49.60000 30.14800
C  36.31300 50.00900 31.62000
C  35.33700 51.20700 31.30800
C  35.66300 51.56300 29.80100
C  33.81400 50.98500 31.58100
C  37.63900 50.34700 32.38200
C  37.85200 49.86100 33.76500
H  36.92400 50.27100 34.79800
N  35.88100 52.33500 26.92900
C  35.32700 53.15200 27.91900
C  34.79400 54.38300 27.29800
C  35.17700 54.29900 25.89800
C  35.70100 52.92600 25.73200
C  34.25000 55.66800 28.08700
C  34.82300 55.30200 24.79200
O  35.21300 55.13300 23.60500
C  34.04500 56.64800 25.08400
N  36.87700 50.07700 25.10800
C  36.61400 51.02700 24.19800
C  36.93600 50.49400 22.71800
C  37.47100 49.05800 22.96800
C  37.36100 48.93900 24.52700
C  35.76900 50.70800 21.78900
C  38.94700 48.80500 22.43600
C  39.06900 47.61100 21.43000
N  37.44100 48.47500 27.44600
C  37.73300 47.50800 26.53100
C  38.01000 46.24300 27.18000
C  37.70900 46.50700 28.52500
C  37.30000 47.85500 28.57900
C  38.25500 44.90100 26.54000
C  37.66300 45.88500 29.85900
O  37.92500 44.75200 30.35300
C  37.19600 47.06400 30.76200
C  36.05300 46.61900 31.56300
O  35.03400 46.12700 31.11700
O  36.34200 46.81100 32.90600
C  35.27700 46.33600 33.76800
H  34.77100 53.48700 29.95400
H  36.01300 52.93300 23.61200
H  38.07700 46.90500 24.49000
H  35.82100 49.18400 32.13600
H  35.69600 52.00600 31.95700
H  33.28800 50.99300 30.62700
H  33.46900 51.81400 32.19900
H  33.55000 50.05000 32.07500
H  37.86000 51.41100 32.46300
H  38.33900 49.83900 31.71800
H  38.85600 50.13400 34.09000
H  37.94100 48.77500 33.73400
H  33.17300 55.83500 28.06100
H  34.81500 56.50400 27.67400
H  34.53600 55.64000 29.13800
H  32.96900 56.52900 25.20900
H  34.02800 57.22300 24.15800
H  34.52500 57.35200 25.76400
H  37.76000 51.15700 22.45200
H  36.73200 48.31300 22.67400
H  34.91900 50.78300 22.46800
H  35.67300 49.94300 21.01900
H  35.92800 51.66900 21.30000
H  39.66000 48.67600 23.25000
H  39.26800 49.68200 21.87400
H  39.15900 47.99900 20.41600
H  38.07200 47.17000 21.44000
H  39.86000 46.93800 21.76300
H  37.62000 44.90700 25.65400
H  37.86300 44.15200 27.22800
H  39.31300 44.72900 26.34000
H  38.09000 47.16100 31.37800
H  35.10600 45.26000 33.80300
H  34.33000 46.82600 33.54000
H  35.53200 46.50400 34.81400
Mg 1.79100 42.31500 25.44800
C  2.90000 42.71100 28.72600
C  -1.26000 41.18200 26.63500
C  0.82000 41.53800 22.33900
C  4.99800 43.06500 24.38600
N  1.07200 41.90000 27.47500
C  1.58500 42.29000 28.64500
C  0.67900 42.09700 29.84600
C  -0.64700 41.55600 29.16500
C  -0.30500 41.53700 27.59700
C  -1.18900 40.22800 29.76200
C  0.34500 43.34700 30.70300
C  0.89900 43.28800 32.15100
H  -0.08000 43.23100 33.27100
N  0.01400 41.48100 24.62800
C  -1.16100 41.09800 25.25000
C  -2.12800 40.61700 24.31900
C  -1.50200 40.67500 23.03500
C  -0.16500 41.32500 23.28600
C  -3.51600 40.15400 24.83100
C  -2.01900 40.31500 21.66500
O  -1.41000 40.45400 20.60500
C  -3.46800 39.76600 21.55200
N  2.72600 42.40300 23.67800
C  2.16000 42.05500 22.51500
C  3.09500 42.21700 21.30100
C  4.40900 42.84700 21.93700
C  4.04900 42.60100 23.44000
C  3.34400 41.01200 20.35900
C  4.56200 44.31700 21.57000
C  4.86400 44.67800 20.06800
N  3.62100 42.95100 26.33100
C  4.80900 43.19700 25.76600
C  5.72300 43.60800 26.83000
C  5.03900 43.39600 28.03100
C  3.76200 42.98700 27.67200
C  7.15200 44.05600 26.71000
C  5.10400 43.50300 29.44500
O  6.04600 43.84300 30.12200
C  3.68400 43.04500 30.03600
C  4.02100 41.75700 30.81300
O  4.04100 40.61200 30.38700
O  4.38400 42.15500 32.10300
C  4.65300 41.08000 33.07100
H  -2.23100 41.02800 27.11000
H  0.55800 41.39600 21.28800
H  6.03000 43.20900 24.05900
H  1.04300 41.41000 30.61000
H  -1.39900 42.33800 29.27000
H  -1.41400 39.44300 29.04000
H  -2.12100 40.56400 30.21800
H  -0.59200 39.88400 30.60700
H  -0.71100 43.59500 30.81100
H  0.83200 44.20300 30.23500
H  1.44800 44.21200 32.33100
H  1.54900 42.45900 32.42800
H  -3.45300 39.66200 25.80100
H  -3.97100 39.37800 24.21400
H  -4.15500 41.02600 24.97100
H  -3.70800 39.78900 20.48900
H  -4.16500 40.43100 22.06200
H  -3.46900 38.75200 21.95300
H  2.64500 43.01500 20.71000
H  5.37000 42.37800 21.72700
H  3.32200 41.55000 19.41100
H  2.61400 40.20300 20.36200
H  4.33900 40.62300 20.57500
H  5.25800 44.70600 22.31300
H  3.64600 44.88000 21.74700
H  5.26700 43.81200 19.54300
H  5.60800 45.46400 19.93600
H  3.96600 44.89400 19.48900
H  7.10500 44.59600 25.76400
H  7.80500 43.18400 26.75400
H  7.35500 44.77200 27.50600
H  3.34100 43.88700 30.63700
H  4.01600 41.17400 33.95100
H  5.71200 41.09900 33.32900
H  4.53200 40.08300 32.64600

