158

Mg 0.85400 7.89100 25.66400
C  1.49200 10.03500 28.37800
C  1.08200 5.16000 27.80600
C  0.84000 5.86900 23.00100
C  1.24900 10.67800 23.55100
N  1.26500 7.62200 27.79400
C  1.35300 8.71200 28.77100
C  1.54200 8.11600 30.22500
C  1.55900 6.51700 29.93300
C  1.27900 6.40400 28.40800
C  2.90900 5.77400 30.37400
C  0.33700 8.53700 31.11900
C  0.48300 8.50900 32.60900
H  1.73200 7.89500 33.20000
N  0.69500 5.85100 25.46900
C  0.84200 4.90000 26.46600
C  0.87300 3.59300 25.86400
C  0.85600 3.74500 24.45700
C  0.79000 5.17600 24.24400
C  0.97300 2.34800 26.73800
C  0.80300 2.73700 23.33800
O  0.60400 3.05200 22.19100
C  0.91100 1.34400 23.63800
N  1.11700 8.24700 23.63400
C  0.90100 7.24200 22.72300
C  0.94000 7.73500 21.24600
C  1.05100 9.31800 21.44000
C  1.09200 9.44200 22.97900
C  2.01800 7.11200 20.32700
C  -0.04800 10.14200 20.75400
C  -1.40000 10.19800 21.44800
N  1.20500 9.98400 25.86800
C  1.39900 10.95300 24.91100
C  1.73800 12.22700 25.53700
C  1.76200 11.92300 26.93700
C  1.48600 10.53400 27.06500
C  2.10600 13.57000 24.99000
C  1.91900 12.49500 28.23200
O  2.09200 13.68200 28.53600
C  1.74600 11.22700 29.23100
C  2.89700 11.13700 30.26100
O  4.08300 11.20900 29.97800
O  2.34900 11.10700 31.48900
C  3.25000 11.30500 32.58700
H  1.26000 4.38100 28.55000
H  0.94600 5.18000 22.16000
H  1.29800 11.52000 22.85800
H  2.44400 8.56400 30.64000
H  0.67200 6.03200 30.34200
H  3.52300 6.36900 31.05000
H  3.49300 5.43500 29.51800
H  2.66800 4.84000 30.88100
H  -0.47500 7.83900 30.91600
H  -0.09400 9.52200 30.94300
H  -0.45200 8.15700 33.04600
H  0.52500 9.55200 32.92100
H  1.59400 1.57600 26.28400
H  -0.06000 1.99900 26.76900
H  1.30000 2.55200 27.75800
H  0.60500 0.82500 22.73000
H  0.20000 1.05300 24.41100
H  1.97200 1.13900 23.77700
H  -0.02800 7.56000 20.77500
H  2.01600 9.69600 21.10400
H  2.79400 6.85700 21.05000
H  2.50400 7.79300 19.62900
H  1.57100 6.24800 19.83500
H  -0.10500 9.62700 19.79500
H  0.20200 11.17300 20.50500
H  -2.30300 9.96100 20.88400
H  -1.49600 11.19100 21.88800
H  -1.50000 9.42700 22.21100
H  2.88100 13.48200 24.22800
H  2.49100 14.20800 25.78600
H  1.26000 14.02700 24.47800
H  0.86700 11.45500 29.83400
H  2.62500 11.19500 33.47400
H  3.74500 12.27100 32.49000
H  4.03600 10.56800 32.75000
Mg 48.82100 45.52400 43.67800
C  45.54200 45.62800 42.38300
C  48.95800 42.29000 42.84200
C  52.02400 45.80000 43.91200
C  48.47700 49.05600 44.19200
N  47.34400 44.21800 42.74500
C  46.15800 44.45500 42.23800
C  45.61400 43.22700 41.45400
C  46.63100 42.09900 41.83500
C  47.72300 42.88300 42.59100
C  46.11500 40.91200 42.82300
C  45.62700 43.50000 39.87400
C  44.37100 43.11900 39.11300
H  44.36000 41.89400 38.14700
N  50.30700 44.18400 43.51200
C  50.22000 42.84400 43.19300
C  51.51000 42.22800 43.19800
C  52.43400 43.23700 43.55000
C  51.62500 44.51900 43.63500
C  51.64300 40.70300 42.86700
C  53.88300 42.98900 43.82900
O  54.26500 41.84000 43.78700
C  54.90400 44.08700 44.16800
N  50.04100 47.23300 44.11800
C  51.36300 47.06100 44.13500
C  52.11200 48.40000 44.35900
C  50.98200 49.47800 44.54700
C  49.75100 48.53200 44.26400
C  53.14400 48.35600 45.50500
C  51.09700 50.61300 43.49900
C  50.80600 52.10500 43.92000
N  47.33500 47.09600 43.38800
C  47.27900 48.38700 43.69600
C  45.99700 48.95300 43.53900
C  45.25300 47.90000 42.96100
C  46.16600 46.80400 42.93400
C  45.53300 50.43700 43.90400
C  43.99400 47.52000 42.36400
O  43.01600 48.21500 42.18100
C  44.10100 45.97700 42.01400
C  43.01500 45.28100 42.72200
O  42.49700 44.30100 42.22400
O  42.55900 45.86600 43.82900
C  41.53900 45.07600 44.56200
H  48.93200 41.25100 42.50600
H  53.11400 45.86400 43.88700
H  48.27100 50.05100 44.59100
H  44.67000 42.79300 41.78200
H  47.01000 41.52800 40.98700
H  46.30900 39.99900 42.26200
H  45.05400 41.10800 42.97500
H  46.48900 40.86400 43.84600
H  46.32900 42.82200 39.38800
H  45.81700 44.54400 39.62500
H  44.11700 43.97400 38.48500
H  43.56800 42.98200 39.83600
H  52.16100 40.65100 41.90900
H  50.75900 40.08700 42.70400
H  52.33000 40.19300 43.54200
H  55.85900 43.67900 44.49800
H  54.42100 44.59100 45.00600
H  55.00600 44.69200 43.26700
H  52.69200 48.75400 43.50700
H  50.99400 49.79100 45.59100
H  54.11600 48.54200 45.04700
H  53.15700 47.35100 45.92600
H  52.92700 49.04900 46.31800
H  50.64300 50.47800 42.51700
H  52.16200 50.65900 43.27400
H  50.27700 52.05000 44.87100
H  50.13000 52.67700 43.28500
H  51.72400 52.69200 43.90000
H  44.61100 50.70000 43.38600
H  46.27500 51.11100 43.47500
H  45.33500 50.61900 44.96100
H  43.95100 45.83000 40.94500
H  40.58600 44.86800 44.07500
H  41.19000 45.80300 45.29500
H  41.89500 44.25500 45.18500

