158

Mg 9.13900 3.20700 27.58000
C  10.15800 1.59700 30.57900
C  7.56200 5.47300 29.51300
C  7.96500 4.55500 24.76400
C  10.20300 0.39100 25.90900
N  9.01500 3.54500 29.73000
C  9.55400 2.86800 30.79700
C  9.26900 3.42400 32.18900
C  8.36400 4.64100 31.80000
C  8.29300 4.62700 30.26800
C  6.96400 4.77900 32.45500
C  10.58300 3.59400 33.05200
C  10.58600 4.74800 34.09600
H  11.19900 4.36800 35.52300
N  7.87100 4.74000 27.22900
C  7.32500 5.58400 28.10200
C  6.62600 6.64900 27.35700
C  6.91700 6.45900 25.95000
C  7.66500 5.24800 25.94000
C  5.83100 7.78900 28.09200
C  6.49900 7.26500 24.66100
O  6.81100 6.89300 23.58800
C  5.64000 8.47100 24.81700
N  9.21900 2.65800 25.62600
C  8.68900 3.35400 24.63300
C  8.95900 2.80900 23.17300
C  9.64900 1.42200 23.59400
C  9.74900 1.49900 25.11900
C  7.78000 2.74800 22.23500
C  11.06900 1.22500 22.88300
C  11.16000 0.16800 21.80200
N  10.09800 1.38700 28.05900
C  10.44700 0.33500 27.24000
C  11.07700 -0.69500 28.01900
C  11.00400 -0.27200 29.35700
C  10.42600 0.99100 29.33400
C  11.87200 -1.80400 27.42800
C  11.29100 -0.59500 30.76400
O  11.74700 -1.59000 31.30300
C  10.78800 0.62000 31.60600
C  9.75500 0.14600 32.58600
O  8.62100 -0.09800 32.27800
O  10.19700 0.10500 33.84000
C  9.13700 0.06000 34.88100
H  6.96600 6.16800 30.10700
H  7.78100 4.95200 23.76300
H  10.66000 -0.41500 25.33200
H  8.54400 2.70200 32.56500
H  8.83200 5.56900 32.12900
H  6.20500 4.49400 31.72600
H  6.68800 5.80600 32.69500
H  6.88600 4.19100 33.37000
H  11.42700 3.76000 32.38400
H  10.76800 2.61800 33.50000
H  9.55700 4.99000 34.36200
H  11.12800 5.64900 33.80800
H  6.48300 8.66300 28.06400
H  5.45300 7.48500 29.06800
H  4.90400 8.03700 27.57600
H  4.77000 8.02600 25.30000
H  5.45300 8.85200 23.81300
H  6.18600 9.26500 25.32700
H  9.64100 3.45600 22.62100
H  9.09000 0.57000 23.20900
H  8.02400 3.38100 21.38200
H  6.87500 3.22400 22.61000
H  7.48500 1.72700 21.99200
H  11.80400 1.05500 23.67000
H  11.24100 2.18400 22.39200
H  10.80800 -0.80200 22.15200
H  12.16400 -0.08900 21.46400
H  10.52700 0.41200 20.94900
H  12.45900 -1.45000 26.58100
H  11.15100 -2.49400 26.99000
H  12.56600 -2.16700 28.18700
H  11.65300 1.15800 31.99500
H  8.53400 0.96800 34.91100
H  9.44100 0.06600 35.92700
H  8.49700 -0.78400 34.62600
Mg 46.59900 44.35700 42.60000
C  43.26400 43.43400 42.93400
C  47.25300 40.96300 42.39000
C  49.84100 45.06600 41.88900
C  45.70100 47.70200 42.24700
N  45.37000 42.42400 42.80900
C  44.01000 42.31700 42.81500
C  43.54800 40.86800 42.79200
C  44.94900 40.13300 43.05800
C  45.90800 41.26400 42.64400
C  45.23400 39.65800 44.46600
C  42.84700 40.46700 41.52800
C  43.27100 40.99500 40.13800
H  43.98300 40.16200 39.04700
N  48.30600 43.13100 42.22100
C  48.38300 41.75400 42.23600
C  49.73300 41.29400 41.96200
C  50.47300 42.48600 41.70700
C  49.56000 43.65200 41.95800
C  50.15100 39.83800 42.07600
C  51.94100 42.46800 41.43400
O  52.54300 41.43800 41.29900
C  52.67200 43.84500 41.35600
N  47.55500 46.12000 42.05900
C  48.91600 46.16700 41.95400
C  49.46700 47.60600 41.97700
C  48.18800 48.45500 42.29400
C  47.05200 47.40400 42.12100
C  50.62300 47.98300 42.87100
C  48.06000 49.78300 41.46800
C  47.86300 51.13800 42.26800
N  44.82500 45.45900 42.58100
C  44.61600 46.82500 42.54300
C  43.25200 47.04800 42.80500
C  42.64600 45.75800 42.96700
C  43.64900 44.76900 42.75800
C  42.57800 48.42800 42.75800
C  41.46600 45.04200 43.25000
O  40.31200 45.40800 43.45600
C  41.84300 43.53100 43.30700
C  41.67700 43.03900 44.74800
O  42.29500 43.41600 45.72900
O  40.65000 42.09800 44.87600
C  40.55500 41.36000 46.12300
H  47.40200 39.88200 42.34200
H  50.89200 45.36100 41.93200
H  45.44500 48.76100 42.32800
H  42.88600 40.70000 43.64100
H  45.11900 39.35600 42.31300
H  45.76600 40.46800 44.96500
H  45.99600 38.87900 44.48900
H  44.29800 39.46100 44.98800
H  41.79500 40.64900 41.74900
H  42.96000 39.39600 41.36500
H  43.78500 41.95500 40.18800
H  42.31100 41.20600 39.66700
H  50.39700 39.29300 41.16500
H  49.45100 39.17500 42.58400
H  51.04900 39.85600 42.69300
H  52.23300 44.47700 40.58400
H  53.73300 43.65000 41.20100
H  52.56300 44.16700 42.39100
H  49.81700 47.76600 40.95700
H  48.35400 48.70100 43.34400
H  50.68600 48.99000 43.28400
H  51.54600 47.79600 42.32200
H  50.70200 47.32300 43.73400
H  47.32500 49.72500 40.66500
H  49.06200 49.91800 41.05900
H  47.01400 51.68900 41.86300
H  48.73000 51.79900 42.24500
H  47.71100 50.91600 43.32400
H  41.56900 48.20700 43.10600
H  42.46500 48.87700 41.77100
H  42.93200 49.12900 43.51400
H  41.11500 42.95200 42.74000
H  41.37200 41.60400 46.80200
H  40.62600 40.30400 45.85900
H  39.68100 41.65400 46.70500

