158

Mg 27.42000 50.22100 26.93300
C  25.17100 51.12600 29.43400
C  29.77700 49.37800 29.39600
C  29.51400 49.20600 24.42300
C  25.10000 51.17200 24.51400
N  27.42400 50.24100 29.16300
C  26.34800 50.56400 29.97500
C  26.69200 50.44700 31.41100
C  28.24100 50.07400 31.41100
C  28.54400 49.85200 29.90700
C  29.10600 51.12800 32.09900
C  25.73200 49.38600 32.16400
C  24.87200 49.81700 33.38700
H  24.92300 48.83600 34.54200
N  29.35600 49.47000 26.93700
C  30.19100 49.21200 28.04100
C  31.42900 48.64600 27.58000
C  31.36500 48.62500 26.11800
C  30.04300 49.13600 25.76400
C  32.47800 48.14900 28.49100
C  32.44800 48.27000 25.14500
O  32.32000 48.27700 23.89600
C  33.75900 47.82300 25.76700
N  27.38000 50.34700 24.79500
C  28.22000 49.63700 23.99200
C  27.81000 49.57300 22.56900
C  26.42500 50.18200 22.64400
C  26.27500 50.64800 24.08400
C  28.82800 50.13200 21.49400
C  25.25500 49.17100 22.20000
C  24.05100 49.82500 21.49800
N  25.53700 51.14700 26.91700
C  24.67700 51.33800 25.91500
C  23.44600 51.93800 26.39600
C  23.54100 51.79300 27.83100
C  24.87700 51.38400 28.04000
C  22.35500 52.50900 25.54900
C  22.80500 52.02900 29.09300
O  21.69100 52.50200 29.26800
C  23.84600 51.57300 30.16900
C  23.97800 52.72100 31.05300
O  24.41300 53.80500 30.76100
O  23.28500 52.42300 32.15900
C  23.15200 53.40400 33.19000
H  30.62000 49.28400 30.08500
H  30.15000 48.82900 23.61900
H  24.29300 51.23100 23.78200
H  26.46300 51.40100 31.88500
H  28.31400 49.23400 32.10300
H  29.60900 51.67000 31.29900
H  29.81900 50.69900 32.80300
H  28.49600 51.89500 32.57500
H  26.14200 48.41700 32.45100
H  25.05300 49.02000 31.39300
H  23.82200 49.91700 33.11300
H  25.14500 50.84700 33.61700
H  32.91900 47.19300 28.20800
H  32.12700 48.15800 29.52300
H  33.23700 48.93000 28.44800
H  33.77900 46.81300 26.17800
H  34.13600 48.61100 26.41900
H  34.36900 47.76600 24.86600
H  27.75000 48.52800 22.26700
H  26.40300 51.11300 22.07800
H  29.47600 50.59800 22.23700
H  28.37000 50.89600 20.86600
H  29.44600 49.50900 20.84800
H  25.02800 48.68900 23.15100
H  25.67200 48.36700 21.59400
H  23.91700 49.39600 20.50400
H  24.09700 50.88600 21.25400
H  23.12100 49.55900 22.00100
H  21.61500 51.70900 25.52900
H  22.69400 52.72400 24.53600
H  21.95600 53.33600 26.13500
H  23.58900 50.66100 30.70700
H  22.11900 53.48300 33.52700
H  23.38700 54.41500 32.85800
H  23.72800 53.14200 34.07700
Mg -2.77400 33.98700 26.07400
C  -4.52100 32.50100 28.76900
C  -1.00800 35.97100 28.35600
C  -1.54700 35.80000 23.45700
C  -4.85400 32.37000 23.89600
N  -2.86200 34.31700 28.21600
C  -3.62400 33.50300 29.10600
C  -3.44000 34.02400 30.56300
C  -2.43800 35.19700 30.43100
C  -2.09500 35.17500 28.95500
C  -2.97800 36.57600 30.99000
C  -2.91500 32.82200 31.40700
C  -2.28800 33.21700 32.83100
H  -2.70100 32.40900 34.08000
N  -1.38800 35.57000 25.93600
C  -0.70000 36.19100 27.00300
C  0.25500 37.20200 26.34300
C  0.13300 37.05000 24.97600
C  -0.99200 36.10100 24.70400
C  1.16100 38.02000 27.21400
C  0.91100 37.81200 23.92800
O  0.68000 37.69900 22.76000
C  1.98300 38.68700 24.38500
N  -3.29300 34.23200 24.01200
C  -2.67100 35.04800 23.15600
C  -3.11600 34.86200 21.67900
C  -4.01200 33.53800 21.79000
C  -4.03000 33.34000 23.33900
C  -3.91700 36.07100 21.11600
C  -3.63900 32.27100 21.01100
C  -2.79700 31.22900 21.79800
N  -4.30500 32.62300 26.21200
C  -5.08700 32.05200 25.25200
C  -5.92800 31.05600 25.85100
C  -5.74200 31.24900 27.21400
C  -4.81200 32.22600 27.41200
C  -6.71600 30.04000 25.08800
C  -6.18500 30.75900 28.54300
O  -6.88500 29.82300 28.82900
C  -5.42200 31.58200 29.59400
C  -6.41700 32.24300 30.47200
O  -7.27800 33.01100 30.12200
O  -6.24800 31.79300 31.81400
C  -7.31500 32.14100 32.77000
H  -0.39100 36.55100 29.04500
H  -1.14100 36.27800 22.56300
H  -5.45000 31.75000 23.22400
H  -4.40300 34.37900 30.93100
H  -1.49400 35.10100 30.96700
H  -2.71500 37.43000 30.36600
H  -2.42900 36.86700 31.88600
H  -4.02100 36.57800 31.30900
H  -2.11700 32.36300 30.82200
H  -3.59500 32.01500 31.67800
H  -2.74300 34.17900 33.06800
H  -1.21600 33.38400 32.72200
H  1.03900 37.77400 28.26900
H  0.92900 39.07400 27.06400
H  2.23500 38.02400 27.02900
H  1.65500 39.68900 24.66100
H  2.68700 38.80100 23.56100
H  2.65900 38.15800 25.05700
H  -2.22800 34.52400 21.14500
H  -5.03500 33.79800 21.51800
H  -3.92000 36.91800 21.80200
H  -4.96400 35.94000 20.84200
H  -3.40200 36.36500 20.20100
H  -3.07300 32.63500 20.15400
H  -4.57900 31.82600 20.68500
H  -2.26100 31.66300 22.64200
H  -2.07100 30.68700 21.19100
H  -3.42200 30.42000 22.17500
H  -6.14300 29.16300 24.78700
H  -7.26000 30.49500 24.26100
H  -7.53800 29.75000 25.74200
H  -4.79600 30.87400 30.13700
H  -6.72600 32.26300 33.67900
H  -7.95500 31.28500 32.98800
H  -7.87600 33.01300 32.43500

