158

Mg 41.64800 8.43600 28.84300
C  43.01100 9.91400 31.62400
C  39.26200 6.95300 31.00900
C  40.20400 6.92000 26.26100
C  44.20100 9.62000 26.79400
N  41.13800 8.46700 30.99500
C  41.86200 9.11500 31.92600
C  41.27200 8.84900 33.35100
C  40.33700 7.65300 33.14300
C  40.23100 7.68200 31.67400
C  40.77800 6.21400 33.70000
C  40.63700 10.11500 34.00600
C  40.84700 10.17600 35.49400
H  40.68900 11.52500 36.27200
N  39.94700 7.13000 28.62800
C  39.11900 6.63600 29.61500
C  38.10800 5.74300 28.98000
C  38.32200 5.72500 27.54500
C  39.50200 6.63900 27.39900
C  36.96400 4.97900 29.91400
C  37.50700 5.05600 26.43500
O  37.73000 5.25900 25.22100
C  36.32900 4.17300 26.86500
N  42.23900 8.13500 26.83800
C  41.42000 7.58500 25.92800
C  42.01800 7.54500 24.54400
C  43.13400 8.62700 24.69100
C  43.25200 8.82600 26.16500
C  42.40700 6.12600 24.02100
C  42.86100 10.02900 24.01600
C  42.10100 11.14800 24.77000
N  43.21100 9.62900 29.16000
C  44.20200 9.98000 28.21100
C  45.17000 10.80100 28.95300
C  44.63500 10.90900 30.26500
C  43.58100 9.98700 30.36000
C  46.32700 11.54000 28.35200
C  44.85800 11.42500 31.60300
O  45.72400 12.12900 32.10500
C  43.83100 10.67800 32.55400
C  44.42700 9.86400 33.65300
O  44.95400 8.79600 33.47200
O  44.26800 10.51100 34.89100
C  44.75500 9.80400 36.11700
H  38.52000 6.44900 31.63100
H  39.71600 6.47600 25.39100
H  44.95900 10.07400 26.15200
H  42.04500 8.50800 34.03900
H  39.40100 7.93300 33.62700
H  41.30700 5.56300 33.00500
H  39.98500 5.66200 34.20500
H  41.53300 6.47700 34.44100
H  39.55600 10.11900 33.86600
H  41.15000 11.01600 33.66900
H  41.82900 9.80300 35.78700
H  40.12600 9.43000 35.82800
H  36.06900 5.60000 29.91700
H  37.19900 4.82300 30.96700
H  36.71100 4.01500 29.47400
H  36.75300 3.46900 27.58100
H  35.94800 3.73600 25.94200
H  35.62300 4.88300 27.29600
H  41.25700 7.90900 23.85300
H  44.00600 8.10600 24.29600
H  41.75700 5.42800 24.54800
H  43.42800 5.90400 24.33300
H  42.27900 6.08000 22.93900
H  42.37500 9.74800 23.08100
H  43.81100 10.39800 23.62700
H  41.72800 10.84400 25.74800
H  41.20600 11.30900 24.17000
H  42.64700 12.09000 24.82200
H  47.24400 11.04500 28.67000
H  46.12300 12.54100 28.73100
H  46.28400 11.55400 27.26300
H  43.42200 11.58600 32.99900
H  44.18000 10.10200 36.99400
H  45.82700 9.85200 36.30900
H  44.43200 8.76700 36.02300
Mg 26.32700 50.65700 26.71600
C  24.13600 51.45500 29.48500
C  28.66900 49.79700 28.95900
C  28.44000 50.42700 24.20800
C  23.87000 51.98700 24.60300
N  26.33500 50.77300 28.97500
C  25.37800 51.03900 29.92500
C  25.82600 50.71900 31.33400
C  27.29600 50.31500 31.10200
C  27.44800 50.28400 29.57800
C  28.34600 51.23800 31.74000
C  24.97700 49.67500 32.13300
C  24.64600 50.12100 33.62700
H  25.63700 50.60200 34.57500
N  28.23400 50.05900 26.55600
C  29.03300 49.69900 27.60600
C  30.29000 49.17900 27.10800
C  30.26600 49.52000 25.72200
C  28.91000 50.00000 25.40200
C  31.40400 48.62000 27.93400
C  31.34100 49.47300 24.70700
O  31.16000 49.76200 23.52500
C  32.60300 49.04100 25.12400
N  26.29200 51.49600 24.80500
C  27.24500 51.17200 23.90900
C  26.79800 51.22200 22.40600
C  25.38100 51.73400 22.52500
C  25.12700 51.81600 24.03600
C  27.72400 52.08600 21.48300
C  24.44200 50.80500 21.65300
C  23.54100 49.75600 22.30800
N  24.40800 51.58800 26.95700
C  23.47400 52.00500 25.98400
C  22.16400 52.26500 26.58600
C  22.42700 52.19000 27.95200
C  23.76700 51.61500 28.11100
C  20.95100 52.78400 25.85200
C  21.85100 52.43700 29.21400
O  20.81200 52.99300 29.50300
C  22.88000 51.83300 30.31900
C  23.19700 52.93900 31.24300
O  24.21400 53.61200 31.22100
O  22.32500 52.89300 32.24500
C  22.48500 53.77100 33.36400
H  29.32600 49.20900 29.60300
H  28.95500 50.20600 23.27100
H  23.10300 52.26100 23.87500
H  25.81200 51.66100 31.88200
H  27.37500 49.31100 31.51800
H  27.88900 52.22700 31.75300
H  29.24100 51.18200 31.12000
H  28.63000 50.98200 32.76100
H  25.43200 48.69000 32.03800
H  24.00800 49.58700 31.64200
H  24.05000 49.25500 33.91500
H  23.88600 50.89100 33.50100
H  31.07200 48.29000 28.91800
H  32.25700 49.29200 28.01900
H  31.67300 47.66600 27.48200
H  33.18200 48.89500 24.21100
H  32.53400 48.07200 25.61900
H  32.98100 49.68200 25.92000
H  26.81600 50.19100 22.05200
H  25.22000 52.73200 22.11600
H  28.23800 51.49800 20.72200
H  28.39600 52.53900 22.21100
H  27.18500 52.91900 21.03200
H  25.10900 50.29900 20.95500
H  23.73400 51.51600 21.22600
H  23.93600 49.45200 23.27800
H  23.67000 48.91400 21.62800
H  22.51600 50.10500 22.18200
H  20.87500 53.86300 25.71700
H  20.12600 52.68500 26.55800
H  20.70100 52.29000 24.91300
H  22.22900 51.12200 30.82800
H  22.66600 54.81100 33.09000
H  23.34700 53.45400 33.95200
H  21.55900 53.58600 33.90800

