158

Mg 39.62700 10.38400 29.16700
C  41.65200 11.86400 31.65700
C  37.68200 9.09000 31.75600
C  38.06900 8.67500 26.83700
C  42.20000 11.03400 26.90200
N  39.58400 10.62800 31.43800
C  40.49200 11.36800 32.21000
C  40.13000 11.32300 33.69500
C  38.98200 10.19900 33.69000
C  38.76800 9.86000 32.22400
C  39.16600 8.91200 34.57900
C  39.61300 12.62200 34.35000
C  39.11800 12.48100 35.80300
H  39.90300 13.26500 36.80200
N  37.98000 9.21400 29.24900
C  37.33600 8.68000 30.35800
C  36.23500 7.87200 29.89500
C  36.28400 7.89000 28.46000
C  37.50900 8.57000 28.10900
C  35.25500 7.16000 30.80000
C  35.23700 7.34000 27.47700
O  35.29200 7.55500 26.28500
C  34.03800 6.65200 28.01900
N  40.15400 9.83400 27.10800
C  39.26800 9.18300 26.35000
C  39.73900 9.26100 24.85300
C  40.99300 10.24700 24.93600
C  41.12800 10.36900 26.39300
C  40.14100 7.85500 24.20600
C  40.81900 11.53200 24.16700
C  40.08100 12.79000 24.96500
N  41.50900 11.20400 29.23200
C  42.41500 11.41900 28.18900
C  43.59000 12.15600 28.69700
C  43.34500 12.35000 30.06200
C  42.11600 11.77100 30.33500
C  44.82000 12.64200 27.92300
C  43.85800 12.90900 31.25200
O  44.88700 13.60400 31.40400
C  42.75600 12.73000 32.28100
C  43.32200 12.17800 33.61000
O  43.72500 11.05300 33.78900
O  43.19900 13.08900 34.60400
C  43.56600 12.70600 35.91800
H  37.00200 8.77000 32.54900
H  37.53700 8.08900 26.08400
H  42.96100 11.35500 26.18800
H  40.95500 10.87100 34.24500
H  38.04600 10.60800 34.06900
H  38.28400 8.67500 35.17400
H  39.96700 9.11600 35.29000
H  39.37800 8.02900 33.97700
H  38.86200 13.09800 33.71900
H  40.50900 13.24100 34.41100
H  39.08900 11.50200 36.28100
H  38.09800 12.84300 35.66900
H  34.35500 7.77500 30.82400
H  35.71100 7.17900 31.79000
H  34.94400 6.14700 30.54700
H  33.47000 6.32000 27.15000
H  33.47400 7.24000 28.74300
H  34.41400 5.72000 28.44200
H  38.90500 9.67300 24.28600
H  41.80000 9.74800 24.39900
H  41.22800 7.78000 24.17600
H  39.74200 7.75900 23.19700
H  39.52800 7.21400 24.84000
H  40.12800 11.42500 23.33000
H  41.75600 11.82800 23.69500
H  40.11000 12.51700 26.02000
H  39.12800 13.12300 24.55300
H  40.69700 13.68400 24.87200
H  44.65800 13.52400 27.30400
H  45.28000 11.84300 27.34000
H  45.56400 12.82200 28.69900
H  42.22800 13.66900 32.44700
H  44.64900 12.66000 36.03100
H  43.11700 11.76600 36.23700
H  43.24500 13.45000 36.64700
Mg 49.19000 36.06300 27.59500
C  47.17500 34.59000 30.02400
C  49.63700 38.68800 29.61200
C  50.38000 37.81300 24.99200
C  48.52600 33.37100 25.52000
N  48.56700 36.55200 29.62800
C  47.84500 35.77600 30.45600
C  48.00200 36.26900 31.95200
C  48.48800 37.71500 31.74200
C  48.95500 37.66900 30.28800
C  47.39600 38.80200 31.82900
C  49.08800 35.42900 32.65800
C  49.03800 35.40100 34.21300
H  48.11700 36.42000 34.91800
N  49.93900 38.02700 27.34200
C  50.05400 38.93600 28.27500
C  50.63200 40.17900 27.70700
C  50.87700 39.92700 26.34600
C  50.33800 38.55100 26.18500
C  50.88800 41.34300 28.48100
C  51.47400 40.82300 25.25500
O  51.54400 40.49700 24.09400
C  52.18600 42.10400 25.63800
N  49.16100 35.68800 25.45800
C  49.94900 36.51200 24.74200
C  50.35100 35.87600 23.40100
C  49.72300 34.41100 23.54200
C  49.12900 34.45800 24.95700
C  50.14000 36.54400 21.97900
C  50.75900 33.24600 23.22400
C  50.53400 32.42300 21.91900
N  48.10400 34.30700 27.68600
C  48.05500 33.27200 26.84600
C  47.19900 32.21500 27.38600
C  46.72700 32.72800 28.58400
C  47.42200 33.94000 28.76500
C  46.86800 30.94500 26.87800
C  45.81700 32.59100 29.66800
O  45.09900 31.63600 29.88600
C  46.02900 33.80000 30.69900
C  46.23900 33.12700 32.04700
O  47.33400 32.59900 32.35600
O  45.15600 33.45200 32.91100
C  45.20300 33.01900 34.29200
H  49.98900 39.44800 30.31300
H  50.91200 38.26600 24.15300
H  48.51900 32.52200 24.83400
H  47.03800 36.07200 32.42100
H  49.30100 38.02900 32.39700
H  47.16300 38.60400 32.87500
H  46.59400 38.61900 31.11300
H  47.83000 39.80200 31.81600
H  50.05600 35.87500 32.42800
H  49.08000 34.40500 32.28500
H  50.04200 35.59900 34.58900
H  48.66400 34.39700 34.40800
H  50.80900 42.20900 27.82400
H  51.91000 41.24600 28.84900
H  50.15700 41.50200 29.27400
H  52.91100 41.96300 26.44000
H  51.56600 42.96700 25.88100
H  52.75400 42.35500 24.74200
H  51.43700 35.86400 23.49000
H  48.85900 34.34800 22.88100
H  49.48300 37.40000 22.13200
H  49.57900 35.87200 21.32900
H  51.06600 36.81800 21.47400
H  50.94700 32.69700 24.14600
H  51.66000 33.81500 22.99300
H  50.85000 33.01600 21.06000
H  49.44900 32.33100 21.87600
H  51.00100 31.43900 21.96000
H  47.81700 30.57000 26.49700
H  46.11100 30.97500 26.09400
H  46.57100 30.40400 27.77700
H  45.05700 34.28800 30.63000
H  44.17300 32.82500 34.58900
H  45.52200 33.83500 34.94000
H  45.79400 32.11300 34.42600

