158

Mg 49.23300 34.48700 26.10100
C  47.21300 33.24400 28.68300
C  50.15700 36.98200 28.07800
C  50.67700 35.77300 23.31600
C  48.07700 31.81700 24.14400
N  48.64600 35.04200 28.16800
C  47.90000 34.40800 29.04200
C  48.03100 35.08800 30.42700
C  48.69400 36.41100 30.13200
C  49.27200 36.12400 28.71300
C  47.77900 37.61500 30.14300
C  48.80100 34.18600 31.46600
C  48.10600 34.19000 32.86200
H  47.43700 35.41300 33.34600
N  50.36600 36.08800 25.79600
C  50.67400 36.99800 26.74400
C  51.56300 37.92600 26.16500
C  51.74900 37.55400 24.73200
C  50.86500 36.43900 24.53600
C  52.19600 39.09200 26.86600
C  52.62800 38.25800 23.63300
O  52.81500 37.80200 22.49200
C  53.38200 39.55300 24.10900
N  49.22900 33.95300 23.96800
C  49.97100 34.62500 23.00300
C  50.06300 33.81900 21.64800
C  49.42400 32.46900 22.03100
C  48.96300 32.74800 23.50500
C  49.31600 34.50000 20.39800
C  50.37400 31.27200 21.85100
C  49.82100 30.03700 21.13800
N  47.78400 32.89100 26.22100
C  47.50400 31.83500 25.38900
C  46.57000 30.88200 26.05700
C  46.29900 31.50600 27.31000
C  47.20500 32.60900 27.40600
C  45.96900 29.61700 25.57800
C  45.62600 31.30500 28.49400
O  44.78800 30.49000 28.83100
C  46.14800 32.49600 29.43400
C  46.47100 31.83300 30.77700
O  47.53400 31.30200 31.07200
O  45.33900 31.96300 31.54700
C  45.49600 31.27000 32.86100
H  50.39400 37.91000 28.60300
H  51.11500 36.19500 22.40900
H  47.95700 30.88800 23.58300
H  46.99400 35.23800 30.72600
H  49.42800 36.68900 30.88800
H  46.94400 37.62000 30.84300
H  47.39500 37.63600 29.12300
H  48.30000 38.56900 30.21500
H  49.75600 34.69500 31.59700
H  48.88800 33.19500 31.02200
H  48.93300 34.15100 33.57100
H  47.46000 33.33100 33.04200
H  52.11700 38.93700 27.94200
H  51.70300 40.06000 26.78700
H  53.26400 39.10800 26.64700
H  52.60100 40.13900 24.59300
H  53.85200 40.00300 23.23400
H  54.23200 39.30700 24.74500
H  51.11800 33.66700 21.42200
H  48.54800 32.23500 21.42700
H  50.09100 34.64400 19.64500
H  48.83700 35.44500 20.65600
H  48.54300 33.78400 20.11900
H  50.56100 30.84200 22.83500
H  51.35800 31.58100 21.50100
H  48.82400 30.21200 20.73400
H  49.83900 29.20000 21.83700
H  50.52600 29.89300 20.31900
H  46.52200 29.20200 24.73500
H  44.89000 29.68800 25.44300
H  46.23300 28.92500 26.37800
H  45.17700 32.97600 29.55300
H  46.40600 30.69900 33.04400
H  44.70000 30.52600 32.86700
H  45.44000 31.90600 33.74400
Mg -0.70100 44.04500 26.33400
C  1.74400 43.74800 28.77400
C  -3.17900 43.83300 28.77000
C  -3.02700 43.87900 23.88100
C  1.75200 44.23400 23.90400
N  -0.67300 43.95900 28.53600
C  0.48400 43.78700 29.35100
C  0.05200 43.64800 30.79900
C  -1.47700 43.56600 30.67900
C  -1.79900 43.84200 29.20900
C  -2.15300 42.35100 31.37100
C  0.49000 44.96900 31.45400
C  0.13400 45.18700 32.87700
H  -0.12000 44.04700 33.84300
N  -2.80800 43.83900 26.35100
C  -3.62900 43.80700 27.43600
C  -4.95900 43.72000 27.00700
C  -4.98500 43.73100 25.58600
C  -3.58800 43.72500 25.17500
C  -6.11000 43.67200 27.98800
C  -6.15000 43.67300 24.61100
O  -6.03800 43.75300 23.36100
C  -7.64200 43.59600 25.12700
N  -0.64400 43.91000 24.20600
C  -1.72300 43.90400 23.43300
C  -1.41900 44.08000 21.98200
C  0.10400 44.48100 21.98400
C  0.48100 44.19600 23.46100
C  -1.59900 42.83900 21.08700
C  0.24300 45.96600 21.63900
C  1.62500 46.35800 21.05400
N  1.34700 44.05600 26.26600
C  2.23200 44.10800 25.23800
C  3.62000 44.00200 25.72500
C  3.42300 43.76200 27.10100
C  2.05300 43.83300 27.38800
C  4.84900 44.33900 25.01500
C  4.20100 43.56800 28.30700
O  5.39300 43.39600 28.51400
C  3.16200 43.63000 29.45700
C  3.24500 42.41300 30.30700
O  2.79900 41.30500 29.93100
O  3.80500 42.71200 31.52800
C  4.20800 41.56600 32.39600
H  -3.91900 43.59300 29.53700
H  -3.74200 43.77500 23.06200
H  2.50300 44.28900 23.11300
H  0.59400 42.86900 31.33500
H  -1.84500 44.46300 31.17700
H  -2.85100 41.79400 30.74600
H  -2.72600 42.69300 32.23300
H  -1.46000 41.57400 31.69200
H  -0.07900 45.72900 30.91900
H  1.55700 45.18700 31.40400
H  -0.72600 45.85600 32.86900
H  1.02600 45.72400 33.19900
H  -6.78600 44.45700 27.65000
H  -5.87200 43.89500 29.02800
H  -6.48700 42.65100 27.92700
H  -8.36600 43.32000 24.36000
H  -7.73600 44.62300 25.48000
H  -7.78300 42.82600 25.88600
H  -2.06800 44.88900 21.64700
H  0.60100 43.81400 21.28000
H  -1.28000 41.87800 21.49000
H  -1.07400 43.02700 20.15000
H  -2.65600 42.71100 20.85300
H  0.22900 46.60300 22.52300
H  -0.56800 46.30900 20.99600
H  2.39400 46.33000 21.82600
H  1.54700 47.31600 20.53900
H  1.89500 45.74000 20.19800
H  4.89200 43.63900 24.18000
H  5.74600 44.19700 25.61800
H  4.69000 45.37300 24.70700
H  3.37400 44.54200 30.01400
H  5.23500 41.62900 32.75400
H  4.11200 40.59000 31.91900
H  3.58900 41.59000 33.29300

