158

Mg 16.47000 -1.95000 28.30100
C  15.72000 0.14900 30.99900
C  18.54000 -3.79400 30.23400
C  17.86500 -3.55700 25.43300
C  14.99300 0.30900 26.15100
N  17.16900 -1.66700 30.35400
C  16.60700 -0.84800 31.28400
C  17.12200 -1.27500 32.68900
C  18.13300 -2.42600 32.42800
C  17.94800 -2.70900 30.92000
C  19.60900 -2.43300 32.87800
C  16.00700 -1.63600 33.68500
C  16.05400 -1.02800 35.12100
H  17.33200 -0.47900 35.64800
N  17.93900 -3.55300 27.87200
C  18.63900 -4.15500 28.90500
C  19.32800 -5.32500 28.35300
C  19.01100 -5.39500 26.94400
C  18.20300 -4.17000 26.68100
C  20.12200 -6.30700 29.23300
C  19.36200 -6.51600 26.02900
O  18.98500 -6.50800 24.86400
C  20.22700 -7.68000 26.51000
N  16.36000 -1.76000 26.11600
C  17.06900 -2.40700 25.20700
C  16.87500 -1.82400 23.77100
C  15.93100 -0.71100 23.99300
C  15.71100 -0.72400 25.49700
C  18.17900 -1.57700 22.89300
C  14.60100 -0.71000 23.12200
C  13.43000 -1.31700 23.78900
N  15.44100 -0.20800 28.50000
C  14.81100 0.58100 27.53700
C  14.01700 1.58100 28.16900
C  14.37900 1.48100 29.53600
C  15.26400 0.39100 29.68000
C  13.17300 2.65700 27.50400
C  14.15300 1.99100 30.91900
O  13.42200 2.89500 31.30600
C  15.06200 1.17500 31.88000
C  15.99700 2.13400 32.61600
O  16.93900 2.76400 32.20200
O  15.58000 2.15300 33.90900
C  16.16300 3.23700 34.75400
H  19.06700 -4.44400 30.93700
H  18.41100 -3.96900 24.58200
H  14.63000 1.16400 25.57600
H  17.76400 -0.47500 33.05900
H  17.71200 -3.33000 32.86700
H  20.25900 -2.12500 32.05900
H  19.94100 -3.37000 33.32500
H  19.63600 -1.66100 33.64700
H  15.88700 -2.71600 33.76300
H  15.02300 -1.30000 33.35700
H  15.73000 -1.83300 35.78200
H  15.28200 -0.27700 35.28500
H  21.14200 -6.27900 28.85100
H  19.76200 -7.33000 29.12600
H  20.22300 -6.03000 30.28200
H  20.31600 -8.39500 25.69200
H  19.95900 -8.21300 27.42200
H  21.21900 -7.33200 26.80100
H  16.37800 -2.70900 23.37400
H  16.44800 0.23500 23.83200
H  18.30300 -0.52700 22.62800
H  18.12500 -2.16200 21.97400
H  19.11900 -1.81100 23.39300
H  14.84500 -1.19900 22.17900
H  14.41400 0.32400 22.83200
H  13.62500 -2.19600 24.40200
H  12.74400 -1.63400 23.00400
H  12.97600 -0.56800 24.43800
H  12.13500 2.32300 27.47500
H  13.62200 2.82500 26.52500
H  13.22900 3.52400 28.16200
H  14.34700 0.67000 32.52900
H  15.92200 4.16900 34.24300
H  17.22400 3.10800 34.96800
H  15.68200 3.28100 35.73200
Mg 44.59900 5.33300 47.49200
C  42.46400 8.17200 47.28100
C  41.77800 3.40100 47.01600
C  46.51500 2.72100 47.07400
C  47.34800 7.47100 47.57700
N  42.30900 5.74900 47.27200
C  41.73900 6.95700 47.12600
C  40.19300 6.86900 47.03300
C  40.00500 5.32100 46.92100
C  41.42700 4.72400 47.12300
C  39.02300 4.68300 47.90500
C  39.57900 7.62700 45.84400
C  40.23200 7.19100 44.53400
H  40.65000 8.16900 43.33100
N  44.22600 3.25800 47.14100
C  42.99200 2.66500 47.00300
C  43.19100 1.23700 46.91200
C  44.58600 1.03600 46.85400
C  45.17900 2.35600 47.01700
C  42.04900 0.22900 46.73600
C  45.33500 -0.31300 46.75700
O  44.67900 -1.34200 46.73900
C  46.70700 -0.55700 46.95800
N  46.64200 5.13200 47.30800
C  47.20600 3.93300 47.19400
C  48.78500 4.01100 47.39300
C  48.92600 5.57000 47.59200
C  47.53600 6.12400 47.50800
C  49.29200 3.16300 48.57100
C  49.95200 6.23600 46.59400
C  50.99800 7.11700 47.23600
N  44.90100 7.38300 47.42900
C  46.07900 8.12100 47.45500
C  45.79900 9.45400 47.36500
C  44.37700 9.53700 47.42400
C  43.84100 8.27700 47.34600
C  46.84500 10.55500 47.19600
C  43.25900 10.45200 47.27100
O  43.22000 11.61700 47.00500
C  41.97300 9.62600 47.18600
C  41.11100 9.84200 48.31800
O  41.00900 9.08800 49.28300
O  40.28000 10.88200 48.04900
C  39.14700 11.07600 48.95000
H  40.87100 2.82300 46.82100
H  47.24800 1.93000 46.90400
H  48.07400 8.27400 47.72100
H  39.73300 7.21400 47.95900
H  39.66000 4.99400 45.94000
H  38.33100 5.37100 48.39100
H  39.55400 4.16900 48.70600
H  38.28800 4.08900 47.36200
H  39.58800 8.71300 45.94400
H  38.53500 7.33400 45.73700
H  39.43500 6.52000 44.21300
H  41.15900 6.62700 44.63100
H  41.23000 0.83200 46.34500
H  41.80500 -0.19100 47.71200
H  42.24900 -0.58300 46.03700
H  47.33800 -0.01700 46.25200
H  46.97700 -1.61100 46.88800
H  46.99800 -0.16200 47.93200
H  49.34600 3.70800 46.50900
H  49.26100 5.72800 48.61700
H  48.44000 2.52400 48.79800
H  49.56200 3.79900 49.41400
H  50.15500 2.62000 48.18500
H  49.40500 6.76000 45.81000
H  50.50000 5.51300 45.98800
H  51.59200 6.44100 47.85100
H  50.53600 7.92400 47.80500
H  51.52100 7.59600 46.40900
H  47.67800 10.51600 47.89800
H  46.36400 11.53300 47.18200
H  47.33400 10.37400 46.23900
H  41.48900 9.82300 46.23000
H  39.17000 12.07800 49.37800
H  39.19300 10.42800 49.82400
H  38.27700 10.95300 48.30500

