158

Mg 10.98600 46.98100 25.86900
C  8.78800 47.20100 28.67700
C  13.40200 48.14600 27.91400
C  13.00800 46.80900 23.26800
C  8.21100 46.06100 23.97500
N  11.02400 47.70800 27.97200
C  10.08200 47.62900 28.96300
C  10.59500 47.99700 30.38500
C  11.90600 48.74400 29.99100
C  12.17700 48.20500 28.52700
C  11.77800 50.28100 30.05000
C  10.69700 46.78300 31.33000
C  10.49800 46.89300 32.83100
H  10.56400 45.60600 33.67500
N  12.86200 47.44800 25.56600
C  13.78500 47.80000 26.59500
C  15.11700 47.88600 26.07000
C  15.02500 47.58500 24.70500
C  13.57400 47.27900 24.42900
C  16.33200 48.28000 26.87500
C  16.11600 47.28400 23.68300
O  15.90900 46.83200 22.52600
C  17.51400 47.41600 24.11200
N  10.58700 46.53400 23.83800
C  11.64200 46.51200 22.98900
C  11.15700 45.91100 21.65900
C  9.53800 45.77800 21.83100
C  9.42600 46.18900 23.29700
C  11.56300 46.79000 20.41600
C  8.99100 44.32400 21.51100
C  8.98900 43.29400 22.60600
N  8.87600 46.56000 26.18400
C  7.86400 46.23900 25.29200
C  6.62800 46.18300 25.94700
C  6.87800 46.51700 27.26100
C  8.30100 46.77100 27.38500
C  5.31600 45.78400 25.20300
C  6.32900 46.65000 28.58400
O  5.25500 46.32800 29.02800
C  7.47100 46.96800 29.52800
C  7.62200 45.73700 30.38600
O  8.17100 44.71600 30.01000
O  6.93600 45.99300 31.53100
C  7.01100 44.79500 32.42600
H  14.22800 48.44700 28.56100
H  13.77600 46.80200 22.49200
H  7.40700 45.97500 23.24100
H  9.99300 48.79200 30.82500
H  12.74100 48.48000 30.64100
H  10.84900 50.66700 30.47000
H  11.69100 50.77800 29.08300
H  12.57500 50.71400 30.65300
H  11.65500 46.28900 31.17100
H  10.02500 45.97900 31.03100
H  9.52000 47.35100 32.97700
H  11.16900 47.64000 33.25400
H  17.07700 47.48600 26.92800
H  16.11000 48.27900 27.94200
H  16.76400 49.25200 26.63500
H  18.26300 47.27400 23.33300
H  17.63400 46.60200 24.82700
H  17.68500 48.41500 24.51300
H  11.60900 44.91900 21.65500
H  9.00200 46.45200 21.16200
H  10.77000 46.80400 19.66800
H  12.51800 46.41300 20.05000
H  11.70600 47.76900 20.87400
H  9.62800 44.00000 20.68800
H  7.95500 44.30500 21.16900
H  8.09100 43.20300 23.21900
H  9.70000 43.62900 23.36100
H  9.33600 42.33800 22.21500
H  4.80900 46.72200 24.97600
H  4.67800 45.15300 25.82300
H  5.68500 45.34200 24.27800
H  7.16800 47.80300 30.16000
H  6.08000 44.24900 32.27400
H  7.03300 45.03100 33.49000
H  7.88300 44.14700 32.34400
Mg -2.33400 33.97700 27.27300
C  -3.96200 32.05900 29.57000
C  -0.78300 35.68800 29.72200
C  -0.63700 35.72300 24.84900
C  -4.14300 32.42300 24.66800
N  -2.49700 33.97900 29.28000
C  -3.11100 33.03600 30.05400
C  -3.11800 33.26900 31.56600
C  -2.18500 34.55300 31.59900
C  -1.81900 34.81700 30.13000
C  -2.91500 35.75300 32.16200
C  -2.30900 31.98800 32.24000
C  -2.72600 31.46200 33.60500
H  -1.76600 31.89000 34.72100
N  -0.94400 35.54800 27.32700
C  -0.43200 36.13000 28.45800
C  0.64800 37.05800 28.09800
C  0.70200 37.08600 26.67100
C  -0.29800 36.09200 26.19100
C  1.55200 37.74000 29.12100
C  1.54800 37.94000 25.81500
O  1.43000 37.84600 24.61000
C  2.59400 38.92000 26.32100
N  -2.48500 34.12500 25.03200
C  -1.61300 34.92700 24.32200
C  -1.74100 34.71400 22.77800
C  -2.90100 33.62700 22.73700
C  -3.30100 33.44500 24.21300
C  -1.97600 36.01600 21.97700
C  -2.48400 32.27600 22.11000
C  -3.04000 31.92200 20.64000
N  -3.79500 32.58600 27.11100
C  -4.35700 31.98300 26.03400
C  -5.13300 30.84800 26.50100
C  -5.03800 30.77500 27.85500
C  -4.16100 31.86500 28.16600
C  -5.90400 29.79300 25.73800
C  -5.38400 30.06700 29.06400
O  -6.02100 29.04800 29.24200
C  -4.75100 30.91700 30.25700
C  -5.87600 31.44200 31.05500
O  -6.63000 32.35200 30.76000
O  -5.92900 30.64800 32.19200
C  -6.93000 30.98700 33.20900
H  -0.47300 36.32500 30.55300
H  0.04800 36.05200 24.06500
H  -4.69800 31.83800 23.93200
H  -4.13300 33.34100 31.95600
H  -1.26000 34.46900 32.16900
H  -3.99200 35.59600 32.22400
H  -2.82400 36.56700 31.44300
H  -2.48700 36.01300 33.13100
H  -1.26200 32.27600 32.33200
H  -2.40500 31.11800 31.59000
H  -2.70500 30.37300 33.64700
H  -3.74000 31.82700 33.76300
H  1.12500 37.53600 30.10300
H  1.42600 38.81400 28.98600
H  2.62300 37.57500 29.00300
H  3.02800 39.42600 25.45900
H  3.39000 38.32500 26.76900
H  2.24700 39.75400 26.93200
H  -0.84800 34.21700 22.40000
H  -3.75200 34.07100 22.22000
H  -1.79100 36.94000 22.52600
H  -3.00000 35.88700 21.62500
H  -1.19800 35.91300 21.22100
H  -2.93700 31.46000 22.67400
H  -1.40800 32.12300 22.19300
H  -3.56000 32.84500 20.38500
H  -3.58800 30.98100 20.68900
H  -2.20600 31.77100 19.95400
H  -5.35800 29.62700 24.80900
H  -6.86100 30.24000 25.46900
H  -6.00400 28.86900 26.30800
H  -4.16300 30.22800 30.86300
H  -6.60800 31.54000 34.09100
H  -7.22800 30.05700 33.69100
H  -7.79700 31.43900 32.72700

