158

Mg -2.78100 35.05800 26.85000
C  -4.66300 33.04100 29.10800
C  -1.96500 37.14500 29.43400
C  -1.03300 36.61300 24.69500
C  -4.49300 33.30200 24.27300
N  -3.14700 34.99500 28.93100
C  -3.90200 34.14300 29.66700
C  -3.70200 34.43100 31.18000
C  -2.90200 35.78400 31.28900
C  -2.71300 36.01800 29.73300
C  -3.55100 36.91300 32.08600
C  -3.07200 33.11400 31.94700
C  -3.70700 32.64400 33.22900
H  -2.89800 33.06200 34.47200
N  -1.72200 36.75900 27.01800
C  -1.41000 37.48200 28.13600
C  -0.47400 38.51200 27.83800
C  -0.18900 38.31500 26.45100
C  -0.97600 37.25100 25.99100
C  -0.10700 39.51400 28.83900
C  0.65100 39.12900 25.48800
O  0.73200 38.92400 24.25800
C  1.31800 40.38100 26.06600
N  -2.74000 34.87500 24.71100
C  -1.85000 35.69700 24.05400
C  -1.96300 35.43400 22.51400
C  -3.07700 34.34300 22.37600
C  -3.43900 34.15800 23.84300
C  -2.30800 36.78100 21.70900
C  -2.53600 33.05800 21.74500
C  -3.49300 32.32100 20.85700
N  -4.22200 33.42300 26.63200
C  -4.87000 32.85900 25.52900
C  -5.88200 31.85900 25.94200
C  -5.78800 31.89400 27.32900
C  -4.86400 32.87800 27.70700
C  -6.72200 31.07900 25.00900
C  -6.29700 31.34500 28.51600
O  -7.15300 30.50200 28.63700
C  -5.64700 32.05400 29.78000
C  -6.76800 32.69500 30.51800
O  -7.31200 33.72000 30.07100
O  -7.08900 32.16800 31.76000
C  -8.02400 33.03900 32.50100
H  -1.58000 37.68600 30.30000
H  -0.32600 36.96000 23.93900
H  -5.09300 32.76700 23.53500
H  -4.67200 34.70600 31.59500
H  -1.93700 35.69600 31.78800
H  -4.57600 36.58900 32.26500
H  -3.60400 37.89200 31.61000
H  -3.04300 37.12800 33.02600
H  -2.05300 33.47300 32.09200
H  -3.05500 32.22700 31.31300
H  -3.81400 31.56100 33.29600
H  -4.72100 33.03600 33.30500
H  0.97400 39.65100 28.86800
H  -0.35800 39.33800 29.88500
H  -0.65000 40.41600 28.55800
H  0.51500 41.09800 26.23800
H  1.94300 40.78200 25.26800
H  1.92400 40.13600 26.93800
H  -1.01800 34.98400 22.21100
H  -3.96500 34.62500 21.80900
H  -1.76800 36.82500 20.76300
H  -2.06100 37.61400 22.36700
H  -3.38900 36.84200 21.58700
H  -2.27200 32.40400 22.57500
H  -1.61700 33.13500 21.16400
H  -3.08100 31.48300 20.29500
H  -3.89200 33.02800 20.13000
H  -4.33500 31.92800 21.42800
H  -6.07800 30.70100 24.21500
H  -7.49600 31.69300 24.54800
H  -7.24600 30.33100 25.60300
H  -5.25100 31.18800 30.31100
H  -7.91700 32.94100 33.58200
H  -8.99600 32.60000 32.27700
H  -7.93500 34.11300 32.33400
Mg -6.19500 25.68500 26.23400
C  -4.77700 27.26300 29.11400
C  -8.02900 23.74400 28.47200
C  -7.20600 23.95100 23.62300
C  -4.20000 27.75900 24.24200
N  -6.40600 25.58400 28.51000
C  -5.73600 26.28700 29.45600
C  -6.29100 25.98700 30.86600
C  -7.07000 24.68100 30.64900
C  -7.15300 24.64600 29.11400
C  -6.56900 23.46200 31.43900
C  -7.10600 27.13900 31.44800
C  -6.98000 27.34200 32.95000
H  -6.37300 26.24600 33.88500
N  -7.49500 24.07000 26.11000
C  -8.15000 23.38700 27.08900
C  -8.95200 22.39500 26.50200
C  -8.64900 22.35800 25.12200
C  -7.66800 23.46500 24.86700
C  -9.90500 21.49200 27.32100
C  -9.15400 21.40200 24.10300
O  -8.80600 21.32300 22.93900
C  -10.14400 20.26000 24.47300
N  -5.58000 25.71100 24.22800
C  -6.26400 24.96400 23.31800
C  -5.67100 25.25200 21.96000
C  -4.99300 26.69300 22.12900
C  -4.97100 26.78300 23.64100
C  -4.69900 24.11600 21.52300
C  -5.77700 27.78400 21.51600
C  -5.62600 27.98500 19.98100
N  -4.87600 27.26400 26.49000
C  -4.10100 27.98600 25.66500
C  -3.43500 29.04900 26.37900
C  -3.67300 28.82900 27.73200
C  -4.44500 27.67200 27.77700
C  -2.53300 30.10600 25.73500
C  -3.33700 29.16000 29.12000
O  -2.52200 30.05900 29.39500
C  -4.08700 28.15800 30.10400
C  -2.89000 27.45700 30.76000
O  -2.03800 26.82200 30.17600
O  -3.02100 27.78600 32.11900
C  -2.12500 27.07200 33.00700
H  -8.51600 23.02100 29.12900
H  -7.55600 23.38500 22.75700
H  -3.61400 28.39600 23.57600
H  -5.41700 25.88500 31.51000
H  -8.11500 24.77800 30.94300
H  -6.08600 22.70800 30.81800
H  -7.42400 22.92700 31.85100
H  -5.94500 23.75600 32.28300
H  -8.17400 26.97500 31.31000
H  -6.87300 28.04700 30.89100
H  -7.99200 27.47600 33.33200
H  -6.51700 28.28900 33.22700
H  -10.85400 21.39000 26.79500
H  -10.05700 21.85900 28.33600
H  -9.40900 20.52200 27.35900
H  -9.88500 19.58800 25.29000
H  -10.60200 19.82000 23.58800
H  -10.85000 20.97900 24.89000
H  -6.45400 25.36800 21.21000
H  -3.95400 26.64800 21.80200
H  -4.97600 23.90200 20.49000
H  -4.78800 23.30200 22.24300
H  -3.65600 24.43100 21.50900
H  -5.35200 28.70800 21.90800
H  -6.83600 27.68900 21.75300
H  -6.54800 28.50000 19.71200
H  -5.62100 27.11800 19.32100
H  -4.85500 28.68800 19.66500
H  -2.39800 29.88900 24.67600
H  -1.61900 30.04800 26.32600
H  -3.04900 31.04900 25.91600
H  -4.75400 28.61900 30.83200
H  -1.09500 27.08300 32.64800
H  -2.40300 26.04500 33.24600
H  -2.13800 27.62200 33.94700

