158

Mg 35.76300 3.01300 30.76200
C  33.41400 4.30800 33.03000
C  38.11400 2.94000 33.31400
C  38.03800 2.20200 28.45300
C  33.43300 3.60300 28.21800
N  35.82600 3.76600 32.91000
C  34.65500 3.97700 33.64000
C  34.92600 3.88500 35.19800
C  36.48900 3.61400 35.22400
C  36.87500 3.46300 33.72400
C  37.23600 4.79600 35.85500
C  34.08800 2.69000 35.73000
C  33.35300 3.01200 37.10200
H  33.99200 4.14800 37.93900
N  37.70300 2.45200 30.89000
C  38.50300 2.51200 32.02400
C  39.80900 1.99600 31.73300
C  39.78700 1.65200 30.30300
C  38.48300 2.14800 29.80800
C  40.88300 1.67800 32.82400
C  40.79200 0.96400 29.43600
O  40.53500 0.67900 28.24500
C  42.16500 0.55200 30.05100
N  35.69500 2.82800 28.59700
C  36.73700 2.41500 27.88400
C  36.41900 2.45200 26.45900
C  34.85200 2.40400 26.34500
C  34.65200 3.05000 27.78600
C  37.04300 3.71100 25.83800
C  34.21500 0.98000 26.16100
C  33.47300 0.80700 24.87800
N  33.86500 3.91900 30.62200
C  33.04100 3.99200 29.51100
C  31.78500 4.56700 29.86500
C  31.82900 4.70400 31.26300
C  33.13500 4.30900 31.67800
C  30.63300 4.83000 28.85400
C  31.14900 5.13000 32.44400
O  30.06600 5.61900 32.42400
C  32.13400 4.81600 33.65900
C  32.23700 6.02200 34.55300
O  33.04500 6.97400 34.39400
O  31.36800 5.88900 35.54800
C  31.38300 6.80300 36.66800
H  38.70100 2.88400 34.23300
H  38.75600 1.99900 27.65500
H  32.63700 3.56700 27.47100
H  34.58400 4.80900 35.66700
H  36.77900 2.71400 35.76400
H  38.01500 5.10900 35.16000
H  37.84500 4.48100 36.70200
H  36.69200 5.69800 36.13300
H  34.75800 1.83300 35.80300
H  33.30900 2.32000 35.06200
H  33.49300 2.07000 37.63100
H  32.28000 3.12100 36.94500
H  41.90700 2.02800 32.69800
H  40.99400 0.60100 32.95200
H  40.59300 2.14100 33.76700
H  42.50800 -0.21800 29.35900
H  41.87600 0.11800 31.00800
H  42.90700 1.34100 30.17400
H  36.81600 1.48500 26.15000
H  34.55800 3.08800 25.54900
H  37.38600 4.44500 26.56700
H  36.38700 4.28000 25.17900
H  37.92800 3.35600 25.31000
H  33.72700 0.75600 27.11000
H  35.01700 0.24400 26.10900
H  33.61900 1.62400 24.17100
H  32.39900 0.73000 25.04600
H  33.85300 -0.12600 24.46300
H  30.01500 5.66300 29.18900
H  30.03300 3.94300 29.05800
H  30.83300 4.95700 27.79000
H  31.69300 4.02000 34.26000
H  30.75000 7.67900 36.52300
H  32.37000 7.12800 36.99700
H  31.01700 6.10200 37.41900
Mg -12.53100 15.97100 41.62600
C  -9.38400 14.43400 41.29300
C  -11.15900 18.64900 40.03500
C  -15.57900 17.07800 41.45300
C  -13.79900 12.64100 42.51600
N  -10.51300 16.44300 40.72500
C  -9.38300 15.70600 40.71800
C  -8.24000 16.31700 40.00100
C  -8.69200 17.82500 39.88000
C  -10.20600 17.67400 40.26900
C  -7.97400 18.80300 40.90600
C  -7.91700 15.59100 38.64800
C  -6.42900 15.25700 38.50400
H  -5.83200 15.97900 37.29200
N  -13.22400 17.64600 40.99100
C  -12.55200 18.66500 40.34300
C  -13.42000 19.73100 40.10200
C  -14.70600 19.37700 40.52300
C  -14.53800 17.96400 41.00300
C  -13.10900 20.94400 39.43500
C  -15.94600 20.28600 40.48800
O  -15.88700 21.42500 40.02400
C  -17.26600 19.78100 41.00000
N  -14.42600 14.96600 41.97400
C  -15.51300 15.72900 41.93500
C  -16.78000 14.93600 42.29800
C  -16.21600 13.45000 42.52700
C  -14.72500 13.65900 42.33600
C  -17.44200 15.54700 43.48900
C  -16.76700 12.40100 41.55300
C  -17.14900 11.05900 42.20300
N  -11.79300 14.02100 41.94300
C  -12.39200 12.77800 42.27500
C  -11.33400 11.72800 42.38300
C  -10.14600 12.36200 42.09200
C  -10.53500 13.69300 41.70900
C  -11.51800 10.24400 42.85100
C  -8.71300 12.18300 42.01800
O  -7.96100 11.30400 42.30300
C  -8.10100 13.47100 41.48700
C  -7.10600 13.89200 42.53700
O  -7.33600 13.97900 43.71800
O  -5.86100 14.11300 41.95400
C  -4.87400 14.66100 42.90700
H  -10.82500 19.63400 39.70400
H  -16.57400 17.51100 41.33300
H  -14.05900 11.65500 42.90700
H  -7.32300 16.31900 40.59100
H  -8.53300 18.11500 38.84100
H  -7.20000 18.23900 41.42600
H  -8.65400 19.16900 41.67600
H  -7.53900 19.55700 40.25100
H  -8.17000 16.26100 37.82600
H  -8.61500 14.76300 38.52900
H  -6.26100 14.19000 38.36100
H  -5.86200 15.41900 39.42100
H  -13.29600 21.82900 40.04300
H  -13.85900 21.07400 38.65400
H  -12.17000 20.94900 38.88100
H  -17.69900 19.13100 40.24000
H  -17.84700 20.70300 41.02800
H  -17.19600 19.33900 41.99400
H  -17.49900 14.96800 41.48000
H  -16.42500 13.09200 43.53500
H  -17.30200 16.62600 43.42700
H  -17.05100 15.22000 44.45200
H  -18.52300 15.45100 43.38300
H  -16.06400 12.26800 40.73100
H  -17.73700 12.71200 41.16600
H  -18.19600 10.75700 42.22000
H  -16.90400 11.07100 43.26500
H  -16.44000 10.26500 41.97100
H  -12.12500 10.28400 43.75600
H  -10.59000 9.69300 43.00400
H  -12.16900 9.75900 42.12400
H  -7.67600 13.24100 40.51000
H  -4.03200 13.97200 42.98500
H  -5.20700 14.95100 43.90400
H  -4.55200 15.62100 42.50400

