158

Mg 1.70900 -1.40900 44.45400
C  5.07200 -0.53300 43.83500
C  0.89700 1.76000 42.95500
C  -1.51400 -2.36200 43.96400
C  2.74300 -4.47000 45.38700
N  2.87100 0.42200 43.41900
C  4.25000 0.46400 43.36900
C  4.75300 1.82400 42.79200
C  3.39400 2.65800 42.73900
C  2.31300 1.59000 42.98600
C  3.16900 3.72800 43.76600
C  5.47100 1.63600 41.45900
C  6.67700 2.58800 41.09900
H  6.92900 2.86000 39.63800
N  -0.10400 -0.40500 43.62800
C  -0.17200 0.83300 43.11200
C  -1.57200 1.14900 42.80500
C  -2.36900 -0.00000 43.12600
C  -1.35200 -1.01800 43.59900
C  -2.10500 2.47200 42.27800
C  -3.90300 -0.15700 43.04100
O  -4.59800 0.73200 42.59400
C  -4.57700 -1.40200 43.43200
N  0.77500 -3.11600 44.56500
C  -0.57000 -3.31400 44.46200
C  -0.94700 -4.81500 44.79300
C  0.43200 -5.42400 45.22000
C  1.41600 -4.29700 45.02300
C  -2.17500 -5.09000 45.65700
C  0.81300 -6.85500 44.54400
C  1.61900 -7.87600 45.46200
N  3.55200 -2.36800 44.56700
C  3.80000 -3.61600 45.05200
C  5.25400 -3.78300 45.12800
C  5.83800 -2.59200 44.69700
C  4.72800 -1.78500 44.30300
C  5.94600 -4.95600 45.58300
C  7.06700 -1.87000 44.50200
O  8.24100 -2.17700 44.72200
C  6.60300 -0.52900 43.90800
C  7.09600 0.63200 44.71300
O  6.55500 0.96900 45.74900
O  8.22500 1.23100 44.16900
C  8.48400 2.52100 44.70100
H  0.53700 2.72400 42.59100
H  -2.44100 -2.91800 43.81200
H  3.07600 -5.39700 45.85700
H  5.53300 2.32600 43.36300
H  3.15100 3.13900 41.79200
H  2.33400 3.49300 44.42700
H  2.91500 4.64400 43.23200
H  4.09900 3.99900 44.26500
H  4.81900 1.84500 40.61100
H  5.76900 0.59300 41.35900
H  7.59500 2.17300 41.51600
H  6.52100 3.53800 41.61000
H  -3.11500 2.53700 41.87500
H  -1.47100 2.66700 41.41200
H  -1.76000 3.32000 42.87000
H  -5.64700 -1.33400 43.23100
H  -4.45200 -1.52500 44.50800
H  -4.11500 -2.28700 42.99500
H  -1.24800 -5.18600 43.81300
H  0.44800 -5.54000 46.30400
H  -2.62100 -4.12700 45.90600
H  -2.00400 -5.48200 46.66000
H  -2.86000 -5.78500 45.17100
H  1.52600 -6.53500 43.78400
H  0.00400 -7.34900 44.00600
H  0.77300 -8.26100 46.03200
H  2.48800 -7.39600 45.91100
H  2.02800 -8.70900 44.89100
H  7.00500 -4.71200 45.49600
H  5.74400 -5.85300 44.99700
H  5.51200 -5.14600 46.56400
H  7.05700 -0.51300 42.91700
H  7.66400 3.09500 45.13300
H  8.82500 3.27900 43.99600
H  9.35600 2.43500 45.35000
Mg 47.83500 34.57900 27.44200
C  46.38100 33.09100 30.24800
C  47.94700 37.56100 29.11400
C  49.13100 36.10500 24.60300
C  47.59800 31.62700 25.66000
N  47.15000 35.16400 29.44600
C  46.73700 34.40900 30.48100
C  46.86100 35.16300 31.75200
C  46.93000 36.68100 31.30500
C  47.35000 36.48200 29.81300
C  45.58300 37.44000 31.69400
C  48.13300 34.63100 32.48700
C  48.69400 35.49600 33.60000
H  47.62800 36.00100 34.53200
N  48.46100 36.51600 26.97800
C  48.53000 37.58200 27.80500
C  49.12600 38.73600 27.28300
C  49.74500 38.32600 26.05200
C  49.09300 36.93900 25.77900
C  49.16700 40.11600 27.95400
C  50.55400 39.13400 25.05900
O  50.77900 38.75600 23.89800
C  50.96800 40.57800 25.40000
N  48.25400 33.97100 25.36400
C  48.85900 34.73700 24.43400
C  49.14700 33.96700 23.13700
C  48.73400 32.49800 23.52800
C  48.13100 32.68100 24.93500
C  48.54400 34.71800 21.86400
C  49.81800 31.35300 23.32100
C  51.19200 31.53900 24.05200
N  47.06300 32.76200 27.76500
C  47.12800 31.59300 27.00900
C  46.63100 30.46800 27.78800
C  46.29500 31.02100 28.98400
C  46.59100 32.40400 29.01400
C  46.44900 29.06000 27.28900
C  45.81800 30.68500 30.29900
O  45.54000 29.58100 30.74200
C  45.59700 32.05200 31.11400
C  45.82400 31.79900 32.54600
O  46.87600 31.60400 33.10100
O  44.62200 31.66400 33.12700
C  44.65500 31.46500 34.55700
H  48.02000 38.43100 29.77100
H  49.62200 36.62600 23.77800
H  47.56100 30.62200 25.23400
H  45.95400 34.87100 32.28000
H  47.72500 37.24200 31.79400
H  44.87500 37.55300 30.87300
H  45.77500 38.43900 32.08700
H  45.13800 36.97700 32.57500
H  48.98900 34.41000 31.85000
H  47.73300 33.77400 33.03000
H  49.23700 36.34300 33.18100
H  49.17500 34.81300 34.30100
H  49.25700 40.95000 27.25800
H  50.04600 40.06100 28.59700
H  48.37300 40.30200 28.67700
H  51.39300 40.56200 26.40400
H  50.19100 41.34200 25.39900
H  51.72200 40.85400 24.66300
H  50.23200 34.06400 23.10900
H  47.88800 32.25300 22.88600
H  49.39300 35.26700 21.45700
H  47.62000 35.21100 22.16400
H  48.21200 33.99100 21.12400
H  50.08200 31.27800 22.26600
H  49.32400 30.41600 23.57900
H  51.21500 30.55100 24.51200
H  51.16200 32.31700 24.81400
H  52.03400 31.59600 23.36200
H  47.13300 28.89700 26.45700
H  45.47400 28.84200 26.85300
H  46.54500 28.36700 28.12500
H  44.53500 32.29600 31.07900
H  44.99200 32.31800 35.14500
H  45.17100 30.56300 34.88600
H  43.62100 31.34400 34.88100

