158

Mg 26.47300 -0.20500 28.81500
C  28.13800 -0.38400 31.87700
C  23.53800 0.53700 30.64200
C  24.67900 -0.26200 25.99000
C  29.32600 -0.83300 27.15700
N  25.91300 -0.01600 31.05200
C  26.81400 -0.05000 32.09600
C  26.14200 0.35900 33.35900
C  24.65400 0.67300 33.01300
C  24.67500 0.34400 31.47700
C  23.61300 -0.15300 33.84700
C  26.80400 1.58000 34.10900
C  26.98300 1.42000 35.63400
H  25.96900 0.61900 36.50300
N  24.39600 0.15200 28.36400
C  23.35800 0.36100 29.25000
C  22.16200 0.51600 28.49300
C  22.43500 0.15300 27.16900
C  23.87600 -0.04100 27.11400
C  20.86200 0.85900 29.13200
C  21.56000 -0.04700 25.98700
O  21.98000 -0.50100 24.95600
C  20.04300 0.28900 26.12400
N  26.96400 -0.48600 26.89000
C  26.08200 -0.41800 25.82900
C  26.75100 -0.59500 24.50100
C  28.28800 -0.53600 24.80300
C  28.21200 -0.65100 26.38200
C  26.37100 -1.83100 23.65900
C  28.86100 0.79600 24.29400
C  30.14800 0.72800 23.48600
N  28.29900 -0.79400 29.39500
C  29.40500 -0.96700 28.56100
C  30.60400 -1.11000 29.39700
C  30.12300 -0.98400 30.74600
C  28.74300 -0.71100 30.67400
C  32.02700 -1.32300 28.91900
C  30.47300 -1.03400 32.16500
O  31.51700 -1.18500 32.75300
C  29.20300 -0.60100 32.99800
C  28.79600 -1.61400 33.97400
O  28.17000 -2.62000 33.74000
O  29.42500 -1.34300 35.22500
C  29.41500 -2.42400 36.26400
H  22.66100 0.88700 31.19100
H  24.24500 -0.50600 25.01800
H  30.29800 -0.75300 26.66600
H  26.23300 -0.44900 34.08500
H  24.51500 1.75300 33.05900
H  23.91100 -0.76100 34.70100
H  23.04600 -0.79800 33.17500
H  22.98000 0.66000 34.20100
H  26.24200 2.51100 34.03700
H  27.79300 1.71600 33.67300
H  27.10100 2.42500 36.03700
H  27.92700 0.90700 35.81500
H  20.93500 1.21100 30.16100
H  20.24100 -0.03600 29.14000
H  20.25500 1.58300 28.58800
H  19.66800 0.19700 25.10500
H  19.96200 1.32000 26.47100
H  19.74500 -0.38400 26.92800
H  26.43200 0.21800 23.85000
H  28.83800 -1.37900 24.38500
H  27.21400 -2.41900 23.29600
H  25.81400 -1.60900 22.74900
H  25.70200 -2.46600 24.24000
H  29.10900 1.35700 25.19500
H  28.11500 1.24300 23.63600
H  31.08800 1.21600 23.74400
H  29.95000 1.13500 22.49400
H  30.40700 -0.30200 23.24500
H  32.71300 -0.93800 29.67400
H  32.15300 -0.94800 27.90300
H  32.22700 -2.39300 28.87500
H  29.56000 0.24400 33.58700
H  29.43600 -3.42900 35.84300
H  28.53800 -2.36900 36.90900
H  30.30000 -2.30500 36.88900
Mg -12.30800 38.75400 42.16000
C  -10.01900 36.40700 40.85200
C  -10.60500 41.13700 40.68500
C  -14.93500 40.81300 42.67200
C  -14.33100 36.03300 43.25300
N  -10.50700 38.70400 40.90100
C  -9.74700 37.71400 40.47000
C  -8.63100 38.17300 39.60000
C  -8.59200 39.69700 40.01400
C  -10.03900 39.87900 40.51700
C  -7.42700 40.08600 40.97400
C  -9.03300 37.74700 38.12400
C  -7.94600 37.08500 37.30700
H  -7.30400 37.77200 36.18200
N  -12.65500 40.73200 41.79500
C  -11.81400 41.54200 41.22000
C  -12.26000 42.91900 41.40500
C  -13.54300 42.84700 41.95700
C  -13.77800 41.42900 42.18600
C  -11.40300 44.13700 41.03000
C  -14.40900 44.05600 42.22900
O  -14.12300 45.18300 41.79600
C  -15.68900 44.01100 42.90500
N  -14.40400 38.45300 42.73600
C  -15.20400 39.47300 43.03600
C  -16.60700 39.03600 43.59600
C  -16.28300 37.53800 43.74000
C  -14.91300 37.30200 43.25000
C  -17.02800 39.80000 44.88000
C  -17.49900 36.71700 43.14400
C  -17.34100 36.29600 41.73300
N  -12.26900 36.64900 42.01100
C  -13.08200 35.70100 42.62300
C  -12.53500 34.38900 42.36400
C  -11.38000 34.63800 41.62500
C  -11.22300 36.03200 41.52300
C  -12.85500 33.05000 42.88600
C  -10.24100 33.98700 40.94100
O  -10.01500 32.79300 40.87200
C  -9.27000 35.13300 40.44800
C  -7.93100 34.88900 41.14500
O  -7.78200 34.98600 42.34200
O  -6.91500 34.60500 40.25700
C  -5.64800 34.07400 40.83400
H  -9.90900 41.91100 40.35600
H  -15.72500 41.53100 42.90100
H  -14.86000 35.15100 43.62100
H  -7.73000 37.69000 39.97900
H  -8.51600 40.24700 39.07700
H  -6.51300 39.49200 40.97700
H  -7.90400 40.19100 41.94900
H  -7.03800 41.02500 40.58000
H  -9.31800 38.61700 37.53300
H  -9.85600 37.04100 38.23300
H  -8.45500 36.19900 36.92800
H  -7.23700 36.76700 38.07200
H  -11.92000 44.46200 40.12700
H  -10.34100 43.96800 40.85300
H  -11.36000 44.98800 41.71000
H  -16.52800 43.76200 42.25500
H  -15.94200 44.92800 43.43700
H  -15.60000 43.37900 43.78900
H  -17.38000 39.18600 42.84200
H  -16.29700 37.25100 44.79200
H  -17.65600 40.65000 44.61600
H  -16.24500 40.23800 45.49900
H  -17.66600 39.13600 45.46200
H  -18.34200 37.40300 43.22300
H  -17.52400 35.81500 43.75600
H  -17.63700 35.24700 41.73400
H  -16.28400 36.32700 41.46800
H  -17.94900 36.85300 41.02000
H  -13.91400 32.95800 43.12900
H  -12.30700 32.81800 43.79900
H  -12.58200 32.31300 42.13200
H  -9.12000 34.99200 39.37700
H  -5.80900 33.49100 41.74000
H  -4.86200 34.79900 41.04500
H  -5.20500 33.30300 40.20300

