158

Mg 40.49200 9.01300 28.83900
C  42.61300 10.37500 31.26000
C  38.90300 7.18600 31.28500
C  38.71600 7.43000 26.38600
C  42.91300 9.91000 26.42900
N  40.79400 8.65000 31.09800
C  41.54300 9.57000 31.80400
C  41.04500 9.55000 33.29200
C  40.02500 8.31800 33.32800
C  39.89700 7.96800 31.84300
C  40.33500 7.06400 34.21200
C  40.49600 10.92400 33.68400
C  40.02300 11.10100 35.12800
H  40.81500 11.91500 36.18900
N  39.02300 7.61700 28.75400
C  38.51200 6.93500 29.88300
C  37.34800 6.13600 29.46700
C  37.19000 6.34300 28.06900
C  38.35900 7.14600 27.68100
C  36.40000 5.39700 30.36100
C  36.04500 5.95400 27.14700
O  36.07700 6.29500 25.94900
C  34.86400 5.02500 27.53100
N  40.83500 8.68200 26.67700
C  39.92200 7.97100 25.92200
C  40.27100 8.11000 24.40900
C  41.65600 8.93000 24.46000
C  41.83600 9.19600 25.96200
C  40.37100 6.73100 23.60900
C  41.74400 10.16700 23.53200
C  41.04200 11.53100 23.91800
N  42.32700 10.00600 28.77100
C  43.14600 10.36100 27.73500
C  44.20900 11.08200 28.16100
C  44.04000 11.23500 29.54000
C  42.88900 10.47400 29.88500
C  45.37600 11.47400 27.32200
C  44.54700 11.76400 30.79500
O  45.46900 12.51200 31.07600
C  43.61400 11.34000 31.91200
C  44.31200 10.78300 33.12400
O  44.46500 9.61100 33.32500
O  44.59900 11.74100 34.03300
C  45.08100 11.29100 35.32800
H  38.33700 6.65200 32.05100
H  38.10800 7.07200 25.55200
H  43.72200 10.16700 25.74200
H  41.93300 9.28000 33.86400
H  39.04600 8.75900 33.51900
H  41.28900 7.11800 34.73700
H  40.17600 6.19300 33.57600
H  39.53600 7.00400 34.95100
H  39.62600 11.00800 33.03200
H  41.20300 11.71700 33.43900
H  40.07600 10.10000 35.55600
H  39.01900 11.52300 35.17000
H  36.81000 5.44600 31.36900
H  36.14000 4.36700 30.11800
H  35.55800 6.08800 30.31800
H  35.31400 4.12800 27.95500
H  34.32300 4.59700 26.68800
H  34.24000 5.45100 28.31700
H  39.49700 8.69700 23.91500
H  42.44500 8.28500 24.07400
H  39.84400 6.83000 22.66000
H  39.88600 5.89700 24.11700
H  41.42300 6.58900 23.36000
H  41.38600 9.84000 22.55600
H  42.79000 10.41600 23.35200
H  40.41100 11.48000 24.80500
H  40.36100 11.84800 23.12800
H  41.82800 12.26800 24.08000
H  45.13400 12.02700 26.41500
H  45.97000 10.61100 27.02100
H  46.01000 12.08500 27.96500
H  43.04100 12.19900 32.26200
H  44.19400 10.95600 35.86600
H  45.62900 12.02000 35.92500
H  45.80000 10.48400 35.19200
Mg -1.86600 35.09500 26.58100
C  -3.62400 33.40000 29.18200
C  -0.76200 37.27700 28.99000
C  -0.84700 37.17900 24.11500
C  -3.90400 33.38000 24.22900
N  -2.21400 35.36100 28.87700
C  -2.86200 34.50000 29.70300
C  -2.42600 34.72800 31.19400
C  -1.49300 35.92400 31.10900
C  -1.45000 36.21900 29.60500
C  -1.77300 37.21000 31.97500
C  -1.87100 33.34200 31.68600
C  -2.52600 32.73100 32.92500
H  -1.70100 32.58400 34.16200
N  -0.81400 36.90100 26.59000
C  -0.42100 37.60800 27.66400
C  0.39400 38.67500 27.19800
C  0.46900 38.58800 25.79600
C  -0.50000 37.56600 25.43900
C  0.97400 39.83200 28.13000
C  1.31600 39.42700 24.83400
O  1.20000 39.38200 23.60400
C  2.44100 40.30700 25.34600
N  -2.55000 35.43300 24.46700
C  -1.77600 36.24300 23.64700
C  -2.06500 35.97700 22.19300
C  -2.93400 34.65000 22.18300
C  -3.25800 34.49700 23.70100
C  -2.72600 37.14300 21.42400
C  -2.20900 33.35400 21.65000
C  -1.04000 32.84600 22.43500
N  -3.31400 33.64100 26.62700
C  -3.97400 32.99100 25.60700
C  -4.74600 31.90200 26.11700
C  -4.70200 32.06900 27.51800
C  -3.80900 33.15200 27.79900
C  -5.57100 30.92400 25.41400
C  -5.11100 31.49800 28.74300
O  -5.83600 30.57900 28.97300
C  -4.48600 32.32000 29.87100
C  -5.66700 32.73600 30.68500
O  -6.47700 33.60700 30.39000
O  -5.68600 31.98600 31.82900
C  -6.66100 32.53000 32.82300
H  -0.16700 37.78300 29.75300
H  -0.46000 37.72800 23.25400
H  -4.19700 32.72200 23.40800
H  -3.27200 35.00900 31.82100
H  -0.48900 35.56800 31.34200
H  -0.82000 37.39500 32.47200
H  -2.44800 37.01600 32.80800
H  -2.16600 38.01400 31.35300
H  -0.79500 33.39300 31.85200
H  -1.83900 32.62600 30.86500
H  -2.86600 31.72300 32.68600
H  -3.39400 33.33500 33.19000
H  1.90900 39.48300 28.57000
H  0.19500 39.96000 28.88200
H  1.17900 40.82800 27.73900
H  2.96000 39.93100 26.22800
H  1.89200 41.21300 25.60300
H  3.06800 40.44400 24.46500
H  -1.16500 35.71500 21.63800
H  -3.90200 34.79400 21.70300
H  -3.77600 36.90400 21.25700
H  -2.27600 37.45200 20.48000
H  -2.76200 38.00400 22.09200
H  -1.91100 33.52100 20.61500
H  -3.01700 32.62500 21.71100
H  -1.34800 31.98500 23.02900
H  -0.62000 33.64300 23.04900
H  -0.22800 32.53200 21.78000
H  -5.07400 30.92500 24.44400
H  -6.63800 31.14600 25.44600
H  -5.38300 29.94300 25.85000
H  -3.91700 31.65600 30.52200
H  -7.63700 32.08200 32.64000
H  -6.73700 33.60500 32.66100
H  -6.34400 32.38300 33.85600

