158

Mg 40.32900 9.77800 29.47600
C  42.52500 10.90200 31.93600
C  38.06600 8.81600 31.62400
C  38.57600 8.37400 26.81500
C  43.04000 10.28600 27.01500
N  40.36900 9.76800 31.53400
C  41.30100 10.38500 32.32500
C  40.71300 10.43400 33.71000
C  39.39500 9.57900 33.57600
C  39.27700 9.29200 32.15800
C  39.48000 8.18100 34.30600
C  40.44100 11.91300 34.10400
C  39.85100 12.12700 35.55900
H  40.73000 12.83900 36.50400
N  38.58100 8.84800 29.26500
C  37.77200 8.60000 30.29700
C  36.55200 7.98700 29.84400
C  36.59400 7.95900 28.42400
C  37.93600 8.49000 28.09000
C  35.35300 7.50300 30.70600
C  35.52300 7.52400 27.38300
O  35.83900 7.44900 26.26500
C  34.14600 7.21400 27.86900
N  40.74000 9.40500 27.24200
C  39.87400 8.74900 26.41400
C  40.40600 8.55000 25.04000
C  41.75200 9.39900 25.12400
C  41.86900 9.76200 26.55000
C  40.58200 7.06200 24.63800
C  41.88400 10.69400 24.21400
C  40.88300 11.85300 24.54600
N  42.39700 10.37000 29.42200
C  43.34800 10.58300 28.40200
C  44.55000 11.16000 28.97500
C  44.19900 11.35500 30.35600
C  42.90800 10.73800 30.56400
C  45.87200 11.30300 28.30400
C  44.71600 11.84400 31.61500
O  45.75500 12.37900 31.83700
C  43.65600 11.58600 32.71800
C  44.14900 10.88300 33.92400
O  44.78300 9.89900 33.93800
O  43.74800 11.56200 35.04600
C  44.15000 11.04400 36.35400
H  37.21700 8.64200 32.28800
H  37.97800 8.12900 25.93500
H  43.83400 10.17900 26.27300
H  41.37900 10.11400 34.51100
H  38.46600 10.06900 33.86500
H  39.00900 8.13900 35.28900
H  40.54000 7.93900 34.38400
H  39.22700 7.31400 33.69700
H  39.86400 12.38300 33.30700
H  41.41900 12.38100 33.99100
H  39.78400 11.10900 35.94300
H  38.84400 12.54400 35.54600
H  35.44100 6.41900 30.62300
H  34.37100 7.83700 30.37000
H  35.60000 7.79200 31.72800
H  33.95500 6.43100 28.60300
H  33.49300 7.08500 27.00600
H  33.87900 8.14200 28.37400
H  39.74600 9.04100 24.32400
H  42.62000 8.81700 24.81400
H  41.52900 6.64900 24.98500
H  40.55100 6.99500 23.55100
H  39.70500 6.50500 24.96700
H  41.78300 10.38500 23.17400
H  42.91000 11.04600 24.32300
H  40.18200 11.38800 25.24000
H  40.49200 12.37600 23.67400
H  41.26100 12.62600 25.21500
H  45.97200 12.33800 27.97600
H  45.97700 10.59100 27.48500
H  46.71300 11.03100 28.94100
H  43.23900 12.53100 33.06300
H  43.84100 11.74300 37.13200
H  45.21600 10.83300 36.42800
H  43.54000 10.16600 36.56700
Mg -5.56100 25.62100 26.14600
C  -4.29200 26.96300 29.21100
C  -7.71800 23.76500 28.04200
C  -6.43800 24.07900 23.37200
C  -2.97200 27.38700 24.43000
N  -5.73500 25.24600 28.40400
C  -5.24200 25.97200 29.42200
C  -5.91100 25.57100 30.74600
C  -6.65000 24.27800 30.36000
C  -6.79400 24.46900 28.83800
C  -6.04000 22.89300 30.78700
C  -6.93400 26.70800 31.23400
C  -7.12700 26.91600 32.74300
H  -6.51600 25.76100 33.57600
N  -6.99900 24.25500 25.70900
C  -7.82700 23.67200 26.61700
C  -8.80500 22.80400 25.88400
C  -8.39900 22.90600 24.54000
C  -7.22100 23.77600 24.49700
C  -9.82400 21.87300 26.64700
C  -9.00000 22.12500 23.34600
O  -8.45200 22.10600 22.24300
C  -10.23000 21.26900 23.59600
N  -4.66500 25.48800 24.27100
C  -5.27400 24.78100 23.26500
C  -4.69400 25.16800 21.86500
C  -3.82300 26.37400 22.18100
C  -3.82800 26.46100 23.72400
C  -4.07900 23.99900 21.04200
C  -4.34200 27.74100 21.57500
C  -3.79100 28.14300 20.24200
N  -4.02100 26.86100 26.62800
C  -3.01800 27.50500 25.87700
C  -2.25300 28.36200 26.70100
C  -2.71900 28.21300 27.97200
C  -3.79800 27.26000 27.90400
C  -1.13500 29.15400 26.23900
C  -2.53100 28.64700 29.36100
O  -1.82400 29.55800 29.79100
C  -3.50500 27.75300 30.26600
C  -2.62800 27.02500 31.15100
O  -1.73300 26.27800 30.82100
O  -2.88700 27.32800 32.45600
C  -1.97900 26.77400 33.50900
H  -8.34000 23.07400 28.61400
H  -6.76100 23.73600 22.38700
H  -2.19000 27.94100 23.90500
H  -5.08200 25.22800 31.36600
H  -7.68700 24.28100 30.69600
H  -6.14000 22.06100 30.09000
H  -6.27300 22.55700 31.79800
H  -4.97600 23.10500 30.89400
H  -7.87800 26.61300 30.69700
H  -6.44500 27.57800 30.79600
H  -8.18800 27.00500 32.97700
H  -6.69100 27.88300 32.99200
H  -10.73100 21.80500 26.04600
H  -10.10100 22.24200 27.63500
H  -9.35500 20.89800 26.78200
H  -10.49100 20.73200 22.68400
H  -11.18900 21.68800 23.89800
H  -10.07500 20.42800 24.27200
H  -5.61100 25.44900 21.34600
H  -2.82100 26.08800 21.86300
H  -3.77500 23.23100 21.75300
H  -3.26000 24.40500 20.44900
H  -4.88900 23.65800 20.39700
H  -4.16400 28.57700 22.25100
H  -5.42300 27.71100 21.44400
H  -4.58000 28.49100 19.57600
H  -3.18500 27.34300 19.81700
H  -3.20500 29.05200 20.37300
H  -0.57200 28.57800 25.50400
H  -0.59200 29.35100 27.16300
H  -1.48700 30.11600 25.86600
H  -3.94000 28.49000 30.94000
H  -2.58700 26.84200 34.41100
H  -1.06100 27.36200 33.53200
H  -1.79700 25.70200 33.42700

