158

Mg 24.87600 1.49700 29.44100
C  26.72800 1.70400 32.31000
C  22.00100 1.63200 31.13700
C  23.22000 1.46600 26.43800
C  27.84200 1.18100 27.62700
N  24.46500 1.59300 31.52600
C  25.33700 1.79700 32.58800
C  24.59500 1.99200 33.87300
C  23.05300 1.97800 33.46000
C  23.13500 1.64600 31.90700
C  22.18600 0.91800 34.21900
C  25.10700 3.10700 34.85300
C  25.08400 2.83600 36.38300
H  25.25200 4.09200 37.29400
N  22.81900 1.57600 28.91000
C  21.78400 1.54200 29.74400
C  20.55300 1.40900 29.09100
C  20.86500 1.43000 27.66000
C  22.32700 1.43900 27.59300
C  19.23500 1.26200 29.81300
C  19.92900 1.31800 26.46500
O  20.38800 1.33700 25.33500
C  18.48500 1.16500 26.60300
N  25.52800 1.37100 27.31000
C  24.62400 1.43800 26.27400
C  25.34000 1.29200 24.86100
C  26.82100 1.22600 25.31900
C  26.72200 1.32900 26.82100
C  24.80900 -0.08000 24.23100
C  27.80300 2.33300 24.73800
C  27.17400 3.76800 24.98300
N  26.86100 1.21100 29.82100
C  27.95700 1.13400 29.02400
C  29.15100 0.95000 29.80200
C  28.69300 1.18000 31.10700
C  27.32800 1.41100 31.07700
C  30.56700 0.52800 29.29000
C  29.13900 1.31600 32.50600
O  30.27800 1.17400 32.99400
C  27.92500 1.68700 33.29800
C  27.74100 0.70600 34.38500
O  27.13200 -0.38500 34.30300
O  28.46900 1.16600 35.52500
C  28.52900 0.16400 36.59200
H  21.16700 1.69400 31.84000
H  22.74600 1.51700 25.45600
H  28.74800 1.04000 27.03500
H  24.82100 1.08200 34.42800
H  22.68400 3.00100 33.53200
H  22.70900 0.47500 35.06600
H  21.83600 0.13200 33.55000
H  21.34000 1.46900 34.63000
H  24.33600 3.87700 34.89400
H  26.09100 3.52400 34.64000
H  25.95400 2.22200 36.61700
H  24.19900 2.29000 36.70800
H  18.82600 2.25900 29.65100
H  19.33000 1.06000 30.88000
H  18.54200 0.51100 29.43500
H  18.37200 0.15600 26.99900
H  17.88200 1.24000 25.69800
H  18.09900 1.82300 27.38100
H  24.93300 2.03000 24.16900
H  27.29000 0.30400 24.97600
H  23.91800 0.12800 23.63800
H  24.59300 -0.66100 25.12700
H  25.54000 -0.55900 23.58000
H  27.90900 2.09000 23.68000
H  28.75500 2.34200 25.26900
H  27.89300 4.34100 25.56900
H  26.24100 3.69300 25.54000
H  27.06300 4.20700 23.99100
H  31.29800 1.32200 29.13800
H  30.45300 -0.07600 28.39000
H  31.02400 -0.14700 30.01400
H  28.02600 2.69800 33.69200
H  27.94700 0.54800 37.42900
H  29.58400 -0.03500 36.78000
H  28.14800 -0.83900 36.40100
Mg 34.96500 2.87600 29.31000
C  32.79200 4.30700 31.74700
C  37.28800 2.54400 31.70500
C  37.06400 1.72600 26.90200
C  32.54600 3.49400 26.84500
N  35.08300 3.76900 31.48000
C  34.01300 4.06500 32.31300
C  34.46700 3.93500 33.79900
C  36.00000 3.53600 33.63800
C  36.12700 3.25000 32.14700
C  36.98600 4.63300 33.99200
C  33.58900 2.94300 34.65500
C  33.24900 3.47100 36.08500
H  33.89500 4.69800 36.78100
N  37.02000 2.34200 29.27800
C  37.79000 2.27900 30.38700
C  39.12000 1.79800 30.02300
C  39.00800 1.57900 28.64000
C  37.66900 1.84500 28.20000
C  40.29900 1.66500 31.04200
C  40.16100 1.11900 27.70600
O  40.04300 0.99400 26.49800
C  41.49600 0.68200 28.25300
N  34.84600 2.78100 27.19800
C  35.86500 2.24300 26.43800
C  35.40800 2.05200 24.98500
C  33.89900 2.52400 24.97800
C  33.71100 2.86900 26.44100
C  36.31300 2.73100 23.95200
C  32.96200 1.47200 24.33400
C  31.86700 0.81000 25.16800
N  33.04500 3.71400 29.24000
C  32.19400 3.89700 28.17900
C  30.95300 4.50200 28.68200
C  31.14200 4.57800 30.06000
C  32.46700 4.18400 30.36400
C  29.69400 4.79200 27.95200
C  30.48000 4.86000 31.32600
O  29.35200 5.19800 31.63600
C  31.55000 4.67200 32.43500
C  31.68800 5.86900 33.27200
O  32.14200 6.89900 32.78100
O  31.05400 5.69000 34.49800
C  30.85600 7.01600 35.19200
H  37.97800 2.22400 32.48900
H  37.71200 1.20900 26.19100
H  31.71800 3.63000 26.14600
H  34.53800 4.92300 34.25500
H  36.20900 2.65400 34.24300
H  36.59600 5.03000 34.93000
H  37.06100 5.30500 33.13800
H  37.96700 4.16400 34.06500
H  34.03300 1.97400 34.88200
H  32.73000 2.70700 34.02700
H  33.48600 2.67400 36.78900
H  32.17800 3.63800 36.19400
H  40.02300 2.10900 31.99800
H  41.07100 2.34200 30.67800
H  40.56200 0.62200 31.21800
H  42.16100 1.52500 28.44500
H  41.91600 0.06500 27.45900
H  41.35800 -0.04600 29.05100
H  35.49000 0.97300 24.85600
H  33.78600 3.28900 24.21000
H  36.57400 3.75200 24.22900
H  35.93600 2.64400 22.93300
H  37.25400 2.19600 24.07300
H  33.62500 0.69100 23.96100
H  32.49200 2.07800 23.56000
H  32.10500 -0.25100 25.23700
H  30.88800 0.79700 24.69000
H  31.70600 1.19200 26.17600
H  29.02500 5.31900 28.63200
H  29.20400 3.89900 27.56300
H  29.93200 5.49500 27.15300
H  31.27200 3.86700 33.11600
H  31.66200 7.35500 35.84300
H  29.93600 6.98800 35.77500
H  30.67700 7.88300 34.55600

