158

Mg 17.28000 -1.53100 27.66800
C  16.36400 0.42600 30.40900
C  19.34100 -3.32400 29.85900
C  18.70800 -2.96200 24.98400
C  15.54700 0.76900 25.48700
N  17.77900 -1.43800 29.83700
C  17.16800 -0.60100 30.78300
C  17.62800 -0.89500 32.21100
C  18.89800 -1.83000 31.99900
C  18.65200 -2.26500 30.46900
C  20.32600 -1.23500 32.36200
C  16.57200 -1.51900 33.10700
C  16.42000 -1.07600 34.55300
H  17.13500 -2.13300 35.39800
N  18.65200 -3.14600 27.50200
C  19.42800 -3.71400 28.49500
C  20.24400 -4.72400 27.94500
C  19.99000 -4.69700 26.49700
C  19.11200 -3.53200 26.24500
C  20.83800 -5.79300 28.83800
C  20.53100 -5.58500 25.37600
O  20.08400 -5.50600 24.24100
C  21.59200 -6.69100 25.66700
N  17.00100 -1.18200 25.53700
C  17.68300 -1.95900 24.64100
C  17.50500 -1.49700 23.20400
C  16.25600 -0.44500 23.40200
C  16.26800 -0.25400 24.92000
C  18.74600 -0.87500 22.46800
C  14.89600 -0.86800 22.82800
C  13.75800 -1.26800 23.77200
N  16.13000 0.14600 27.86600
C  15.53800 1.00700 26.89300
C  14.85200 2.07200 27.55700
C  15.07900 1.83600 28.94000
C  15.90400 0.70100 29.08100
C  14.11200 3.12700 26.91100
C  14.70600 2.29900 30.32000
O  14.02000 3.22400 30.69600
C  15.60800 1.38800 31.23800
C  16.46400 2.30000 32.07300
O  17.37000 3.03200 31.69500
O  16.12800 2.19300 33.39000
C  16.92000 3.02600 34.32800
H  20.00200 -3.74600 30.61800
H  19.18100 -3.38800 24.09700
H  15.02100 1.48300 24.85000
H  17.89700 0.07700 32.62300
H  18.82800 -2.74600 32.58500
H  20.86100 -1.00600 31.44000
H  20.88200 -1.89800 33.02500
H  20.14800 -0.34100 32.95900
H  16.73400 -2.59700 33.07800
H  15.62700 -1.34000 32.59400
H  15.36400 -0.99300 34.81000
H  16.91000 -0.10300 34.55700
H  21.92800 -5.79000 28.81600
H  20.43500 -6.76400 28.55000
H  20.44200 -5.66800 29.84600
H  22.49500 -6.39600 26.20200
H  21.94600 -7.09700 24.71900
H  21.16400 -7.58000 26.13000
H  17.25100 -2.41500 22.67400
H  16.57800 0.41500 22.81600
H  19.36200 -1.54000 21.86300
H  19.35900 -0.40100 23.23500
H  18.35300 -0.04200 21.88500
H  15.05300 -1.73800 22.19100
H  14.40800 -0.11300 22.21100
H  13.50000 -0.34900 24.29700
H  14.22800 -1.95800 24.47300
H  12.96900 -1.75500 23.20000
H  14.82200 3.50100 26.17300
H  13.93600 4.01000 27.52400
H  13.15900 2.87300 26.44600
H  14.99700 0.77100 31.89700
H  17.80800 2.51100 34.69500
H  16.23300 3.25500 35.14300
H  17.32200 3.96100 33.93700
Mg 7.45800 52.92200 41.84400
C  7.43900 49.43600 41.79100
C  10.70000 52.77200 40.48400
C  7.10500 56.14000 41.04400
C  3.98700 52.67700 42.64100
N  8.84000 51.34500 41.20500
C  8.64500 49.96200 41.31500
C  9.94900 49.20000 40.90600
C  10.96500 50.26700 41.08600
C  10.14300 51.55700 40.88800
C  11.74500 50.29400 42.41000
C  9.95800 48.50700 39.49700
C  9.59900 49.26800 38.17500
H  8.25300 48.98000 37.47400
N  8.80100 54.29200 40.94400
C  10.05200 54.04600 40.49200
C  10.56200 55.26900 39.96600
C  9.59800 56.36800 40.23900
C  8.43400 55.66400 40.78200
C  11.99400 55.37700 39.44300
C  9.95800 57.83700 40.10900
O  10.98900 58.15600 39.56800
C  8.95800 58.88300 40.54900
N  5.84100 54.14600 41.80100
C  5.92300 55.45100 41.41300
C  4.42200 56.06600 41.44800
C  3.56700 55.00700 42.10500
C  4.53500 53.88700 42.26000
C  4.41700 57.53200 42.00300
C  2.25500 54.69700 41.37400
C  1.02900 54.55100 42.33400
N  6.11200 51.37100 42.34100
C  4.78700 51.47800 42.75000
C  4.31600 50.15400 43.09700
C  5.31900 49.31500 42.81400
C  6.35900 50.10100 42.27500
C  2.96400 49.86600 43.71500
C  5.68400 47.90100 42.82900
O  5.08700 46.89800 43.24100
C  7.08900 47.91700 42.12900
C  7.00200 46.88700 41.01800
O  6.30200 46.94500 39.97700
O  7.71400 45.71000 41.44900
C  7.59500 44.55300 40.58700
H  11.76700 52.67600 40.27200
H  7.05500 57.17900 40.71200
H  2.92200 52.59500 42.87000
H  10.06900 48.40600 41.64200
H  11.62900 50.28800 40.22200
H  11.37200 49.55000 43.11400
H  11.54000 51.24500 42.90100
H  12.82300 50.20500 42.27100
H  9.41300 47.56500 39.55100
H  10.99100 48.16400 39.43900
H  10.40000 49.07900 37.46000
H  9.45900 50.32900 38.37800
H  11.88200 55.62200 38.38700
H  12.67000 54.53600 39.60300
H  12.48000 56.27100 39.83500
H  8.24400 58.92800 39.72600
H  9.43300 59.86300 40.60500
H  8.47900 58.76200 41.52100
H  4.29400 56.16600 40.37000
H  3.50300 55.47600 43.08700
H  4.45500 58.24200 41.17700
H  5.24800 57.71200 42.68500
H  3.41900 57.73500 42.39000
H  2.28300 53.79200 40.76700
H  2.06200 55.60100 40.79700
H  0.39500 55.42900 42.20600
H  1.46600 54.51900 43.33200
H  0.37600 53.69300 42.17200
H  2.70900 48.81000 43.80500
H  2.21500 50.24900 43.02100
H  2.78500 50.46900 44.60500
H  7.90800 47.53300 42.73700
H  7.72300 44.73900 39.52000
H  6.58600 44.16600 40.73100
H  8.27700 43.76600 40.90900

