158

Mg 47.01400 34.85900 26.14900
C  45.73700 33.29600 29.08900
C  47.28300 37.71800 28.11900
C  48.00900 36.44900 23.44600
C  46.51700 31.90000 24.43900
N  46.62100 35.40300 28.34200
C  46.25200 34.59900 29.39300
C  46.31200 35.29000 30.72700
C  46.66000 36.76200 30.40900
C  46.97700 36.60400 28.88100
C  45.71000 37.77400 30.96100
C  47.51200 34.56400 31.54000
C  47.52000 34.52000 33.06700
H  46.33600 35.23700 33.70200
N  47.48800 36.81100 25.78900
C  47.50800 37.85100 26.73100
C  47.93000 39.12600 26.05700
C  48.34900 38.62700 24.71400
C  47.86500 37.26500 24.57200
C  48.18200 40.38600 26.83400
C  49.09200 39.47100 23.68200
O  49.44500 39.02800 22.57800
C  49.51600 40.85900 24.05200
N  47.01400 34.29100 24.22800
C  47.66600 35.09600 23.28200
C  48.14500 34.34900 22.04900
C  47.67100 32.85500 22.32200
C  47.03100 33.04000 23.69400
C  47.70900 34.89200 20.66100
C  48.87000 31.76300 22.37000
C  49.25200 30.99000 21.10100
N  46.25100 33.00500 26.57500
C  46.13400 31.86400 25.77000
C  45.51600 30.79800 26.53000
C  45.23400 31.32300 27.81600
C  45.75200 32.67000 27.82500
C  45.16900 29.39500 25.93900
C  44.67000 31.11800 29.06100
O  43.98000 30.16700 29.35700
C  44.91200 32.43000 29.94100
C  45.44300 31.80900 31.18200
O  46.36900 31.01400 31.30600
O  44.50700 31.99900 32.17800
C  44.72400 31.44800 33.56900
H  47.26700 38.66400 28.66400
H  48.35000 36.91800 22.52100
H  46.37700 30.98700 23.85600
H  45.37500 35.13300 31.26000
H  47.56200 37.13100 30.89700
H  45.20400 38.17000 30.08000
H  46.22800 38.63300 31.38800
H  45.07100 37.28400 31.69500
H  48.35300 35.16600 31.19700
H  47.71000 33.53300 31.24800
H  48.45000 34.70200 33.60500
H  47.32000 33.45400 33.17200
H  47.91700 41.23000 26.19600
H  49.23100 40.28800 27.11400
H  47.68500 40.51800 27.79500
H  48.67800 41.55500 24.10700
H  50.12700 41.22600 23.22700
H  50.22700 40.89000 24.87700
H  49.23400 34.36300 22.10000
H  46.88500 32.49200 21.66100
H  46.72500 35.36000 20.67700
H  47.76300 34.14700 19.86700
H  48.43800 35.67100 20.43900
H  48.77600 31.12700 23.24900
H  49.81800 32.29600 22.45200
H  50.26100 31.18000 20.73600
H  48.57900 31.35200 20.32300
H  49.18400 29.91300 21.25500
H  45.02000 28.64300 26.71300
H  46.10000 29.07800 25.46900
H  44.30000 29.38800 25.28000
H  43.96000 32.89600 30.19200
H  43.80300 31.17000 34.08000
H  45.17300 32.25200 34.15300
H  45.49900 30.68600 33.65400
Mg 35.13400 49.10600 26.54600
C  35.56300 46.91800 29.26000
C  34.01200 51.54200 28.66600
C  34.24100 50.99400 23.82500
C  35.85600 46.52200 24.43300
N  34.79200 49.31900 28.73200
C  35.16700 48.22700 29.61000
C  34.88700 48.73500 31.01000
C  34.40200 50.24000 30.87000
C  34.37200 50.39200 29.38100
C  33.03300 50.48500 31.55200
C  36.12700 48.59600 31.86900
C  36.01500 48.03100 33.34100
H  36.46600 49.11800 34.36200
N  34.35600 51.00800 26.30700
C  33.93200 51.85200 27.33600
C  33.60700 53.17400 26.76300
C  33.64500 53.11300 25.37300
C  34.06300 51.63300 25.10000
C  33.51500 54.43700 27.63500
C  33.52100 54.19200 24.35600
O  33.68200 53.97000 23.17100
C  33.11600 55.63200 24.69500
N  35.08500 48.85600 24.41400
C  34.61200 49.70500 23.49100
C  34.48300 49.04600 22.09600
C  35.27100 47.70400 22.33900
C  35.51200 47.68300 23.81200
C  33.06000 48.79900 21.46700
C  36.58100 47.43400 21.46100
C  36.93900 45.96800 21.03300
N  35.58600 47.15600 26.75800
C  35.88700 46.25500 25.76000
C  36.13600 44.96400 26.41200
C  35.98500 45.18800 27.76000
C  35.68100 46.51300 27.89000
C  36.33800 43.61200 25.78200
C  36.06500 44.53800 29.08000
O  36.34100 43.41800 29.44300
C  35.70800 45.67700 30.09800
C  34.43100 45.39500 30.79300
O  33.37500 45.05500 30.22000
O  34.55300 45.41700 32.19400
C  33.43500 44.82900 32.94400
H  33.52300 52.30300 29.27700
H  33.92200 51.57500 22.95700
H  36.00500 45.59100 23.88200
H  34.06700 48.10400 31.35200
H  35.05300 51.03400 31.23500
H  32.80700 49.64700 32.21100
H  32.32800 50.43800 30.72300
H  32.86000 51.46300 32.00100
H  36.66300 49.54400 31.89400
H  36.86800 47.97100 31.36900
H  36.64600 47.15400 33.48300
H  35.01100 47.72600 33.63600
H  34.32100 55.13300 27.40200
H  33.39600 54.32800 28.71300
H  32.58800 54.92300 27.32900
H  33.23900 56.26000 23.81200
H  33.70900 56.16300 25.43900
H  32.08800 55.69200 25.05300
H  35.01800 49.63900 21.35300
H  34.66400 46.81200 22.18100
H  33.10200 49.43300 20.58100
H  32.19500 49.01900 22.09200
H  32.86600 47.83500 20.99500
H  37.35900 47.73900 22.16000
H  36.64900 48.08300 20.58700
H  38.00200 45.80300 21.20800
H  36.76900 45.83500 19.96500
H  36.41200 45.20100 21.60100
H  37.39100 43.62300 25.49700
H  35.77700 43.32600 24.89200
H  36.24300 42.88300 26.58600
H  36.50500 45.93000 30.79700
H  32.49300 45.26400 32.60900
H  33.66600 45.32900 33.88500
H  33.44400 43.74000 32.99900

