158

Mg 0.38300 8.06100 27.24800
C  0.97700 10.14500 30.01800
C  0.67600 5.36400 29.37100
C  0.02400 6.12000 24.62300
C  0.77000 10.89600 25.28200
N  0.86600 7.81900 29.42800
C  0.91700 8.79300 30.38300
C  0.74300 8.25600 31.86000
C  0.83500 6.72800 31.59500
C  0.76600 6.56600 30.05700
C  1.95500 6.01700 32.30100
C  -0.60500 8.80300 32.51600
C  -1.00800 8.15600 33.85900
H  -0.01100 7.87600 35.04600
N  0.29300 5.97600 27.03800
C  0.47200 4.98000 27.97800
C  0.27000 3.68300 27.38100
C  -0.13500 3.97900 26.03100
C  0.03800 5.40100 25.86000
C  0.38700 2.48600 28.26800
C  -0.60400 3.00100 24.99900
O  -0.90400 3.28800 23.87700
C  -0.85800 1.51800 25.35800
N  0.43200 8.46400 25.24000
C  0.29500 7.45300 24.29500
C  0.43300 8.07200 22.87500
C  0.28700 9.57000 23.14200
C  0.53900 9.69700 24.66700
C  1.72400 7.63800 22.05800
C  -1.11800 10.05700 22.83800
C  -1.38000 11.09300 21.77600
N  0.99000 10.04000 27.52800
C  1.06900 11.09200 26.60800
C  1.29100 12.41500 27.34000
C  1.24200 12.04600 28.65000
C  1.05000 10.59700 28.73900
C  1.48100 13.76400 26.64800
C  1.36300 12.61200 29.95900
O  1.60300 13.74200 30.25500
C  1.05100 11.42000 30.95600
C  1.99700 11.30900 32.07300
O  3.06000 10.67400 31.98000
O  1.52500 11.99500 33.20200
C  2.44700 11.93700 34.33800
H  0.59700 4.45100 29.96500
H  -0.07900 5.50000 23.72900
H  0.89000 11.69600 24.54800
H  1.55700 8.58200 32.50700
H  -0.10800 6.25900 31.87800
H  2.65500 5.72800 31.51700
H  1.52100 5.08300 32.65700
H  2.52300 6.63900 32.99300
H  -1.32700 8.38700 31.81400
H  -0.66400 9.89100 32.54000
H  -1.58000 7.26500 33.60200
H  -1.60000 8.95600 34.30200
H  1.38400 2.05100 28.20500
H  -0.42100 1.81200 27.98400
H  0.05400 2.66900 29.29000
H  0.20900 1.32700 25.46600
H  -1.21600 0.86200 24.56400
H  -1.41300 1.43200 26.29200
H  -0.46600 7.67300 22.40500
H  0.99600 10.19000 22.59400
H  2.24000 6.74300 22.40400
H  2.40100 8.45800 21.81600
H  1.41100 7.36200 21.05100
H  -1.50600 10.57500 23.71500
H  -1.76300 9.19100 22.68500
H  -0.69500 10.72900 21.01100
H  -1.14300 12.07500 22.18400
H  -2.43300 11.06200 21.49500
H  0.60700 14.36900 26.89000
H  1.61700 13.59000 25.58100
H  2.39900 14.16500 27.07600
H  0.10800 11.69600 31.42800
H  2.65900 10.89400 34.57200
H  2.00200 12.47900 35.17400
H  3.45700 12.29800 34.14600
Mg 17.06300 52.51400 25.73600
C  19.02500 50.78000 28.15500
C  14.86600 53.17800 28.36400
C  15.18400 53.81300 23.39500
C  19.10200 50.93300 23.31600
N  17.06300 52.12100 28.05000
C  17.95000 51.44100 28.77400
C  17.60600 51.53400 30.26000
C  16.11100 51.93900 30.25300
C  16.02200 52.48100 28.81900
C  15.01200 50.87200 30.61400
C  18.53900 52.46100 30.93800
C  18.90200 52.23600 32.44500
H  17.75300 51.78100 33.34500
N  15.30000 53.50300 25.85800
C  14.51800 53.60500 26.98100
C  13.43200 54.52400 26.58800
C  13.46900 54.75600 25.17100
C  14.70300 54.09400 24.73100
C  12.41000 54.97900 27.60700
C  12.42000 55.41100 24.20700
O  12.67000 55.60600 22.99900
C  11.13600 55.86400 24.73500
N  17.16800 52.36300 23.65900
C  16.28700 53.06800 22.90800
C  16.41800 52.79000 21.45600
C  17.84800 52.10800 21.43600
C  18.03200 51.73000 22.86200
C  15.27900 51.98300 20.68800
C  19.05200 52.92000 20.81100
C  20.06600 53.51300 21.77900
N  18.73800 51.24400 25.71100
C  19.44700 50.74400 24.66400
C  20.61400 50.01500 25.13000
C  20.44900 49.92500 26.49900
C  19.32800 50.72700 26.84300
C  21.60500 49.32400 24.26800
C  21.05900 49.39900 27.73100
O  21.94500 48.59000 27.91300
C  20.16600 50.07400 28.89100
C  19.74900 49.03400 29.86700
O  18.84600 48.25000 29.60500
O  20.40000 49.21800 31.05000
C  20.00400 48.27100 32.05400
H  14.14500 53.34500 29.16800
H  14.48300 54.11200 22.61200
H  19.80900 50.55800 22.57200
H  17.60700 50.49100 30.57900
H  16.02800 52.77400 30.94800
H  15.42100 49.87600 30.78100
H  14.31400 50.94300 29.77900
H  14.53100 51.20400 31.53400
H  18.05800 53.43200 30.81300
H  19.48600 52.43400 30.40000
H  19.19200 53.22000 32.81200
H  19.71600 51.51500 32.51900
H  12.66600 54.90100 28.66300
H  11.50200 54.39000 27.48000
H  12.15300 56.01900 27.40500
H  10.36100 55.94800 23.97300
H  11.29300 56.82500 25.22400
H  10.68500 55.21500 25.48500
H  16.39200 53.80200 21.05100
H  17.85200 51.19200 20.84500
H  14.54300 51.84400 21.48000
H  15.78000 51.10000 20.29100
H  14.99600 52.58200 19.82300
H  18.56000 53.60500 20.12100
H  19.60900 52.20200 20.20900
H  19.84500 53.45300 22.84500
H  20.02100 54.58500 21.58800
H  21.07300 53.14100 21.59100
H  22.39600 48.81900 24.82300
H  22.04500 50.15600 23.71900
H  21.08300 48.63500 23.60300
H  20.71400 50.79900 29.49300
H  20.18900 47.27000 31.66500
H  18.98800 48.41900 32.41900
H  20.68000 48.47700 32.88400

