158

Mg 6.16900 54.76800 40.15800
C  5.66800 51.32700 39.83500
C  9.48200 54.19200 39.12600
C  6.52400 58.12200 39.76000
C  2.69900 55.25600 40.55100
N  7.43200 52.92200 39.57800
C  6.98200 51.67800 39.48800
C  8.15900 50.76600 39.02500
C  9.47900 51.64000 39.09400
C  8.80900 52.99300 39.40600
C  10.42900 51.34000 40.28300
C  8.02100 49.94200 37.71800
C  7.22600 50.51500 36.51800
H  6.88200 52.05500 36.52700
N  7.80500 56.01600 39.55000
C  9.11000 55.59500 39.20900
C  9.81600 56.80900 38.92800
C  9.03500 57.92600 39.25100
C  7.72600 57.38700 39.53200
C  11.27000 56.74900 38.50900
C  9.47500 59.44900 39.20600
O  10.66800 59.66900 39.01200
C  8.58400 60.59000 39.40500
N  4.80800 56.33600 39.84600
C  5.25700 57.65600 39.98100
C  4.17000 58.61100 40.29100
C  2.98800 57.73700 40.57600
C  3.51000 56.35200 40.35200
C  4.45700 59.58400 41.42100
C  1.76000 58.06500 39.74200
C  1.70500 57.79100 38.21300
N  4.47200 53.54700 40.36700
C  3.14900 53.88200 40.62400
C  2.34100 52.62800 40.88900
C  3.29500 51.60400 40.55200
C  4.58100 52.22800 40.23400
C  0.87100 52.57400 41.17200
C  3.47700 50.13200 40.42700
O  2.57600 49.28100 40.62900
C  5.01600 49.88800 39.98800
C  5.02500 48.93300 38.89400
O  4.35400 49.02400 37.88000
O  5.74200 47.84200 39.10600
C  5.57800 46.61400 38.35400
H  10.51400 54.18800 38.76900
H  6.67500 59.20100 39.82700
H  1.65900 55.35500 40.87000
H  8.20300 49.99500 39.79400
H  10.07800 51.68800 38.18500
H  11.20200 52.07300 40.51700
H  10.83300 50.33200 40.19200
H  9.95400 51.22900 41.25800
H  7.63700 48.94100 37.91800
H  9.03200 49.80500 37.33500
H  6.36900 49.85500 36.37800
H  7.90700 50.36200 35.68100
H  11.56100 57.58500 37.87300
H  11.53200 55.79700 38.04600
H  11.84000 56.88400 39.42900
H  7.77500 60.60600 38.67500
H  9.03400 61.56200 39.60500
H  8.30400 60.29000 40.41500
H  3.87000 59.24000 39.45300
H  2.61400 57.80400 41.59800
H  5.52100 59.78400 41.54600
H  3.93200 59.27800 42.32600
H  4.00500 60.53300 41.13000
H  1.41300 59.08200 39.92700
H  0.97700 57.51800 40.26700
H  1.39900 58.66000 37.63100
H  1.01200 56.98400 37.97800
H  2.65100 57.35000 37.90000
H  0.30600 53.19800 40.48000
H  0.68500 53.00800 42.15400
H  0.65200 51.51000 41.08100
H  5.60300 49.41600 40.77700
H  5.44300 46.95200 37.32700
H  4.67100 46.09300 38.66200
H  6.40800 45.91200 38.43300
Mg 9.42700 48.91700 24.76500
C  7.01600 49.63200 27.06200
C  11.84200 50.36100 26.97400
C  11.88700 48.13600 22.55200
C  7.01700 48.54000 22.35900
N  9.43000 49.81000 26.81400
C  8.25800 49.98800 27.61900
C  8.63900 50.56900 28.99100
C  10.16300 50.80700 28.89400
C  10.49400 50.35800 27.47600
C  10.62900 52.28300 29.29400
C  8.02100 49.85300 30.26100
C  8.86600 49.81600 31.61600
H  9.12500 48.38100 32.29500
N  11.61500 49.18500 24.79700
C  12.37600 49.76500 25.76500
C  13.79500 49.61600 25.36100
C  13.75500 48.84200 24.10300
C  12.36300 48.60900 23.81900
C  14.94000 49.97000 26.20300
C  14.93900 48.39300 23.25200
O  14.70300 47.74800 22.25300
C  16.36100 48.63600 23.63600
N  9.50100 48.43400 22.74000
C  10.60900 48.06100 22.06000
C  10.18000 47.65400 20.63700
C  8.65100 48.10400 20.51800
C  8.36200 48.30400 21.96600
C  11.03700 48.05800 19.42800
C  7.80800 47.07600 19.82900
C  7.34700 47.37500 18.41000
N  7.38000 48.92800 24.66400
C  6.51300 48.82700 23.58600
C  5.17400 48.86100 24.08800
C  5.35900 49.14300 25.44600
C  6.70500 49.28300 25.72700
C  3.87800 48.55600 23.31800
C  4.60100 49.37400 26.69600
O  3.42500 49.29500 27.01400
C  5.63400 49.79700 27.79600
C  5.50900 48.83200 28.86400
O  5.88900 47.65300 28.77500
O  4.87700 49.39900 29.96900
C  4.54100 48.37800 30.96300
H  12.56200 50.91800 27.57700
H  12.54600 47.90200 21.71400
H  6.21700 48.54500 21.61500
H  8.19700 51.56300 29.05700
H  10.64900 50.07900 29.54300
H  11.44100 52.08000 29.99300
H  9.73300 52.80100 29.63500
H  11.19000 52.76600 28.49400
H  7.75500 48.85100 29.92400
H  7.19500 50.52300 30.50000
H  8.27700 50.26000 32.41900
H  9.81900 50.34400 31.57900
H  14.68800 50.38200 27.18100
H  15.57800 50.73300 25.75700
H  15.51900 49.07400 26.42300
H  16.60500 48.34400 24.65700
H  16.56900 49.69000 23.45200
H  17.05700 48.09000 22.99900
H  10.16200 46.57800 20.80900
H  8.62000 49.08800 20.05000
H  12.02400 48.39800 19.74000
H  10.60700 48.86200 18.82900
H  11.14500 47.18600 18.78300
H  7.01200 46.78300 20.51300
H  8.42100 46.22200 19.54000
H  7.00500 48.40900 18.45200
H  6.58400 46.63700 18.16200
H  8.10100 47.41000 17.62400
H  3.55000 47.55000 23.58100
H  4.00500 48.64300 22.23900
H  3.16500 49.35200 23.53300
H  5.45700 50.81600 28.14200
H  3.88100 47.62900 30.52600
H  4.02200 48.94300 31.73700
H  5.45900 47.93600 31.35100

