158

Mg 48.05600 44.67900 42.42800
C  44.53800 44.07300 42.28500
C  48.43800 41.20800 42.40600
C  51.32400 45.21100 42.04700
C  47.27500 48.16100 42.07700
N  46.67000 42.85600 42.35500
C  45.29300 42.90700 42.35500
C  44.65100 41.50900 42.22200
C  45.87900 40.52500 42.42400
C  47.05300 41.54000 42.41100
C  45.73000 39.64500 43.65400
C  43.83500 41.14300 40.88300
C  43.98200 42.06100 39.58000
H  43.58500 41.54700 38.18000
N  49.64900 43.43000 42.19800
C  49.55900 42.04600 42.27300
C  50.86900 41.57100 42.28200
C  51.78300 42.67000 42.26300
C  50.93000 43.86000 42.12600
C  51.19500 40.07500 42.19100
C  53.21900 42.50900 42.33500
O  53.65900 41.40000 42.59300
C  54.21100 43.60800 42.21700
N  49.10000 46.47600 41.93700
C  50.47800 46.40000 41.97400
C  51.03600 47.77400 41.62100
C  49.78900 48.70300 41.83000
C  48.61600 47.76400 41.98500
C  52.21400 48.25800 42.49500
C  49.64700 49.94100 40.78900
C  49.27600 51.24100 41.53100
N  46.30600 45.90100 42.24500
C  46.15900 47.25000 42.14400
C  44.71400 47.65200 42.15600
C  44.01000 46.45600 42.19400
C  45.03400 45.38900 42.20300
C  44.16900 48.97300 42.10500
C  42.69700 45.85700 42.25400
O  41.54500 46.29200 42.29300
C  43.04100 44.29200 42.43100
C  42.52100 43.84600 43.75600
O  41.57300 43.10300 43.88800
O  43.19500 44.36800 44.80600
C  42.61000 44.18200 46.12700
H  48.65100 40.13800 42.38500
H  52.39400 45.35200 41.88300
H  46.99800 49.21700 42.07900
H  43.86900 41.40900 42.97500
H  45.95700 39.88500 41.54500
H  46.34600 40.04700 44.45800
H  45.99400 38.63300 43.34800
H  44.70100 39.54000 43.99800
H  42.77000 41.23600 41.09200
H  43.95700 40.11000 40.55500
H  45.02300 42.38400 39.56400
H  43.48900 43.01500 39.76600
H  52.12300 39.90500 41.64500
H  50.44700 39.61500 41.54600
H  51.07200 39.62100 43.17400
H  54.12800 44.14700 41.27300
H  55.19500 43.30700 42.57600
H  53.91400 44.39700 42.90800
H  51.25900 47.83000 40.55500
H  49.95200 49.17700 42.79800
H  53.09800 47.94600 41.93900
H  52.18700 47.69900 43.43000
H  52.08800 49.33900 42.56500
H  48.85100 49.59000 40.13300
H  50.57800 50.11900 40.25000
H  50.15200 51.88100 41.42200
H  49.16400 51.18700 42.61400
H  48.33800 51.59300 41.10000
H  43.10900 48.79600 41.91900
H  44.53200 49.49500 41.21900
H  44.24800 49.65200 42.95400
H  42.48600 43.78300 41.64300
H  41.62300 44.58200 46.35900
H  43.44300 44.35600 46.80800
H  42.52500 43.10200 46.24200
Mg 16.31100 51.96000 24.57200
C  17.88900 50.79900 27.59600
C  13.58200 52.83900 26.56200
C  14.80000 52.81400 21.86600
C  18.96800 50.48300 22.75100
N  15.81700 51.71400 26.82500
C  16.67800 51.38100 27.85600
C  16.14600 51.70200 29.30400
C  14.68400 52.11700 28.89400
C  14.65400 52.30200 27.33200
C  13.59500 51.15900 29.44900
C  16.92700 52.84200 30.06700
C  16.75500 52.92000 31.66600
H  15.85200 51.80700 32.40900
N  14.41500 52.83200 24.22300
C  13.40400 53.06800 25.11100
C  12.32800 53.59400 24.38400
C  12.62400 53.70600 23.01100
C  13.98300 53.08500 23.00500
C  11.04300 54.01700 25.17600
C  11.80100 54.21200 21.78900
O  12.29600 54.31200 20.62900
C  10.35600 54.66700 21.94200
N  16.98100 51.89500 22.60800
C  16.02000 52.17600 21.69600
C  16.48600 51.80600 20.28700
C  18.01100 51.49900 20.53400
C  18.01900 51.26800 22.02800
C  15.70600 50.66100 19.72100
C  18.83100 52.72200 20.13500
C  20.38500 52.53200 20.33500
N  18.05600 50.80500 25.04200
C  19.01900 50.29200 24.20400
C  19.96800 49.58200 25.01500
C  19.58700 49.81000 26.32200
C  18.40800 50.49400 26.32800
C  21.14800 48.89600 24.53200
C  19.95700 49.44700 27.71100
O  20.95000 48.88000 28.16600
C  18.85300 50.18700 28.58000
C  18.30500 49.15400 29.55800
O  17.56500 48.23100 29.22600
O  18.54500 49.49200 30.89700
C  18.19300 48.47700 31.90200
H  12.68500 53.05700 27.14600
H  14.16900 52.93800 20.98300
H  19.81200 49.99500 22.26000
H  16.10800 50.71700 29.77000
H  14.43200 53.06100 29.37700
H  13.11000 50.74800 28.56300
H  12.92800 51.83800 29.97900
H  13.87900 50.39800 30.17500
H  16.57600 53.75700 29.59100
H  17.98400 52.77400 29.80600
H  16.43500 53.94500 31.85400
H  17.77800 52.88000 32.04300
H  10.95200 55.10300 25.19800
H  10.98400 53.67500 26.20900
H  10.11300 53.68100 24.71800
H  10.43900 55.40300 22.74100
H  9.74800 53.80400 22.21300
H  10.01300 55.03600 20.97500
H  16.27900 52.66500 19.64900
H  18.33700 50.62900 19.96300
H  16.40300 50.15900 19.05000
H  14.98200 51.16400 19.08000
H  15.26800 50.05900 20.51800
H  18.47600 53.55800 20.73600
H  18.63900 53.04400 19.11100
H  20.69600 51.53900 20.01200
H  20.64300 52.51700 21.39400
H  20.98900 53.27900 19.81900
H  21.83500 49.39700 23.85000
H  20.87600 47.87300 24.27400
H  21.79200 48.57800 25.35200
H  19.40100 50.98500 29.08200
H  18.49800 47.45400 31.67900
H  17.14400 48.38200 32.18300
H  18.70100 48.72600 32.83300

