158

Mg 25.85900 1.43500 29.89500
C  27.73300 1.24100 33.01400
C  23.08200 1.99000 31.83400
C  24.11600 1.39100 27.06200
C  28.69400 0.37200 28.21600
N  25.52000 1.30300 32.10500
C  26.40700 1.43400 33.24500
C  25.64300 1.54400 34.60100
C  24.21200 1.73900 34.10700
C  24.22500 1.62100 32.57200
C  23.16800 0.83700 34.80600
C  26.24000 2.66600 35.51900
C  26.40600 2.15800 36.99000
H  26.15800 3.13700 38.08800
N  23.89000 1.74800 29.46000
C  22.90200 1.91400 30.44200
C  21.60700 1.96100 29.70200
C  21.84300 1.61000 28.31100
C  23.30600 1.56700 28.25200
C  20.26100 2.08800 30.45900
C  20.89900 1.24300 27.22000
O  21.36800 0.78700 26.17600
C  19.45600 1.32100 27.44000
N  26.29400 0.81100 27.96100
C  25.43800 1.15100 26.92800
C  26.07000 0.99500 25.58400
C  27.53800 0.54900 25.96000
C  27.54900 0.49800 27.46700
C  25.42100 -0.05500 24.57300
C  28.67300 1.41800 25.24200
C  29.30300 2.62800 25.97800
N  27.86800 0.98600 30.42700
C  28.82900 0.47900 29.60600
C  30.04900 0.41100 30.40100
C  29.67600 0.68800 31.74400
C  28.35300 1.00900 31.71900
C  31.40600 0.16900 29.86200
C  30.23300 0.81800 33.09500
O  31.38800 0.85700 33.55100
C  28.95300 1.13300 34.01600
C  28.80400 0.01300 34.88200
O  28.23400 -1.04400 34.58900
O  29.32300 0.31400 36.11700
C  29.20400 -0.73700 37.15200
H  22.15900 2.23900 32.36200
H  23.52600 1.57100 26.16100
H  29.65000 0.04600 27.80000
H  25.75000 0.58200 35.10300
H  24.02200 2.80300 34.24700
H  22.37600 1.36100 35.34100
H  23.65000 0.02900 35.35800
H  22.64800 0.33100 33.99400
H  25.55800 3.51600 35.52500
H  27.09400 3.17100 35.06700
H  27.40700 1.74800 37.12300
H  25.65900 1.37100 37.09400
H  19.74700 3.02500 30.24500
H  20.38500 2.01700 31.54000
H  19.75500 1.16600 30.17400
H  19.22800 0.31600 27.79500
H  19.02400 1.52100 26.45900
H  19.12500 2.18500 28.01600
H  25.99700 1.93300 25.03300
H  27.65400 -0.45000 25.54200
H  24.48700 -0.39700 25.01700
H  25.98200 -0.98300 24.45900
H  25.34300 0.54100 23.66300
H  28.31300 1.82700 24.29800
H  29.43800 0.65400 25.10100
H  28.71000 2.77100 26.88200
H  29.17900 3.59900 25.50000
H  30.33600 2.39700 26.23600
H  31.48200 0.79900 28.97600
H  31.52200 -0.85500 29.50500
H  32.09400 0.37600 30.68200
H  29.18100 2.01900 34.60900
H  28.30600 -0.63700 37.76200
H  30.13700 -0.82700 37.70900
H  29.04500 -1.69700 36.66100
Mg 55.83700 25.53700 45.38000
C  53.12700 26.87100 43.35200
C  54.77300 22.40900 44.36000
C  58.84800 24.28400 46.13000
C  56.85200 28.70600 45.94200
N  54.12300 24.78800 43.89600
C  53.13900 25.49200 43.26400
C  52.12200 24.52000 42.62200
C  52.45500 23.17700 43.28300
C  53.87700 23.39900 43.87900
C  51.48300 23.00200 44.47300
C  52.24700 24.45000 41.06800
C  50.86300 24.38000 40.35900
H  50.77100 23.73100 38.92100
N  56.66600 23.58400 45.36900
C  56.06900 22.45700 44.92600
C  56.94600 21.30800 45.08400
C  58.22200 21.84300 45.41800
C  58.00500 23.31600 45.69000
C  56.47900 19.93300 44.74300
C  59.54100 21.11800 45.53600
O  59.53900 19.84900 45.39900
C  60.87400 21.72000 45.91300
N  57.71400 26.37800 45.75600
C  58.73600 25.70100 46.21200
C  59.87500 26.61600 46.83200
C  59.19500 27.98400 46.78600
C  57.85000 27.69900 46.09400
C  60.23000 26.17400 48.23200
C  59.93600 29.19300 46.11800
C  60.22200 30.31900 47.16600
N  55.12100 27.40800 44.93900
C  55.56200 28.60200 45.33000
C  54.52700 29.61100 45.06100
C  53.57500 29.02100 44.20100
C  53.99900 27.64800 44.14000
C  54.57600 31.04600 45.47000
C  52.34300 29.24800 43.48500
O  51.59900 30.18600 43.33100
C  52.14000 27.86400 42.79400
C  52.29300 28.02000 41.21200
O  53.25600 27.71000 40.60800
O  51.15200 28.70300 40.71400
C  51.04800 28.88300 39.26600
H  54.54100 21.36900 44.12100
H  59.78400 23.92700 46.56600
H  57.06700 29.63700 46.47100
H  51.08700 24.74900 42.87500
H  52.51300 22.35300 42.57200
H  50.51200 22.52600 44.34000
H  51.32800 23.91400 45.04900
H  51.85400 22.40900 45.31000
H  52.86400 23.59500 40.79000
H  52.84000 25.27800 40.67900
H  50.51600 25.41200 40.32300
H  50.22900 23.92800 41.12200
H  55.49500 19.65000 45.11500
H  57.12100 19.13000 45.10300
H  56.38100 19.76100 43.67100
H  61.11400 22.60900 45.33100
H  61.56700 20.97900 45.51500
H  60.94800 21.85700 46.99200
H  60.80700 26.55800 46.27000
H  58.84800 28.23100 47.78900
H  61.18400 25.67000 48.07500
H  59.42300 25.49300 48.50000
H  60.30700 26.99400 48.94700
H  59.52100 29.75200 45.27900
H  60.94500 28.91600 45.81300
H  59.30100 30.38000 47.74500
H  60.52000 31.25100 46.68600
H  61.02900 30.06400 47.85300
H  53.58500 31.31600 45.83500
H  54.91300 31.64100 44.62100
H  55.24600 31.31300 46.28800
H  51.08900 27.59900 42.91500
H  50.19600 29.51100 39.00500
H  51.03600 27.91700 38.76000
H  51.95100 29.40800 38.95300

