158

Mg 41.78800 41.27200 26.53000
C  41.16500 43.82400 29.09800
C  42.47300 39.08800 29.13400
C  42.72700 39.23500 24.34200
C  41.28200 43.82100 24.11100
N  42.03200 41.47400 28.82300
C  41.65900 42.62000 29.61500
C  41.54800 42.11300 31.11600
C  41.94900 40.63600 31.12300
C  42.16000 40.37500 29.62700
C  43.29900 40.25900 31.85300
C  40.04500 42.27900 31.70500
C  39.91400 42.98800 33.00000
H  39.18200 42.37300 34.20400
N  42.54500 39.41600 26.66800
C  42.62700 38.60300 27.83400
C  42.90300 37.24400 27.40700
C  43.11500 37.27600 26.00500
C  42.78800 38.67500 25.60500
C  43.32300 36.22300 28.46100
C  43.58700 36.23700 25.05100
O  43.85400 36.44400 23.86000
C  43.61700 34.74000 25.60300
N  42.04100 41.56800 24.50800
C  42.33200 40.47200 23.80200
C  42.08900 40.66000 22.28200
C  41.50400 42.16600 22.17200
C  41.70100 42.56500 23.66800
C  43.27200 40.36900 21.30700
C  40.08700 42.24600 21.62600
C  39.02400 41.54300 22.44800
N  41.35500 43.35800 26.52400
C  41.20900 44.23200 25.43700
C  40.75900 45.51200 25.93400
C  40.76200 45.37400 27.36900
C  41.07900 44.05100 27.66400
C  40.27500 46.67900 25.06900
C  40.53800 46.16400 28.59100
O  40.39400 47.36400 28.70700
C  40.76500 45.16700 29.73700
C  41.82800 45.68700 30.62500
O  43.01400 45.92100 30.36100
O  41.26100 45.98800 31.84400
C  42.15400 46.73100 32.74100
H  42.45200 38.39700 29.97900
H  42.81200 38.50800 23.53200
H  40.87900 44.44900 23.31300
H  42.28500 42.80800 31.52000
H  41.13200 40.05800 31.55600
H  43.54000 41.06400 32.54700
H  44.09800 40.15000 31.12000
H  43.07600 39.35500 32.41900
H  39.43100 41.37900 31.69900
H  39.50800 42.85500 30.95100
H  39.44500 43.95500 32.81500
H  40.89200 43.27600 33.38700
H  44.36900 35.95500 28.31100
H  42.80300 35.28200 28.27900
H  43.20900 36.51100 29.50600
H  44.53000 34.59300 26.18000
H  43.63100 34.05700 24.75300
H  42.69500 34.46900 26.11700
H  41.19700 40.05500 22.12200
H  42.25400 42.81800 21.72500
H  43.48900 41.25500 20.71000
H  43.08700 39.51200 20.65900
H  44.16300 40.04100 21.84200
H  40.00200 41.72200 20.67400
H  39.75100 43.27300 21.48100
H  39.32900 41.15300 23.41900
H  38.71800 40.68600 21.84700
H  38.17100 42.21300 22.55200
H  40.54400 46.60800 24.01500
H  40.76600 47.53600 25.53100
H  39.20500 46.87500 25.14700
H  39.83300 45.03800 30.28600
H  42.94300 47.28500 32.23200
H  42.54300 46.00200 33.45200
H  41.64300 47.49000 33.33300
Mg 6.72300 53.27700 40.73000
C  6.50300 49.89300 40.35000
C  9.87300 53.31000 39.54400
C  6.54600 56.69900 40.48800
C  3.30900 53.22100 41.75900
N  7.96400 51.77700 39.91500
C  7.72400 50.40400 39.82400
C  8.99900 49.62900 39.43200
C  10.11700 50.74100 39.72000
C  9.27800 52.06600 39.67900
C  11.00900 50.52700 41.02900
C  8.98800 49.07700 37.97900
C  8.24400 49.88100 36.96600
H  7.59000 49.10300 35.72600
N  8.07700 54.81200 40.05800
C  9.32000 54.55900 39.54300
C  9.93600 55.85100 39.21300
C  8.95300 56.86400 39.50800
C  7.79400 56.14800 40.03800
C  11.36900 56.01200 38.76000
C  9.12000 58.46400 39.33000
O  10.16600 58.87200 38.77400
C  8.08100 59.41400 39.81100
N  5.17300 54.70600 40.98400
C  5.40000 56.03900 40.90400
C  4.10900 56.83600 41.15500
C  3.11100 55.73300 41.68400
C  3.92300 54.44200 41.51200
C  4.13300 58.17400 42.08000
C  1.67200 55.67900 41.00800
C  0.44500 55.57500 41.80900
N  5.23800 51.87500 41.17400
C  3.91200 51.98600 41.49800
C  3.38000 50.67600 41.81700
C  4.34300 49.79700 41.27200
C  5.41500 50.59200 40.90000
C  1.99800 50.29200 42.37500
C  4.64800 48.41100 40.96600
O  3.97900 47.38700 41.10300
C  6.15900 48.41000 40.44900
C  6.10300 47.68300 39.13000
O  5.75600 48.14600 38.04400
O  6.38300 46.33700 39.26400
C  6.35700 45.41100 38.09400
H  10.92900 53.14900 39.32000
H  6.33200 57.76000 40.33800
H  2.29600 53.06400 42.13700
H  9.08100 48.80500 40.14100
H  10.82300 50.67200 38.89300
H  11.20400 51.45000 41.57500
H  11.94000 50.07100 40.69400
H  10.58900 49.89200 41.81000
H  8.53300 48.08700 37.97900
H  9.98900 48.97900 37.55700
H  8.95100 50.54400 36.46700
H  7.55600 50.61000 37.39500
H  11.30700 56.45300 37.76500
H  11.87800 55.05500 38.65000
H  11.96800 56.67100 39.38900
H  7.18000 59.22500 39.22700
H  8.35400 60.45000 39.60800
H  8.05500 59.25000 40.88800
H  3.65900 57.06900 40.19000
H  2.92900 55.74100 42.75800
H  3.94900 59.10100 41.53600
H  5.06700 58.16200 42.64200
H  3.36100 58.23700 42.84600
H  1.49800 54.84800 40.32400
H  1.71800 56.55200 40.35700
H  0.64700 55.30800 42.84600
H  -0.18100 54.80100 41.36500
H  -0.04400 56.54600 41.89000
H  1.59700 51.09300 42.99700
H  2.03900 49.38600 42.97900
H  1.31500 50.21800 41.52900
H  6.74800 47.83200 41.16100
H  6.08100 45.94800 37.18700
H  5.69300 44.56500 38.27000
H  7.38000 45.04500 37.99700

