158

Mg 16.73800 -2.43100 27.75400
C  15.46800 -0.20900 30.20300
C  18.77400 -3.73100 30.16400
C  18.48800 -3.92300 25.18000
C  15.20300 -0.32500 25.39000
N  17.14200 -1.94300 29.91100
C  16.45300 -1.05400 30.68900
C  16.86100 -1.20700 32.15600
C  18.07600 -2.20100 32.05200
C  18.01500 -2.67800 30.66000
C  19.44200 -1.58300 32.34800
C  15.70100 -1.58100 33.15200
C  15.52900 -0.83400 34.55100
H  16.76800 -0.18700 35.19400
N  18.29800 -3.77900 27.62000
C  18.92400 -4.15200 28.76100
C  19.71700 -5.34900 28.42000
C  19.66000 -5.46600 27.02200
C  18.80700 -4.35500 26.51200
C  20.48800 -6.22700 29.43700
C  20.44200 -6.49300 26.08600
O  20.32200 -6.38900 24.88500
C  21.24800 -7.59800 26.64200
N  16.88000 -2.08100 25.54800
C  17.63900 -2.87600 24.77500
C  17.38000 -2.57000 23.31900
C  16.45300 -1.33300 23.36800
C  16.12600 -1.22800 24.82100
C  18.68500 -2.31900 22.53400
C  15.25700 -1.24500 22.38600
C  15.32100 -0.17700 21.38100
N  15.56600 -0.66300 27.73800
C  14.89800 -0.07900 26.73300
C  13.88700 0.87500 27.20600
C  14.09700 0.84400 28.59000
C  15.12500 -0.13200 28.85000
C  12.97500 1.64900 26.37200
C  13.73900 1.40600 29.86000
O  12.97000 2.30700 30.09100
C  14.57400 0.78000 30.97900
C  15.53000 1.81800 31.62700
O  16.58900 2.19600 31.10500
O  15.03100 2.36100 32.79100
C  15.60200 3.52800 33.31200
H  19.38100 -4.18600 30.94900
H  18.92300 -4.52100 24.37700
H  14.68200 0.27800 24.64300
H  17.38900 -0.28600 32.40100
H  18.02500 -3.10500 32.65900
H  19.78400 -1.88000 33.34000
H  19.39100 -0.49500 32.34600
H  20.32300 -1.80300 31.74600
H  15.74300 -2.61800 33.48500
H  14.77700 -1.39500 32.60400
H  15.13200 -1.57700 35.24300
H  14.72100 -0.16800 34.24800
H  19.92600 -7.15800 29.51600
H  20.55400 -5.74500 30.41200
H  21.52900 -6.39300 29.16200
H  20.73700 -8.30000 27.30100
H  22.13600 -7.24600 27.16600
H  21.42900 -8.21100 25.75900
H  16.86000 -3.46100 22.96500
H  16.95300 -0.38000 23.19400
H  19.51800 -1.98900 23.15500
H  18.48200 -1.56600 21.77300
H  18.94500 -3.26800 22.06500
H  14.22200 -1.35500 22.71100
H  15.44500 -2.11000 21.75000
H  16.27300 -0.07400 20.85900
H  15.24700 0.78500 21.88800
H  14.60800 -0.42500 20.59400
H  12.52000 1.02800 25.60100
H  13.52400 2.47600 25.92200
H  12.25000 2.08400 27.06000
H  13.84900 0.41800 31.70900
H  14.77100 4.21700 33.46200
H  16.26900 4.03500 32.61400
H  16.08600 3.25600 34.25000
Mg 40.88000 9.37200 30.09200
C  42.74600 10.59900 32.78500
C  38.58000 8.14400 32.32600
C  39.16400 8.12000 27.52200
C  43.65800 10.10300 27.94500
N  40.80900 9.19900 32.34400
C  41.56000 9.95500 33.20200
C  41.00100 9.83500 34.63600
C  39.73600 9.07000 34.48500
C  39.71000 8.73500 32.93100
C  39.56600 7.72800 35.38600
C  40.79100 11.23100 35.40400
C  40.16500 11.21600 36.81000
H  41.09100 11.81700 37.93200
N  39.08600 8.44700 29.95900
C  38.26100 8.03300 30.94300
C  36.93900 7.64900 30.36000
C  37.10300 7.66200 29.00600
C  38.47300 8.06100 28.77400
C  35.86200 7.25200 31.20100
C  36.09400 7.42400 27.83500
O  36.47200 7.59700 26.69400
C  34.77700 6.90400 28.06800
N  41.34500 9.15700 27.98800
C  40.45100 8.58800 27.12600
C  41.09300 8.46400 25.72100
C  42.33700 9.41700 25.86000
C  42.50200 9.56700 27.38500
C  41.47500 7.01300 25.35600
C  42.26300 10.74100 25.08800
C  41.50200 11.91600 25.75200
N  42.87700 10.01000 30.29800
C  43.82700 10.38900 29.34800
C  44.86800 11.17800 29.98400
C  44.53400 11.17500 31.35200
C  43.28800 10.55500 31.44100
C  46.05600 11.78700 29.26600
C  44.95300 11.62400 32.68900
O  46.01800 12.16700 33.03600
C  43.82200 11.34400 33.59000
C  44.51600 10.48800 34.53400
O  44.69800 9.26900 34.48700
O  44.89100 11.22100 35.67000
C  45.55100 10.41100 36.73100
H  37.90600 7.77300 33.10000
H  38.88300 7.52700 26.64900
H  44.47300 10.34100 27.25800
H  41.74400 9.25800 35.18600
H  38.82700 9.63300 34.69400
H  38.88700 7.86100 36.22900
H  40.51400 7.57300 35.90200
H  39.43400 6.80800 34.81700
H  40.21600 11.92800 34.79500
H  41.80300 11.59000 35.59100
H  39.99000 10.18400 37.11600
H  39.17700 11.65300 36.95200
H  35.91600 6.31600 31.75700
H  34.93700 7.31500 30.62800
H  35.67300 8.01300 31.95800
H  34.27400 6.56800 27.16200
H  34.20200 7.64800 28.62000
H  34.76400 6.01600 28.70000
H  40.38300 8.86700 24.99900
H  43.21700 8.96000 25.40700
H  41.08700 6.83800 24.35200
H  41.01600 6.26600 26.00300
H  42.56200 6.92800 25.34000
H  41.95600 10.55600 24.05900
H  43.29600 11.08800 25.06100
H  42.07100 12.82800 25.57500
H  41.19200 11.77600 26.78800
H  40.63500 12.04400 25.10400
H  46.01500 11.68300 28.18100
H  46.90000 11.34800 29.79800
H  46.16100 12.82700 29.57400
H  43.50200 12.21300 34.16400
H  45.51700 11.04100 37.61900
H  46.59600 10.22400 36.48400
H  44.99700 9.49800 36.95100

