158

Mg 23.58400 -5.67400 46.02700
C  25.69900 -3.04500 44.85400
C  21.39600 -4.65500 43.70000
C  22.08000 -8.52000 46.56400
C  26.50500 -6.85800 47.79000
N  23.65000 -4.08600 44.35100
C  24.52100 -3.01200 44.20600
C  24.07900 -2.11900 43.14000
C  22.49400 -2.46700 43.00000
C  22.42700 -3.80800 43.75000
C  21.54500 -1.39700 43.31600
C  24.82100 -2.30300 41.80700
C  25.39000 -1.03900 41.06600
H  24.99900 -0.91300 39.52700
N  21.88600 -6.40800 45.35500
C  21.16400 -5.88800 44.38100
C  20.03300 -6.71800 44.19600
C  20.19100 -7.84300 44.96900
C  21.47600 -7.66800 45.64600
C  18.83000 -6.34900 43.24100
C  19.17100 -8.90200 45.25400
O  18.05100 -8.82900 44.81700
C  19.34700 -10.15400 46.13400
N  24.27700 -7.52600 46.85700
C  23.35500 -8.44000 47.16700
C  23.90600 -9.59400 48.02900
C  25.33600 -9.03500 48.40200
C  25.40800 -7.70400 47.57900
C  23.08300 -10.08400 49.27400
C  26.48800 -10.13300 48.23000
C  27.21100 -10.22400 46.81600
N  25.67500 -4.94800 46.50100
C  26.77600 -5.60500 47.11000
C  27.91000 -4.79300 46.94200
C  27.54400 -3.74600 46.10100
C  26.18100 -3.92400 45.80500
C  29.26000 -5.15500 47.46300
C  27.96700 -2.60300 45.32300
O  29.13400 -2.15300 45.19000
C  26.76300 -1.97300 44.55700
C  26.31000 -0.72800 45.18200
O  25.25300 -0.59800 45.82200
O  27.20300 0.29000 44.86900
C  26.97100 1.56000 45.55100
H  20.74400 -4.45700 42.84600
H  21.55700 -9.44000 46.83800
H  27.31800 -7.27300 48.39000
H  24.13500 -1.05100 43.35200
H  22.24800 -2.69500 41.96300
H  21.27200 -1.56300 44.35800
H  20.71200 -1.57400 42.63600
H  21.92300 -0.37500 43.31800
H  24.19000 -2.82500 41.08800
H  25.66900 -2.98700 41.81800
H  26.48000 -1.04300 41.05900
H  25.12700 -0.14900 41.63600
H  19.03300 -6.34700 42.17000
H  18.45200 -5.38100 43.56800
H  17.97200 -7.02000 43.26800
H  18.56400 -10.91300 46.11600
H  19.54700 -9.92400 47.18000
H  20.23800 -10.58600 45.68000
H  23.96500 -10.48500 47.40400
H  25.28500 -8.62600 49.41100
H  23.73200 -10.66100 49.93300
H  22.31300 -10.79100 48.96500
H  22.58600 -9.28000 49.81800
H  25.94700 -11.06600 48.39200
H  27.24900 -10.00500 48.99900
H  27.01300 -9.28400 46.30200
H  26.76400 -11.05500 46.27100
H  28.29600 -10.32600 46.79300
H  29.70600 -5.75800 46.67200
H  29.11700 -5.74900 48.36500
H  29.83900 -4.25500 47.67200
H  27.01900 -1.75800 43.51900
H  26.14800 1.58200 46.26500
H  26.82600 2.38500 44.85300
H  27.80500 1.89500 46.16800
Mg -11.61800 38.28100 42.73700
C  -9.43500 35.74700 41.50000
C  -9.53900 40.41400 40.95400
C  -13.92800 40.57400 43.11300
C  -13.83200 35.74200 43.66200
N  -9.65000 38.02100 41.34900
C  -8.98900 36.90000 40.94900
C  -7.91200 37.12800 39.90600
C  -7.90700 38.69800 39.75300
C  -9.07300 39.10900 40.72400
C  -6.52200 39.40900 40.18700
C  -8.25300 36.33900 38.61800
C  -7.12400 35.43200 37.99300
H  -6.12700 35.98700 36.97500
N  -11.65800 40.27100 42.28700
C  -10.69300 40.98900 41.61400
C  -11.14400 42.33800 41.51800
C  -12.46400 42.44600 42.03700
C  -12.74600 41.08900 42.50200
C  -10.29900 43.41200 40.78200
C  -13.40300 43.58500 41.91500
O  -12.94000 44.57000 41.36600
C  -14.92600 43.64300 42.35800
N  -13.62500 38.19800 43.41000
C  -14.37000 39.32200 43.54300
C  -15.68700 38.95100 44.23600
C  -15.64100 37.39700 44.40700
C  -14.28000 37.05800 43.81300
C  -15.81900 39.65600 45.61600
C  -16.83300 36.65700 43.74300
C  -16.89800 36.82900 42.23300
N  -11.67300 36.17400 42.72000
C  -12.59000 35.29000 43.20000
C  -12.06400 33.90300 43.07600
C  -10.79900 34.07500 42.55900
C  -10.64400 35.48300 42.31000
C  -12.79000 32.65100 43.37900
C  -9.58100 33.41200 42.10700
O  -9.33400 32.21200 42.12700
C  -8.72500 34.43900 41.41300
C  -7.46900 34.51000 42.26100
O  -7.17000 35.28200 43.19900
O  -6.75500 33.41200 41.90400
C  -5.75900 33.05100 42.90800
H  -9.00900 41.09100 40.28100
H  -14.76300 41.27700 43.10000
H  -14.50300 34.94600 43.99300
H  -6.98000 36.70500 40.28200
H  -8.12600 39.17200 38.79600
H  -6.19600 39.85300 39.24600
H  -5.70300 38.72600 40.41100
H  -6.67100 40.06600 41.04300
H  -8.55100 37.04200 37.84100
H  -9.05400 35.60900 38.74200
H  -7.47100 34.43700 37.71500
H  -6.54800 35.27200 38.90400
H  -10.77100 43.73300 39.85300
H  -9.31600 43.10300 40.42600
H  -10.19000 44.30100 41.40400
H  -15.49800 42.90300 41.80000
H  -15.26300 44.65200 42.11700
H  -15.08500 43.62600 43.43600
H  -16.59400 39.24500 43.70900
H  -15.60500 37.25500 45.48700
H  -16.85300 39.60900 45.95900
H  -15.62800 40.72900 45.60200
H  -15.12800 39.32800 46.39300
H  -17.69200 37.17100 44.17500
H  -16.91600 35.61200 44.03900
H  -16.64200 35.87300 41.77800
H  -16.28500 37.63600 41.83200
H  -17.94700 37.02100 42.00700
H  -12.24900 31.89300 43.94600
H  -13.13100 32.21200 42.44200
H  -13.68800 33.00400 43.88500
H  -8.42000 34.24400 40.38500
H  -4.91400 33.73700 42.85200
H  -5.30000 32.13000 42.54900
H  -6.11500 32.82400 43.91300

