158

Mg 2.05900 -1.16300 43.67400
C  5.52100 -0.33600 43.04500
C  1.19700 1.74700 42.13400
C  -1.04200 -2.37000 43.41600
C  3.24300 -4.20500 44.83300
N  3.23000 0.51400 42.77000
C  4.57600 0.64000 42.55800
C  5.02600 1.96300 41.91300
C  3.63700 2.71500 41.93800
C  2.57900 1.55800 42.25600
C  3.52100 3.93100 42.92100
C  5.66500 1.87400 40.46100
C  6.91100 2.68700 40.11900
H  6.93100 3.61000 38.94400
N  0.27900 -0.35100 43.02000
C  0.11300 0.86300 42.40500
C  -1.23200 1.01400 42.05100
C  -1.94000 -0.10200 42.49800
C  -0.92900 -1.06500 43.01600
C  -1.81800 2.17300 41.43600
C  -3.46200 -0.30000 42.44700
O  -4.20400 0.49700 41.91200
C  -4.18200 -1.45100 43.06700
N  1.26200 -3.08000 43.96800
C  -0.04600 -3.29700 43.93800
C  -0.42400 -4.74600 44.43200
C  0.98600 -5.26000 44.96300
C  1.91500 -4.17400 44.48100
C  -1.67200 -4.83500 45.32800
C  1.34300 -6.64400 44.23400
C  2.00900 -7.70400 45.21600
N  4.00300 -2.12100 43.97900
C  4.28700 -3.28300 44.57900
C  5.69400 -3.34100 44.82500
C  6.23100 -2.25500 44.21600
C  5.16600 -1.55300 43.71500
C  6.45300 -4.36500 45.64600
C  7.48700 -1.53900 43.96100
O  8.65200 -1.72200 44.30500
C  7.03800 -0.42700 43.02100
C  7.75200 0.85300 43.34800
O  8.45400 1.42700 42.53500
O  7.48100 1.35100 44.57100
C  7.93000 2.72900 44.82900
H  0.94900 2.75200 41.78700
H  -2.10900 -2.60400 43.40400
H  3.49800 -5.15200 45.31300
H  5.61000 2.42400 42.71000
H  3.22300 3.06100 40.99100
H  4.51200 4.19000 43.29400
H  2.81900 3.71200 43.72600
H  3.18100 4.79700 42.35500
H  4.94500 2.14700 39.69000
H  5.92400 0.82200 40.34600
H  7.69700 1.96700 39.89400
H  7.11300 3.32600 40.97900
H  -2.53000 1.88800 40.66200
H  -1.14600 2.84600 40.90400
H  -2.22100 2.73700 42.27600
H  -5.21900 -1.16700 43.24500
H  -3.79400 -1.71000 44.05200
H  -4.04700 -2.28100 42.37400
H  -0.56700 -5.21900 43.46000
H  1.08700 -5.24400 46.04800
H  -1.38100 -5.43400 46.19100
H  -2.56100 -5.26000 44.86400
H  -1.92200 -3.85000 45.72100
H  2.04100 -6.45100 43.41900
H  0.48700 -7.08000 43.72000
H  1.45800 -8.64400 45.17900
H  2.15400 -7.34300 46.23400
H  2.98400 -7.95900 44.80200
H  5.95100 -5.32200 45.50700
H  6.31100 -3.98900 46.65900
H  7.52500 -4.45700 45.47100
H  7.41600 -0.71900 42.04000
H  7.36400 3.37600 44.16000
H  8.98100 2.87800 44.58000
H  7.65600 3.08400 45.82300
Mg 34.49600 47.59300 24.69200
C  35.09500 46.21200 27.86700
C  32.87000 50.32700 26.09900
C  33.62900 48.58400 21.65600
C  36.22800 44.94100 23.25400
N  34.07400 48.29300 26.77500
C  34.36300 47.51000 27.86900
C  33.91200 48.27800 29.17000
C  33.18800 49.57100 28.55400
C  33.36700 49.42500 27.07100
C  31.70200 49.85700 29.06600
C  35.00500 48.38000 30.24500
C  34.76400 47.68500 31.58200
H  33.40000 47.57100 32.24500
N  33.47700 49.30500 23.99800
C  32.88300 50.29400 24.72500
C  32.29800 51.27500 23.79200
C  32.33300 50.69900 22.55100
C  33.14100 49.43400 22.69700
C  31.72200 52.69700 24.28500
C  31.83500 51.25500 21.23500
O  31.84200 50.66200 20.17300
C  31.09400 52.60900 21.21400
N  34.90500 46.86100 22.72700
C  34.50500 47.50900 21.66000
C  35.13000 46.90500 20.36800
C  36.08600 45.84600 20.96500
C  35.76600 45.89800 22.38600
C  34.19200 46.37400 19.22100
C  37.55200 45.96000 20.55900
C  38.45600 44.68600 20.62700
N  35.39500 45.97000 25.36500
C  36.03300 44.91200 24.63300
C  36.39400 43.85000 25.59500
C  36.05400 44.25900 26.89000
C  35.49100 45.58700 26.65900
C  37.09600 42.55100 25.21700
C  36.05700 43.88600 28.29500
O  36.48200 42.88200 28.87800
C  35.36500 45.11700 29.02900
C  34.06400 44.71700 29.77200
O  32.92500 44.59800 29.27200
O  34.32100 44.47400 31.12000
C  33.21000 43.77300 31.80300
H  32.50700 51.26300 26.52900
H  33.37100 48.94500 20.65900
H  36.76800 44.05900 22.90500
H  33.09800 47.68800 29.59100
H  33.67600 50.46000 28.95300
H  31.05100 49.91900 28.19400
H  31.65400 50.84400 29.52600
H  31.41000 49.06200 29.75300
H  35.06400 49.45200 30.42900
H  35.95800 48.03300 29.84500
H  35.27000 48.31500 32.31400
H  35.19400 46.68500 31.63500
H  32.23900 53.48900 23.74200
H  31.96400 52.79300 25.34300
H  30.66200 52.81100 24.05800
H  31.80200 53.33800 21.61100
H  30.15600 52.72800 21.75700
H  30.76300 52.84100 20.20200
H  35.74500 47.68500 19.91900
H  35.76000 44.82300 20.77600
H  33.18000 46.52400 19.59600
H  34.31300 45.30000 19.08100
H  34.27600 46.85000 18.24400
H  37.97600 46.66100 21.27700
H  37.58100 46.46200 19.59200
H  39.24900 44.83900 21.35900
H  38.87200 44.58000 19.62500
H  37.87000 43.82000 20.93300
H  37.94700 42.71400 24.55600
H  36.47200 41.81200 24.71300
H  37.54900 42.16100 26.12900
H  35.96300 45.44200 29.88000
H  33.68500 43.42600 32.72000
H  32.78500 42.95900 31.21600
H  32.39700 44.46600 32.02000

