158

Mg 39.93400 9.72500 30.05600
C  41.78000 10.84300 32.80200
C  37.99200 7.88000 32.25000
C  38.29800 8.59500 27.41900
C  42.44200 11.04400 28.03600
N  40.04900 9.28200 32.25200
C  40.75700 9.97800 33.21500
C  40.36700 9.52200 34.65900
C  39.35000 8.43500 34.35600
C  39.01700 8.54100 32.87700
C  39.84200 6.95900 34.70300
C  39.90600 10.75700 35.55200
C  40.37600 10.72500 36.98200
H  39.32500 11.16900 38.12100
N  38.27900 8.48000 29.89900
C  37.56000 7.90700 30.87600
C  36.43400 7.18400 30.25200
C  36.53300 7.44100 28.88100
C  37.71100 8.19200 28.69000
C  35.44100 6.29700 30.99400
C  35.52000 7.05600 27.76500
O  35.51700 7.69500 26.67600
C  34.38100 6.04700 28.10100
N  40.45200 9.62000 28.09800
C  39.48000 9.27700 27.14100
C  39.96400 9.59800 25.69200
C  41.26500 10.47400 26.02000
C  41.45300 10.26700 27.46400
C  40.23400 8.26600 24.85900
C  41.17900 11.95800 25.57900
C  39.96500 12.76300 26.16500
N  41.77500 10.73700 30.26800
C  42.69400 11.20200 29.34300
C  43.81900 11.83000 30.04800
C  43.41200 11.78100 31.44300
C  42.19200 11.08700 31.52800
C  45.06200 12.27200 29.42200
C  43.78900 12.15000 32.78100
O  44.69200 12.82600 33.14000
C  42.82500 11.51900 33.77400
C  43.55700 10.64100 34.81800
O  43.80300 9.48800 34.68200
O  43.58800 11.30300 35.95600
C  44.28300 10.71600 37.09100
H  37.35000 7.26900 32.88800
H  37.79700 8.46700 26.45700
H  43.19400 11.50600 27.39300
H  41.20200 9.06900 35.19400
H  38.37800 8.60300 34.82000
H  39.93900 6.29300 33.84600
H  39.00400 6.48500 35.21500
H  40.77500 6.78000 35.23800
H  38.82300 10.87300 35.59600
H  40.29000 11.64400 35.04700
H  41.11000 11.52700 37.05800
H  40.71400 9.73800 37.29700
H  35.58300 6.31000 32.07500
H  35.67700 5.30800 30.60200
H  34.43600 6.68600 30.83000
H  33.84100 5.84000 27.17700
H  33.71900 6.46900 28.85600
H  34.72700 5.06700 28.43000
H  39.23400 10.11600 25.07000
H  42.08300 9.93300 25.54500
H  40.03700 8.40300 23.79600
H  39.57600 7.47200 25.21100
H  41.24700 7.86500 24.88600
H  40.96500 11.81700 24.52000
H  42.06700 12.56400 25.76300
H  39.25900 12.16000 26.73500
H  39.49200 13.17000 25.27100
H  40.31500 13.55400 26.82900
H  44.80600 13.15900 28.84300
H  45.49200 11.51800 28.76300
H  45.65200 12.64300 30.26000
H  42.36900 12.34000 34.32700
H  43.53500 10.02300 37.47400
H  44.64300 11.44400 37.81800
H  45.09100 10.09200 36.70900
Mg 27.16100 50.48200 26.07600
C  25.07900 51.51400 28.68600
C  29.50600 49.71700 28.40600
C  29.28300 49.98300 23.47200
C  24.69200 51.47300 23.82900
N  27.14900 50.42200 28.34500
C  26.27500 51.00400 29.17500
C  26.64700 50.76300 30.66200
C  28.24300 50.39900 30.48600
C  28.33600 50.19500 29.01100
C  29.09700 51.59900 30.99800
C  25.80300 49.64800 31.34800
C  25.22600 50.05800 32.71600
H  25.47800 49.17900 33.95300
N  29.07600 49.86600 25.93900
C  29.89000 49.60300 27.04300
C  31.20900 49.15800 26.57400
C  31.22000 49.23100 25.14500
C  29.80900 49.73700 24.81000
C  32.38100 48.83300 27.50200
C  32.27700 48.81700 24.14800
O  32.14000 49.00200 22.92600
C  33.61500 48.25800 24.55100
N  27.06600 50.77900 23.88500
C  28.01800 50.40600 23.06100
C  27.50200 50.19600 21.60900
C  25.99500 50.55800 21.81100
C  25.92800 51.00100 23.23800
C  28.22600 50.99200 20.51400
C  24.88800 49.60300 21.27200
C  23.99800 50.15200 20.13200
N  25.37400 51.41400 26.16900
C  24.39300 51.72700 25.20400
C  23.20900 52.32700 25.76000
C  23.40300 52.19800 27.09800
C  24.72500 51.62300 27.30900
C  22.00300 52.87700 25.05000
C  22.78600 52.48700 28.43100
O  21.69300 52.86100 28.85000
C  23.86100 52.02600 29.48700
C  24.26800 53.21200 30.37600
O  25.15900 53.95300 30.11500
O  23.69200 53.13800 31.60900
C  23.88000 54.29600 32.54500
H  30.36600 49.49200 29.04000
H  29.98200 49.72800 22.67400
H  23.86600 51.62800 23.13100
H  26.34600 51.62400 31.26000
H  28.43000 49.50400 31.07900
H  29.92400 51.76000 30.30700
H  29.40900 51.35900 32.01500
H  28.45000 52.46900 30.88700
H  26.44000 48.78000 31.51700
H  24.97100 49.30700 30.73200
H  24.14700 50.02900 32.56300
H  25.45300 51.07800 33.02500
H  33.13100 48.11900 27.16000
H  31.99000 48.63800 28.50000
H  32.94100 49.76700 27.54000
H  34.23300 48.80700 25.26100
H  34.14400 48.06500 23.61800
H  33.51300 47.27900 25.02100
H  27.56700 49.12000 21.44500
H  25.84000 51.49400 21.27500
H  29.06800 51.57400 20.89000
H  27.51700 51.49300 19.85400
H  28.62200 50.17200 19.91500
H  24.14700 49.45400 22.05700
H  25.36700 48.69700 20.89900
H  24.26800 51.10900 19.68600
H  22.93100 50.25000 20.32900
H  24.06800 49.51500 19.25000
H  22.34500 52.98600 24.02100
H  21.85000 53.87800 25.45200
H  21.12400 52.24300 24.94000
H  23.59900 51.24600 30.20100
H  24.12700 55.22600 32.03200
H  24.63600 54.15200 33.31700
H  22.95900 54.50900 33.08700

