158

Mg 36.09200 2.01300 28.61500
C  33.97500 3.17500 31.34300
C  38.60300 2.16300 30.90100
C  38.05800 1.34300 26.09200
C  33.32900 2.16300 26.52900
N  36.14700 2.60200 30.80900
C  35.24700 2.91000 31.76800
C  35.74600 2.85400 33.24100
C  37.29700 3.05400 32.94800
C  37.39400 2.45000 31.47600
C  37.91000 4.47700 33.15200
C  35.26100 1.61100 34.08400
C  35.00900 1.92700 35.58700
H  35.68300 3.24700 36.14000
N  38.06500 1.63800 28.49000
C  38.93500 1.81000 29.55200
C  40.26700 1.49000 29.06400
C  40.18300 1.33600 27.64700
C  38.73700 1.39200 27.36000
C  41.45100 1.42300 29.96700
C  41.26200 1.01200 26.62900
O  40.90800 0.75200 25.47300
C  42.72200 0.92400 27.01400
N  35.73800 1.56900 26.64500
C  36.68300 1.36300 25.74000
C  36.16400 1.24900 24.31600
C  34.67100 1.27800 24.47300
C  34.50100 1.65600 25.97400
C  36.78200 2.35500 23.38200
C  33.85600 0.01800 24.24600
C  32.58500 0.21500 23.30400
N  34.10900 2.62700 28.83200
C  33.06600 2.56000 27.87500
C  31.88700 3.12800 28.45000
C  32.13500 3.29400 29.83500
C  33.50700 2.96400 30.03200
C  30.64500 3.39900 27.55800
C  31.62100 3.85500 31.07600
O  30.63300 4.51300 31.24900
C  32.69400 3.54500 32.13400
C  32.85700 4.81000 32.94300
O  33.65100 5.66700 32.81700
O  31.94100 4.73100 33.97700
C  31.95400 5.76500 34.94500
H  39.45500 2.20300 31.58300
H  38.64900 1.14900 25.19500
H  32.48300 2.47100 25.91100
H  35.35900 3.75800 33.70900
H  37.99100 2.45900 33.54200
H  37.13300 5.11100 33.57900
H  38.28400 4.87200 32.20700
H  38.72000 4.39700 33.87700
H  36.09900 0.93100 33.93000
H  34.43200 1.03800 33.66900
H  35.15300 1.07600 36.25300
H  33.93200 2.08500 35.52700
H  41.30400 1.29800 31.04000
H  42.06300 2.31700 29.85000
H  41.92500 0.52000 29.58100
H  42.92200 1.70000 27.75300
H  43.35900 1.05000 26.13900
H  42.89100 -0.06700 27.43400
H  36.44200 0.24400 23.99800
H  34.31500 2.12300 23.88300
H  37.54600 2.99200 23.82900
H  35.97100 2.97500 23.00100
H  37.35500 1.87200 22.59000
H  33.48000 -0.47500 25.14300
H  34.48900 -0.72100 23.75400
H  31.67500 0.09900 23.89300
H  32.50500 -0.50000 22.48600
H  32.60000 1.20800 22.85300
H  30.39800 2.42300 27.14100
H  30.97900 4.09600 26.78900
H  29.70900 3.66400 28.05000
H  32.29900 2.71400 32.71800
H  30.97000 6.03600 35.32800
H  32.64600 6.58500 34.74700
H  32.52400 5.22600 35.70100
Mg 36.22500 49.52700 25.16700
C  36.38200 47.69400 28.11400
C  35.19800 52.21400 26.87600
C  35.96800 51.12700 22.17900
C  37.78700 46.86700 23.55100
N  35.71900 49.77400 27.21500
C  35.97000 48.99200 28.32800
C  35.80200 49.69000 29.59100
C  35.43600 51.14900 29.18500
C  35.49900 51.08500 27.65300
C  34.05600 51.60600 29.79700
C  37.08300 49.55000 30.48100
C  36.84000 48.94200 31.86900
H  35.46700 49.01800 32.52600
N  35.58200 51.39800 24.60600
C  35.23100 52.42600 25.47500
C  34.75700 53.56700 24.73200
C  35.03600 53.26900 23.33700
C  35.57900 51.86900 23.33500
C  34.08500 54.81400 25.31800
C  34.79800 54.19200 22.10500
O  35.15500 53.78000 20.99900
C  34.13000 55.47300 22.26900
N  36.64200 48.99700 23.12400
C  36.53500 49.85700 22.06600
C  36.94400 49.22200 20.69800
C  37.82800 48.06200 21.29600
C  37.48500 47.97500 22.77200
C  35.72700 48.82600 19.87400
C  39.37400 48.09200 20.98700
C  40.41400 48.57500 22.02000
N  36.85200 47.66600 25.62000
C  37.48400 46.69800 24.87100
C  37.73100 45.53800 25.69500
C  37.24400 45.81400 26.94200
C  36.73300 47.17200 26.88600
C  38.39100 44.29800 25.26200
C  37.08900 45.28600 28.28500
O  37.34800 44.22500 28.79400
C  36.54800 46.53300 29.07800
C  35.27200 46.18100 29.79200
O  34.11600 46.34900 29.36900
O  35.50800 45.54700 30.94400
C  34.43900 45.13800 31.77100
H  35.06200 53.16300 27.40000
H  35.87100 51.58300 21.19100
H  38.49200 46.26800 22.96900
H  34.92500 49.25800 30.07200
H  36.13600 51.90500 29.54300
H  33.32200 51.49000 29.00000
H  34.00100 52.65200 30.10000
H  33.80200 50.94500 30.62500
H  37.59600 50.50800 30.55800
H  37.76400 48.91200 29.91800
H  37.54700 49.51600 32.46800
H  37.17000 47.90700 31.78500
H  33.05900 55.06500 25.04600
H  34.68700 55.69100 25.08300
H  34.16000 54.71400 26.40100
H  34.94200 56.18200 22.43000
H  33.41200 55.51700 23.08800
H  33.66800 55.75900 21.32400
H  37.64700 49.83100 20.12900
H  37.49400 47.09300 20.92400
H  34.85500 49.18000 20.42300
H  35.55000 47.76500 19.69700
H  35.88700 49.29300 18.90200
H  39.51200 48.68900 20.08500
H  39.53400 47.03200 20.78900
H  41.23100 49.17900 21.62400
H  40.85500 47.67200 22.44300
H  39.83200 49.13200 22.75400
H  39.11900 44.45700 24.46700
H  37.59700 43.59800 25.00300
H  38.86800 43.98100 26.18900
H  37.26000 46.87600 29.82900
H  34.08600 44.12800 31.56200
H  33.65600 45.89600 31.73200
H  34.78300 44.95500 32.78900

