158

Mg -2.50000 17.93600 26.78700
C  -2.64800 15.54000 29.52900
C  -2.52300 20.38900 29.13900
C  -2.56700 20.00000 24.27400
C  -2.90700 15.14600 24.59700
N  -2.45800 17.91300 29.13800
C  -2.49000 16.87500 30.00400
C  -2.36800 17.43100 31.45100
C  -2.28800 19.00000 31.18700
C  -2.51600 19.13700 29.73700
C  -3.32100 19.80800 32.12600
C  -1.15500 16.76100 32.24300
C  -0.17300 17.68400 33.02000
H  0.15400 17.13200 34.40200
N  -2.58600 19.93800 26.71300
C  -2.61700 20.80500 27.80700
C  -2.57900 22.16300 27.31000
C  -2.56700 22.08300 25.87600
C  -2.60900 20.63700 25.57300
C  -2.47200 23.36300 28.18000
C  -2.38600 23.16300 24.82100
O  -2.35200 22.91500 23.60400
C  -2.21900 24.54300 25.23900
N  -2.84900 17.60800 24.78700
C  -2.80300 18.65300 23.83600
C  -2.74700 18.11100 22.37400
C  -2.67000 16.54800 22.63500
C  -2.86000 16.42900 24.10000
C  -3.93600 18.48900 21.47500
C  -1.47200 15.86400 21.92300
C  -0.21300 15.67500 22.81000
N  -2.68800 15.84200 26.97000
C  -2.81400 14.89200 25.95300
C  -2.75900 13.62000 26.54400
C  -2.67300 13.76800 27.92300
C  -2.72000 15.19400 28.14000
C  -2.91400 12.28700 25.90100
C  -2.68900 13.04900 29.28400
O  -2.77600 11.86000 29.61400
C  -2.74200 14.20500 30.27400
C  -1.56000 13.81400 31.14200
O  -0.40800 13.74400 30.80500
O  -2.09000 13.35900 32.35200
C  -0.95500 12.96600 33.27700
H  -2.48800 21.21000 29.85800
H  -2.67200 20.73300 23.47200
H  -2.85200 14.24900 23.97700
H  -3.29600 17.02800 31.85600
H  -1.28900 19.41300 31.32400
H  -3.08200 19.49000 33.14000
H  -4.30900 19.56200 31.73600
H  -3.20700 20.88800 32.21900
H  -0.59900 16.39900 31.37800
H  -1.51000 15.95800 32.88900
H  -0.58900 18.68200 33.16000
H  0.78200 17.84600 32.52000
H  -1.70900 24.06000 27.83000
H  -2.40600 23.20600 29.25600
H  -3.43300 23.87300 28.10900
H  -3.12900 24.70900 25.81600
H  -2.09500 25.19400 24.37300
H  -1.26700 24.51100 25.77000
H  -1.89700 18.46800 21.79300
H  -3.60000 16.16200 22.21800
H  -4.74500 17.75900 21.50800
H  -3.59600 18.49400 20.44000
H  -4.25500 19.50800 21.69600
H  -1.04200 16.38400 21.06700
H  -1.72800 14.84200 21.64700
H  -0.32600 16.09700 23.80900
H  0.66000 16.12000 22.33300
H  0.19000 14.68200 23.00800
H  -2.51800 12.08600 24.90500
H  -3.96600 12.01000 25.82900
H  -2.39900 11.58900 26.56200
H  -3.60900 14.18300 30.93400
H  -1.35100 12.93500 34.29200
H  -0.10600 13.64700 33.22900
H  -0.65600 11.96700 32.96200
Mg 26.25800 0.25500 29.57500
C  28.30100 -0.01000 32.32600
C  23.60700 0.78000 31.67200
C  24.15400 -0.07000 26.95500
C  28.92100 -1.06400 27.65400
N  26.02400 0.47000 31.74000
C  26.96700 0.32400 32.70700
C  26.44200 0.48600 34.12000
C  24.89900 0.71300 33.85800
C  24.83500 0.64900 32.31300
C  23.87600 -0.11400 34.60900
C  26.98800 1.57200 35.06500
C  27.31600 1.19200 36.58500
H  27.10800 2.23500 37.62500
N  24.20800 0.48100 29.30500
C  23.31800 0.75800 30.30000
C  21.95600 0.73400 29.68600
C  22.09200 0.50800 28.26100
C  23.52800 0.26300 28.12500
C  20.74500 1.18700 30.43600
C  21.04500 0.60800 27.19300
O  21.31100 0.32100 26.05800
C  19.61700 1.01200 27.60300
N  26.47100 -0.60400 27.60700
C  25.47900 -0.43400 26.69700
C  25.99100 -0.82500 25.26200
C  27.50300 -1.11800 25.44900
C  27.64200 -0.94400 26.99400
C  25.19400 -2.09200 24.67600
C  28.39400 -0.08100 24.77300
C  28.99300 -0.53600 23.47200
N  28.25000 -0.41200 29.89800
C  29.20500 -0.88600 29.01500
C  30.49000 -1.02400 29.75700
C  30.16000 -0.68500 31.08000
C  28.80800 -0.37000 31.10000
C  31.79100 -1.52000 29.20700
C  30.67100 -0.51300 32.41900
O  31.77500 -0.64500 32.88600
C  29.46400 -0.08200 33.30200
C  29.37100 -1.25600 34.22600
O  28.82700 -2.29900 34.00400
O  30.03400 -0.93600 35.39400
C  30.02400 -1.97400 36.47300
H  22.79500 1.01800 32.36200
H  23.37800 -0.05600 26.18700
H  29.74900 -1.36300 27.00700
H  26.58200 -0.44100 34.67500
H  24.61800 1.72500 34.15100
H  23.92800 0.18300 35.65700
H  24.22500 -1.14400 34.52800
H  22.84800 0.00900 34.26900
H  26.33500 2.44300 35.02200
H  27.86400 2.08600 34.67000
H  28.39800 1.07100 36.61900
H  26.94000 0.21400 36.88600
H  20.48000 2.12700 29.95300
H  20.77500 1.45300 31.49300
H  19.90700 0.48900 30.42500
H  19.23100 0.11300 28.08400
H  18.98800 1.17200 26.72700
H  19.64400 1.94100 28.17100
H  25.81000 0.08800 24.69500
H  27.65200 -2.17400 25.22700
H  25.17500 -2.11100 23.58600
H  24.16400 -2.22600 25.00600
H  25.81800 -2.97500 24.81100
H  29.12700 0.38600 25.43000
H  27.76100 0.74600 24.45200
H  30.05500 -0.29400 23.50200
H  28.52500 0.08200 22.70500
H  28.93200 -1.55800 23.10100
H  31.89700 -2.59200 29.04500
H  32.52400 -1.15600 29.92700
H  31.99600 -0.98100 28.28100
H  29.71200 0.76100 33.94700
H  31.07400 -2.06100 36.74800
H  29.56800 -2.90400 36.13200
H  29.57700 -1.62700 37.40500

