158

Mg 10.03800 49.05900 25.79300
C  8.08000 48.85500 28.76900
C  12.77200 50.15700 27.54200
C  11.89000 48.88900 22.98600
C  7.06600 48.11200 24.05200
N  10.29900 49.37600 27.89200
C  9.42200 49.25900 28.95600
C  10.21200 49.43500 30.20500
C  11.41700 50.31600 29.79700
C  11.53700 49.87300 28.34900
C  11.20400 51.86600 29.87700
C  10.60800 48.00500 30.81500
C  10.38400 47.71100 32.26700
H  11.08400 48.58400 33.30700
N  12.14700 49.43200 25.28800
C  13.07200 49.87600 26.14800
C  14.41000 49.93100 25.55400
C  14.15500 49.53100 24.20200
C  12.65900 49.27300 24.08000
C  15.65900 50.35700 26.28400
C  15.06700 49.41200 23.00400
O  14.81000 49.06000 21.84200
C  16.55400 49.87200 23.29400
N  9.52500 48.76000 23.68300
C  10.53200 48.59200 22.78400
C  9.90700 47.89800 21.47400
C  8.36200 47.65900 21.81800
C  8.30700 48.21700 23.28300
C  10.20000 48.77700 20.17200
C  7.93300 46.15400 21.70600
C  8.72400 45.11300 22.48700
N  7.95600 48.68500 26.21700
C  6.89600 48.28000 25.45100
C  5.64300 48.13700 26.24700
C  6.09300 48.43400 27.49800
C  7.47300 48.68800 27.42000
C  4.29600 47.62000 25.79700
C  5.63600 48.59400 28.82900
O  4.54800 48.51600 29.33900
C  6.96100 48.64000 29.70900
C  6.94900 47.42700 30.54500
O  7.23400 46.29200 30.15100
O  6.57100 47.73900 31.84500
C  6.65100 46.50400 32.69700
H  13.52900 50.64800 28.15700
H  12.45000 48.85000 22.05000
H  6.13400 47.80300 23.57500
H  9.60500 50.01600 30.89800
H  12.37600 50.02100 30.22300
H  11.39300 52.25600 28.87700
H  11.87600 52.43000 30.52500
H  10.16100 51.94800 30.18300
H  11.65000 47.87200 30.52600
H  10.23800 47.15800 30.23700
H  10.70100 46.68200 32.43400
H  9.30800 47.79300 32.42200
H  15.59800 50.14300 27.35100
H  15.81300 51.43100 26.18500
H  16.51700 49.77100 25.95500
H  16.82100 49.06400 23.97500
H  16.65800 50.86000 23.74400
H  17.20700 49.67900 22.44300
H  10.40500 46.92900 21.43900
H  7.67400 48.25300 21.21600
H  11.06300 49.41000 20.37800
H  9.38800 49.47000 19.95000
H  10.41400 48.17000 19.29300
H  8.12800 45.91500 20.66100
H  6.87800 46.00700 21.93700
H  7.88600 44.65100 23.00900
H  9.33700 45.65200 23.20900
H  9.26000 44.33800 21.93900
H  3.77100 48.51600 25.46500
H  3.81700 47.22900 26.69500
H  4.37400 46.92800 24.95900
H  6.87700 49.45400 30.42900
H  5.81000 45.85400 32.45900
H  6.56000 46.78500 33.74600
H  7.56800 45.97400 32.43800
Mg -10.69800 16.95900 40.17400
C  -7.27700 16.85400 39.91300
C  -10.59800 20.32900 39.64700
C  -14.10600 16.87100 40.03200
C  -10.72100 13.34200 40.00100
N  -9.12300 18.35400 39.65100
C  -7.79000 18.06600 39.60500
C  -7.01600 19.28200 39.14000
C  -8.00300 20.45400 39.50300
C  -9.36700 19.71400 39.66200
C  -7.56900 21.21300 40.77800
C  -6.69000 19.26500 37.66800
C  -5.17900 19.33800 37.24000
H  -4.66500 17.92900 36.71000
N  -12.14400 18.43700 39.80900
C  -11.92900 19.77400 39.53400
C  -13.21700 20.46300 39.39200
C  -14.24700 19.54000 39.63500
C  -13.49300 18.18600 39.77500
C  -13.18700 21.92100 39.13400
C  -15.81400 19.78200 39.78000
O  -16.22900 20.94800 39.76800
C  -16.78700 18.62200 39.76600
N  -12.21800 15.32700 40.02200
C  -13.53100 15.57700 40.13500
C  -14.38800 14.32600 40.18200
C  -13.38000 13.23300 39.87100
C  -12.01400 13.95200 39.94900
C  -15.17900 14.12900 41.44400
C  -13.43600 12.53500 38.38600
C  -13.26700 11.04700 38.41700
N  -9.35300 15.38900 40.12900
C  -9.42800 14.02200 40.10400
C  -8.10200 13.43500 40.22600
C  -7.19700 14.54000 40.20800
C  -8.04600 15.70500 40.09000
C  -7.68400 11.98600 40.01800
C  -5.81800 14.94800 40.18900
O  -4.81100 14.29900 40.38200
C  -5.76300 16.49200 40.04600
C  -5.21300 17.21200 41.23700
O  -5.72900 17.17900 42.32100
O  -4.09400 17.88600 40.88600
C  -3.32000 18.66500 41.92200
H  -10.51400 21.39200 39.41200
H  -15.18500 16.94700 40.18400
H  -10.72200 12.25000 39.99200
H  -6.10600 19.19600 39.73400
H  -8.20200 21.14100 38.68100
H  -7.09000 20.62600 41.56200
H  -8.46400 21.64800 41.22100
H  -6.98100 22.04900 40.39900
H  -7.11500 20.15500 37.20500
H  -7.07500 18.30900 37.31300
H  -4.46500 19.63800 38.00800
H  -4.99100 20.11200 36.49600
H  -14.13000 22.41200 39.36900
H  -12.88700 22.02600 38.09100
H  -12.54200 22.54400 39.75400
H  -16.44100 17.99800 38.94200
H  -17.74600 19.05100 39.47500
H  -17.02500 18.23400 40.75600
H  -15.07000 14.38600 39.33400
H  -13.27400 12.47100 40.64300
H  -16.24500 14.03400 41.23700
H  -15.26000 15.06800 41.99200
H  -14.79900 13.22400 41.91800
H  -12.70100 12.94900 37.69700
H  -14.41600 12.81900 38.00200
H  -14.05800 10.50800 37.89500
H  -12.96900 10.80600 39.43700
H  -12.38300 10.81100 37.82400
H  -7.82900 11.52800 40.99600
H  -6.69100 12.00500 39.56900
H  -8.42300 11.52600 39.36200
H  -5.13000 16.83500 39.22800
H  -3.57500 19.71900 41.81000
H  -2.27900 18.49800 41.64700
H  -3.54900 18.29000 42.91900

