158

Mg 47.49700 17.34500 29.01800
C  45.56300 16.73700 31.82600
C  50.09500 18.42600 31.13200
C  49.56700 17.64800 26.33100
C  45.07600 15.82000 27.02900
N  47.65400 17.78600 31.15500
C  46.78100 17.37100 32.13900
C  47.38800 17.56200 33.55700
C  48.68100 18.35000 33.38200
C  48.85800 18.18500 31.80600
C  48.78200 19.81300 33.89000
C  47.44500 16.19800 34.38500
C  47.19900 16.25600 35.93100
H  47.11000 17.66900 36.63000
N  49.54800 17.94700 28.76900
C  50.43200 18.39100 29.72600
C  51.67900 18.84900 29.16900
C  51.63200 18.53400 27.77300
C  50.18900 18.01100 27.50100
C  52.83100 19.47600 29.97800
C  52.68300 18.67000 26.66100
O  52.40500 18.46000 25.50700
C  54.15400 19.07200 27.01900
N  47.30700 16.83100 26.98300
C  48.28700 17.17200 26.03500
C  47.90500 16.66200 24.63200
C  46.51900 15.86500 24.94300
C  46.23800 16.19700 26.37400
C  47.75100 17.72200 23.56600
C  46.65700 14.32200 24.76100
C  46.22400 13.84600 23.38900
N  45.63900 16.56400 29.21000
C  44.71600 16.04900 28.34900
C  43.49900 15.66100 29.00600
C  43.83800 15.92500 30.36500
C  45.13700 16.52300 30.44200
C  42.18600 15.09500 28.42500
C  43.27400 15.85900 31.76500
O  42.12500 15.38700 32.00700
C  44.35200 16.29300 32.71300
C  43.91200 17.42600 33.48500
O  43.91900 18.55900 33.05300
O  43.51300 17.14200 34.71700
C  43.16100 18.14300 35.75300
H  50.92700 18.63500 31.80600
H  50.25000 17.56300 25.48300
H  44.33400 15.24200 26.47400
H  46.79700 18.24400 34.16800
H  49.47200 17.83200 33.92500
H  49.08500 20.41500 33.03400
H  49.55100 19.88700 34.65900
H  47.85800 20.16700 34.34800
H  48.45700 15.82200 34.23500
H  46.83700 15.47700 33.83800
H  47.93800 15.60900 36.40300
H  46.24800 15.75300 36.11200
H  53.58000 18.73500 30.25600
H  52.43900 19.91400 30.89600
H  53.30800 20.25000 29.37600
H  54.12100 20.14100 27.23100
H  54.69500 18.76600 26.12400
H  54.51900 18.37400 27.77300
H  48.65900 15.93100 24.34200
H  45.71800 16.30300 24.34900
H  48.44900 17.52700 22.75200
H  47.96400 18.68700 24.02500
H  46.77800 17.68900 23.07600
H  46.14300 13.74600 25.53000
H  47.71200 14.06100 24.85500
H  46.91500 13.14400 22.92200
H  46.04800 14.69500 22.72900
H  45.22700 13.41100 23.44300
H  42.25100 14.06000 28.76000
H  42.15500 15.25700 27.34800
H  41.37900 15.67700 28.87200
H  44.60100 15.45300 33.36100
H  42.20500 18.66100 35.67000
H  43.91800 18.92600 35.79200
H  43.13200 17.63300 36.71600
Mg 48.16700 25.58400 28.47300
C  49.03300 27.53000 31.28700
C  47.38500 23.05400 30.62400
C  47.66200 23.58600 25.83600
C  49.76900 27.89500 26.53100
N  47.96200 25.36100 30.65900
C  48.42000 26.30000 31.60400
C  48.09400 25.84300 33.02300
C  47.85800 24.31000 32.90300
C  47.70000 24.19600 31.30500
C  48.95200 23.43800 33.69200
C  46.93700 26.65900 33.65700
C  47.11400 27.15000 35.09400
H  45.81900 27.32600 35.95400
N  47.24000 23.72900 28.26900
C  47.06200 22.83700 29.27200
C  46.52600 21.62400 28.67300
C  46.54800 21.73900 27.20500
C  47.14400 23.07000 27.05600
C  46.09500 20.49000 29.48000
C  46.11400 20.86500 26.10100
O  46.26400 21.18600 24.91100
C  45.31400 19.57300 26.45600
N  48.71700 25.77200 26.47100
C  48.28700 24.83500 25.51900
C  48.76300 25.25000 24.12900
C  49.34800 26.69200 24.36100
C  49.27400 26.80100 25.86600
C  49.77400 24.30700 23.50700
C  48.47500 27.80100 23.60400
C  49.24200 28.92400 22.84200
N  49.17600 27.35300 28.75900
C  49.76600 28.23300 27.85900
C  50.41000 29.44000 28.55900
C  50.04300 29.18800 29.90000
C  49.36000 27.93600 29.97000
C  50.95900 30.62400 27.87800
C  50.17600 29.70700 31.19700
O  50.85700 30.67300 31.58500
C  49.57200 28.60500 32.17800
C  50.57400 28.28800 33.26300
O  51.18000 27.23700 33.22700
O  50.65300 29.25800 34.22800
C  51.37700 28.99100 35.47100
H  47.32100 22.19900 31.30000
H  47.75700 22.83800 25.04700
H  50.31100 28.55800 25.85400
H  48.95400 26.15000 33.61800
H  46.91500 23.94400 33.31000
H  49.65000 22.88800 33.06100
H  48.36600 22.78000 34.33300
H  49.64900 24.05700 34.25700
H  46.08300 25.98300 33.69900
H  46.64800 27.53900 33.08200
H  47.74600 28.02800 35.22700
H  47.85500 26.47400 35.51900
H  46.54400 20.49900 30.47300
H  46.48900 19.57000 29.04800
H  45.00800 20.43700 29.52700
H  45.92800 18.89100 27.04400
H  45.00000 18.95300 25.61600
H  44.38000 19.84200 26.94800
H  47.86600 25.35100 23.52000
H  50.40400 26.69600 24.09000
H  49.23300 24.00700 22.61000
H  50.03500 23.46800 24.15200
H  50.67500 24.82400 23.17600
H  47.87800 28.30100 24.36700
H  47.75900 27.45000 22.86000
H  50.12000 28.61200 22.27600
H  49.49600 29.72700 23.53500
H  48.51600 29.30600 22.12500
H  50.85900 30.62600 26.79200
H  51.99700 30.56700 28.20600
H  50.40700 31.48700 28.25000
H  48.73300 29.10200 32.66600
H  52.07800 29.76700 35.77600
H  52.06400 28.14600 35.52000
H  50.61700 28.88100 36.24400

