158

Mg 46.07500 24.32600 27.61200
C  46.92600 26.35900 30.43400
C  45.41000 21.81100 29.87400
C  45.98500 22.30500 25.07200
C  47.32600 27.00000 25.49600
N  46.03400 24.18500 29.95900
C  46.30700 25.09900 30.86600
C  45.89000 24.68300 32.26900
C  45.47900 23.17700 32.04400
C  45.74200 22.97000 30.53200
C  46.11500 22.10400 32.97500
C  44.67400 25.51000 32.96800
C  44.88800 26.02200 34.39900
H  43.68200 26.27200 35.30200
N  45.63300 22.42300 27.47700
C  45.40300 21.57600 28.49200
C  45.06300 20.27800 27.90000
C  45.28500 20.31000 26.48100
C  45.61700 21.70800 26.30600
C  44.42100 19.17800 28.78200
C  45.14200 19.31200 25.35600
O  45.21700 19.63300 24.16400
C  44.82500 17.84400 25.66500
N  46.59900 24.63500 25.61200
C  46.33800 23.63500 24.72400
C  46.73600 24.09900 23.27400
C  46.91500 25.56800 23.42400
C  46.96000 25.74500 24.90700
C  47.97200 23.34400 22.55300
C  45.76200 26.36400 22.76500
C  44.40100 26.63300 23.49400
N  46.91400 26.28500 27.78200
C  47.37100 27.26500 26.86300
C  47.93000 28.44400 27.57100
C  47.70400 28.10000 28.87000
C  47.14700 26.81300 29.03400
C  48.59200 29.62300 26.90600
C  47.81700 28.60400 30.23300
O  48.29900 29.63200 30.62400
C  47.29700 27.45500 31.27100
C  48.35500 27.05800 32.17600
O  49.38600 26.48700 31.86000
O  48.02000 27.45200 33.44900
C  48.89300 26.85700 34.42400
H  45.20300 20.94400 30.50500
H  45.98200 21.64100 24.20500
H  47.59300 27.63600 24.65000
H  46.77000 24.70200 32.91200
H  44.39700 23.04400 32.04200
H  45.33800 21.44900 33.37000
H  46.65200 22.65300 33.74800
H  46.90700 21.59000 32.43000
H  43.93900 24.70900 33.04600
H  44.39600 26.22500 32.19500
H  45.33900 27.00300 34.25300
H  45.54300 25.36000 34.96600
H  43.63200 18.76300 28.15400
H  44.07200 19.42400 29.78400
H  45.15800 18.38800 28.93100
H  43.77200 17.69400 25.90300
H  45.57100 17.43900 26.34800
H  44.89800 17.29200 24.72800
H  45.83400 23.89500 22.69700
H  47.86500 25.96500 23.06800
H  47.72300 22.87900 21.59900
H  48.29400 22.59800 23.28000
H  48.85100 23.98700 22.50600
H  45.58900 25.96400 21.76600
H  46.12800 27.38400 22.64400
H  44.51800 26.37900 24.54800
H  43.49200 26.14000 23.15100
H  44.19500 27.69100 23.32700
H  49.08200 30.30800 27.59700
H  47.86300 30.25200 26.39600
H  49.32200 29.34500 26.14500
H  46.40400 27.71400 31.84000
H  48.36700 26.97500 35.37100
H  49.88200 27.31500 34.46700
H  49.10400 25.80800 34.21600
Mg 6.90700 56.82500 42.36200
C  5.97400 53.63900 42.02500
C  10.14800 55.95700 41.29900
C  7.68000 60.26100 41.79400
C  3.73700 57.74300 43.25400
N  7.90300 55.06400 41.73300
C  7.29800 53.86300 41.63100
C  8.21200 52.83900 41.05900
C  9.63200 53.43100 41.39900
C  9.24100 54.88200 41.62500
C  10.42000 52.80300 42.56300
C  7.94500 52.65700 39.51000
C  8.28200 51.25300 38.89800
H  7.54800 51.00700 37.51700
N  8.64400 57.94200 41.60900
C  9.83500 57.36700 41.28200
C  10.79700 58.40200 40.82900
C  10.14900 59.68900 41.10500
C  8.77100 59.34500 41.56700
C  12.19800 58.03700 40.33900
C  10.82100 60.98300 41.05400
O  12.02600 60.91500 40.73200
C  10.18700 62.31000 41.50500
N  5.84700 58.71400 42.53000
C  6.41800 59.96600 42.30500
C  5.32000 61.07300 42.39500
C  4.07900 60.27700 42.91500
C  4.59600 58.85100 42.97100
C  5.84100 62.18400 43.34500
C  2.78300 60.48300 42.12800
C  1.61100 60.52400 43.14000
N  5.21500 55.91800 42.68600
C  3.98400 56.35300 43.12400
C  3.14200 55.18900 43.32200
C  3.86900 54.06600 42.92500
C  5.11700 54.61800 42.54200
C  1.75300 55.24600 43.85100
C  3.85100 52.68200 42.72000
O  3.04800 51.82800 43.06800
C  5.28500 52.32800 42.21600
C  5.12300 51.44300 41.01100
O  4.70800 51.69300 39.94000
O  5.46400 50.17300 41.42100
C  5.04500 49.11700 40.52000
H  11.14300 55.55600 41.09500
H  7.90900 61.32800 41.77400
H  2.73600 58.09400 43.51600
H  8.10100 51.88600 41.57700
H  10.31300 53.37600 40.55000
H  10.89700 53.43700 43.31000
H  11.03200 52.02000 42.11600
H  9.70800 52.27800 43.20000
H  8.71600 53.13600 38.90600
H  6.97400 53.00400 39.15800
H  7.91200 50.42500 39.50200
H  9.32400 51.10700 38.61100
H  12.61000 58.73500 39.60900
H  12.09700 57.12400 39.75300
H  12.79700 57.83500 41.22600
H  9.86500 62.25200 42.54400
H  9.34600 62.51700 40.84400
H  10.90300 63.11700 41.34700
H  5.09400 61.46300 41.40300
H  3.95200 60.63000 43.93900
H  6.46800 62.92100 42.84300
H  6.37500 61.69700 44.16100
H  5.01600 62.64000 43.89200
H  2.63000 59.58200 41.53300
H  2.88400 61.34300 41.46700
H  0.88400 59.89600 42.62600
H  1.22500 61.54300 43.16700
H  1.81800 60.17300 44.15100
H  1.18500 55.53600 42.96700
H  1.60900 55.89600 44.71300
H  1.37400 54.26400 44.13300
H  5.86100 51.66300 42.86000
H  5.80700 49.11800 39.74100
H  4.06400 49.22100 40.05700
H  5.11400 48.18500 41.08200

