158

Mg 25.44900 -7.52700 48.30200
C  27.78100 -5.11800 47.09200
C  23.31500 -6.52100 45.83600
C  23.58500 -10.24200 48.85700
C  27.99600 -8.74400 50.44800
N  25.71700 -6.05600 46.62500
C  26.64100 -5.12000 46.30700
C  26.27100 -4.14500 45.20400
C  24.72100 -4.53200 45.12800
C  24.58600 -5.82400 45.87600
C  23.67000 -3.48400 45.60700
C  27.05000 -4.46000 43.90500
C  27.70100 -3.27900 43.17400
H  27.53800 -3.01600 41.68900
N  23.57100 -8.28100 47.44100
C  22.86500 -7.67500 46.51800
C  21.55600 -8.29800 46.39600
C  21.54600 -9.30000 47.46200
C  22.96600 -9.41500 47.91800
C  20.46300 -7.89200 45.43400
C  20.39500 -10.17400 47.83400
O  19.30000 -10.07500 47.31800
C  20.47500 -11.24900 48.94400
N  25.80300 -9.32900 49.44900
C  24.78500 -10.18500 49.63200
C  25.12000 -11.35600 50.62400
C  26.52200 -10.88100 51.09400
C  26.80700 -9.56600 50.32500
C  24.00900 -11.69900 51.62000
C  27.65200 -11.97400 50.87500
C  28.65000 -12.07000 52.04800
N  27.38700 -7.07800 48.83100
C  28.27300 -7.56900 49.69600
C  29.49500 -6.83200 49.71700
C  29.27500 -5.82900 48.74600
C  28.03100 -6.01700 48.18200
C  30.60700 -7.13200 50.60900
C  29.95100 -4.70100 48.05900
O  31.06100 -4.24200 48.24900
C  28.92300 -4.19900 47.01400
C  28.55600 -2.84000 47.42200
O  28.10700 -2.61200 48.53500
O  28.82700 -1.86500 46.44400
C  28.22100 -0.61800 46.86100
H  22.55500 -6.32100 45.07800
H  22.89400 -11.00400 49.22400
H  28.65900 -9.12400 51.22800
H  26.44800 -3.15800 45.63100
H  24.51000 -4.82500 44.09900
H  24.13600 -2.69900 46.20100
H  22.86300 -3.89700 46.21300
H  23.11700 -3.13300 44.73600
H  26.44000 -5.02100 43.19700
H  27.78400 -5.24500 44.08800
H  28.78300 -3.35100 43.28100
H  27.40900 -2.36100 43.68500
H  19.42900 -7.83200 45.77300
H  20.36400 -8.55900 44.57800
H  20.62400 -6.95400 44.90300
H  21.18900 -11.95600 48.52100
H  19.50900 -11.73400 49.08300
H  20.79500 -10.74300 49.85500
H  25.28300 -12.21700 49.97600
H  26.52400 -10.59000 52.14400
H  23.67000 -12.72800 51.50000
H  23.20600 -10.96700 51.70600
H  24.44700 -11.67400 52.61800
H  28.20000 -11.76800 49.95600
H  27.18700 -12.95300 50.75800
H  28.39800 -12.97000 52.60900
H  28.56100 -11.18600 52.67900
H  29.69400 -12.04900 51.73500
H  30.10900 -6.88400 51.54600
H  31.57900 -6.65600 50.47800
H  30.74800 -8.21200 50.64300
H  29.37600 -4.09900 46.02800
H  29.00500 0.08200 47.15000
H  27.44600 -0.64400 47.62800
H  27.73800 -0.37800 45.91400
Mg 6.97500 56.80900 41.76800
C  5.62400 53.59700 41.04500
C  9.93200 55.79500 40.85900
C  7.83100 60.18600 41.62700
C  3.68100 57.87600 42.39700
N  7.60100 54.91500 40.91300
C  6.95000 53.67700 40.71800
C  8.00000 52.58200 40.32600
C  9.39300 53.31100 40.57900
C  8.93400 54.75300 40.96000
C  10.17300 52.57800 41.69000
C  7.64600 52.21500 38.82800
C  7.61800 50.73300 38.41000
H  7.41500 50.35000 36.84900
N  8.57800 57.87600 41.22300
C  9.74700 57.25900 40.88000
C  10.76900 58.21700 40.62200
C  10.18400 59.51000 40.72200
C  8.76600 59.24700 41.18200
C  12.16700 57.83600 40.26100
C  10.81700 60.81900 40.45400
O  12.00300 60.96700 40.14300
C  10.16400 62.13800 40.57700
N  5.81700 58.82300 41.91400
C  6.50200 60.02100 41.96200
C  5.51700 61.20300 42.29300
C  4.18800 60.36000 42.54800
C  4.54300 58.93800 42.25000
C  6.04600 62.04700 43.46800
C  2.88100 60.86300 41.81600
C  1.70300 61.47200 42.61300
N  5.04200 56.00300 41.76200
C  3.83700 56.50200 42.19000
C  2.84300 55.53200 42.30500
C  3.56500 54.32100 41.92100
C  4.85200 54.66400 41.55400
C  1.42100 55.58300 42.84100
C  3.47300 52.88300 41.79700
O  2.63700 52.09600 42.16800
C  4.69000 52.37700 41.23000
C  4.33300 51.74500 39.90300
O  4.14000 52.32200 38.84100
O  4.22300 50.41200 40.02300
C  3.64400 49.62600 38.88800
H  10.93500 55.54300 40.50700
H  8.24500 61.19400 41.69700
H  2.66000 58.22400 42.56700
H  7.69100 51.79200 41.01000
H  10.08900 53.22700 39.74400
H  11.17100 53.01100 41.75100
H  10.17800 51.50000 41.53200
H  9.60300 52.91100 42.55700
H  8.33500 52.62100 38.08700
H  6.72100 52.69600 38.51000
H  6.86900 50.29500 39.06900
H  8.58000 50.32200 38.71700
H  12.43700 58.35100 39.33900
H  12.42200 56.79800 40.04600
H  12.85700 58.16400 41.03800
H  10.39800 62.47000 41.58800
H  9.11400 62.22400 40.29900
H  10.62200 62.85700 39.89800
H  5.49000 61.70200 41.32400
H  4.00100 60.31100 43.62000
H  5.36600 61.97300 44.31700
H  6.10800 63.08800 43.15100
H  7.07100 61.81200 43.75400
H  2.38200 60.09900 41.22000
H  3.25800 61.62300 41.13100
H  1.98600 61.23900 43.64000
H  0.79800 60.95700 42.29200
H  1.59800 62.49600 42.25400
H  0.75100 55.22000 42.06100
H  1.12500 56.61300 43.03600
H  1.33400 55.05400 43.79000
H  5.23800 51.64200 41.82000
H  3.29300 48.77700 39.47400
H  4.38300 49.45000 38.10700
H  2.85900 50.21900 38.41800

