158

Mg 0.94900 -1.93300 44.32100
C  4.29100 -0.96700 43.91400
C  0.01800 0.89400 42.52400
C  -2.23300 -3.16200 44.15100
C  2.11600 -5.08400 45.42900
N  2.02200 -0.18800 43.31900
C  3.43500 -0.00800 43.37100
C  3.89500 1.25500 42.54500
C  2.45700 1.95600 42.39600
C  1.42000 0.82600 42.66800
C  2.19200 3.25700 43.23300
C  4.66000 0.82300 41.28300
C  6.09700 1.44700 41.02100
H  6.77600 1.45000 39.55500
N  -0.94900 -1.17900 43.52200
C  -1.04800 0.03100 42.92500
C  -2.43100 0.26800 42.72800
C  -3.14900 -0.94400 43.12100
C  -2.11900 -1.87500 43.54600
C  -3.05000 1.51900 42.11700
C  -4.62700 -1.06500 42.97700
O  -5.30100 -0.10900 42.66600
C  -5.30900 -2.31500 43.39400
N  0.19200 -3.92200 44.55700
C  -1.20400 -4.07900 44.61600
C  -1.57000 -5.37100 45.36200
C  -0.21900 -5.92900 45.71600
C  0.74600 -4.91600 45.17600
C  -2.46600 -5.19900 46.58700
C  -0.07800 -7.43100 45.23900
C  -0.88600 -8.59200 45.86400
N  2.83000 -2.85600 44.71700
C  3.12800 -4.12400 45.15100
C  4.52100 -4.31500 45.17000
C  5.08500 -2.99900 44.88000
C  3.97600 -2.21300 44.50400
C  5.17800 -5.61900 45.33000
C  6.28300 -2.28300 44.66100
O  7.46000 -2.52200 44.79300
C  5.81100 -0.86300 44.01700
C  6.17200 0.29200 44.86500
O  5.76000 0.56700 45.95000
O  7.07100 1.06700 44.12300
C  7.31700 2.43900 44.73300
H  -0.24500 1.79900 41.97300
H  -3.23200 -3.57800 44.29600
H  2.41000 -6.11200 45.65000
H  4.47300 1.83200 43.26700
H  2.40900 2.37800 41.39200
H  1.27400 3.03000 43.77600
H  2.14000 4.10500 42.55000
H  3.05900 3.46500 43.86000
H  4.07300 1.29400 40.49500
H  4.73000 -0.25700 41.15300
H  6.71200 0.81400 41.66000
H  6.08900 2.47400 41.38600
H  -3.64900 1.42500 41.21100
H  -2.31400 2.20300 41.69400
H  -3.59800 2.10700 42.85400
H  -5.02400 -3.17100 42.78200
H  -6.39000 -2.17900 43.36900
H  -5.06000 -2.54900 44.42900
H  -1.98500 -6.02000 44.59100
H  -0.13700 -6.00400 46.80000
H  -3.43900 -5.59500 46.29700
H  -2.38300 -4.16100 46.90800
H  -2.22200 -5.87700 47.40500
H  0.95200 -7.78600 45.27300
H  -0.39800 -7.53300 44.20100
H  -0.19500 -9.17900 46.46900
H  -1.36500 -9.26100 45.14900
H  -1.65500 -8.20400 46.53100
H  4.54200 -6.42600 44.96700
H  5.50400 -5.89200 46.33400
H  6.14800 -5.47900 44.85400
H  6.28300 -0.80800 43.03600
H  7.76900 2.48300 45.72400
H  6.38900 3.00700 44.66400
H  7.97900 3.00300 44.07600
Mg -0.64400 7.46500 26.88100
C  0.22200 9.71100 29.55000
C  -0.06100 4.90300 29.10300
C  -1.02200 5.29200 24.36800
C  -0.83300 10.16000 24.64100
N  -0.17500 7.42600 29.11700
C  0.15300 8.38800 30.02100
C  0.30500 7.88300 31.39900
C  0.58300 6.38700 31.15700
C  0.03400 6.15000 29.73200
C  1.96800 5.79100 31.33700
C  -0.98800 8.32500 32.19800
C  -0.74600 8.64000 33.67600
H  0.04600 7.56300 34.49600
N  -0.59400 5.31000 26.81700
C  -0.29200 4.47200 27.79000
C  -0.28900 3.12000 27.32800
C  -0.67500 3.21100 25.97500
C  -0.81100 4.64000 25.64000
C  0.01300 1.88000 28.23600
C  -0.84800 2.05600 24.95800
O  -1.06600 2.22500 23.73300
C  -0.89500 0.60700 25.47700
N  -0.69000 7.67200 24.86200
C  -1.02900 6.64900 24.10700
C  -1.28500 7.07200 22.64900
C  -1.59300 8.56700 22.83500
C  -0.98200 8.84900 24.16600
C  0.02700 6.77000 21.81200
C  -3.12300 8.79100 22.71700
C  -3.66600 9.87300 21.77600
N  -0.26200 9.56200 27.01800
C  -0.32800 10.48300 25.97800
C  0.03900 11.75700 26.54200
C  0.32400 11.50300 27.89700
C  0.07600 10.16000 28.19300
C  -0.03600 12.96700 25.77900
C  0.71900 12.07900 29.11400
O  1.01100 13.27200 29.38100
C  0.65100 10.96900 30.20600
C  1.85800 10.96700 31.10000
O  2.68300 10.13700 31.22100
O  1.85600 12.06500 31.97900
C  2.73700 11.99500 33.17700
H  0.17200 4.11900 29.82600
H  -1.16300 4.64200 23.50200
H  -1.05300 10.87100 23.84200
H  1.14000 8.43000 31.83600
H  -0.05100 5.73900 31.76200
H  1.91600 4.93300 32.00800
H  2.63000 6.55800 31.73900
H  2.34800 5.46300 30.37000
H  -1.79500 7.59700 32.11300
H  -1.29100 9.30900 31.84300
H  -1.72500 8.73500 34.14700
H  -0.25500 9.60500 33.80200
H  -0.66700 1.02800 28.24400
H  0.00500 2.09800 29.30400
H  1.02200 1.57500 27.95800
H  0.04500 0.06400 25.57200
H  -1.49200 -0.00400 24.80000
H  -1.42200 0.53800 26.42900
H  -2.15900 6.56600 22.23900
H  -1.10600 9.18100 22.07800
H  0.42000 7.72600 21.46700
H  -0.15800 6.34100 20.82600
H  0.75300 6.17600 22.36600
H  -3.46700 9.01700 23.72600
H  -3.66300 7.89600 22.40800
H  -4.27500 9.34300 21.04400
H  -2.80100 10.47400 21.49500
H  -4.29700 10.54200 22.36100
H  0.19000 13.79500 26.45000
H  -1.03000 13.15400 25.37300
H  0.67200 12.87700 24.95600
H  -0.14100 11.27000 30.89100
H  3.79100 12.03000 32.89900
H  2.64100 11.04700 33.70600
H  2.47500 12.80700 33.85400

