158

Mg -1.41600 16.73000 26.12400
C  -1.85400 14.64000 28.84600
C  -2.43600 19.31400 27.96400
C  -1.63800 18.57400 23.33700
C  -1.46400 13.80900 23.99500
N  -2.14000 16.89000 28.11300
C  -2.15100 15.96700 29.11300
C  -2.48600 16.55300 30.50000
C  -3.01100 17.98400 30.09100
C  -2.62300 18.10600 28.59500
C  -4.50700 18.17300 30.35600
C  -1.27400 16.45500 31.52700
C  -1.12600 17.41700 32.66000
H  -0.65500 16.71400 33.92300
N  -1.59000 18.73700 25.70600
C  -1.98100 19.67400 26.65600
C  -1.83200 21.00300 26.02800
C  -1.54400 20.78000 24.62500
C  -1.58300 19.30600 24.51100
C  -1.92600 22.37600 26.84600
C  -1.30500 21.77300 23.50300
O  -1.06700 21.37200 22.34300
C  -1.22200 23.28600 23.70700
N  -1.61500 16.27500 24.05800
C  -1.52500 17.26200 23.09400
C  -1.51500 16.67900 21.67400
C  -1.28600 15.16700 21.92300
C  -1.50000 15.02300 23.42100
C  -2.92700 16.95500 20.90200
C  0.20700 14.64000 21.57800
C  1.37000 15.50300 22.17600
N  -1.53200 14.63900 26.33400
C  -1.55500 13.60500 25.39700
C  -1.47500 12.40700 26.06100
C  -1.52400 12.72700 27.43400
C  -1.64000 14.11000 27.55900
C  -1.48400 11.05400 25.55400
C  -1.69000 12.19500 28.78300
O  -1.74800 11.07100 29.17800
C  -1.74600 13.42400 29.80900
C  -0.56700 13.47300 30.71500
O  0.46100 14.00500 30.42400
O  -0.90700 12.87100 31.93700
C  0.04600 12.91000 33.04500
H  -2.70000 20.17200 28.58600
H  -1.64800 19.03300 22.34600
H  -1.24200 12.87300 23.47900
H  -3.27900 15.90500 30.87300
H  -2.35000 18.73200 30.52800
H  -4.98400 17.19400 30.40700
H  -4.87400 18.83000 29.56700
H  -4.68700 18.52000 31.37300
H  -0.38100 16.46500 30.90200
H  -1.36300 15.47800 32.00200
H  -2.02000 18.00900 32.85800
H  -0.34800 18.15900 32.48000
H  -0.98600 22.92400 26.78100
H  -2.17900 22.21000 27.89300
H  -2.60800 23.01400 26.28400
H  -2.11600 23.70400 24.17000
H  -1.09700 23.80400 22.75600
H  -0.34000 23.55100 24.28900
H  -0.67800 17.17200 21.18000
H  -1.95000 14.43600 21.46100
H  -3.43000 15.99300 20.79600
H  -2.68000 17.42400 19.95000
H  -3.45900 17.67200 21.52700
H  0.21900 14.74600 20.49300
H  0.27500 13.57700 21.80900
H  1.65600 16.13400 21.33500
H  2.23600 14.94200 22.52700
H  1.14800 16.13400 23.03600
H  -2.37200 10.58200 25.97400
H  -0.72800 10.50200 26.11100
H  -1.42800 10.98600 24.46700
H  -2.72500 13.40000 30.28800
H  0.28900 13.95000 33.26000
H  1.02300 12.51500 32.76500
H  -0.38300 12.48300 33.95100
Mg 30.62600 59.23600 39.52300
C  27.75400 57.52300 38.56400
C  32.54900 56.65200 38.37200
C  33.31500 61.16300 39.88600
C  28.52300 62.02100 40.15300
N  30.20800 57.41600 38.42100
C  28.92900 56.90900 38.04100
C  29.12400 55.64500 37.16200
C  30.66300 55.23800 37.35700
C  31.20000 56.44300 38.18200
C  30.88700 53.75200 38.04800
C  28.60700 55.73000 35.64200
C  27.70700 54.55000 35.23000
H  26.44400 54.93300 34.40800
N  32.69600 58.86800 39.20900
C  33.29000 57.75600 38.77800
C  34.72400 57.94700 38.71300
C  35.02100 59.21800 39.15100
C  33.67600 59.82400 39.44400
C  35.64900 56.83100 38.25200
C  36.40200 59.80700 39.37400
O  37.38900 59.08600 39.02400
C  36.69900 61.17800 39.94100
N  30.79600 61.24900 39.98900
C  32.09000 61.81700 40.13400
C  32.05000 63.31700 40.54100
C  30.54700 63.64400 40.37500
C  29.85900 62.24500 40.18300
C  32.66500 63.60100 41.95800
C  30.21600 64.55300 39.16900
C  29.68300 65.95000 39.53000
N  28.54400 59.70500 39.53600
C  27.78300 60.83900 39.88500
C  26.35700 60.50800 39.71700
C  26.34700 59.22300 39.25500
C  27.64000 58.77200 39.13300
C  25.12700 61.42400 39.91200
C  25.42700 58.22600 38.85500
O  24.21500 58.21200 38.74600
C  26.33000 57.05000 38.35600
C  25.96700 55.79800 39.00800
O  26.26000 55.36000 40.10600
O  25.10400 55.09000 38.19200
C  24.70600 53.76100 38.67600
H  33.17300 55.85600 37.96100
H  34.14800 61.86400 39.98100
H  27.87500 62.88700 40.30900
H  28.63200 54.77100 37.58800
H  31.20400 55.15800 36.41400
H  31.00200 53.02200 37.24600
H  30.02400 53.56600 38.68700
H  31.81200 53.83000 38.61900
H  29.43500 55.80500 34.93800
H  28.05200 56.64200 35.42200
H  27.37200 54.21400 36.21100
H  28.21600 53.77000 34.66300
H  36.64000 57.14300 37.92200
H  35.18500 56.29800 37.42300
H  35.86200 56.09900 39.03200
H  37.78800 61.20200 39.92100
H  36.42900 61.27900 40.99300
H  36.26400 61.94400 39.30000
H  32.64200 63.96700 39.89600
H  30.03100 64.06800 41.23700
H  33.06000 62.66900 42.36400
H  31.93400 64.03500 42.64000
H  33.43100 64.35700 41.78500
H  29.46300 64.08200 38.53700
H  31.09600 64.64600 38.53400
H  30.22000 66.74400 39.01100
H  29.87400 66.08000 40.59500
H  28.60400 65.97900 39.37900
H  24.16500 60.97900 39.65700
H  25.29700 62.34600 39.35600
H  25.05700 61.72000 40.95900
H  26.23900 56.88000 37.28300
H  24.27600 53.02500 37.99600
H  23.89600 54.10800 39.31800
H  25.39700 53.17200 39.27900

