158

Mg 35.46800 1.42000 29.67400
C  33.12900 2.79500 31.96300
C  37.80000 1.55900 32.31000
C  37.80400 0.90000 27.48000
C  33.14500 2.03300 27.09000
N  35.48300 2.23100 31.83800
C  34.37000 2.55700 32.59000
C  34.64200 2.55100 34.08300
C  36.17000 2.37500 34.07800
C  36.49300 2.02400 32.68600
C  37.07600 3.60500 34.39800
C  33.79900 1.29900 34.69400
C  33.33400 1.41200 36.11600
H  34.05200 2.45400 37.05000
N  37.53600 1.23000 29.85700
C  38.32200 1.17300 30.93900
C  39.70700 0.83400 30.59800
C  39.68900 0.56600 29.23200
C  38.32500 0.92900 28.78100
C  40.76300 0.60700 31.63800
C  40.75700 -0.01900 28.34800
O  40.63900 -0.04100 27.11900
C  41.94700 -0.66000 28.89900
N  35.43500 1.34700 27.60000
C  36.51700 1.06100 26.94100
C  36.22200 1.00300 25.39000
C  34.64900 0.97300 25.35400
C  34.33900 1.49400 26.76800
C  36.94200 1.94400 24.41300
C  33.86900 -0.36500 24.95900
C  33.58900 -0.52300 23.44300
N  33.52600 2.02200 29.52300
C  32.71500 2.36400 28.40000
C  31.38400 2.76000 28.79700
C  31.55000 2.86100 30.22300
C  32.82900 2.54600 30.57100
C  30.23200 3.13000 27.89400
C  30.79700 3.32400 31.32300
O  29.66300 3.74900 31.40900
C  31.75600 3.22700 32.52800
C  31.61600 4.45500 33.33600
O  31.97000 5.60200 33.06900
O  31.03000 4.04900 34.49700
C  30.97800 5.06800 35.62400
H  38.51200 1.77000 33.11200
H  38.53000 0.71700 26.68400
H  32.44800 2.13500 26.25500
H  34.24900 3.47300 34.51100
H  36.41600 1.59200 34.79600
H  38.07900 3.24400 34.62400
H  36.59200 4.11900 35.22800
H  37.09900 4.29100 33.55100
H  34.53200 0.49300 34.65000
H  32.90100 1.15700 34.09400
H  33.35300 0.42800 36.58300
H  32.33100 1.83100 36.04100
H  40.86900 -0.47600 31.69800
H  40.45700 1.11900 32.55000
H  41.74300 0.99000 31.35300
H  42.51900 -1.15800 28.11600
H  41.65100 -1.42200 29.62000
H  42.61400 0.05300 29.38300
H  36.43200 -0.01400 25.05900
H  34.26800 1.73700 24.67700
H  37.93900 1.51900 24.29600
H  37.03400 2.96500 24.78400
H  36.40800 1.91700 23.46300
H  32.91800 -0.27000 25.48100
H  34.35200 -1.26700 25.33600
H  32.74700 0.10400 23.15300
H  33.13700 -1.49700 23.25400
H  34.52100 -0.28900 22.92800
H  30.63500 3.21800 26.88500
H  29.76800 4.01900 28.32200
H  29.43800 2.38400 27.90300
H  31.41300 2.32800 33.04000
H  31.18200 6.11700 35.40800
H  31.74400 4.78300 36.34600
H  30.01800 4.81000 36.07000
Mg -10.42000 16.68000 42.95200
C  -7.06200 17.41700 43.39700
C  -11.00400 20.24300 42.45000
C  -13.75100 16.13300 42.39300
C  -9.79400 13.40000 42.84600
N  -9.23000 18.55200 42.84400
C  -7.86200 18.55800 43.11800
C  -7.28500 19.98300 42.82800
C  -8.57700 20.83700 42.90500
C  -9.69800 19.83000 42.72700
C  -8.75900 21.53500 44.26700
C  -6.56800 19.93900 41.44400
C  -5.20500 20.70400 41.50300
H  -4.09700 20.05700 40.70400
N  -12.17000 18.02600 42.46800
C  -12.19800 19.41100 42.42300
C  -13.55700 19.77200 42.19300
C  -14.35700 18.63600 42.03100
C  -13.43100 17.51900 42.26300
C  -13.87300 21.24700 42.06000
C  -15.82500 18.54600 41.65800
O  -16.49000 19.56200 41.69500
C  -16.60700 17.20400 41.33200
N  -11.61400 15.05900 42.64400
C  -12.98200 15.03900 42.62600
C  -13.54500 13.65600 42.66300
C  -12.22900 12.77000 42.47100
C  -11.13800 13.78400 42.64400
C  -14.38000 13.28100 44.02900
C  -12.10300 12.16300 41.02700
C  -11.36300 10.83100 40.99700
N  -8.77600 15.51300 43.07800
C  -8.64400 14.16900 43.12800
C  -7.22600 13.85100 43.38100
C  -6.58900 15.11800 43.50400
C  -7.58000 16.09900 43.25700
C  -6.61500 12.45100 43.49200
C  -5.30400 15.77200 43.66000
O  -4.23400 15.25100 43.78800
C  -5.57000 17.28300 43.58000
C  -5.02600 17.86500 44.83500
O  -5.44400 17.58000 45.93600
O  -4.05600 18.77100 44.58900
C  -3.77200 19.68900 45.68300
H  -11.15200 21.32200 42.37800
H  -14.80400 15.85400 42.31800
H  -9.43200 12.37000 42.82100
H  -6.67000 20.10100 43.72000
H  -8.67000 21.51700 42.05800
H  -9.16600 20.79600 44.95700
H  -9.49600 22.32900 44.14600
H  -7.85200 21.93000 44.72400
H  -7.18200 20.53700 40.77000
H  -6.51600 18.91400 41.07700
H  -4.83200 20.91400 42.50500
H  -5.56200 21.66800 41.14200
H  -14.59700 21.53200 41.29700
H  -13.09700 21.92300 41.70100
H  -14.33800 21.61000 42.97600
H  -17.45400 17.55500 40.74300
H  -16.96300 16.82600 42.29000
H  -16.07500 16.44600 40.75700
H  -14.20800 13.36800 41.84600
H  -12.08300 11.98700 43.21500
H  -14.22000 12.37100 44.60700
H  -15.40600 13.28700 43.66000
H  -14.33200 14.09000 44.75800
H  -11.62100 12.90700 40.39200
H  -13.10400 11.88600 40.69700
H  -12.13400 10.06200 40.96800
H  -10.60500 10.70800 41.77000
H  -10.82100 10.71700 40.05800
H  -7.24500 11.76100 42.93100
H  -6.50300 12.06700 44.50600
H  -5.62200 12.39800 43.04500
H  -5.19500 17.80800 42.70100
H  -4.22100 20.60900 45.30800
H  -2.70500 19.87800 45.80000
H  -4.17600 19.50300 46.67800

