158

Mg 44.78400 4.00100 47.58200
C  42.30600 6.64600 47.15300
C  42.13800 1.76800 47.29300
C  46.93700 1.73500 47.43100
C  47.32400 6.50800 47.20500
N  42.54200 4.23300 47.23400
C  41.73300 5.35400 47.13400
C  40.25200 5.02000 46.97400
C  40.26300 3.53500 47.33400
C  41.71200 3.10500 47.27700
C  39.50300 3.26700 48.66900
C  39.54600 5.28100 45.58900
C  38.55800 6.46200 45.42400
H  38.42500 7.16100 43.99200
N  44.59500 2.02900 47.52600
C  43.44100 1.19800 47.38300
C  43.84600 -0.12900 47.58500
C  45.27600 -0.17000 47.61100
C  45.66700 1.24500 47.52000
C  42.87100 -1.23900 47.66000
C  46.17500 -1.44700 47.88600
O  45.72200 -2.53100 48.07100
C  47.66900 -1.39100 47.88300
N  46.87200 4.15700 47.29200
C  47.49800 2.98100 47.33800
C  49.05100 3.18700 47.37100
C  49.17300 4.71600 47.24000
C  47.70200 5.17200 47.25300
C  49.94600 2.62200 48.44000
C  49.93900 5.22000 45.94400
C  51.19800 6.00700 46.28300
N  44.89000 6.16900 47.30600
C  45.96200 7.05400 47.18200
C  45.49900 8.40800 46.98200
C  44.07000 8.26000 47.04000
C  43.75800 6.91500 47.27500
C  46.27200 9.73100 46.72000
C  42.85600 9.02800 46.86600
O  42.71600 10.23000 46.66500
C  41.65900 7.97800 46.91200
C  40.63500 8.46700 47.95300
O  40.54400 7.97600 49.09000
O  39.78200 9.42800 47.41800
C  38.65500 9.93800 48.20300
H  41.22600 1.18800 47.14100
H  47.79100 1.06400 47.53700
H  48.17000 7.19500 47.27200
H  39.64400 5.60400 47.66600
H  39.87100 2.91600 46.52700
H  40.23300 2.77600 49.31200
H  38.58200 2.68400 48.65200
H  39.19200 4.16000 49.21100
H  39.03200 4.37700 45.26300
H  40.24000 5.51500 44.78200
H  38.93000 7.17700 46.15800
H  37.52900 6.15300 45.60700
H  41.87100 -0.85200 47.46300
H  43.01200 -1.69300 48.64100
H  42.96800 -1.94800 46.83700
H  48.03300 -1.00100 46.93200
H  48.01500 -2.41600 48.01600
H  48.00700 -0.76800 48.71200
H  49.44300 2.81500 46.42400
H  49.59100 5.02600 48.19800
H  49.33300 1.96900 49.06000
H  50.39800 3.37300 49.08800
H  50.81100 2.10000 48.03100
H  49.31000 5.91800 45.39100
H  50.17900 4.43000 45.23200
H  51.24000 6.36000 47.31300
H  51.42000 6.83500 45.61000
H  52.00300 5.27400 46.33500
H  46.79100 9.65800 45.76500
H  47.08200 9.80600 47.44600
H  45.66600 10.63700 46.73400
H  41.31800 7.92100 45.87800
H  38.39700 10.96800 47.95700
H  38.91800 9.90300 49.26100
H  37.75600 9.33600 48.07400
Mg -10.62700 38.75600 41.46500
C  -8.56100 35.92400 40.74100
C  -8.40700 40.59000 39.59800
C  -12.91600 41.22600 41.39800
C  -13.05700 36.58600 42.62200
N  -8.62300 38.28600 40.49500
C  -8.02800 37.10000 40.20600
C  -6.79900 37.26000 39.34100
C  -6.72600 38.76300 39.15400
C  -7.98000 39.26300 39.77900
C  -5.50100 39.49400 39.72500
C  -6.96700 36.48700 37.92200
C  -5.75800 35.76600 37.47600
H  -5.10500 36.14000 36.14900
N  -10.64800 40.67400 40.71600
C  -9.61100 41.26400 40.01700
C  -10.04600 42.66900 39.75800
C  -11.32400 42.87100 40.20100
C  -11.68800 41.55900 40.79900
C  -9.15100 43.61100 38.93000
C  -12.19400 44.13100 39.91000
O  -11.72900 45.14000 39.43400
C  -13.72500 44.21100 40.26600
N  -12.65800 38.91200 41.89200
C  -13.46400 39.99600 41.82600
C  -14.87600 39.79400 42.39000
C  -14.82100 38.26300 42.78700
C  -13.39900 37.91300 42.45500
C  -15.09600 40.77600 43.55600
C  -15.86400 37.26400 42.09700
C  -16.67100 36.33000 42.99700
N  -10.74100 36.67600 41.72900
C  -11.75800 35.96700 42.27600
C  -11.38900 34.61000 42.33200
C  -10.13500 34.56900 41.79100
C  -9.77300 35.84600 41.34800
C  -12.17200 33.48000 42.94000
C  -9.09900 33.64400 41.40400
O  -8.98800 32.40600 41.53500
C  -7.99000 34.54200 40.69100
C  -6.69900 34.44100 41.50700
O  -5.88200 33.54600 41.30600
O  -6.63200 35.40700 42.47700
C  -5.50700 35.28300 43.38600
H  -7.69100 41.23700 39.08700
H  -13.66200 42.01200 41.53600
H  -13.86600 35.95500 42.99500
H  -6.04200 36.85500 40.01200
H  -6.72200 39.07100 38.10900
H  -5.72900 40.25500 40.47100
H  -4.87900 39.88400 38.91900
H  -4.83600 38.74100 40.14900
H  -7.39800 37.20100 37.21900
H  -7.81000 35.79500 37.91400
H  -5.89500 34.69700 37.63400
H  -4.96100 36.02400 38.17300
H  -8.88500 44.35200 39.68300
H  -9.60900 44.03900 38.03700
H  -8.34200 43.01200 38.51200
H  -13.71400 44.38800 41.34100
H  -14.23300 43.29200 39.97200
H  -14.26400 45.02000 39.77100
H  -15.61600 40.02700 41.62400
H  -15.07300 38.12900 43.83900
H  -14.11600 40.95900 43.99700
H  -15.75800 40.52200 44.38300
H  -15.41200 41.75900 43.20700
H  -15.41000 36.65300 41.31700
H  -16.63700 37.91000 41.67900
H  -16.88600 36.86000 43.92500
H  -16.10200 35.42900 43.22300
H  -17.62200 36.22300 42.47500
H  -12.24500 33.57300 44.02400
H  -11.70300 32.53600 42.66300
H  -13.16700 33.41800 42.50100
H  -7.67500 34.07900 39.75600
H  -5.28200 36.22300 43.88900
H  -4.61800 34.92000 42.86900
H  -5.82300 34.55000 44.12900

