158

Mg -1.62300 17.99700 27.57800
C  -2.10900 15.63400 30.13500
C  -1.86000 20.46200 29.96200
C  -1.75600 20.23900 25.02000
C  -1.61600 15.34600 25.26100
N  -1.74900 17.99700 29.84200
C  -2.01500 16.95900 30.68300
C  -2.32500 17.42900 32.12100
C  -2.58300 18.89500 31.81200
C  -2.02300 19.17400 30.47500
C  -4.12500 19.22900 32.04700
C  -1.19500 17.11300 33.15600
C  -1.46800 16.36800 34.42800
H  -0.18600 16.34600 35.34700
N  -1.57700 20.02500 27.47700
C  -1.62500 20.86300 28.62000
C  -1.45300 22.21600 28.14400
C  -1.57100 22.26300 26.72500
C  -1.68700 20.80600 26.31700
C  -1.25000 23.41000 29.05900
C  -1.40800 23.29800 25.76100
O  -1.49700 23.17300 24.57200
C  -1.02800 24.69200 26.28900
N  -1.67800 17.80500 25.45500
C  -1.75300 18.89200 24.69200
C  -1.54800 18.53200 23.19300
C  -1.24800 16.99400 23.27200
C  -1.51200 16.66500 24.74800
C  -2.75400 18.96000 22.30800
C  0.14600 16.49300 22.90500
C  1.24400 16.88400 23.86700
N  -1.76600 15.93300 27.61000
C  -1.76300 14.99500 26.57300
C  -1.97100 13.66500 27.08000
C  -2.11900 13.86500 28.48900
C  -2.06600 15.25100 28.75600
C  -1.99300 12.42300 26.32500
C  -2.39900 13.20700 29.74300
O  -2.53900 12.04000 29.94000
C  -2.31800 14.38100 30.88400
C  -1.24300 14.02900 31.76700
O  -0.05100 14.34200 31.67300
O  -1.70500 13.14000 32.76200
C  -0.70600 12.80100 33.72300
H  -2.17200 21.23700 30.66500
H  -1.65400 20.96600 24.21200
H  -1.39200 14.48600 24.62500
H  -3.25600 16.96200 32.44000
H  -2.03600 19.56800 32.47100
H  -4.67000 18.35800 32.40900
H  -4.55900 19.62300 31.12800
H  -4.20200 20.00500 32.80900
H  -0.71700 18.06600 33.38000
H  -0.39600 16.64000 32.58500
H  -1.77500 15.32900 34.31400
H  -2.34700 16.76400 34.93700
H  -0.38400 24.00300 28.76400
H  -1.25500 23.21000 30.13100
H  -2.16300 23.98100 28.89200
H  -1.15900 25.38800 25.46100
H  -0.02600 24.66400 26.71600
H  -1.83300 24.94900 26.97800
H  -0.71500 19.07500 22.74500
H  -1.85300 16.47400 22.52900
H  -2.46300 19.37700 21.34400
H  -3.33600 19.69900 22.85800
H  -3.29700 18.06500 22.00500
H  0.38300 16.85800 21.90500
H  -0.08500 15.42800 22.92000
H  0.96500 17.16300 24.88300
H  1.76600 17.72400 23.41100
H  1.77500 15.93500 23.94200
H  -1.45000 12.55100 25.38800
H  -3.04100 12.19400 26.13500
H  -1.50700 11.65700 26.92900
H  -3.25300 14.55600 31.41700
H  -0.12400 12.00800 33.25300
H  -1.22100 12.42300 34.60600
H  0.06000 13.52000 34.01200
Mg 24.18700 -6.26700 45.15900
C  26.45300 -3.95300 43.80800
C  21.69500 -4.89700 43.23100
C  22.40000 -9.00000 45.87900
C  26.94100 -7.71700 46.98600
N  24.13500 -4.72900 43.63300
C  25.15100 -3.82100 43.28800
C  24.61400 -2.77800 42.29700
C  23.02600 -2.82900 42.49300
C  22.95600 -4.25200 43.08300
C  22.44900 -1.79500 43.52000
C  25.20300 -2.91600 40.84900
C  25.27300 -1.65200 39.93000
H  24.74400 -1.78900 38.49000
N  22.30700 -6.85500 44.63300
C  21.37600 -6.14200 43.91900
C  20.07700 -6.80700 44.01600
C  20.28100 -7.95400 44.73900
C  21.71900 -7.98100 45.10500
C  18.87100 -6.21000 43.34100
C  19.25900 -8.99800 44.97800
O  18.13200 -8.78000 44.55500
C  19.49100 -10.16800 45.80100
N  24.66800 -8.18700 46.13800
C  23.73500 -9.09500 46.37300
C  24.29800 -10.33100 47.30800
C  25.69100 -9.77500 47.69100
C  25.80300 -8.47400 46.89400
C  23.42100 -10.65800 48.45600
C  26.85700 -10.78300 47.26700
C  27.73500 -11.22200 48.46100
N  26.22100 -5.92000 45.42700
C  27.22400 -6.54900 46.23400
C  28.40900 -5.80000 46.11800
C  28.13500 -4.79500 45.18500
C  26.86100 -4.93100 44.77700
C  29.59600 -6.18900 46.96900
C  28.67100 -3.58500 44.58500
O  29.73000 -2.97100 44.83300
C  27.69200 -3.20800 43.45900
C  27.61000 -1.77000 43.41100
O  27.21700 -1.01500 44.28900
O  27.92400 -1.30400 42.09500
C  27.83600 0.11400 41.97100
H  20.81400 -4.39300 42.82900
H  21.85800 -9.81200 46.36700
H  27.75300 -8.05500 47.63300
H  24.87000 -1.78400 42.66300
H  22.36400 -2.76000 41.63000
H  21.77600 -1.10200 43.01500
H  23.24700 -1.17300 43.92400
H  22.02300 -2.17700 44.44800
H  24.48800 -3.55800 40.33400
H  26.16900 -3.40800 40.96800
H  26.30700 -1.31000 39.88400
H  24.71800 -0.85900 40.42900
H  19.24300 -5.87200 42.37400
H  18.57900 -5.32800 43.91100
H  18.00200 -6.84300 43.16100
H  18.54900 -10.57500 46.17000
H  19.91400 -9.87600 46.76200
H  20.13800 -10.89100 45.30400
H  24.43400 -11.10400 46.55200
H  25.67500 -9.48300 48.74100
H  22.64400 -9.89400 48.44200
H  23.90100 -10.85300 49.41500
H  22.97500 -11.59900 48.13400
H  27.55100 -10.35800 46.54200
H  26.52700 -11.75300 46.89400
H  28.21300 -12.18000 48.25400
H  27.21500 -11.20200 49.41900
H  28.60700 -10.57400 48.54400
H  29.34400 -6.79500 47.84000
H  30.14000 -5.28600 47.24800
H  30.31200 -6.74400 46.36400
H  28.21900 -3.50000 42.55000
H  26.76500 0.30600 42.03600
H  28.35900 0.46500 41.08100
H  28.15300 0.57700 42.90600

