158

Mg 26.52200 49.59600 27.30900
C  24.47500 50.82100 29.97000
C  28.83400 48.64000 29.77300
C  28.67400 48.69100 24.86600
C  24.42000 51.02200 25.02800
N  26.55700 49.68500 29.65100
C  25.58600 50.15900 30.44400
C  25.98800 49.93700 31.93300
C  27.44500 49.35200 31.87700
C  27.64400 49.20400 30.32000
C  28.57200 50.26600 32.53600
C  24.93200 49.10500 32.77100
C  24.27100 49.77800 33.99400
H  24.26100 48.97000 35.32900
N  28.46300 48.88000 27.27700
C  29.20200 48.48200 28.42500
C  30.54000 48.06400 27.96400
C  30.51500 48.07900 26.57100
C  29.18800 48.51400 26.19600
C  31.53100 47.62400 29.02600
C  31.60900 47.69100 25.56000
O  31.54000 47.89000 24.35800
C  33.02000 47.23500 26.03800
N  26.57000 49.89800 25.26100
C  27.52300 49.36900 24.44000
C  27.09200 49.34900 22.96500
C  25.73400 50.03800 22.99200
C  25.57500 50.36000 24.51100
C  27.99700 49.94300 21.89100
C  24.52400 49.12700 22.50900
C  23.79500 49.72700 21.30000
N  24.72800 50.57700 27.46700
C  24.02200 51.22400 26.44200
C  22.82200 51.73700 26.89200
C  22.89700 51.57400 28.30400
C  24.13100 50.97400 28.57700
C  21.76800 52.39600 26.05000
C  22.28700 51.93400 29.52300
O  21.28000 52.48200 29.74300
C  23.21600 51.32800 30.63100
C  23.45900 52.35400 31.62200
O  24.31700 53.19300 31.60000
O  22.43700 52.34000 32.53400
C  22.48200 53.29800 33.59100
H  29.39800 48.41000 30.68000
H  29.25900 48.22200 24.07200
H  23.69200 51.37400 24.29400
H  26.02600 50.93700 32.36400
H  27.61400 48.34900 32.26700
H  28.17300 50.93000 33.30300
H  28.91100 50.84300 31.67500
H  29.47600 49.74500 32.85100
H  25.35800 48.20400 33.21300
H  24.24500 48.85000 31.96400
H  23.24500 50.00500 33.70500
H  24.69800 50.78100 34.02200
H  32.52400 48.01200 28.80000
H  31.59000 46.55300 28.83600
H  31.23800 47.84200 30.05300
H  33.70500 47.91400 26.54600
H  33.51200 46.65200 25.26000
H  32.87100 46.41100 26.73600
H  27.05700 48.28000 22.75500
H  25.78200 51.01800 22.51700
H  28.53500 49.12200 21.41600
H  28.82800 50.58600 22.17700
H  27.44500 50.43200 21.08800
H  23.80600 48.90900 23.30000
H  24.85600 48.11000 22.30300
H  22.81700 50.10800 21.59500
H  23.51400 48.92500 20.61700
H  24.39900 50.51400 20.84900
H  21.53400 51.91300 25.10100
H  22.13000 53.40500 25.85000
H  20.86900 52.62900 26.61900
H  22.72200 50.51700 31.16600
H  22.32700 54.34000 33.31000
H  23.36400 53.14900 34.21500
H  21.57300 53.06100 34.14300
Mg 0.86000 41.66300 26.65100
C  3.09800 42.27100 29.33500
C  -1.21500 40.27400 28.98100
C  -1.06500 40.75600 24.09700
C  3.52000 42.38100 24.44900
N  0.83100 41.51900 28.91500
C  1.80700 41.88300 29.76400
C  1.27000 41.89200 31.16500
C  0.03200 40.96600 31.06500
C  -0.18300 40.96900 29.58700
C  0.34000 39.59200 31.67300
C  1.10900 43.39500 31.60500
C  1.48500 43.71500 33.07700
H  1.36000 42.61300 34.15700
N  -0.93700 40.66600 26.51300
C  -1.56300 40.05000 27.59500
C  -2.73100 39.30700 27.07700
C  -2.74600 39.49600 25.69000
C  -1.56400 40.30800 25.35200
C  -3.58500 38.52600 28.03300
C  -3.65400 38.87100 24.62600
O  -3.46300 38.88500 23.41000
C  -4.74800 37.98900 25.07100
N  1.09300 41.82100 24.62300
C  0.13200 41.48200 23.72500
C  0.56900 41.72000 22.22600
C  1.95900 42.26600 22.41000
C  2.20000 42.26600 23.90000
C  0.26700 40.50700 21.34300
C  2.14800 43.59300 21.70000
C  1.78300 44.99800 22.38300
N  2.87400 42.29400 26.77800
C  3.79700 42.48200 25.82800
C  5.08300 42.71500 26.42600
C  4.82700 42.63500 27.82400
C  3.47400 42.40500 27.98500
C  6.43900 42.87900 25.77600
C  5.50100 42.64600 29.10600
O  6.66100 42.69900 29.49000
C  4.32800 42.56300 30.11000
C  4.60000 41.44400 31.04300
O  4.72200 40.25000 30.77800
O  4.87600 41.89900 32.26200
C  5.29400 40.92800 33.26300
H  -1.76900 39.77300 29.77700
H  -1.74400 40.72800 23.24200
H  4.41500 42.48000 23.83200
H  2.07200 41.41600 31.72700
H  -0.78200 41.48900 31.56700
H  0.96000 39.72400 32.56000
H  0.96200 39.17400 30.88200
H  -0.60000 39.05900 31.81600
H  0.08500 43.64600 31.33000
H  1.59300 44.06600 30.89500
H  0.85600 44.53400 33.42800
H  2.54200 43.94100 33.21400
H  -3.39000 37.46600 27.86900
H  -4.63600 38.74300 27.84100
H  -3.44600 38.80400 29.07800
H  -5.60700 38.56700 25.41200
H  -4.39900 37.23200 25.77400
H  -5.12200 37.41000 24.22600
H  -0.02700 42.51500 21.77800
H  2.64000 41.59200 21.89000
H  -0.28300 40.87800 20.47800
H  -0.40100 39.78800 21.81800
H  1.11200 40.02900 20.84700
H  1.48200 43.55600 20.83800
H  3.07000 43.66200 21.12200
H  1.50300 45.67000 21.57200
H  2.58900 45.48500 22.93100
H  0.86100 44.69300 22.87800
H  6.85900 41.99200 25.30100
H  7.25800 43.38800 26.28300
H  6.24200 43.60900 24.99000
H  4.15200 43.53300 30.57700
H  4.53100 40.15900 33.38300
H  5.51300 41.37400 34.23300
H  6.26800 40.49100 33.04200

