158

Mg 17.16500 -2.72700 27.98900
C  16.22200 -0.49200 30.75600
C  19.13400 -4.32700 30.05400
C  18.13300 -4.27900 25.30600
C  15.42200 -0.37300 25.89400
N  17.61800 -2.40900 30.12900
C  17.13700 -1.53700 31.08700
C  17.67800 -1.81500 32.48000
C  18.74700 -2.91100 32.18200
C  18.52000 -3.27800 30.68500
C  20.10800 -2.38500 32.49000
C  16.48900 -2.21200 33.37500
C  16.49000 -1.88500 34.85600
H  17.67500 -1.31600 35.49100
N  18.34000 -4.09100 27.77300
C  19.03500 -4.77400 28.74900
C  19.78400 -5.89900 28.19800
C  19.53400 -5.82800 26.76500
C  18.63300 -4.70100 26.58400
C  20.92800 -6.48900 29.00500
C  20.05200 -6.76900 25.68600
O  19.85200 -6.64700 24.48900
C  20.77100 -8.04400 26.14600
N  16.89100 -2.35900 25.86000
C  17.32600 -3.23200 24.95600
C  17.20600 -2.69900 23.50500
C  16.18000 -1.58200 23.79200
C  16.10100 -1.43400 25.28500
C  18.67300 -2.24300 23.07700
C  14.82000 -1.73200 23.08400
C  13.64900 -2.25100 23.95700
N  15.97400 -0.92400 28.24100
C  15.37200 -0.07800 27.28700
C  14.71500 1.08600 27.91000
C  14.96900 0.91100 29.29600
C  15.78500 -0.25700 29.41900
C  13.87300 2.15700 27.23400
C  14.77500 1.49500 30.59300
O  14.23100 2.55700 30.85500
C  15.51600 0.57700 31.61800
C  16.29200 1.31500 32.65200
O  17.44700 1.65900 32.51500
O  15.47100 1.46300 33.77200
C  16.06900 2.28100 34.85700
H  19.79100 -4.89500 30.71600
H  18.53400 -4.84800 24.46400
H  15.02300 0.44500 25.29100
H  18.14000 -0.89900 32.84500
H  18.48000 -3.88400 32.59300
H  20.69000 -3.25500 32.79500
H  20.16000 -1.61500 33.26000
H  20.62900 -1.94900 31.63700
H  16.35600 -3.29400 33.38600
H  15.56200 -1.84500 32.93500
H  16.12600 -2.80700 35.31000
H  15.66400 -1.18000 34.94700
H  21.41700 -5.68800 29.55900
H  21.73100 -7.00000 28.47400
H  20.40300 -7.16600 29.67900
H  20.79800 -8.73200 25.30100
H  20.35200 -8.58600 26.99400
H  21.79700 -7.74300 26.36000
H  16.83600 -3.48700 22.84800
H  16.65500 -0.69700 23.36900
H  19.37000 -2.20300 23.91400
H  18.67400 -1.25900 22.61000
H  18.98900 -3.00000 22.35900
H  14.97500 -2.49400 22.32000
H  14.65800 -0.83100 22.49200
H  13.17000 -1.37700 24.39700
H  13.90200 -2.94100 24.76200
H  12.90000 -2.71100 23.31200
H  12.80300 1.97800 27.34200
H  14.15300 2.12000 26.18100
H  14.10000 3.15300 27.61300
H  14.70300 0.00800 32.06900
H  15.58000 2.05900 35.80600
H  15.77900 3.32100 34.71200
H  17.14000 2.14400 35.00800
Mg 30.57600 59.58500 38.24500
C  27.66100 57.79800 37.54700
C  32.39400 56.83200 37.26600
C  33.29400 61.50100 38.21300
C  28.56900 62.45500 38.49100
N  30.06100 57.59700 37.43100
C  28.82200 57.04700 37.22800
C  28.94500 55.66600 36.55800
C  30.42800 55.29200 36.77100
C  31.04100 56.62500 37.17000
C  30.56700 54.22100 37.93700
C  28.45500 55.78400 35.08500
C  27.15800 54.91300 34.77500
H  26.13500 55.51000 33.66700
N  32.56400 59.20300 37.87700
C  33.17100 58.00900 37.50200
C  34.62200 58.17300 37.49000
C  34.90000 59.51300 37.88000
C  33.57200 60.11000 37.98400
C  35.64300 57.03400 37.11500
C  36.27500 60.11300 38.13600
O  37.29400 59.46600 37.92400
C  36.52400 61.42100 38.56700
N  30.84200 61.65700 38.35100
C  32.04600 62.15500 38.33000
C  32.05700 63.70300 38.64400
C  30.52300 64.04900 38.68600
C  29.90700 62.62500 38.35300
C  32.72700 64.09400 40.01300
C  30.12000 65.20400 37.57100
C  31.17000 66.37500 37.38900
N  28.54100 60.03600 38.27500
C  27.88300 61.22300 38.44500
C  26.45400 61.00000 38.33600
C  26.38200 59.67800 37.99200
C  27.63600 59.10200 38.01500
C  25.28000 61.97500 38.52800
C  25.42600 58.67000 37.63400
O  24.23500 58.77800 37.51900
C  26.18100 57.37000 37.40200
C  25.82500 56.40300 38.51500
O  26.52400 56.09300 39.46700
O  24.50500 56.02100 38.34100
C  24.06100 55.01000 39.37600
H  32.97900 55.93900 37.03700
H  34.10200 62.22500 38.34400
H  28.00000 63.38300 38.57100
H  28.34200 54.97900 37.15100
H  30.92600 54.95900 35.86100
H  31.39000 54.29900 38.64800
H  30.78500 53.29500 37.40400
H  29.57900 54.09000 38.37900
H  29.27700 55.51800 34.42000
H  28.29400 56.85400 34.94800
H  26.56700 54.52100 35.60200
H  27.52200 54.04900 34.21900
H  35.17200 56.37000 36.39000
H  35.86800 56.39000 37.96500
H  36.56700 57.39500 36.66300
H  37.56000 61.51800 38.89000
H  36.03100 61.75800 39.47900
H  36.30900 62.14000 37.77700
H  32.54800 64.17400 37.79300
H  30.07600 64.40300 39.61400
H  33.31800 63.25700 40.38400
H  32.00500 64.33200 40.79500
H  33.36900 64.95200 39.81300
H  29.13000 65.52000 37.90100
H  30.01800 64.58600 36.67900
H  30.51600 67.23300 37.23500
H  31.67200 66.25500 36.42900
H  31.79400 66.43500 38.28200
H  24.94800 62.32600 37.55100
H  25.52300 62.72700 39.27900
H  24.40000 61.49100 38.95000
H  25.86900 56.99800 36.42600
H  24.00400 55.35900 40.40700
H  24.65000 54.09700 39.28700
H  23.13700 54.62300 38.94800

