158

Mg 17.56400 -2.00400 27.85200
C  16.22600 0.02800 30.50100
C  19.59700 -3.40500 30.11100
C  19.13600 -3.45300 25.37700
C  15.63200 0.01700 25.65100
N  17.86100 -1.65100 30.13100
C  17.21300 -0.88300 30.94300
C  17.60100 -1.18700 32.39600
C  18.96000 -1.94100 32.19300
C  18.78200 -2.39900 30.71100
C  20.19300 -0.98700 32.51500
C  16.51000 -1.71900 33.31600
C  16.23000 -0.83400 34.50700
H  17.31400 -0.34400 35.49500
N  18.96400 -3.47600 27.77800
C  19.65200 -3.97800 28.83000
C  20.59000 -5.01000 28.41600
C  20.35300 -5.09300 26.97100
C  19.47200 -3.97700 26.64300
C  21.55900 -5.71300 29.28400
C  20.94400 -6.09500 25.95000
O  20.63700 -6.00400 24.74300
C  21.92000 -7.22600 26.35600
N  17.46400 -1.67000 25.89500
C  18.25200 -2.38500 25.05900
C  18.04700 -1.92800 23.61700
C  16.89300 -0.98600 23.65700
C  16.56400 -0.86100 25.15500
C  19.23500 -1.31000 22.78500
C  15.61600 -1.28200 22.70700
C  15.21300 -0.09700 21.87800
N  16.11700 -0.37900 27.97500
C  15.38200 0.29700 27.03000
C  14.38400 1.14600 27.65900
C  14.69200 1.11100 29.03000
C  15.77400 0.19600 29.15800
C  13.26300 1.84400 26.97300
C  14.35100 1.62500 30.29100
O  13.59400 2.48300 30.67000
C  15.29900 0.88000 31.29300
C  15.89000 1.95700 32.09400
O  16.86100 2.61200 31.75900
O  15.17600 2.03600 33.23600
C  15.56700 3.13500 34.16400
H  20.40700 -3.63200 30.80700
H  19.50800 -3.82600 24.42000
H  14.99700 0.52900 24.92400
H  17.90900 -0.23900 32.83700
H  19.00800 -2.83200 32.81900
H  20.93100 -1.14700 31.72900
H  20.68000 -1.29800 33.43900
H  20.06500 0.09600 32.53200
H  16.83400 -2.72600 33.57800
H  15.52700 -1.83700 32.85900
H  15.49800 -1.32100 35.15100
H  15.63200 -0.00200 34.13400
H  21.30800 -6.77300 29.32400
H  21.66000 -5.36100 30.31100
H  22.51300 -5.40400 28.85800
H  22.87800 -6.80200 26.65700
H  22.15600 -7.88900 25.52300
H  21.43000 -7.78900 27.15100
H  17.81700 -2.79300 22.99500
H  17.22600 0.04800 23.56700
H  19.22900 -0.22100 22.76700
H  19.29200 -1.61900 21.74100
H  20.12500 -1.69000 23.28700
H  14.81800 -1.37900 23.44400
H  15.76400 -2.19500 22.12900
H  14.84800 -0.47000 20.92100
H  15.98500 0.64100 21.66200
H  14.34500 0.37900 22.33300
H  12.63100 2.23400 27.77100
H  12.60300 1.14100 26.46400
H  13.55600 2.66300 26.31600
H  14.58300 0.21600 31.77800
H  15.26000 4.09900 33.75900
H  16.64400 3.04200 34.30500
H  15.24000 2.98800 35.19300
Mg 10.38700 47.55400 25.96700
C  8.54300 47.07700 28.96600
C  12.89300 48.99100 27.74400
C  11.99100 48.20600 23.05900
C  7.63300 46.62700 24.27000
N  10.62800 48.05100 28.16900
C  9.79000 47.68400 29.20800
C  10.54400 47.93500 30.58700
C  11.88000 48.66800 30.05300
C  11.80100 48.58600 28.51600
C  12.01700 50.15100 30.62000
C  10.89000 46.65700 31.49300
C  10.15300 46.91700 32.88500
H  10.40900 45.86800 33.94000
N  12.23200 48.43300 25.50400
C  13.16000 48.85600 26.36000
C  14.37200 49.25600 25.63900
C  14.21400 48.82100 24.28000
C  12.80200 48.45400 24.22900
C  15.60800 49.82300 26.43300
C  15.15000 48.81700 23.20200
O  14.92000 48.49000 22.05900
C  16.55200 49.40200 23.42500
N  9.93400 47.46500 23.90900
C  10.73300 47.79700 22.89400
C  9.90600 47.90500 21.59300
C  8.74500 46.92200 21.99300
C  8.75900 46.94500 23.50300
C  9.57700 49.34400 21.11200
C  8.84000 45.54600 21.37700
C  9.88100 44.67100 21.92400
N  8.40600 46.99800 26.49100
C  7.38400 46.70900 25.66400
C  6.16400 46.37700 26.37500
C  6.59800 46.44900 27.72300
C  7.94100 46.87700 27.70300
C  4.79500 45.96800 25.92200
C  6.20300 46.22200 29.00000
O  5.11500 45.83800 29.37700
C  7.51900 46.56300 29.98400
C  7.84500 45.31400 30.61000
O  8.49400 44.42200 30.09300
O  7.16500 45.14800 31.75400
C  6.95500 43.82900 32.43300
H  13.70800 49.23500 28.42900
H  12.38400 48.59300 22.11600
H  6.80900 46.15200 23.73400
H  9.82600 48.59600 31.07300
H  12.78800 48.18600 30.41500
H  12.88400 50.24200 31.27400
H  11.16800 50.19500 31.30200
H  11.89000 50.92300 29.86100
H  11.95200 46.65500 31.73600
H  10.53200 45.69400 31.12800
H  9.07800 47.08600 32.82000
H  10.70200 47.78600 33.24800
H  15.94400 50.61400 25.76300
H  16.33700 49.01400 26.47000
H  15.34100 50.25500 27.39800
H  17.03800 49.59900 22.46900
H  17.20300 48.92400 24.15600
H  16.31800 50.42100 23.73100
H  10.48900 47.41700 20.81200
H  7.78900 47.33900 21.67600
H  10.02600 49.62400 20.15900
H  9.93100 50.10800 21.80400
H  8.49700 49.49300 21.09400
H  8.86400 45.54200 20.28700
H  7.82800 45.19200 21.57300
H  10.42400 45.21700 22.69600
H  10.60400 44.33200 21.18300
H  9.39500 43.80500 22.37300
H  4.66900 45.83100 24.84800
H  4.06600 46.73200 26.19300
H  4.49100 45.01900 26.36300
H  7.47600 47.39300 30.68900
H  5.90400 43.55500 32.34100
H  7.35400 43.71700 33.44100
H  7.41000 42.98300 31.91700

