158

Mg 1.46600 7.99100 25.68800
C  2.23800 10.14700 28.35300
C  1.30500 5.41100 27.92200
C  0.52900 6.13900 23.22000
C  1.67600 10.67600 23.47600
N  1.77200 7.86200 27.91500
C  2.04400 8.84300 28.84700
C  1.97000 8.26600 30.23500
C  1.99600 6.64900 30.01000
C  1.69000 6.65400 28.53500
C  3.28600 5.88700 30.46400
C  0.70500 8.62500 30.96700
C  0.87100 8.92300 32.44700
H  2.10700 8.53000 33.28000
N  1.00200 5.99800 25.58900
C  0.86100 5.13800 26.67600
C  0.38700 3.88500 26.09300
C  0.23000 4.04300 24.67200
C  0.55200 5.46600 24.40300
C  0.17600 2.68100 26.94500
C  -0.15000 3.02400 23.59500
O  -0.06600 3.33500 22.39100
C  -0.69700 1.68300 24.03100
N  1.39900 8.28700 23.56600
C  0.90200 7.37900 22.78700
C  0.95800 7.79700 21.30900
C  1.12800 9.35400 21.35400
C  1.39000 9.46300 22.89500
C  2.25300 7.17700 20.65500
C  -0.16400 10.13600 20.96400
C  0.03900 11.52900 20.26100
N  1.81800 10.00600 25.84700
C  1.91300 10.99300 24.85600
C  2.20100 12.31000 25.47600
C  2.34900 12.00400 26.86900
C  2.15600 10.59200 26.98000
C  2.24600 13.66400 24.79400
C  2.55300 12.52700 28.17800
O  2.80300 13.65000 28.48300
C  2.38300 11.39200 29.16900
C  3.49800 11.36100 30.16000
O  4.58100 10.91600 29.90200
O  3.16900 11.92400 31.39800
C  4.23800 12.06600 32.41700
H  1.41100 4.57400 28.61600
H  0.21200 5.52400 22.37500
H  1.68500 11.58900 22.87600
H  2.89600 8.42500 30.78800
H  1.22300 6.11300 30.56200
H  3.91400 5.52900 29.64800
H  3.07500 4.95300 30.98500
H  3.89300 6.47900 31.14900
H  -0.14600 7.97100 30.77800
H  0.31700 9.56400 30.57200
H  0.07300 8.28100 32.81900
H  0.61400 9.95300 32.69700
H  0.18000 2.80400 28.02800
H  0.87400 1.87600 26.71400
H  -0.79100 2.23100 26.72500
H  0.15600 1.31900 24.60400
H  -0.92200 1.03800 23.18200
H  -1.54800 1.86700 24.68600
H  -0.00900 7.47200 20.92500
H  1.93500 9.69300 20.70400
H  1.81700 6.23200 20.33000
H  2.97200 7.05500 21.46500
H  2.63900 7.67600 19.76600
H  -0.69600 10.38200 21.88300
H  -0.77000 9.48700 20.33200
H  -0.50000 11.64400 19.32100
H  1.09500 11.77700 20.15200
H  -0.52000 12.25800 20.84800
H  2.48600 13.49300 23.74500
H  2.90500 14.28400 25.40300
H  1.23700 14.07600 24.82600
H  1.42800 11.56100 29.66600
H  4.38500 13.10900 32.69900
H  5.21200 11.64600 32.16500
H  3.83400 11.49900 33.25600
Mg 47.22100 15.10300 27.54300
C  45.60000 15.07400 30.66700
C  49.57100 17.13500 28.76100
C  48.63400 15.12500 24.42900
C  44.56600 13.22900 26.30200
N  47.46900 16.03500 29.49000
C  46.75200 15.84600 30.63600
C  47.45400 16.43100 31.80000
C  48.57600 17.33000 31.13900
C  48.60500 16.76800 29.70600
C  48.25600 18.76500 31.16900
C  48.02700 15.42600 32.78500
C  47.63700 15.61500 34.28400
H  48.71500 15.53800 35.26600
N  48.94200 15.97800 26.71000
C  49.74800 16.80200 27.36500
C  50.90400 17.01800 26.55300
C  50.70600 16.30500 25.33800
C  49.30000 15.82100 25.39900
C  52.12500 17.82600 27.18800
C  51.63600 16.27000 24.15000
O  51.27200 16.01700 23.01900
C  53.03700 16.47200 24.39900
N  46.71900 14.31700 25.69000
C  47.45000 14.44800 24.50600
C  46.84700 13.70200 23.29100
C  45.49500 13.10300 23.91900
C  45.64100 13.52000 25.41300
C  46.57600 14.53800 22.03200
C  45.37100 11.61100 23.68600
C  46.51600 10.81500 24.35900
N  45.40100 14.38400 28.27100
C  44.43500 13.67100 27.65200
C  43.38100 13.38700 28.55300
C  43.80000 13.87200 29.84300
C  45.01200 14.46100 29.55200
C  42.05000 12.62500 28.20100
C  43.41000 13.98400 31.22500
O  42.52800 13.50700 31.89900
C  44.59900 14.84600 31.82500
C  44.00100 16.04800 32.47900
O  43.43300 16.94300 31.93100
O  44.14700 15.88700 33.87000
C  43.21200 16.70000 34.62100
H  50.25900 17.90300 29.12200
H  49.09500 15.19200 23.44100
H  43.83100 12.50200 25.95000
H  46.71400 17.03100 32.32900
H  49.51900 17.16500 31.66000
H  47.84200 19.04600 32.13800
H  47.46200 19.02800 30.47000
H  49.16500 19.36000 31.08800
H  49.11000 15.37100 32.67100
H  47.71800 14.44700 32.41800
H  46.93900 14.80600 34.50000
H  46.97000 16.46600 34.42200
H  53.03800 17.23300 27.13600
H  52.19600 17.98900 28.26300
H  52.34500 18.67200 26.53600
H  53.24400 15.79100 25.22500
H  53.13500 17.51200 24.70900
H  53.71700 16.18400 23.59700
H  47.36900 12.78900 23.00600
H  44.65500 13.66400 23.51200
H  47.35200 14.14300 21.37700
H  46.74600 15.59900 22.21200
H  45.58500 14.28600 21.65300
H  45.32000 11.44200 22.61000
H  44.47700 11.14200 24.09700
H  46.17400 10.16700 25.16600
H  47.32200 11.43000 24.76100
H  46.87500 10.22600 23.51500
H  42.25600 11.64700 27.76400
H  41.43700 13.07700 27.42100
H  41.45400 12.39500 29.08400
H  45.08100 14.34000 32.66200
H  42.88000 15.99200 35.38000
H  42.32800 17.00300 34.06100
H  43.70000 17.54100 35.11400

