158

Mg 36.01100 49.29700 25.52300
C  36.01800 47.31200 28.43400
C  34.96800 51.92700 27.33900
C  35.59000 50.93300 22.62200
C  36.77800 46.45100 23.71900
N  35.31300 49.47700 27.68200
C  35.58600 48.64000 28.69900
C  35.50100 49.34500 30.02800
C  34.92500 50.79000 29.69800
C  35.04300 50.73400 28.13100
C  33.48400 51.18300 30.26600
C  36.80700 49.36500 30.84700
C  36.67000 48.92600 32.36300
H  36.76000 50.07500 33.35000
N  35.47600 51.20200 25.05100
C  34.98300 52.17700 25.93200
C  34.95100 53.46200 25.28500
C  35.08300 53.17500 23.89100
C  35.35000 51.70600 23.78500
C  34.74800 54.68000 26.08500
C  35.06700 54.09600 22.69100
O  35.00800 53.85100 21.47100
C  34.92300 55.59500 22.98900
N  36.03400 48.72500 23.44300
C  35.90900 49.60500 22.47900
C  35.98400 49.02400 21.10900
C  36.42500 47.57500 21.40400
C  36.40900 47.56500 22.95600
C  34.69900 49.00400 20.14400
C  37.76200 47.31600 20.69500
C  39.11100 47.40200 21.51700
N  36.26300 47.32400 25.90700
C  36.60300 46.28700 25.05300
C  36.85300 45.04900 25.87200
C  36.60000 45.42700 27.19100
C  36.25500 46.82200 27.13300
C  37.37700 43.84000 25.40100
C  36.67000 44.97600 28.50600
O  36.80100 43.83800 28.94600
C  36.42600 46.25700 29.37400
C  35.23400 46.05700 30.22400
O  34.04000 46.02700 29.86100
O  35.71900 45.70700 31.51400
C  34.69400 45.41400 32.50500
H  34.84700 52.75500 28.04100
H  35.47000 51.53500 21.71900
H  37.16100 45.60800 23.14000
H  34.76500 48.92700 30.71500
H  35.57200 51.61000 30.01300
H  33.07900 50.27000 30.70100
H  32.91700 51.51800 29.39700
H  33.51500 52.09500 30.86300
H  37.26300 50.35300 30.78100
H  37.57500 48.70400 30.44400
H  37.53400 48.29300 32.56200
H  35.76300 48.32900 32.45900
H  35.39100 55.55500 25.99300
H  34.62800 54.51500 27.15500
H  33.80500 55.04000 25.67400
H  35.80400 55.98900 23.49500
H  34.03400 55.84400 23.56800
H  34.65700 56.06000 22.04000
H  36.81100 49.57800 20.66500
H  35.72900 46.74800 21.26000
H  33.88900 49.63700 20.50800
H  34.31700 47.99600 19.98600
H  35.01200 49.30200 19.14300
H  37.87400 48.00500 19.85800
H  37.74800 46.30200 20.29700
H  39.82600 46.67800 21.12400
H  38.93900 47.27100 22.58500
H  39.56900 48.37500 21.33800
H  37.95900 43.40900 26.21600
H  37.92300 43.79700 24.45900
H  36.55500 43.15200 25.20500
H  37.29900 46.33400 30.02200
H  34.03100 44.57400 32.29500
H  33.99700 46.25200 32.52800
H  35.21500 45.29600 33.45500
Mg -10.28300 39.37000 42.31000
C  -9.07100 36.09400 41.64200
C  -7.37200 40.62100 40.75600
C  -11.74800 42.30000 42.25900
C  -13.34500 37.89100 43.09500
N  -8.54300 38.44400 41.20800
C  -8.21700 37.10000 41.10300
C  -6.92900 36.87700 40.40800
C  -6.24900 38.19600 40.59600
C  -7.43900 39.18300 40.90800
C  -5.23200 38.29000 41.75200
C  -7.05500 36.36400 38.96000
C  -6.08800 35.26900 38.50300
H  -5.10100 35.50800 37.39000
N  -9.60000 41.24900 41.70800
C  -8.40700 41.57400 40.99500
C  -8.37000 42.96500 40.57900
C  -9.60000 43.50400 41.09000
C  -10.36700 42.33000 41.75200
C  -7.26000 43.66300 39.73700
C  -10.03000 44.94700 41.06600
O  -9.20200 45.74600 40.72600
C  -11.34000 45.41000 41.39400
N  -12.29100 39.99700 42.67500
C  -12.61100 41.27400 42.65200
C  -14.11000 41.51200 42.86600
C  -14.65900 40.03900 43.24600
C  -13.32700 39.31100 43.09600
C  -14.34100 42.67900 43.96800
C  -15.77000 39.47000 42.27900
C  -16.72300 38.45300 42.83800
N  -11.04200 37.42000 42.55800
C  -12.30900 36.96800 42.85800
C  -12.29400 35.54000 43.07900
C  -11.03000 35.18900 42.61300
C  -10.33700 36.34000 42.32500
C  -13.38900 34.66600 43.43100
C  -10.12900 34.05300 42.37800
O  -10.23900 32.88200 42.59100
C  -8.89200 34.64400 41.71300
C  -7.73700 34.20300 42.52500
O  -7.57900 34.39600 43.75100
O  -6.81800 33.48200 41.73600
C  -5.57100 33.08300 42.37200
H  -6.46200 41.05400 40.33500
H  -12.36400 43.20100 42.26700
H  -14.27500 37.50600 43.51900
H  -6.40200 36.12100 40.99100
H  -5.73800 38.40000 39.65500
H  -5.25400 37.32100 42.25300
H  -5.60400 39.03900 42.45100
H  -4.20400 38.41000 41.40900
H  -6.87400 37.22000 38.31000
H  -8.00600 35.88200 38.73000
H  -6.73500 34.46700 38.14900
H  -5.64800 34.76500 39.36400
H  -7.83000 44.13300 38.93500
H  -6.47500 43.00100 39.37200
H  -6.81700 44.51500 40.25300
H  -12.12700 44.86000 40.87800
H  -11.50200 46.47700 41.23500
H  -11.33600 45.26500 42.47400
H  -14.46000 41.76000 41.86400
H  -14.94400 40.15500 44.29100
H  -13.39400 43.05000 44.35800
H  -14.80200 42.33200 44.89300
H  -14.87400 43.55400 43.59500
H  -15.34000 38.97700 41.40700
H  -16.41000 40.27500 41.91700
H  -17.01400 37.69600 42.11000
H  -17.68400 38.86600 43.14300
H  -16.37300 37.87800 43.69500
H  -14.01100 35.19100 44.15600
H  -13.11500 33.69700 43.84600
H  -13.87400 34.43800 42.48100
H  -8.81200 34.22100 40.71100
H  -5.22600 32.33700 41.65600
H  -5.62800 32.63100 43.36100
H  -4.82700 33.87600 42.29500

