158

Mg 7.79800 2.59300 28.69300
C  9.35000 1.41900 31.60700
C  5.59300 4.46600 30.54500
C  6.46400 3.54000 25.81800
C  9.86600 0.29400 26.77300
N  7.47200 2.85400 30.89000
C  8.36700 2.43000 31.86200
C  8.08600 3.18600 33.19600
C  6.83600 4.14200 32.84200
C  6.57900 3.80700 31.35500
C  5.53700 3.86600 33.69400
C  9.38400 3.88500 33.80700
C  9.74700 3.63600 35.29000
H  8.77000 3.20800 36.38200
N  6.14500 3.69600 28.24200
C  5.44000 4.49600 29.13400
C  4.54500 5.33000 28.42300
C  4.73000 5.09400 26.98700
C  5.80100 4.07900 26.96600
C  3.57800 6.17800 29.15000
C  4.05400 5.65000 25.81200
O  4.24900 5.33400 24.64700
C  2.97700 6.72300 26.00500
N  8.04700 1.86600 26.51500
C  7.49800 2.56400 25.54200
C  7.93700 2.09200 24.15300
C  9.20200 1.25000 24.53400
C  9.02700 1.14000 26.04100
C  6.90300 1.40600 23.23300
C  10.58200 1.72900 24.12000
C  11.15500 2.98400 24.85400
N  9.12900 1.01200 29.09100
C  9.88500 0.17700 28.25200
C  10.85600 -0.55900 29.05200
C  10.63200 -0.08300 30.36200
C  9.59500 0.84700 30.31700
C  11.86600 -1.51600 28.60100
C  11.20600 -0.18500 31.63600
O  12.17600 -0.79000 32.10600
C  10.37300 0.76400 32.58100
C  9.80800 -0.18300 33.61700
O  8.83800 -0.93800 33.42500
O  10.30800 0.11000 34.79700
C  9.55900 -0.50800 35.95800
H  5.05500 5.18100 31.17100
H  6.06900 4.02200 24.92000
H  10.54500 -0.37600 26.24200
H  7.68100 2.41000 33.84500
H  7.04500 5.21100 32.89500
H  4.70300 3.52500 33.08100
H  5.22700 4.74400 34.26000
H  5.81000 3.16600 34.48400
H  9.32900 4.96900 33.71100
H  10.23000 3.51800 33.22600
H  10.10000 4.59300 35.67400
H  10.57700 2.93500 35.20800
H  2.58300 6.23500 28.71000
H  4.06600 7.15100 29.09200
H  3.33300 5.77800 30.13400
H  2.59600 6.95600 25.01000
H  3.35100 7.57600 26.57100
H  2.13600 6.33800 26.58200
H  8.24900 2.92000 23.51700
H  9.19200 0.25500 24.09000
H  7.08700 0.33400 23.17000
H  6.95900 1.68700 22.18100
H  5.93100 1.72200 23.61300
H  10.57200 2.02400 23.07000
H  11.34500 0.95200 24.16600
H  11.21900 2.64700 25.88800
H  10.46900 3.82700 24.77600
H  12.10600 3.30100 24.42700
H  12.78300 -1.09400 28.19000
H  11.42900 -2.23400 27.90700
H  12.28800 -2.05100 29.45200
H  11.09500 1.47000 32.99000
H  9.62500 -1.59100 35.85300
H  8.54900 -0.22400 36.25200
H  10.21300 -0.25700 36.79300
Mg 16.33300 -1.75500 28.65600
C  15.65400 0.15400 31.59000
C  18.58100 -3.53600 30.59400
C  17.46200 -3.43800 25.92600
C  14.57500 0.47300 26.81100
N  17.00700 -1.72400 30.87700
C  16.51000 -0.88400 31.89300
C  17.02300 -1.40200 33.23500
C  18.20000 -2.37700 32.82400
C  17.95600 -2.56000 31.32700
C  19.70500 -1.80700 33.04900
C  16.01400 -2.14100 34.17700
C  15.84100 -1.61200 35.60800
H  17.02800 -0.84200 36.24100
N  17.76700 -3.28300 28.30400
C  18.44500 -3.95900 29.28500
C  19.17100 -5.04300 28.67100
C  19.06600 -4.89000 27.28800
C  18.03500 -3.84500 27.10700
C  20.18000 -6.01900 29.40000
C  19.71000 -5.69300 26.09900
O  19.46500 -5.47600 24.92600
C  20.64400 -6.87300 26.42400
N  15.97300 -1.55800 26.62900
C  16.50800 -2.39700 25.70200
C  16.40100 -1.75600 24.33700
C  15.27000 -0.57000 24.52300
C  15.25300 -0.52700 26.08100
C  17.71500 -1.15100 23.93100
C  13.86500 -0.88800 23.82900
C  13.69700 -0.10900 22.51700
N  15.21700 -0.11200 29.05400
C  14.60500 0.72800 28.18500
C  13.81100 1.70500 28.89400
C  14.21500 1.56900 30.23500
C  15.05500 0.43000 30.29900
C  12.93400 2.79300 28.29700
C  14.04900 2.08200 31.59100
O  13.42600 3.07600 32.00100
C  14.96300 1.19100 32.56600
C  15.82400 2.19400 33.22800
O  16.62400 2.85100 32.57900
O  15.38000 2.43300 34.51700
C  15.86100 3.76800 35.04300
H  19.28700 -4.14700 31.16000
H  17.88800 -3.96100 25.06700
H  14.08100 1.19200 26.15300
H  17.43800 -0.55900 33.78800
H  18.04700 -3.34200 33.30800
H  20.35600 -2.05700 32.21100
H  20.16700 -2.25900 33.92700
H  19.66200 -0.74000 33.26300
H  16.37800 -3.15900 34.31800
H  15.04000 -2.14700 33.68900
H  15.70900 -2.45500 36.28700
H  15.04600 -0.86700 35.59000
H  20.13600 -7.08900 29.19800
H  20.16100 -5.78800 30.46500
H  21.20100 -5.74800 29.12800
H  21.55900 -6.62800 26.96200
H  20.91100 -7.30300 25.45900
H  20.00800 -7.50000 27.05000
H  16.06500 -2.51100 23.62500
H  15.74200 0.36800 24.22800
H  18.16800 -0.57200 24.73500
H  17.57700 -0.43600 23.12100
H  18.27000 -2.04500 23.64600
H  13.11900 -0.55800 24.55200
H  13.70500 -1.95800 23.69600
H  14.57600 0.34100 22.05600
H  13.13100 0.79000 22.75900
H  13.22400 -0.65600 21.70100
H  13.34400 3.11500 27.34000
H  12.83000 3.56900 29.05600
H  11.97300 2.33800 28.05500
H  14.40900 0.61800 33.31000
H  15.68500 3.71400 36.11700
H  15.38400 4.56400 34.47100
H  16.94900 3.81900 35.01900

