158

Mg 47.45000 35.28400 26.93500
C  45.43300 33.83500 29.39100
C  48.34700 37.78500 29.07900
C  49.14700 36.62500 24.44400
C  46.49900 32.71700 24.73600
N  46.75000 35.76600 28.85800
C  46.11000 34.98100 29.76000
C  46.44900 35.38700 31.19000
C  46.91600 36.86000 30.99300
C  47.36500 36.81200 29.52800
C  45.80900 37.97200 31.27000
C  47.48900 34.36000 31.72400
C  47.54900 34.23000 33.24500
H  46.60200 35.06300 34.09600
N  48.57700 36.97600 26.83800
C  48.87600 37.89100 27.79500
C  49.73200 38.93000 27.24700
C  49.95200 38.60900 25.91000
C  49.19600 37.35100 25.59800
C  50.11300 40.12000 28.13400
C  50.83600 39.38000 24.97100
O  50.96600 39.06100 23.80700
C  51.64300 40.54400 25.56900
N  47.69100 34.74200 24.78500
C  48.45600 35.49000 24.00000
C  48.65700 34.86100 22.60200
C  47.97200 33.48500 22.73000
C  47.38200 33.60100 24.11800
C  48.10300 35.65800 21.36700
C  48.77000 32.12500 22.47200
C  50.05900 32.20100 21.65100
N  46.24200 33.61400 27.03900
C  45.92100 32.69900 26.04500
C  45.01000 31.76800 26.58600
C  44.70600 32.17900 27.88700
C  45.48900 33.32100 28.08900
C  44.55500 30.55700 25.72900
C  43.95000 31.83700 29.02700
O  43.18900 30.89000 29.28000
C  44.33100 32.96300 30.05200
C  44.58000 32.37700 31.44200
O  45.55900 31.68500 31.76000
O  43.52000 32.75100 32.29900
C  43.44700 32.25700 33.69200
H  48.61200 38.45800 29.89700
H  49.94100 36.92500 23.75700
H  46.24300 31.86900 24.09700
H  45.57600 35.36300 31.84200
H  47.73400 37.06000 31.68500
H  45.98900 38.55600 32.17300
H  44.81100 37.57000 31.44200
H  45.78800 38.72500 30.48200
H  48.48500 34.69800 31.44100
H  47.46200 33.40200 31.20400
H  48.57900 34.41400 33.55200
H  47.37400 33.17000 33.42800
H  49.58200 40.93000 27.63400
H  51.19600 40.23100 28.19900
H  49.77400 40.19100 29.16700
H  52.16600 40.02200 26.37100
H  50.94400 41.33400 25.84500
H  52.36100 40.90400 24.83200
H  49.70300 34.61300 22.42500
H  47.04700 33.45700 22.15300
H  47.75600 34.97700 20.59000
H  48.84100 36.29000 20.87300
H  47.22400 36.25400 21.61300
H  48.10700 31.38900 22.01600
H  49.00100 31.72300 23.45800
H  49.99100 33.04000 20.95700
H  50.14900 31.29300 21.05500
H  50.96300 32.12900 22.25600
H  43.84300 29.98700 26.32600
H  45.38800 29.87900 25.54000
H  44.10500 30.98500 24.83400
H  43.33800 33.40800 30.10300
H  43.30500 33.15000 34.30000
H  44.31400 31.67700 34.00900
H  42.61600 31.55300 33.65600
Mg 35.13600 48.50500 25.08700
C  35.45300 46.39900 28.03400
C  34.18300 51.04800 27.31400
C  34.30900 50.20800 22.53500
C  35.65200 45.59500 23.14200
N  34.80200 48.69600 27.45500
C  35.01800 47.66500 28.39300
C  34.97300 48.27200 29.75500
C  34.12700 49.59200 29.50300
C  34.34900 49.84000 27.99500
C  32.64600 49.35600 29.99300
C  36.47100 48.48700 30.30300
C  36.72700 48.39700 31.78600
H  36.60400 49.65700 32.60900
N  34.42000 50.39100 24.91900
C  34.26900 51.30600 25.93100
C  33.85900 52.58300 25.40900
C  33.79600 52.36500 23.98000
C  34.20100 50.98300 23.76200
C  33.72600 53.85700 26.24100
C  33.55000 53.40700 22.94600
O  33.78000 53.13600 21.77600
C  33.10600 54.90900 23.23500
N  34.93900 47.94500 23.09800
C  34.68600 48.92600 22.19400
C  34.80800 48.33800 20.75500
C  35.17200 46.87700 20.94500
C  35.29600 46.81600 22.51400
C  33.54500 48.61800 19.82300
C  36.58300 46.52600 20.30700
C  37.80600 47.04400 21.14000
N  35.53000 46.38600 25.43800
C  35.74800 45.35900 24.54800
C  36.00500 44.15500 25.27900
C  36.03800 44.51900 26.65000
C  35.68300 45.89900 26.70200
C  36.10100 42.70700 24.82000
C  36.12600 44.02300 28.04000
O  36.33000 42.92700 28.49500
C  35.92900 45.27500 28.95700
C  35.08100 44.76900 30.16700
O  33.91500 44.32500 30.05100
O  35.75800 44.95900 31.29900
C  35.06300 44.58300 32.49500
H  33.88100 51.81600 28.02800
H  33.91100 50.84800 21.74500
H  35.95800 44.73700 22.54000
H  34.49200 47.60800 30.47400
H  34.39800 50.45500 30.11000
H  31.91500 49.85000 29.35300
H  32.40300 49.80900 30.95400
H  32.44300 48.29100 30.10300
H  36.90200 49.42800 29.96300
H  37.14200 47.76900 29.83000
H  37.71900 47.98600 31.97700
H  35.95500 47.74700 32.19700
H  34.64200 53.98400 26.81800
H  32.87400 53.63200 26.88200
H  33.51500 54.83800 25.81400
H  33.20600 55.45500 22.29700
H  33.65700 55.41100 24.03100
H  32.09600 54.82900 23.63700
H  35.62100 48.98700 20.43100
H  34.39300 46.18800 20.61800
H  33.43000 47.99300 18.93800
H  33.56300 49.66700 19.52800
H  32.61300 48.52400 20.38100
H  36.58000 46.70100 19.23100
H  36.66500 45.44400 20.41500
H  38.40700 46.22800 21.54000
H  37.73900 47.71500 21.99600
H  38.42700 47.50600 20.37200
H  35.63000 42.73500 23.83800
H  35.40500 42.08700 25.38500
H  37.13200 42.36200 24.89600
H  36.96900 45.39700 29.25700
H  34.29400 45.32600 32.70500
H  35.88000 44.67300 33.21100
H  34.75300 43.54000 32.44100

