158

Mg 2.37000 -1.73400 43.34300
C  5.82000 -0.93200 42.73800
C  1.47800 1.04300 41.66600
C  -0.71700 -2.85200 43.48800
C  3.53600 -4.87700 44.61900
N  3.56200 -0.21600 42.16800
C  4.92600 0.03600 42.24600
C  5.32200 1.37000 41.65000
C  3.87500 2.05600 41.44700
C  2.90000 0.89500 41.83500
C  3.69600 3.39700 42.34500
C  6.09700 1.24600 40.30800
C  7.43600 2.00200 40.21000
H  8.05600 2.32900 38.79700
N  0.58500 -1.04800 42.59000
C  0.40300 0.17900 42.04400
C  -0.98100 0.34300 41.66600
C  -1.66000 -0.68600 42.32300
C  -0.61100 -1.61800 42.82000
C  -1.56800 1.41200 40.80600
C  -3.21700 -0.82500 42.30800
O  -3.87000 0.08400 41.86300
C  -3.91100 -2.05100 42.89900
N  1.53000 -3.61000 44.04400
C  0.20200 -3.80200 43.97900
C  -0.16300 -5.19200 44.47300
C  1.21600 -5.81600 44.89800
C  2.11300 -4.70500 44.43400
C  -1.30700 -5.11800 45.60400
C  1.61800 -7.14300 44.27000
C  1.54400 -8.41200 45.15100
N  4.24600 -2.77100 43.62500
C  4.49300 -3.96900 44.24500
C  5.88100 -4.08900 44.49600
C  6.45800 -2.93400 43.92500
C  5.42400 -2.20600 43.31600
C  6.59700 -5.18900 45.24600
C  7.72900 -2.17500 43.73500
O  8.89000 -2.36600 44.09500
C  7.32700 -0.80200 43.04300
C  7.57100 0.38000 43.92000
O  6.82500 0.79400 44.82500
O  8.63400 1.04900 43.44400
C  8.86100 2.40300 43.96300
H  1.18500 2.01200 41.25500
H  -1.77500 -3.12000 43.51200
H  3.88600 -5.74400 45.18200
H  5.88900 1.86200 42.44000
H  3.63500 2.27800 40.40700
H  4.70400 3.68300 42.64400
H  3.16100 3.00900 43.21200
H  3.22400 4.21500 41.80200
H  5.53600 1.52600 39.41700
H  6.49700 0.25100 40.11400
H  8.29300 1.53100 40.69000
H  7.26200 2.94500 40.72800
H  -2.25700 0.94500 40.10200
H  -0.76400 1.86500 40.22500
H  -1.97600 2.20700 41.42900
H  -4.92400 -1.65600 42.81500
H  -3.62700 -1.98300 43.94900
H  -3.82100 -2.93000 42.26100
H  -0.53700 -5.75900 43.62000
H  1.27800 -5.81500 45.98600
H  -2.23500 -5.60600 45.30700
H  -1.67600 -4.11600 45.82400
H  -0.92800 -5.51400 46.54700
H  2.60600 -7.09600 43.81400
H  0.86500 -7.27600 43.49300
H  2.34000 -9.09700 44.85900
H  0.64300 -8.96200 44.88000
H  1.49900 -8.18200 46.21600
H  7.16800 -5.81600 44.56200
H  5.99000 -5.89000 45.81900
H  7.29500 -4.64900 45.88600
H  7.81600 -0.59200 42.09200
H  8.50400 3.23600 43.35800
H  9.94800 2.44500 44.03300
H  8.48400 2.53800 44.97800
Mg 47.57800 24.54100 28.02400
C  48.34700 26.82100 30.58700
C  46.72400 22.18700 30.61200
C  47.00300 22.17700 25.81500
C  48.97400 26.59800 25.68900
N  47.49300 24.56800 30.31800
C  47.75900 25.61900 31.06300
C  47.50100 25.24100 32.61500
C  47.08800 23.76900 32.57500
C  47.09900 23.47100 31.09000
C  47.98200 22.84300 33.44800
C  46.58400 26.30900 33.25700
C  45.75700 25.81100 34.42000
H  45.55800 26.65900 35.70600
N  46.98000 22.44300 28.15700
C  46.59700 21.70600 29.25200
C  45.96800 20.49800 28.86700
C  46.11200 20.41500 27.48500
C  46.80600 21.65300 27.09500
C  45.39200 19.45800 29.75800
C  45.61600 19.35500 26.48900
O  45.76200 19.42600 25.27700
C  44.89700 18.11700 26.94600
N  48.05100 24.32500 26.06300
C  47.51000 23.39400 25.28400
C  47.60400 23.65300 23.81700
C  48.12000 25.11600 23.83300
C  48.39000 25.35700 25.27400
C  48.60000 22.70700 23.03900
C  47.08000 26.15000 23.35000
C  47.58400 26.98800 22.21100
N  48.42600 26.38200 28.09700
C  48.91700 27.11000 27.05900
C  49.38100 28.39600 27.63500
C  49.17800 28.25900 29.03000
C  48.63000 27.01900 29.25400
C  50.10000 29.54100 26.95300
C  49.45700 29.02200 30.23900
O  49.95200 30.09000 30.46100
C  48.76600 28.12500 31.28300
C  49.74900 28.07800 32.44500
O  50.82600 27.58400 32.40200
O  49.18400 28.57100 33.55100
C  49.91000 28.58600 34.81700
H  46.34500 21.51000 31.38000
H  46.67400 21.49000 25.03200
H  49.13000 27.45200 25.02700
H  48.47000 25.33700 33.10600
H  46.01600 23.72700 32.76400
H  48.74100 23.35900 34.03600
H  48.41900 22.12600 32.75400
H  47.41300 22.13800 34.05300
H  45.87500 26.51700 32.45600
H  47.07800 27.24000 33.53900
H  46.22800 24.87500 34.72000
H  44.75200 25.66400 34.02500
H  44.36600 19.32500 29.41400
H  45.31900 19.82800 30.78000
H  45.94800 18.52700 29.64500
H  44.33000 17.67700 26.12600
H  44.04300 18.52900 27.48400
H  45.55500 17.51000 27.56800
H  46.56800 23.56900 23.48600
H  49.06000 25.19300 23.28700
H  48.04200 21.79900 22.80800
H  49.49600 22.40900 23.58300
H  48.90600 23.30500 22.18100
H  46.78200 26.80600 24.16800
H  46.13000 25.70800 23.05100
H  48.62300 26.81700 21.93000
H  47.41100 28.03200 22.47400
H  47.01700 26.81200 21.29700
H  49.68000 29.65800 25.95300
H  51.17100 29.34400 26.99700
H  50.05100 30.49000 27.48800
H  47.88500 28.67100 31.62100
H  49.92100 29.57700 35.27100
H  50.90100 28.15200 34.95300
H  49.41700 27.91700 35.52200

