158

Mg 24.71800 1.49300 29.53800
C  26.44800 1.14900 32.53600
C  21.83300 1.99300 31.37800
C  23.00500 1.36000 26.69400
C  27.75900 0.63500 27.78600
N  24.19800 1.56300 31.70700
C  25.11900 1.56400 32.69600
C  24.44300 1.87700 34.05400
C  22.94000 2.11200 33.70700
C  22.94200 1.77400 32.18400
C  22.02600 1.19800 34.45700
C  25.00300 3.11500 34.80700
C  25.46500 2.89300 36.20700
H  25.40900 4.03900 37.14100
N  22.70800 1.76100 29.12300
C  21.68800 1.97700 29.98000
C  20.47800 2.03100 29.27900
C  20.78200 1.91000 27.87500
C  22.24400 1.74900 27.84500
C  19.21300 2.33700 29.96400
C  19.79700 1.94100 26.71000
O  20.16100 1.68200 25.52800
C  18.40800 2.16300 26.81200
N  25.36700 1.21200 27.54700
C  24.41000 1.16800 26.54200
C  24.99500 0.66700 25.27300
C  26.48400 0.82100 25.56200
C  26.58700 0.92000 27.02000
C  24.46900 -0.73600 24.99100
C  27.16500 2.01700 24.76800
C  26.48300 3.40400 24.94000
N  26.74600 1.03000 29.99600
C  27.84100 0.76100 29.18900
C  28.98700 0.60100 30.05300
C  28.49200 0.78000 31.34000
C  27.11400 1.04800 31.28600
C  30.37000 0.25000 29.65900
C  28.90200 0.77500 32.67100
O  30.00900 0.66700 33.16400
C  27.61200 0.99600 33.50100
C  27.46100 -0.18200 34.42300
O  26.70700 -1.14900 34.35000
O  28.43600 -0.10300 35.39500
C  28.43400 -1.02800 36.50700
H  21.02900 2.30700 32.04700
H  22.44000 1.13600 25.78700
H  28.67400 0.45100 27.21900
H  24.59300 0.98000 34.65300
H  22.67000 3.13800 33.95600
H  21.57700 0.54500 33.70800
H  21.25600 1.73700 35.00800
H  22.63300 0.57800 35.11700
H  24.32900 3.97100 34.76200
H  25.87000 3.38600 34.20400
H  26.45600 2.44000 36.24600
H  24.89200 2.08900 36.66800
H  19.12100 2.46700 31.04200
H  18.56300 1.54300 29.59500
H  18.80700 3.25500 29.54000
H  18.26100 2.88300 27.61600
H  18.00300 1.18300 27.06600
H  17.88000 2.56200 25.94700
H  24.78800 1.32300 24.42700
H  27.00400 -0.09100 25.26900
H  23.74700 -0.54600 24.19600
H  24.02500 -1.18600 25.87900
H  25.16200 -1.42600 24.51000
H  27.18400 1.72400 23.71800
H  28.19700 2.22600 25.04800
H  25.75900 3.46600 25.75200
H  25.97500 3.68100 24.01600
H  27.25300 4.12600 25.21300
H  30.56500 0.47300 28.61000
H  30.62400 -0.80100 29.79100
H  31.03800 0.78800 30.33300
H  27.74600 1.84100 34.17600
H  27.59700 -0.68800 37.11700
H  29.28200 -1.04800 37.19200
H  28.25800 -2.06000 36.20400
Mg 40.75600 8.91800 30.11000
C  42.70300 9.76000 32.87200
C  38.27500 7.77200 32.27700
C  39.42500 7.48500 27.55200
C  43.68800 9.69800 28.15500
N  40.57400 8.83000 32.41000
C  41.34600 9.43300 33.30700
C  40.76700 9.26200 34.69100
C  39.41900 8.43500 34.49800
C  39.35000 8.42000 32.99700
C  39.46300 7.03800 35.19600
C  40.69800 10.59400 35.44900
C  41.48200 10.84600 36.75400
H  40.91000 11.86900 37.74400
N  38.98200 8.07400 29.92400
C  38.04900 7.75900 30.93000
C  36.92800 7.22100 30.27500
C  37.21100 7.05500 28.89400
C  38.60400 7.51500 28.73100
C  35.77400 6.77200 31.04100
C  36.46200 6.39800 27.77600
O  36.87100 6.32200 26.59400
C  34.99400 6.02200 28.09800
N  41.40300 8.80200 28.03000
C  40.67500 8.03900 27.23200
C  41.32200 7.88800 25.85800
C  42.72000 8.65300 26.01400
C  42.60100 9.13300 27.50500
C  41.45000 6.41700 25.38800
C  43.00900 9.75600 24.95300
C  42.49600 11.24400 25.20500
N  42.75300 9.74400 30.39200
C  43.80700 9.95700 29.50700
C  44.87600 10.62200 30.30300
C  44.50900 10.54300 31.61100
C  43.25400 9.89300 31.62200
C  46.09300 11.21300 29.66900
C  44.85100 10.92500 32.93100
O  45.80800 11.60300 33.35300
C  43.64800 10.40100 33.81200
C  44.20900 9.47500 34.93400
O  44.27300 8.26100 34.85500
O  44.77300 10.28400 35.88800
C  45.74000 9.55200 36.73900
H  37.47800 7.34500 32.88900
H  39.01300 6.82200 26.78800
H  44.53900 9.93700 27.51400
H  41.42400 8.60800 35.26300
H  38.52100 8.96600 34.81400
H  39.53600 6.21300 34.48700
H  38.55700 6.99100 35.80000
H  40.26800 7.04300 35.93100
H  39.67000 10.92000 35.60800
H  40.96900 11.29700 34.66200
H  42.44000 11.22300 36.39500
H  41.66700 9.89000 37.24400
H  35.80100 7.41500 31.92100
H  35.89900 5.71800 31.29000
H  34.84000 6.91300 30.49800
H  35.02700 5.34100 28.94800
H  34.54100 5.49500 27.25800
H  34.47400 6.95900 28.29400
H  40.64200 8.47600 25.24200
H  43.52300 7.91900 25.94600
H  40.68300 5.81300 25.87300
H  42.47200 6.12000 25.62300
H  41.32300 6.46700 24.30700
H  42.66400 9.47200 23.95900
H  44.09400 9.85400 24.94200
H  41.82500 11.26000 26.06400
H  41.96500 11.59100 24.31800
H  43.25100 12.01300 25.37000
H  46.76700 11.67600 30.38900
H  45.85600 12.03300 28.99100
H  46.56400 10.39000 29.13100
H  43.19500 11.24600 34.32900
H  46.75000 9.54300 36.32900
H  45.33100 8.56100 36.93500
H  45.87900 10.15100 37.63900

