158

Mg 48.51100 35.96200 27.77800
C  46.59500 34.41900 30.12200
C  49.04000 38.54200 30.06100
C  50.31300 37.64300 25.40100
C  47.76200 33.52500 25.46000
N  48.12700 36.33500 29.85600
C  47.35000 35.47500 30.63500
C  47.40100 35.84600 32.14900
C  47.61900 37.41500 31.93700
C  48.35800 37.41100 30.56500
C  46.31600 38.36900 31.91400
C  48.73100 35.30400 32.86600
C  48.61000 34.86300 34.33400
H  47.93000 35.85500 35.23000
N  49.47600 37.75800 27.78600
C  49.53600 38.75400 28.75400
C  50.27100 39.87400 28.30900
C  50.67000 39.66100 26.99600
C  50.09600 38.28300 26.68200
C  50.41100 41.08000 29.11900
C  51.48900 40.47600 26.00000
O  51.79900 40.11100 24.85800
C  52.04900 41.81400 26.39400
N  48.94600 35.71200 25.68400
C  49.79100 36.44700 24.93300
C  50.12400 35.75700 23.63200
C  49.41100 34.32800 23.73400
C  48.69000 34.48100 25.05800
C  49.62500 36.63000 22.41700
C  50.19300 33.03600 23.53000
C  50.21100 32.36100 22.05600
N  47.37600 34.27400 27.71400
C  47.16000 33.33700 26.77800
C  46.32300 32.35500 27.27500
C  46.05100 32.74500 28.62000
C  46.69000 33.94300 28.82200
C  45.87600 31.07600 26.56300
C  45.35200 32.40900 29.86200
O  44.57000 31.47900 30.10200
C  45.52500 33.60100 30.78700
C  45.73500 33.19600 32.22500
O  46.64100 32.69300 32.85300
O  44.53000 33.41600 32.85800
C  44.52900 33.21000 34.30000
H  49.02100 39.34700 30.79900
H  51.02700 38.08200 24.70100
H  47.62200 32.59600 24.90300
H  46.50000 35.55100 32.68600
H  48.36800 37.76500 32.64700
H  46.32500 39.01500 32.79200
H  45.36700 37.84100 31.82000
H  46.38700 39.00400 31.03100
H  49.56600 35.99900 32.77800
H  48.98200 34.42800 32.26900
H  49.59400 34.71200 34.77600
H  48.13400 33.89100 34.46300
H  49.83600 41.86200 28.62200
H  51.48200 41.28300 29.10300
H  50.17300 40.98100 30.17800
H  51.31300 42.38900 26.95500
H  52.34500 42.31600 25.47300
H  52.97300 41.78900 26.97200
H  51.20400 35.76800 23.48600
H  48.59400 34.19400 23.02500
H  49.32300 35.96600 21.60700
H  50.45700 37.22900 22.04900
H  48.75200 37.24900 22.62500
H  49.76500 32.38600 24.29300
H  51.21200 33.28900 23.82200
H  49.26600 32.66500 21.60600
H  50.25100 31.27800 22.17900
H  51.08600 32.57300 21.44300
H  46.05400 31.21700 25.49700
H  44.79500 30.93900 26.53700
H  46.34700 30.13700 26.85300
H  44.57300 34.12300 30.68800
H  43.49500 33.43600 34.55900
H  45.24400 33.92300 34.71100
H  44.68700 32.18600 34.63600
Mg -12.38200 17.46400 41.64100
C  -9.73400 15.16000 41.17500
C  -10.33600 19.88400 40.24700
C  -15.04300 19.39600 41.44100
C  -14.46600 14.63700 42.67900
N  -10.34400 17.39600 40.72400
C  -9.38800 16.46800 40.79500
C  -7.97800 17.02300 40.35800
C  -8.17600 18.54900 40.26700
C  -9.77900 18.63300 40.45800
C  -7.46800 19.44100 41.36100
C  -7.78800 16.41500 38.94900
C  -6.31600 16.02700 38.67600
H  -5.62800 16.77800 37.50000
N  -12.65300 19.44800 41.00100
C  -11.69500 20.22000 40.34700
C  -12.28600 21.41200 39.93400
C  -13.71300 21.38400 40.31200
C  -13.88100 20.00800 40.95800
C  -11.39500 22.53200 39.34400
C  -14.67900 22.45500 40.03400
O  -14.27400 23.42400 39.40200
C  -16.15600 22.38100 40.41200
N  -14.47100 17.01800 42.00800
C  -15.36600 18.08600 41.97300
C  -16.81600 17.57400 42.18400
C  -16.64000 16.10600 42.66400
C  -15.08100 15.91600 42.54900
C  -17.63500 18.45200 43.17500
C  -17.42300 15.02400 41.86100
C  -18.97300 15.11700 41.84700
N  -12.16600 15.31500 41.94600
C  -13.03800 14.34700 42.43200
C  -12.35400 13.05500 42.42400
C  -11.05900 13.28000 41.95700
C  -11.01000 14.69600 41.67500
C  -13.03500 11.78300 42.82600
C  -9.75300 12.67100 41.74000
O  -9.30200 11.55300 41.84100
C  -8.85600 13.87600 41.27700
C  -7.61200 14.14400 42.15800
O  -7.62500 14.24800 43.37400
O  -6.48800 14.20200 41.33600
C  -5.22500 14.49200 42.11400
H  -9.60600 20.60600 39.87600
H  -15.90600 20.06400 41.40200
H  -15.10000 13.85500 43.10300
H  -7.29200 16.68000 41.13300
H  -7.81600 18.97900 39.33200
H  -6.73800 18.86800 41.93100
H  -8.17900 20.01200 41.95900
H  -7.00600 20.19600 40.72600
H  -8.15400 17.11700 38.19900
H  -8.43800 15.59200 38.65000
H  -6.45300 14.96400 38.47400
H  -5.69500 16.13600 39.56600
H  -11.30100 22.33100 38.27700
H  -10.49100 22.46500 39.94800
H  -11.84200 23.49800 39.58000
H  -16.38700 22.26100 41.47100
H  -16.67700 21.62400 39.82600
H  -16.60100 23.28900 40.00400
H  -17.33700 17.58500 41.22700
H  -16.94800 16.02500 43.70600
H  -18.58000 18.64200 42.66700
H  -17.04000 19.33700 43.39900
H  -17.87700 17.98500 44.12900
H  -17.10900 14.08100 42.30800
H  -17.09300 15.02500 40.82300
H  -19.46400 15.28800 42.80500
H  -19.37700 14.23900 41.34400
H  -19.44000 15.86400 41.20500
H  -13.42800 11.87500 43.83800
H  -12.27800 11.01600 42.66600
H  -13.87300 11.43000 42.22600
H  -8.47700 13.61000 40.29000
H  -5.11100 15.57500 42.13800
H  -4.32000 14.24000 41.56200
H  -5.21800 13.99200 43.08300

