158

Mg 1.17500 -1.82700 43.24700
C  4.45300 -0.63500 43.14700
C  0.05900 1.14700 41.85700
C  -1.94600 -3.29700 42.69600
C  2.38300 -4.90100 44.18900
N  2.13000 0.06700 42.68000
C  3.46200 0.27600 42.69800
C  3.74300 1.66700 42.01000
C  2.35700 2.42800 41.88500
C  1.45900 1.15700 42.17000
C  2.21000 3.66100 42.77200
C  4.51900 1.51400 40.60200
C  5.98900 2.13600 40.44100
H  6.28300 2.73300 39.05600
N  -0.74400 -1.16100 42.40900
C  -0.95900 0.10800 41.94800
C  -2.33900 0.19200 41.52700
C  -2.98200 -1.03600 41.88800
C  -1.90000 -1.92000 42.38000
C  -2.81200 1.44700 40.62000
C  -4.54200 -1.32100 41.76200
O  -5.22500 -0.44600 41.16100
C  -5.20900 -2.65400 42.21600
N  0.28000 -3.88100 43.50900
C  -1.00200 -4.22700 43.30100
C  -1.34800 -5.76700 43.64900
C  0.12800 -6.18300 43.95800
C  1.00300 -4.94400 43.86000
C  -2.30500 -5.96400 44.83400
C  0.71400 -7.26600 42.97100
C  1.12800 -8.55500 43.63800
N  3.09100 -2.64900 43.60800
C  3.38600 -3.94100 44.02400
C  4.85000 -4.03200 44.19900
C  5.36200 -2.74000 43.87400
C  4.18100 -1.95300 43.57700
C  5.79000 -5.18100 44.47700
C  6.53000 -1.88000 43.73800
O  7.73400 -2.08500 43.91200
C  5.90600 -0.52100 43.11500
C  6.47100 0.57200 43.91700
O  6.30300 0.63500 45.14900
O  7.30300 1.42900 43.25900
C  7.81200 2.55500 44.04200
H  -0.16000 2.19100 41.62500
H  -2.90000 -3.81700 42.58700
H  2.84500 -5.76000 44.68000
H  4.38600 2.07700 42.78900
H  1.97200 2.63600 40.88700
H  2.27200 4.46000 42.03300
H  2.93700 3.70400 43.58300
H  1.18900 3.59700 43.14900
H  3.88700 1.76500 39.75000
H  4.61400 0.43700 40.46200
H  6.62900 1.31000 40.75000
H  6.11300 2.98100 41.11800
H  -3.42800 1.11100 39.78600
H  -2.04400 2.05600 40.14500
H  -3.48500 2.07200 41.20800
H  -6.25500 -2.69200 41.91100
H  -4.87400 -2.56400 43.24900
H  -4.72900 -3.45100 41.64800
H  -1.62200 -6.20700 42.69000
H  0.27500 -6.58500 44.96000
H  -2.80400 -5.08100 45.23200
H  -1.77500 -6.56500 45.57300
H  -3.14300 -6.48100 44.36600
H  1.62800 -6.95600 42.46400
H  0.01500 -7.43600 42.15300
H  1.76100 -8.25100 44.47100
H  1.65500 -9.29100 43.03000
H  0.26600 -9.10300 44.01900
H  5.84900 -5.84500 43.61500
H  5.39300 -5.76600 45.30700
H  6.74800 -4.81600 44.84900
H  6.29800 -0.44400 42.10100
H  8.50000 2.97500 43.30900
H  8.34800 2.19400 44.91900
H  6.96300 3.19000 44.29500
Mg 23.95800 -4.52500 45.78200
C  26.14200 -2.13900 44.26800
C  21.64600 -3.61700 43.58400
C  22.32800 -7.40300 46.53300
C  26.78800 -5.73300 47.58600
N  23.90300 -2.98300 44.13000
C  24.87200 -2.15100 43.65000
C  24.41100 -1.38100 42.40400
C  22.84900 -1.67100 42.45100
C  22.74900 -2.76600 43.50700
C  22.04600 -0.38300 42.93900
C  25.08600 -1.95200 41.11400
C  25.69400 -0.94000 40.16700
H  25.20500 -0.96300 38.72100
N  22.20900 -5.41900 45.12900
C  21.39400 -4.89800 44.21500
C  20.30500 -5.78500 43.95900
C  20.42400 -6.85200 44.93600
C  21.64300 -6.57100 45.63600
C  19.20100 -5.44100 43.03000
C  19.41900 -7.95200 45.08400
O  18.50400 -8.04300 44.24200
C  19.43700 -8.90400 46.29200
N  24.55500 -6.38900 46.88400
C  23.63400 -7.35700 47.09800
C  24.26800 -8.49500 47.86000
C  25.65200 -7.91600 48.35500
C  25.68600 -6.63800 47.52300
C  23.44100 -9.01200 49.11200
C  26.91000 -8.83200 48.10200
C  27.90400 -8.98700 49.31700
N  26.01900 -4.00200 45.98900
C  26.99900 -4.56000 46.82600
C  28.22400 -3.83700 46.60100
C  27.92700 -2.82800 45.64500
C  26.61600 -3.01700 45.23200
C  29.51400 -4.21800 47.27300
C  28.44500 -1.65600 44.97300
O  29.58500 -1.16300 45.05400
C  27.33700 -1.23400 44.01000
C  27.14200 0.20500 44.16000
O  26.36800 0.72100 44.95300
O  27.85800 0.92400 43.30400
C  27.43300 2.37700 43.23300
H  20.86400 -3.24700 42.91700
H  21.81400 -8.30900 46.85800
H  27.60400 -6.11800 48.20100
H  24.53800 -0.33000 42.66200
H  22.39700 -1.95600 41.50100
H  22.63700 0.52700 43.03800
H  21.54300 -0.57000 43.88800
H  21.38600 -0.24700 42.08200
H  24.40000 -2.55100 40.51500
H  25.94700 -2.55500 41.40300
H  26.77700 -1.06000 40.13200
H  25.46400 0.05800 40.54100
H  18.26700 -5.65800 43.55000
H  19.38200 -5.99400 42.10900
H  19.12600 -4.37400 42.82300
H  19.73300 -8.38600 47.20400
H  20.02700 -9.79600 46.07700
H  18.38400 -9.18200 46.34000
H  24.47200 -9.27900 47.13100
H  25.62300 -7.64000 49.40900
H  22.89000 -9.92800 48.89900
H  22.75000 -8.24400 49.45900
H  24.09600 -9.19600 49.96400
H  27.50600 -8.50900 47.24800
H  26.54300 -9.80900 47.78800
H  28.78200 -8.44700 48.96300
H  28.15200 -10.03400 49.49600
H  27.51700 -8.51100 50.21900
H  29.23100 -4.49600 48.28800
H  30.30300 -3.47200 47.18400
H  29.73100 -5.11400 46.69200
H  27.59200 -1.37900 42.96000
H  28.32300 3.00500 43.26900
H  26.73500 2.80800 43.95000
H  27.14500 2.35500 42.18200

