158

Mg 44.95300 34.84800 28.13900
C  43.50100 32.59900 30.45700
C  45.17000 37.12200 30.70500
C  46.33900 36.93900 25.97800
C  44.58500 32.46600 25.68800
N  44.53100 34.77100 30.33900
C  43.98700 33.74600 31.10500
C  43.95200 34.09100 32.62600
C  43.78000 35.63100 32.41900
C  44.59900 35.86800 31.12900
C  42.27700 36.06400 32.36900
C  45.31700 33.56400 33.23500
C  45.31900 33.44300 34.78700
H  44.40100 34.28000 35.59500
N  45.64700 36.75200 28.32300
C  45.69700 37.50300 29.48000
C  46.23100 38.80200 29.09700
C  46.76800 38.71400 27.78300
C  46.30300 37.43900 27.27200
C  46.30100 39.89800 30.14600
C  47.50000 39.79300 27.09500
O  48.06900 39.57800 26.01600
C  47.63800 41.27500 27.67500
N  45.24800 34.77100 26.08600
C  45.90100 35.75000 25.38400
C  46.27900 35.27600 24.01300
C  45.47000 33.88200 23.89200
C  45.19300 33.62300 25.33600
C  45.76900 36.31700 22.92700
C  46.27300 32.82900 23.04400
C  45.56000 32.14300 21.90800
N  44.32600 32.90200 28.03200
C  44.10900 32.09500 26.93500
C  43.50700 30.86900 27.37500
C  43.06600 31.09300 28.72500
C  43.69600 32.33900 29.08900
C  43.36700 29.66600 26.65000
C  42.47900 30.44000 29.87200
O  41.97400 29.36900 30.02200
C  42.61200 31.45800 31.05500
C  43.10200 30.74500 32.24400
O  44.11000 30.07900 32.33200
O  42.24900 31.06200 33.34100
C  42.54200 30.28500 34.61500
H  45.18500 37.82200 31.54300
H  46.90700 37.59900 25.31800
H  44.64400 31.68600 24.92600
H  43.02900 33.79100 33.12300
H  44.30600 36.08700 33.25800
H  42.14800 36.91300 31.69700
H  42.09100 36.55400 33.32400
H  41.56700 35.28600 32.08900
H  46.17000 34.18500 32.96200
H  45.52600 32.57300 32.83100
H  46.36400 33.61600 35.04500
H  45.06900 32.38800 34.90200
H  45.98900 40.89000 29.81800
H  47.27800 39.92800 30.62700
H  45.67200 39.68000 31.00900
H  48.18000 41.27400 28.62000
H  46.61300 41.62300 27.79700
H  48.13100 41.93900 26.96500
H  47.33500 35.09300 23.81800
H  44.47800 33.95800 23.44600
H  45.03500 35.84600 22.27400
H  46.55100 36.76500 22.31300
H  45.29600 37.19000 23.37800
H  46.72300 32.06200 23.67500
H  47.15400 33.37400 22.70700
H  45.83700 31.09500 21.79700
H  45.79600 32.58700 20.94100
H  44.48000 32.20600 22.03900
H  44.27300 29.06400 26.58300
H  43.14000 29.94500 25.62100
H  42.58800 28.93100 26.85500
H  41.56500 31.73900 31.16400
H  41.73000 30.07100 35.31000
H  43.16800 30.81500 35.33300
H  43.17800 29.41200 34.46200
Mg 25.39900 51.29300 26.22400
C  23.49600 52.57800 28.82800
C  27.78200 50.17700 28.53800
C  27.65400 50.83400 23.70500
C  23.22200 52.64500 23.95900
N  25.55300 51.36300 28.38800
C  24.63000 51.88600 29.27800
C  25.06000 51.63100 30.71600
C  26.49500 51.00900 30.56400
C  26.63100 50.86800 29.05200
C  27.73500 51.78400 31.18100
C  24.06100 50.77400 31.54600
C  23.72200 51.33700 32.90900
H  24.96800 51.45200 33.84100
N  27.38500 50.55900 26.15300
C  28.16600 50.07100 27.16400
C  29.19200 49.33400 26.67200
C  29.24700 49.60800 25.22000
C  28.03600 50.40600 24.97700
C  30.01300 48.38600 27.47500
C  30.16000 48.99900 24.18800
O  30.07100 49.20300 22.97200
C  31.14400 47.95000 24.58900
N  25.46500 51.80500 24.13500
C  26.48600 51.45000 23.31300
C  26.19700 51.86800 21.89200
C  24.71700 52.18500 21.95600
C  24.38200 52.17700 23.43700
C  26.98100 53.06500 21.23100
C  23.87400 51.33700 21.01300
C  23.13600 50.07500 21.63600
N  23.56900 52.31800 26.30000
C  22.83500 52.86800 25.35100
C  21.58700 53.53000 25.88300
C  21.77900 53.39100 27.26200
C  23.06300 52.74400 27.42400
C  20.49400 54.20800 25.14700
C  21.26100 53.68300 28.55200
O  20.29300 54.33000 28.92700
C  22.31200 53.22500 29.55400
C  22.67200 54.23700 30.48800
O  23.59500 55.04700 30.33200
O  21.75900 54.33300 31.46000
C  21.72000 55.64900 32.27000
H  28.57900 49.96400 29.25500
H  28.16300 50.46200 22.81300
H  22.52200 52.98900 23.19500
H  25.01400 52.58100 31.24800
H  26.58600 50.13500 31.20900
H  27.16100 52.61000 31.60100
H  28.43700 52.12400 30.42000
H  28.30600 51.12000 31.83000
H  24.48600 49.78100 31.69500
H  23.21400 50.49600 30.91900
H  22.90500 50.82200 33.41500
H  23.34200 52.34500 32.74000
H  31.05200 48.70900 27.53300
H  30.05300 47.34300 27.16400
H  29.74300 48.33000 28.53000
H  31.71000 48.25900 25.46800
H  31.82100 47.66300 23.78500
H  30.58900 47.05700 24.87700
H  26.38300 51.08100 21.16200
H  24.57200 53.24800 21.76200
H  27.79800 52.69000 20.61500
H  27.37800 53.69100 22.03000
H  26.45500 53.65700 20.48300
H  24.39300 51.04700 20.10000
H  23.08500 51.95500 20.58300
H  22.09100 50.31900 21.82700
H  23.64800 49.76500 22.54700
H  23.19600 49.20800 20.97700
H  20.45100 53.90900 24.09900
H  20.82500 55.24600 25.15600
H  19.46800 54.05000 25.47900
H  21.93900 52.40300 30.16600
H  21.98300 56.49300 31.63200
H  22.39200 55.50800 33.11600
H  20.72800 55.76200 32.70800

