158

Mg 2.19200 -1.43000 44.14600
C  5.50900 -0.53500 43.36100
C  1.14000 1.35900 42.31300
C  -0.86400 -2.70100 44.17500
C  3.49800 -4.48000 45.55900
N  3.20800 0.19100 42.94900
C  4.53600 0.39500 42.83000
C  4.90800 1.63000 41.95100
C  3.44000 2.39200 41.84100
C  2.56300 1.25100 42.39900
C  3.39900 3.75800 42.51300
C  5.60400 1.16200 40.60700
C  6.69000 2.11700 40.11400
H  6.49600 2.94600 38.83000
N  0.39000 -0.71200 43.52600
C  0.14300 0.44200 42.77000
C  -1.23800 0.62900 42.59700
C  -1.87700 -0.42800 43.29000
C  -0.79000 -1.38500 43.72100
C  -1.94800 1.85100 41.90700
C  -3.34100 -0.59100 43.51500
O  -4.19300 0.19200 43.12200
C  -3.84500 -1.82300 44.19600
N  1.40200 -3.35300 44.81600
C  0.08500 -3.57800 44.64400
C  -0.25900 -5.05200 44.94900
C  1.11500 -5.48000 45.74200
C  2.06600 -4.41600 45.36300
C  -1.52200 -5.30400 45.79800
C  1.65300 -6.92700 45.39200
C  1.68100 -7.89000 46.58400
N  4.08500 -2.32300 44.47800
C  4.47200 -3.56900 45.03900
C  5.92400 -3.73500 45.00400
C  6.32600 -2.51300 44.49100
C  5.20700 -1.79100 44.08900
C  6.74600 -4.97400 45.41900
C  7.48200 -1.73700 44.10400
O  8.63100 -2.13800 44.22100
C  7.02700 -0.43700 43.43000
C  7.47800 0.78000 44.09200
O  6.98700 1.27700 45.08700
O  8.44000 1.45300 43.30000
C  8.75600 2.83200 43.62600
H  0.82800 2.22900 41.73000
H  -1.81600 -3.19800 43.97700
H  3.85000 -5.42200 45.98500
H  5.61800 2.14500 42.59700
H  3.23300 2.52000 40.77800
H  2.47000 3.89500 43.06600
H  3.32300 4.52700 41.74400
H  4.23600 4.06800 43.13800
H  4.82700 1.01300 39.85800
H  6.06400 0.18200 40.73500
H  7.53200 1.44100 39.96300
H  7.07700 2.72500 40.93200
H  -1.46100 2.42800 41.12000
H  -2.39800 2.39200 42.73900
H  -2.80000 1.43100 41.37200
H  -4.78400 -1.54600 44.67500
H  -3.19500 -2.12100 45.01900
H  -3.97700 -2.65300 43.50200
H  -0.17100 -5.64900 44.04200
H  0.92000 -5.27500 46.79400
H  -1.19900 -5.65500 46.77800
H  -2.18100 -5.98300 45.25700
H  -2.03700 -4.36600 46.00900
H  2.59000 -7.05700 44.85100
H  0.82400 -7.28600 44.78200
H  0.82500 -8.55900 46.48400
H  1.40900 -7.33700 47.48200
H  2.68300 -8.31400 46.63300
H  6.63000 -5.57000 44.51300
H  6.26900 -5.42600 46.28900
H  7.78600 -4.71700 45.61900
H  7.54100 -0.55300 42.47500
H  8.06800 3.52600 43.14300
H  9.76800 3.06400 43.29500
H  8.80500 2.99800 44.70200
Mg 35.31000 48.51200 25.77800
C  35.76600 46.53700 28.70600
C  34.43200 51.12600 27.63700
C  34.69400 50.09700 22.87800
C  36.22800 45.64700 23.98500
N  35.15800 48.76300 27.92000
C  35.50200 47.88200 28.97900
C  35.48600 48.60300 30.31400
C  34.71600 50.01100 29.91500
C  34.79500 50.00300 28.39500
C  33.29200 50.04400 30.44900
C  36.90600 48.78600 31.06100
C  36.88200 48.57500 32.65600
H  35.54900 48.77400 33.38300
N  34.66100 50.35600 25.32400
C  34.40800 51.37100 26.25200
C  34.14000 52.64300 25.58200
C  34.23800 52.32500 24.17800
C  34.58900 50.88600 24.09000
C  33.86800 53.99900 26.42100
C  34.05300 53.25900 22.95800
O  34.20600 52.92600 21.78800
C  33.74400 54.64900 23.26600
N  35.09300 47.87800 23.76500
C  34.87500 48.69600 22.69200
C  34.95800 48.00300 21.31800
C  35.45600 46.55800 21.71700
C  35.60000 46.66600 23.22700
C  33.61600 48.02400 20.57100
C  36.82600 46.12500 21.15000
C  38.05200 46.97900 21.60000
N  35.85700 46.49500 26.17000
C  36.27000 45.44200 25.34000
C  36.69900 44.29100 26.11500
C  36.38400 44.64900 27.42200
C  35.93600 46.00200 27.40400
C  37.38100 43.02200 25.54000
C  36.42900 44.12600 28.77300
O  36.73700 43.04600 29.23600
C  36.04000 45.33200 29.62400
C  34.88600 44.97100 30.57000
O  33.74200 44.71700 30.25800
O  35.37800 44.91100 31.82900
C  34.34300 44.52300 32.83900
H  34.35400 51.99600 28.29300
H  34.61300 50.56200 21.89300
H  36.74600 44.85800 23.43600
H  34.79200 48.10700 30.99300
H  35.38900 50.81000 30.22600
H  32.92500 51.06800 30.37000
H  33.35900 49.85300 31.52000
H  32.76500 49.25300 29.91500
H  37.36000 49.74000 30.79100
H  37.56900 48.05900 30.59300
H  37.34300 49.31700 33.30900
H  37.24000 47.59800 32.97700
H  32.91000 54.50900 26.31700
H  34.70000 54.60700 26.06700
H  34.22400 53.86900 27.44300
H  34.55700 55.11600 23.82200
H  32.83900 54.57600 23.86900
H  33.53000 55.33100 22.44300
H  35.73100 48.51900 20.74800
H  34.74300 45.76200 21.50000
H  32.86700 48.48500 21.21400
H  33.28700 47.02800 20.27200
H  33.75600 48.63600 19.68000
H  36.74400 46.15800 20.06400
H  37.06500 45.09800 21.42400
H  38.45000 46.52100 22.50600
H  37.71600 47.98700 21.84500
H  38.76600 47.02700 20.77800
H  37.70700 43.06700 24.50100
H  36.82700 42.12000 25.80000
H  38.28800 42.89900 26.13200
H  36.95500 45.58200 30.16100
H  34.01800 43.49200 32.69700
H  33.45800 45.14000 32.68200
H  34.70000 44.59800 33.86700

