158

Mg 17.17600 -0.62600 28.09400
C  15.90500 1.11300 30.76300
C  19.35600 -2.16900 30.29100
C  18.34200 -2.37900 25.43300
C  15.39100 1.41100 26.00700
N  17.66200 -0.41600 30.33800
C  16.83900 0.19900 31.21600
C  17.11600 -0.20300 32.66200
C  18.45500 -1.02900 32.49600
C  18.49700 -1.21900 30.93000
C  19.74100 -0.34800 33.07600
C  15.91000 -0.81300 33.35500
C  15.54800 -0.35300 34.77000
H  16.68800 0.00500 35.69100
N  18.65800 -1.99800 27.88300
C  19.39500 -2.62100 28.90200
C  20.06900 -3.73000 28.38900
C  19.94300 -3.75300 26.97800
C  18.97400 -2.69200 26.66300
C  20.94400 -4.63000 29.19400
C  20.51800 -4.60300 25.90700
O  20.31100 -4.42500 24.69300
C  21.46700 -5.74000 26.28500
N  17.07700 -0.35700 26.07400
C  17.48900 -1.32500 25.21600
C  17.10000 -0.89700 23.77500
C  15.96000 0.09700 24.02100
C  16.10600 0.41400 25.46500
C  18.31900 -0.41900 22.91400
C  14.49600 -0.34800 23.58200
C  14.15500 -0.05200 22.15800
N  15.90500 0.85600 28.24000
C  15.27800 1.71100 27.35700
C  14.52500 2.70900 27.97300
C  14.63900 2.45500 29.35600
C  15.57900 1.36200 29.41400
C  13.85500 3.86200 27.28100
C  14.21800 2.97700 30.62500
O  13.38500 3.74800 30.94500
C  14.95100 2.01700 31.59100
C  15.69600 2.94000 32.50100
O  16.80300 3.42400 32.24500
O  14.99300 3.22400 33.66000
C  15.68100 4.01800 34.60900
H  19.95700 -2.74700 30.99600
H  18.60400 -2.86800 24.49300
H  14.77600 2.01600 25.33700
H  17.19900 0.71200 33.24800
H  18.38100 -1.90100 33.14600
H  19.75200 -0.38400 34.16600
H  19.82200 0.67300 32.70300
H  20.51800 -1.01300 32.69800
H  16.13500 -1.88000 33.36800
H  15.14100 -0.66000 32.59800
H  15.06100 -1.13700 35.34900
H  14.81300 0.45100 34.71200
H  21.98700 -4.67900 28.88200
H  20.42500 -5.58400 29.10700
H  21.05900 -4.44400 30.26200
H  21.01900 -6.47600 26.95300
H  22.33500 -5.25600 26.73300
H  21.72900 -6.30500 25.39100
H  16.64200 -1.71400 23.21700
H  16.09500 1.02600 23.46700
H  19.25900 -0.43000 23.46400
H  18.23200 0.62300 22.60500
H  18.40800 -1.14700 22.10800
H  13.72300 0.00300 24.26600
H  14.41800 -1.43200 23.66500
H  13.08800 -0.10500 21.94000
H  14.66700 -0.81900 21.57900
H  14.49000 0.91500 21.78300
H  13.23200 4.36700 28.02000
H  13.14400 3.41800 26.58500
H  14.58000 4.37800 26.65200
H  14.21600 1.42800 32.14100
H  15.57300 5.04800 34.27100
H  16.73000 3.84300 34.84600
H  15.21000 4.06400 35.59100
Mg -10.16900 17.63100 40.72700
C  -6.62200 17.23900 40.54400
C  -9.72400 20.99200 39.83100
C  -13.43900 17.88900 40.05000
C  -10.35200 14.12000 40.65800
N  -8.38600 18.85700 40.11600
C  -7.03600 18.53200 40.24900
C  -6.19100 19.74200 39.90600
C  -7.14900 20.89900 40.09900
C  -8.49500 20.25800 40.02200
C  -6.83300 21.91800 41.27200
C  -5.87300 19.59500 38.36200
C  -4.45400 19.52200 37.91100
H  -4.23500 18.57900 36.79300
N  -11.42700 19.23500 40.10400
C  -10.99900 20.53400 39.81800
C  -12.14100 21.28700 39.52400
C  -13.26500 20.43100 39.91100
C  -12.74500 19.11500 40.07600
C  -12.24700 22.80900 39.13100
C  -14.76200 20.93000 39.94500
O  -15.03500 22.10700 39.69000
C  -15.96600 20.09300 40.40400
N  -11.57200 16.17800 40.10400
C  -12.92800 16.56800 40.04500
C  -13.85600 15.40300 40.06700
C  -12.89800 14.17900 40.12300
C  -11.50400 14.83200 40.29900
C  -14.97000 15.52500 41.14800
C  -12.98700 13.13900 39.00200
C  -13.58300 11.80400 39.42500
N  -8.85300 16.01200 40.90100
C  -9.04200 14.64300 40.82900
C  -7.80600 13.94800 40.91700
C  -6.79500 14.93000 40.84400
C  -7.50800 16.17700 40.79900
C  -7.52100 12.50500 40.99100
C  -5.40400 15.16000 40.62700
O  -4.42500 14.40600 40.53200
C  -5.26100 16.68900 40.63400
C  -4.37200 17.12900 41.68300
O  -3.49300 17.96300 41.56600
O  -4.61600 16.48000 42.84100
C  -3.54300 16.62300 43.88200
H  -9.55600 22.07000 39.76700
H  -14.52200 17.94400 39.92200
H  -10.49900 13.03900 40.71300
H  -5.26700 19.70100 40.48300
H  -7.19700 21.51000 39.19700
H  -6.36200 22.82800 40.90200
H  -6.17300 21.37800 41.95100
H  -7.74300 22.10000 41.84300
H  -6.29700 20.38700 37.74400
H  -6.28100 18.69700 37.89800
H  -3.83400 19.06600 38.68200
H  -4.07000 20.50200 37.62600
H  -11.35900 23.11900 38.58200
H  -12.42100 23.34700 40.06300
H  -13.01500 23.09600 38.41300
H  -16.43600 19.49800 39.62100
H  -16.66700 20.64700 41.02900
H  -15.64300 19.31400 41.09500
H  -14.35800 15.40500 39.09900
H  -13.01700 13.71300 41.10100
H  -14.80700 16.41200 41.76000
H  -14.78500 14.78400 41.92600
H  -15.98000 15.51500 40.73800
H  -11.98900 12.97100 38.59700
H  -13.70500 13.44700 38.24200
H  -13.74900 11.70100 40.49700
H  -12.92400 11.06800 38.96300
H  -14.58100 11.79500 38.98700
H  -6.73100 12.26100 40.28100
H  -8.35700 11.88200 40.67400
H  -7.29200 12.15300 41.99700
H  -4.67400 16.84100 39.72800
H  -3.78400 15.85000 44.61200
H  -3.55000 17.62400 44.31300
H  -2.59400 16.46200 43.37000

