158

Mg 47.08800 15.56500 28.13300
C  44.98600 15.67200 30.94800
C  49.39000 17.44700 29.79400
C  48.64600 16.16300 25.23400
C  44.39100 14.26900 26.31000
N  47.07900 16.51300 30.08200
C  46.22200 16.30400 31.16100
C  46.78400 16.84600 32.49000
C  48.06300 17.67600 32.01700
C  48.25700 17.08700 30.53700
C  47.89400 19.18800 32.02000
C  46.93200 15.70300 33.49100
C  46.21500 16.13700 34.83000
H  46.09300 17.59100 35.31600
N  48.85400 16.61400 27.56700
C  49.71500 17.24600 28.43200
C  50.87700 17.67800 27.63400
C  50.67000 17.31200 26.28400
C  49.32600 16.70100 26.30800
C  51.98300 18.40400 28.33500
C  51.57500 17.43300 25.04800
O  51.26500 17.01100 23.95300
C  52.92800 18.05500 25.26600
N  46.61300 15.21500 26.10200
C  47.42700 15.51100 25.09100
C  46.87200 15.08300 23.71700
C  45.59300 14.34100 24.09100
C  45.58100 14.48900 25.59800
C  46.68700 16.23800 22.78600
C  45.51300 12.87100 23.65000
C  44.45500 12.54400 22.58000
N  45.12800 14.96400 28.54200
C  44.14400 14.53600 27.65600
C  42.93800 14.25000 28.34400
C  43.15400 14.75000 29.64500
C  44.53900 15.12300 29.71100
C  41.66200 13.75600 27.77300
C  42.60200 14.88700 30.98600
O  41.49100 14.61500 31.45500
C  43.77300 15.40500 31.90000
C  43.19100 16.63600 32.45400
O  43.32200 17.73500 31.95100
O  42.49300 16.49600 33.67200
C  41.93600 17.68900 34.24900
H  50.14800 17.92500 30.41700
H  49.00300 16.07700 24.20500
H  43.56700 13.87700 25.71000
H  46.07000 17.56900 32.88400
H  48.92900 17.47700 32.64800
H  48.37500 19.63100 32.89300
H  46.85300 19.47700 32.16100
H  48.23500 19.63000 31.08400
H  47.97600 15.53600 33.75600
H  46.51400 14.81200 33.02300
H  46.62300 15.49500 35.61100
H  45.17000 15.86300 34.68200
H  52.87200 17.87300 27.99500
H  51.90300 18.29800 29.41700
H  52.15600 19.45500 28.10300
H  52.73300 19.06500 25.62800
H  53.45600 18.13600 24.31600
H  53.52900 17.49000 25.97800
H  47.50600 14.38900 23.16600
H  44.75200 14.91900 23.70800
H  45.71600 16.28200 22.29500
H  47.45800 16.19500 22.01700
H  46.77100 17.18700 23.31600
H  45.38200 12.21300 24.50900
H  46.47100 12.63100 23.18900
H  43.99400 11.62200 22.93500
H  44.95400 12.55400 21.61100
H  43.66700 13.29100 22.47600
H  41.69800 12.75700 27.33900
H  41.40600 14.45400 26.97600
H  40.83700 13.75900 28.48600
H  44.04300 14.79600 32.76300
H  41.31200 18.11900 33.46600
H  42.67700 18.47300 34.40200
H  41.34700 17.45000 35.13500
Mg 41.99200 41.52800 27.48300
C  41.15000 43.91500 29.89900
C  42.86600 39.32200 29.93900
C  42.87500 39.28500 25.14600
C  41.49600 43.98500 25.11800
N  42.01800 41.67400 29.78600
C  41.57300 42.70200 30.55500
C  41.69100 42.33600 32.07900
C  42.41100 40.91200 32.01900
C  42.49900 40.61200 30.53300
C  43.84600 40.72700 32.74300
C  40.39500 42.39800 32.79300
C  40.19800 43.22000 34.12600
H  39.51100 42.38000 35.21400
N  42.73900 39.59200 27.53900
C  43.00800 38.85300 28.64300
C  43.48500 37.52600 28.27100
C  43.42100 37.47600 26.84900
C  43.02300 38.84200 26.44500
C  44.05700 36.44500 29.27300
C  43.88100 36.37400 25.93700
O  43.91900 36.46900 24.71000
C  44.42900 35.03100 26.60000
N  42.13500 41.57400 25.50000
C  42.46200 40.54700 24.70000
C  42.41000 40.85900 23.20100
C  41.61100 42.22400 23.26100
C  41.78700 42.66400 24.68400
C  43.73400 40.99700 22.57300
C  40.11900 42.07200 22.76400
C  38.98600 41.79400 23.79700
N  41.60800 43.51900 27.46500
C  41.30700 44.35100 26.36800
C  40.72300 45.60800 26.82800
C  40.72000 45.51000 28.19100
C  41.20000 44.20400 28.52800
C  40.54000 46.87800 25.95300
C  40.56900 46.28800 29.45300
O  40.16300 47.45400 29.59800
C  40.86200 45.25500 30.63500
C  41.92900 45.80900 31.51500
O  43.09200 46.01200 31.18000
O  41.35700 46.02600 32.79400
C  42.21600 46.69700 33.84600
H  43.14300 38.53100 30.63800
H  43.11300 38.51100 24.41400
H  41.29000 44.67000 24.29300
H  42.28900 43.11300 32.55500
H  41.73800 40.18100 32.46800
H  44.59200 40.33900 32.05000
H  43.68700 39.90800 33.44400
H  44.24300 41.63600 33.19400
H  40.05400 41.37300 32.93400
H  39.67400 42.77400 32.06600
H  39.47900 44.02800 33.99200
H  41.16000 43.61800 34.44900
H  44.97700 36.02400 28.86700
H  43.37300 35.62300 29.48300
H  44.25200 36.96300 30.21200
H  45.40900 35.12000 27.06800
H  44.53300 34.37800 25.73300
H  43.67500 34.60600 27.26200
H  41.82000 40.11400 22.66800
H  42.08100 42.97500 22.62500
H  44.02600 42.01700 22.32300
H  43.79900 40.61800 21.55300
H  44.53100 40.48300 23.11100
H  40.14700 41.25000 22.05000
H  39.90600 43.07200 22.38600
H  38.06200 42.27900 23.48100
H  39.25100 42.09100 24.81200
H  38.69600 40.74500 23.85300
H  39.49600 47.13600 25.77800
H  41.00100 46.75200 24.97300
H  41.10600 47.69800 26.39500
H  40.03900 45.16100 31.34500
H  43.22200 46.92800 33.49700
H  42.33000 45.97500 34.65500
H  41.75800 47.64100 34.14100

