158

Mg 9.68800 48.37400 26.02300
C  7.82600 48.76400 28.99000
C  12.21400 49.96300 27.55500
C  11.44000 47.97100 23.06400
C  6.68300 47.83100 24.26300
N  9.90900 49.26800 28.06200
C  9.13400 49.11500 29.12100
C  9.84700 49.55200 30.42500
C  11.01000 50.39500 29.85700
C  11.03700 49.94100 28.38900
C  10.75000 51.91400 30.06300
C  10.19100 48.29600 31.30300
C  10.09400 48.37900 32.85000
H  10.14400 47.03600 33.67900
N  11.55300 48.90100 25.32000
C  12.46200 49.52900 26.15200
C  13.78000 49.43400 25.48600
C  13.59200 48.81000 24.26700
C  12.14600 48.49700 24.18600
C  15.11000 49.86700 26.17900
C  14.54600 48.50400 23.09100
O  14.25200 48.09000 21.95900
C  16.03800 48.83200 23.24400
N  9.24100 48.07800 23.94000
C  10.10600 47.89000 22.93100
C  9.39700 47.41100 21.66100
C  7.84600 47.51400 22.07400
C  7.89800 47.81800 23.57500
C  9.78900 48.27100 20.43000
C  7.09000 46.24900 21.57800
C  6.87700 46.01700 20.10100
N  7.67400 48.32900 26.49400
C  6.53400 48.12800 25.63400
C  5.39200 48.01400 26.49000
C  5.84300 48.24500 27.78300
C  7.19500 48.43300 27.73800
C  3.98700 47.62000 26.04100
C  5.46600 48.29000 29.20300
O  4.29800 48.17000 29.66200
C  6.76800 48.58300 29.99200
C  6.88400 47.31000 30.76700
O  7.09900 46.17900 30.35200
O  6.84700 47.54500 32.13400
C  7.08400 46.28100 32.90400
H  13.04900 50.39000 28.11400
H  12.07100 47.70600 22.21400
H  5.72800 47.67100 23.75800
H  9.17000 50.14700 31.03900
H  11.97500 50.07200 30.24700
H  10.02900 52.03100 30.87200
H  10.35800 52.24900 29.10200
H  11.63700 52.48800 30.33100
H  11.25300 48.08800 31.17400
H  9.73100 47.37700 30.94000
H  9.20700 48.95600 33.11400
H  11.00500 48.84000 33.23000
H  15.77600 49.01100 26.28900
H  14.94900 50.42400 27.10200
H  15.55100 50.55900 25.46200
H  16.51300 48.72200 22.26900
H  16.48000 48.10300 23.92300
H  16.23000 49.88500 23.45000
H  9.67500 46.37600 21.46100
H  7.37000 48.43400 21.73400
H  10.58300 48.98000 20.66200
H  8.95400 48.82500 20.00000
H  10.25200 47.65800 19.65700
H  6.11800 46.28400 22.06900
H  7.54900 45.34100 21.96900
H  5.87400 45.61800 19.94800
H  7.61100 45.31600 19.70400
H  6.99300 47.00300 19.65200
H  3.89900 47.08500 25.09500
H  3.44000 48.50200 25.70900
H  3.54900 47.04400 26.85600
H  6.57000 49.42100 30.66100
H  7.42500 46.63800 33.87500
H  7.91100 45.68300 32.52100
H  6.15100 45.72400 32.99500
Mg -2.19000 35.25900 26.74100
C  -3.74100 33.36800 29.22900
C  -0.63700 37.19300 29.13200
C  -0.87200 37.00200 24.32500
C  -4.18600 33.51000 24.31400
N  -2.22300 35.37500 28.93800
C  -2.95300 34.46500 29.70600
C  -2.69100 34.66500 31.20400
C  -1.83800 36.02900 31.10800
C  -1.60500 36.30200 29.63300
C  -2.30700 37.29600 31.90100
C  -1.95300 33.44400 31.85400
C  -2.58900 32.76900 33.07400
H  -1.73100 32.49600 34.35200
N  -0.83500 36.87400 26.73400
C  -0.27700 37.40800 27.77500
C  0.71300 38.39100 27.35300
C  0.62600 38.43200 25.95300
C  -0.37900 37.41400 25.58900
C  1.54800 39.27700 28.39900
C  1.34500 39.25900 24.88500
O  1.05400 39.29000 23.70700
C  2.42500 40.19200 25.32900
N  -2.63800 35.40000 24.65600
C  -1.89000 36.18500 23.85800
C  -2.47500 36.33200 22.50200
C  -3.28700 35.00300 22.44500
C  -3.53300 34.68200 23.91500
C  -3.27700 37.66400 22.31100
C  -2.68800 33.78300 21.71800
C  -1.24600 33.33500 22.21600
N  -3.60200 33.74900 26.76800
C  -4.21700 33.06100 25.70200
C  -4.90000 31.93500 26.21000
C  -4.73500 31.98200 27.63600
C  -3.93100 33.08200 27.91600
C  -5.73500 31.02000 25.38200
C  -5.16800 31.35300 28.83200
O  -5.83300 30.32400 28.97000
C  -4.57500 32.30600 29.96300
C  -5.74100 32.85700 30.76500
O  -6.55300 33.66300 30.33200
O  -5.75700 32.33500 31.99400
C  -6.79200 32.66200 33.00800
H  -0.03600 37.71900 29.87700
H  -0.52400 37.66500 23.53000
H  -4.50700 32.79500 23.55300
H  -3.69800 34.77000 31.60600
H  -0.77200 35.95600 31.31900
H  -1.52300 37.47800 32.63600
H  -3.29200 37.14100 32.34200
H  -2.31400 38.15200 31.22700
H  -0.99700 33.82800 32.20700
H  -1.85400 32.65000 31.11300
H  -2.94200 31.77800 32.79300
H  -3.51500 33.17200 33.48300
H  1.27800 40.30700 28.16400
H  2.61200 39.11100 28.23200
H  1.32200 39.06900 29.44500
H  2.98900 40.61400 24.49600
H  3.08000 39.69400 26.04300
H  1.85800 40.97400 25.83400
H  -1.64000 36.23500 21.80800
H  -4.26400 35.24200 22.02400
H  -3.35400 38.26000 23.22000
H  -4.31400 37.47800 22.03100
H  -2.72200 38.25900 21.58600
H  -2.57900 34.08000 20.67500
H  -3.45800 33.01600 21.62800
H  -0.70200 33.99200 22.89400
H  -0.66800 33.03400 21.34200
H  -1.39000 32.42600 22.80000
H  -6.03400 30.11100 25.90300
H  -5.23500 30.73600 24.45600
H  -6.69800 31.50000 25.20600
H  -3.94600 31.68400 30.59900
H  -7.22900 31.76300 33.44400
H  -7.67000 33.10700 32.54000
H  -6.30300 33.25800 33.77800

