158

Mg 47.45400 34.80000 25.96700
C  45.54400 33.47300 28.66400
C  48.01700 37.60200 28.03300
C  48.88600 36.25300 23.36700
C  46.46000 32.07000 24.03500
N  46.87200 35.37100 28.14200
C  46.18400 34.63400 29.03700
C  46.40100 35.27100 30.46900
C  46.74500 36.71500 30.15300
C  47.23100 36.58900 28.64400
C  45.71500 37.87100 30.31300
C  47.55500 34.47400 31.10400
C  47.71300 34.60900 32.65100
H  46.60200 35.36300 33.34700
N  48.25000 36.67800 25.74100
C  48.49800 37.62700 26.69500
C  49.46100 38.61600 26.20300
C  49.77600 38.17400 24.88700
C  48.92700 36.98900 24.61500
C  50.04700 39.78400 27.06300
C  50.79000 38.81500 23.83100
O  51.06200 38.17800 22.78000
C  51.30100 40.13300 24.13100
N  47.52500 34.23800 23.94000
C  48.24900 35.05800 23.07900
C  48.24700 34.38900 21.72000
C  47.52900 32.97300 21.91700
C  47.09500 33.08600 23.41700
C  47.64600 35.23600 20.61000
C  48.23100 31.68000 21.51900
C  47.59800 30.87400 20.35300
N  46.24400 33.03400 26.22000
C  45.99900 31.99500 25.35300
C  45.19600 31.07800 26.09800
C  44.93200 31.61600 27.30000
C  45.70500 32.82000 27.40900
C  44.65000 29.74900 25.61000
C  44.26100 31.36000 28.56700
O  43.54700 30.44700 28.96600
C  44.62500 32.60200 29.48500
C  45.25200 31.97000 30.66000
O  46.22500 31.28900 30.69100
O  44.36500 32.05300 31.77200
C  44.87900 31.31800 32.90600
H  48.25400 38.43000 28.70500
H  49.43400 36.76300 22.57200
H  46.08400 31.29700 23.36200
H  45.56900 35.09400 31.15000
H  47.66000 36.87800 30.72100
H  45.65000 38.37800 29.35000
H  46.06600 38.63900 31.00200
H  44.69600 37.66800 30.64500
H  48.49600 34.93900 30.81300
H  47.54100 33.40000 30.91900
H  48.73700 34.91000 32.87300
H  47.52300 33.66500 33.16400
H  49.52200 39.86600 28.01400
H  49.88100 40.71500 26.51900
H  51.12100 39.71200 27.23700
H  51.71500 40.69800 23.29500
H  51.97500 40.05200 24.98400
H  50.60100 40.89600 24.47100
H  49.29600 34.20000 21.49400
H  46.64200 32.95200 21.28300
H  46.83300 34.72200 20.09700
H  48.40200 35.43900 19.85100
H  47.33200 36.15400 21.10600
H  48.29700 30.92200 22.30000
H  49.25400 31.92100 21.22900
H  48.38300 30.54800 19.67100
H  47.03800 31.62100 19.79100
H  46.93700 30.12500 20.78800
H  44.76700 28.90500 26.29000
H  45.04500 29.61100 24.60400
H  43.59400 29.98800 25.48000
H  43.70100 33.14600 29.68000
H  45.74600 31.75700 33.40000
H  45.07000 30.26300 32.71200
H  44.02900 31.34200 33.58900
Mg 0.91200 43.62200 25.91900
C  3.08600 43.24300 28.70100
C  -1.79300 42.93200 28.15000
C  -1.20200 43.52400 23.32400
C  3.57500 43.74200 23.83300
N  0.65800 43.19700 28.23900
C  1.67600 43.20000 29.14200
C  1.19200 43.10500 30.55200
C  -0.34200 42.75600 30.35400
C  -0.52300 42.94900 28.82200
C  -0.83000 41.34800 30.85100
C  1.48900 44.36500 31.42100
C  1.66800 44.22000 32.90700
H  1.04200 43.01300 33.65000
N  -1.23600 43.36300 25.79200
C  -2.16000 43.19700 26.81500
C  -3.47900 43.18600 26.24000
C  -3.31500 43.25500 24.84200
C  -1.88900 43.36100 24.57700
C  -4.69500 42.96800 27.08800
C  -4.41700 43.22300 23.75900
O  -4.18900 43.11600 22.52500
C  -5.85700 43.35500 24.22500
N  1.10300 43.49200 23.87300
C  0.13200 43.67700 22.98800
C  0.67800 43.85100 21.58200
C  2.17500 44.23300 21.78200
C  2.29500 43.84500 23.24300
C  0.42700 42.62100 20.81100
C  2.49600 45.77000 21.55200
C  3.82500 46.07400 20.81100
N  2.86500 43.40900 26.12900
C  3.84900 43.42900 25.18500
C  5.20200 43.39600 25.83300
C  4.95500 43.30300 27.16000
C  3.50600 43.37700 27.35000
C  6.50100 43.46300 25.12400
C  5.56600 43.21600 28.43600
O  6.74500 43.09800 28.77700
C  4.44800 43.26300 29.40900
C  4.56000 42.04700 30.25200
O  4.19900 40.93400 29.93600
O  5.13800 42.39000 31.44200
C  5.10400 41.35900 32.57900
H  -2.60200 42.59800 28.80400
H  -1.81600 43.49200 22.42100
H  4.44300 44.00500 23.22400
H  1.78100 42.26800 30.92700
H  -0.94900 43.56800 30.75400
H  -0.11400 40.59400 31.17700
H  -1.29400 40.91000 29.96700
H  -1.62700 41.64400 31.53300
H  0.79700 45.17600 31.19400
H  2.46700 44.75400 31.14000
H  1.27100 45.09400 33.42400
H  2.72300 44.29000 33.17200
H  -5.23600 43.86500 27.38800
H  -4.46600 42.46000 28.02400
H  -5.33200 42.27200 26.54200
H  -6.19700 42.41000 24.64900
H  -6.28300 43.55400 23.24200
H  -5.98600 44.29900 24.75600
H  0.16400 44.69600 21.12400
H  2.85200 43.68300 21.12800
H  -0.18800 41.87600 21.31700
H  1.35800 42.05500 20.82300
H  -0.02100 42.75900 19.82700
H  2.67000 46.24000 22.51900
H  1.66600 46.26900 21.05200
H  4.58100 46.53000 21.45000
H  3.65400 46.77100 19.99000
H  4.17700 45.24500 20.19800
H  6.60800 42.77300 24.28700
H  7.26900 43.04100 25.77100
H  6.77900 44.45400 24.76400
H  4.33300 44.14300 30.04200
H  4.86700 41.81800 33.53900
H  6.07000 40.93600 32.85700
H  4.47500 40.48800 32.39500

