158

Mg 8.63700 3.49400 27.78700
C  10.18500 2.06200 30.68800
C  6.83500 5.52000 29.75500
C  6.92200 4.52100 25.02000
C  10.02400 0.92600 25.82300
N  8.53300 3.65700 30.04000
C  9.22100 3.02100 31.00100
C  8.92300 3.64100 32.38700
C  7.84100 4.73600 32.02200
C  7.72700 4.62800 30.51800
C  6.46900 4.67400 32.78300
C  10.21900 4.22900 33.12000
C  9.98000 4.90600 34.51500
H  10.91400 4.48700 35.59800
N  7.14700 4.77500 27.44700
C  6.59400 5.60600 28.41500
C  5.64300 6.53300 27.81600
C  5.75900 6.33300 26.42500
C  6.59300 5.17400 26.19800
C  4.65800 7.38900 28.60500
C  5.02400 7.03700 25.25900
O  5.16000 6.74100 24.10100
C  4.08100 8.25200 25.41700
N  8.54200 2.86600 25.68600
C  7.84400 3.47700 24.73000
C  7.90500 2.68200 23.37100
C  9.11000 1.72100 23.56700
C  9.30600 1.87500 25.05600
C  6.61400 2.10400 22.99700
C  10.38500 2.16700 22.71200
C  11.34300 1.10800 22.17200
N  9.77200 1.76300 28.13000
C  10.27200 0.87900 27.25500
C  11.10800 -0.06700 27.93600
C  11.13800 0.41000 29.26000
C  10.33800 1.51000 29.35500
C  11.78600 -1.29400 27.30900
C  11.68600 0.18500 30.63300
O  12.42600 -0.69000 31.01900
C  11.05500 1.21700 31.57700
C  10.22500 0.41700 32.52600
O  9.38600 -0.47500 32.34300
O  10.63100 0.84000 33.83400
C  10.01000 0.03600 34.86700
H  6.28500 6.27800 30.31700
H  6.42500 4.83000 24.09800
H  10.47000 0.08800 25.28400
H  8.37500 2.85800 32.91200
H  8.12400 5.77700 32.18300
H  6.16800 5.67500 33.09200
H  6.67300 4.05600 33.65800
H  5.68000 4.26300 32.15400
H  10.71900 4.92000 32.44100
H  10.99800 3.46900 33.18700
H  8.93300 4.79600 34.80000
H  10.08900 5.97400 34.32500
H  3.71800 7.39800 28.05400
H  4.95200 8.43600 28.68600
H  4.40600 7.05500 29.61100
H  4.66200 8.99000 25.97000
H  3.24200 7.96400 26.05000
H  3.82500 8.78300 24.49900
H  8.20400 3.40300 22.61000
H  8.76900 0.73400 23.25500
H  5.79600 2.37900 23.66200
H  6.65400 1.01700 23.06800
H  6.28300 2.41900 22.00700
H  10.95200 2.90000 23.28500
H  9.96900 2.63000 21.81700
H  10.92700 0.16400 22.52400
H  12.29700 1.32200 22.65500
H  11.35600 0.99800 21.08800
H  11.00100 -2.00100 27.03900
H  12.56200 -1.78800 27.89300
H  12.14700 -0.88300 26.36700
H  11.84700 1.86500 31.95200
H  9.22400 0.75000 35.11300
H  10.72500 -0.21300 35.65100
H  9.54500 -0.90800 34.58100
Mg 44.72400 3.75300 47.97600
C  42.44800 6.53600 47.81900
C  41.86400 1.79100 47.35800
C  46.76300 1.10200 47.21300
C  47.35700 5.90900 47.50400
N  42.35900 4.16300 47.57100
C  41.69300 5.33300 47.72100
C  40.19300 5.17600 47.57600
C  40.02100 3.63500 47.63600
C  41.50600 3.16600 47.46800
C  39.33700 3.13600 48.86500
C  39.56200 5.94300 46.34300
C  39.58600 5.17800 45.00000
H  39.82800 6.07900 43.80500
N  44.38000 1.69100 47.44900
C  43.12600 1.06300 47.29100
C  43.31800 -0.27800 47.00300
C  44.75500 -0.57800 47.05700
C  45.37100 0.77900 47.24900
C  42.23200 -1.27300 47.08700
C  45.38500 -1.90500 46.86200
O  44.73400 -2.94700 46.64800
C  46.90400 -2.12000 46.86100
N  46.76700 3.55400 47.36500
C  47.37500 2.32200 47.26100
C  48.82800 2.50200 46.69400
C  49.05400 4.00300 47.21300
C  47.62700 4.52400 47.34700
C  49.98400 1.62800 47.26000
C  50.06600 4.76000 46.23100
C  51.50800 4.99700 46.69600
N  44.96700 5.80800 47.90900
C  46.09900 6.52600 47.70800
C  45.78500 8.00600 47.82300
C  44.36900 8.02600 47.79100
C  43.87900 6.64000 47.88100
C  46.70100 9.17300 47.88000
C  43.22400 8.87500 47.79500
O  43.17600 10.08800 47.89800
C  41.97500 7.94000 47.68800
C  41.01600 8.40000 48.75800
O  41.16900 8.24100 49.94300
O  39.86300 8.71900 48.15100
C  38.62600 8.85000 48.87400
H  41.02900 1.09600 47.24400
H  47.45400 0.30100 46.94200
H  48.21500 6.57800 47.41200
H  39.92900 5.54500 48.56700
H  39.59400 3.19900 46.73300
H  38.92500 2.17000 48.57400
H  38.47900 3.73300 49.17500
H  40.01600 2.91500 49.68900
H  40.22800 6.76400 46.07600
H  38.67200 6.52400 46.58800
H  38.59100 4.73600 44.95100
H  40.43000 4.49000 45.04800
H  41.27800 -0.81500 47.35000
H  42.50800 -2.03900 47.81200
H  42.12500 -1.89000 46.19600
H  47.32400 -1.50200 47.65400
H  47.35300 -1.70900 45.95600
H  47.12600 -3.16800 47.05900
H  48.80200 2.28800 45.62600
H  49.51800 3.91500 48.19500
H  50.79400 2.22700 47.67700
H  50.35700 0.87700 46.56400
H  49.79900 0.98200 48.11800
H  49.74500 5.70900 45.80300
H  50.17400 4.16900 45.32200
H  52.11200 4.59600 45.88300
H  51.81400 4.56600 47.64900
H  51.78300 6.05100 46.65200
H  47.65100 8.96900 47.38700
H  46.79600 9.48600 48.92000
H  46.10200 9.97300 47.44500
H  41.58900 8.20600 46.70300
H  37.76100 8.65100 48.24300
H  38.49500 9.88100 49.20400
H  38.52200 8.12200 49.67800

