158

Mg 1.82400 -1.84900 44.34400
C  5.08800 -1.10600 43.64200
C  0.83700 0.87900 42.25800
C  -1.30700 -3.05700 44.08900
C  2.82600 -4.98300 45.72700
N  2.86200 -0.34800 42.96600
C  4.22800 -0.18700 42.99800
C  4.62000 1.15000 42.25800
C  3.21800 1.87300 42.04500
C  2.25000 0.71400 42.39600
C  3.00600 3.15600 42.82000
C  5.22700 0.89200 40.83000
C  6.12700 2.05000 40.24800
H  5.70900 2.73800 38.97000
N  -0.07600 -1.01000 43.50100
C  -0.19600 0.03400 42.62900
C  -1.60900 0.19000 42.35400
C  -2.31000 -0.92000 42.93500
C  -1.22100 -1.80300 43.53900
C  -2.17300 1.28100 41.50900
C  -3.80000 -1.16200 42.87800
O  -4.49100 -0.31300 42.43800
C  -4.35800 -2.34800 43.49500
N  0.90600 -3.74600 44.83600
C  -0.40100 -3.95800 44.65700
C  -0.84000 -5.40700 45.03600
C  0.50700 -6.03000 45.52700
C  1.46300 -4.86900 45.39000
C  -2.03700 -5.55400 46.00200
C  0.94700 -7.25600 44.75900
C  1.12400 -8.54100 45.56400
N  3.56400 -2.78900 44.92300
C  3.84200 -3.95700 45.48900
C  5.24600 -4.04300 45.64300
C  5.81900 -2.92400 45.02800
C  4.77800 -2.25600 44.46100
C  5.89100 -5.17900 46.40900
C  7.06600 -2.24700 44.71700
O  8.22700 -2.43500 44.96200
C  6.64700 -0.99800 43.85800
C  7.12900 0.19800 44.45100
O  6.66200 0.59800 45.47900
O  8.09100 0.83600 43.58600
C  8.61900 2.07400 44.08900
H  0.52300 1.78200 41.73000
H  -2.21200 -3.66700 44.04700
H  3.20600 -5.94000 46.08900
H  5.37700 1.75000 42.76300
H  3.03800 2.21900 41.02700
H  1.95400 3.43200 42.75200
H  3.56400 3.89800 42.24800
H  3.38500 2.98500 43.82800
H  4.48300 0.69200 40.05900
H  5.90200 0.04300 40.93500
H  7.07200 1.51500 40.16100
H  6.29700 2.72300 41.08800
H  -2.31800 0.96900 40.47500
H  -1.44600 2.09200 41.47200
H  -3.11200 1.67800 41.89600
H  -5.37000 -2.15600 43.85100
H  -3.73800 -2.39700 44.39100
H  -4.17800 -3.21700 42.86300
H  -1.17300 -5.90200 44.12400
H  0.47500 -6.27800 46.58800
H  -1.81600 -6.22700 46.83000
H  -2.90800 -5.89300 45.44100
H  -2.30600 -4.59900 46.45400
H  1.96300 -7.09400 44.39800
H  0.32100 -7.51300 43.90500
H  0.58100 -9.41600 45.20600
H  1.01200 -8.41100 46.64000
H  2.18600 -8.77700 45.49800
H  6.96600 -5.01700 46.49200
H  5.60500 -6.13700 45.97400
H  5.37900 -5.12200 47.36900
H  7.16100 -1.16200 42.91100
H  9.40500 1.82500 44.80300
H  7.83800 2.69300 44.53200
H  9.01200 2.66000 43.25800
Mg 48.10400 16.42200 29.61000
C  45.54700 16.10800 32.00800
C  50.01700 17.85500 32.06600
C  50.21700 16.78800 27.23100
C  45.79200 14.87000 27.31300
N  47.72100 17.04100 31.80500
C  46.72700 16.61400 32.54800
C  47.01200 16.81400 33.95300
C  48.41700 17.61900 34.01300
C  48.77100 17.52400 32.53900
C  48.39400 19.04300 34.53000
C  46.92200 15.56100 34.87800
C  47.78000 15.50900 36.10400
H  47.83500 16.65200 37.10900
N  49.89600 17.22900 29.62800
C  50.60500 17.65400 30.74700
C  51.96800 18.01500 30.27000
C  51.95300 17.89700 28.81000
C  50.63700 17.26800 28.50700
C  52.98400 18.52700 31.26800
C  53.04500 18.26900 27.80800
O  52.92700 18.18400 26.56400
C  54.31600 18.88600 28.32400
N  47.94100 16.12900 27.41500
C  49.04200 16.26000 26.71200
C  48.83600 15.70700 25.28500
C  47.47100 14.91900 25.37100
C  47.05500 15.29700 26.83700
C  48.81900 16.86300 24.20900
C  47.54200 13.33700 25.24700
C  46.91600 12.68500 23.94000
N  46.19700 15.52800 29.64600
C  45.39600 14.96400 28.64800
C  44.13300 14.51800 29.24900
C  44.17300 14.97500 30.56500
C  45.37200 15.63300 30.71900
C  43.02500 13.78600 28.49200
C  43.41100 14.90700 31.85800
O  42.34500 14.42100 32.18200
C  44.28000 15.69600 32.82100
C  43.62900 16.83300 33.63300
O  43.76600 18.04000 33.49400
O  43.02100 16.12600 34.64400
C  42.61600 16.99200 35.74000
H  50.77500 18.28500 32.72400
H  51.05700 16.64600 26.54800
H  45.28700 14.11700 26.70300
H  46.22800 17.51100 34.25000
H  49.18700 16.96600 34.42300
H  49.24900 19.27200 35.16500
H  47.53800 19.12300 35.20000
H  48.43600 19.83100 33.77900
H  47.12900 14.69900 34.24500
H  45.90000 15.52200 35.25600
H  48.73900 15.13200 35.74800
H  47.37600 14.65700 36.65100
H  53.48100 17.64300 31.66800
H  52.48700 18.99700 32.11700
H  53.68200 19.21900 30.79800
H  54.63600 18.23300 29.13700
H  54.12900 19.91600 28.62800
H  55.06400 18.83800 27.53300
H  49.62200 14.97300 25.10100
H  46.74800 15.26000 24.63000
H  49.45600 16.68700 23.34200
H  49.16700 17.77200 24.70000
H  47.81200 17.02700 23.82800
H  46.92300 12.91600 26.03900
H  48.55000 12.99400 25.48000
H  47.57000 12.05000 23.34200
H  46.69700 13.51900 23.27200
H  46.02500 12.09300 24.14700
H  43.02400 14.01300 27.42600
H  42.11900 14.20100 28.93500
H  43.14000 12.71000 28.61900
H  44.57500 14.96300 33.57100
H  41.89700 16.44100 36.34700
H  41.92000 17.80500 35.52900
H  43.42400 17.08800 36.46500

