158

Mg 9.41100 48.67000 26.40700
C  7.55900 48.61500 29.47500
C  11.98500 50.09700 28.19600
C  11.08900 48.90000 23.54200
C  6.66600 47.34300 24.78000
N  9.63300 49.45100 28.61200
C  8.76200 49.20200 29.64200
C  9.32000 49.95700 30.98100
C  10.80200 50.26200 30.53900
C  10.79100 49.93500 28.99400
C  11.26300 51.74700 30.77000
C  9.23700 49.04800 32.23900
C  10.17000 49.40000 33.37600
H  9.55100 49.63700 34.76600
N  11.32800 49.20100 25.96100
C  12.25500 49.76800 26.83700
C  13.53900 49.96500 26.16000
C  13.31200 49.60200 24.81900
C  11.87600 49.19500 24.69300
C  14.80500 50.51900 26.80100
C  14.26900 49.51800 23.62600
O  13.92000 49.32900 22.44900
C  15.76300 49.74000 23.93200
N  8.82100 48.35000 24.46100
C  9.67500 48.58000 23.47200
C  9.05700 48.20300 22.12100
C  7.82500 47.35400 22.48700
C  7.71800 47.68500 23.98300
C  8.78500 49.50700 21.30700
C  7.93300 45.84200 22.13000
C  9.22000 45.17400 22.63700
N  7.42400 48.16800 26.93400
C  6.41700 47.63300 26.17600
C  5.20200 47.48500 26.95100
C  5.60100 47.76100 28.24600
C  6.96100 48.27500 28.18600
C  3.88600 46.95000 26.55000
C  5.23400 47.77500 29.68800
O  4.23400 47.42500 30.20200
C  6.46200 48.29100 30.45500
C  6.80700 47.14500 31.31700
O  7.48500 46.21700 30.98300
O  6.18100 47.23100 32.54900
C  6.56100 46.31700 33.64800
H  12.80400 50.56600 28.74600
H  11.62000 49.06400 22.60100
H  5.78900 46.85000 24.35500
H  8.74600 50.86700 31.15400
H  11.51500 49.68100 31.12400
H  10.41900 52.37200 31.06300
H  11.65900 52.13800 29.83200
H  12.10800 51.76700 31.45800
H  9.23500 48.03300 31.84200
H  8.24500 49.11600 32.68400
H  10.77200 50.28200 33.16100
H  10.98300 48.67800 33.30300
H  15.17900 51.40100 26.28100
H  15.59900 49.77300 26.79800
H  14.75100 50.77400 27.86000
H  16.27200 49.48700 23.00100
H  16.19200 49.14500 24.73800
H  15.85500 50.77900 24.24700
H  9.70900 47.57300 21.51600
H  6.93500 47.72300 21.97700
H  9.36200 50.27800 21.81800
H  7.71200 49.69100 21.35100
H  9.08500 49.29700 20.28100
H  7.91500 45.80800 21.04100
H  7.16900 45.23300 22.61500
H  8.94100 44.29000 23.21000
H  9.75200 45.79700 23.35600
H  9.82900 44.87200 21.78500
H  3.16800 47.75800 26.40600
H  3.48500 46.37300 27.38300
H  3.95100 46.34500 25.64500
H  6.09300 49.11400 31.06700
H  7.54600 45.89600 33.44600
H  5.87300 45.50100 33.86600
H  6.72900 46.89600 34.55600
Mg -5.52800 25.14500 26.30900
C  -3.88500 26.72800 29.14500
C  -7.35500 23.32800 28.49400
C  -6.96700 23.73100 23.73700
C  -3.54300 27.24400 24.28300
N  -5.62600 25.12000 28.59400
C  -4.96900 25.88900 29.51300
C  -5.50000 25.46100 30.85800
C  -6.27800 24.12800 30.63900
C  -6.42100 24.18000 29.18600
C  -5.50900 22.88100 31.15700
C  -6.34000 26.53500 31.52000
C  -6.22100 26.58500 33.05000
H  -5.71500 25.36300 33.84600
N  -6.96700 23.79400 26.13500
C  -7.67800 23.22300 27.13900
C  -8.69700 22.33700 26.65700
C  -8.51900 22.35000 25.25900
C  -7.42800 23.27900 24.98500
C  -9.80500 21.75600 27.51800
C  -9.26800 21.66600 24.15900
O  -9.03900 21.96200 23.00100
C  -10.37200 20.60800 24.50100
N  -5.32300 25.53700 24.31300
C  -6.00400 24.76300 23.38600
C  -5.50600 25.02400 21.92700
C  -4.66500 26.29600 22.17300
C  -4.52200 26.43400 23.70100
C  -4.57300 23.90400 21.40600
C  -5.24600 27.58500 21.54800
C  -4.54900 28.01200 20.18500
N  -3.86900 26.40800 26.59500
C  -3.19000 27.20800 25.67100
C  -2.27200 28.08200 26.34900
C  -2.48200 27.83800 27.66500
C  -3.51800 26.88200 27.78800
C  -1.19000 28.97900 25.74100
C  -2.06400 28.31200 28.98600
O  -1.18400 29.04600 29.35000
C  -2.99000 27.59300 29.98500
C  -2.15400 26.75500 30.93200
O  -1.44500 25.77500 30.63000
O  -2.29400 27.34400 32.19300
C  -1.41600 26.64700 33.15400
H  -7.79000 22.62000 29.20300
H  -7.36500 23.29800 22.81700
H  -2.85500 27.81800 23.65800
H  -4.67000 25.29600 31.54500
H  -7.26200 24.10200 31.10500
H  -5.23200 22.11100 30.43800
H  -6.16600 22.39600 31.88000
H  -4.54700 23.04100 31.64300
H  -7.37800 26.48600 31.19200
H  -6.09000 27.55500 31.23000
H  -7.24200 26.75000 33.39400
H  -5.57400 27.42500 33.30600
H  -10.75100 22.27500 27.36500
H  -9.58500 21.87200 28.57900
H  -9.94400 20.70400 27.26600
H  -10.63100 20.16500 23.53900
H  -11.24000 21.06700 24.97500
H  -10.03800 19.74600 25.07800
H  -6.34000 25.17800 21.24200
H  -3.61000 26.28200 21.90000
H  -4.61400 23.95900 20.31800
H  -4.79100 22.91000 21.79700
H  -3.55900 23.97600 21.80000
H  -5.24500 28.45300 22.20700
H  -6.29300 27.46200 21.27100
H  -3.91700 27.17600 19.88300
H  -3.91200 28.89600 20.16000
H  -5.20200 28.07700 19.31500
H  -1.72700 29.66900 25.09000
H  -0.58100 28.38900 25.05600
H  -0.57900 29.50400 26.47600
H  -3.56100 28.26400 30.62600
H  -0.39400 27.01500 33.06300
H  -1.47800 25.57700 32.95400
H  -1.88100 26.83000 34.12300

