158

Mg 6.80600 53.38600 41.09200
C  6.33500 49.92300 40.61400
C  9.92000 52.92800 39.94800
C  7.00300 56.68200 40.94800
C  3.45500 53.55900 42.18600
N  8.01600 51.57000 40.23700
C  7.60800 50.28100 40.15500
C  8.78800 49.39900 39.66300
C  10.02100 50.35500 39.74200
C  9.29600 51.68900 39.91000
C  11.13000 50.04300 40.80700
C  8.65300 48.78600 38.20700
C  8.33900 49.82700 37.08100
H  7.20500 49.42600 36.24500
N  8.30400 54.65300 40.50500
C  9.53400 54.24500 40.12700
C  10.33700 55.41600 39.84200
C  9.52000 56.56200 40.08400
C  8.21500 56.00900 40.50000
C  11.74200 55.50900 39.18300
C  10.03000 57.97600 40.06900
O  11.20800 58.17200 39.86800
C  9.15800 59.10900 40.36500
N  5.38600 54.89800 41.32300
C  5.71400 56.20000 41.26600
C  4.56800 57.10500 41.78200
C  3.51000 56.13200 42.38500
C  4.12200 54.74600 41.92300
C  5.01100 58.16100 42.92700
C  2.00200 56.44600 42.03800
C  0.95400 56.30200 43.27300
N  5.17000 52.06300 41.31900
C  3.88000 52.26000 41.82400
C  3.15800 51.02800 41.96700
C  4.15100 50.08900 41.57900
C  5.29700 50.74700 41.16100
C  1.76800 50.72800 42.50600
C  4.32700 48.62700 41.49400
O  3.58200 47.69000 41.79900
C  5.81600 48.44900 41.00700
C  5.65600 47.55100 39.81900
O  5.00300 47.84700 38.87200
O  6.35000 46.37500 39.95500
C  6.37700 45.52200 38.68000
H  10.93800 52.78500 39.57900
H  6.95600 57.75600 41.13800
H  2.46000 53.67300 42.62000
H  8.81500 48.54400 40.33900
H  10.44000 50.42500 38.73800
H  11.05700 50.77800 41.60800
H  12.12200 50.03100 40.35400
H  10.87900 49.10300 41.29800
H  7.79200 48.12500 38.31300
H  9.54100 48.20400 37.96300
H  9.20900 49.87400 36.42700
H  8.24200 50.83700 37.47800
H  11.97700 54.58500 38.65400
H  12.52700 55.69200 39.91600
H  11.83300 56.29300 38.43200
H  8.28600 59.09700 39.71200
H  9.75400 60.02100 40.33800
H  8.82900 59.04100 41.40200
H  4.17200 57.67600 40.94200
H  3.62600 55.99500 43.46000
H  6.01700 57.99000 43.31200
H  4.37300 58.10300 43.80900
H  5.06300 59.15900 42.49200
H  1.67700 55.69900 41.31500
H  1.95700 57.42700 41.56400
H  0.30900 57.17800 43.34400
H  1.55100 56.26300 44.18300
H  0.34900 55.39600 43.31200
H  1.48400 49.75400 42.10900
H  1.03300 51.49200 42.25300
H  1.66200 50.67700 43.59000
H  6.35800 47.83500 41.72600
H  7.43100 45.26700 38.57300
H  6.15400 46.00300 37.72700
H  5.68600 44.68000 38.71800
Mg 9.12800 47.35600 28.17300
C  7.25800 46.98500 31.15300
C  11.96400 47.99700 30.19400
C  10.87300 48.19200 25.45000
C  6.03600 47.92400 26.36000
N  9.51000 47.49300 30.35700
C  8.64200 47.13100 31.40600
C  9.31300 47.29800 32.78000
C  10.69400 47.88800 32.38600
C  10.73200 47.74400 30.85600
C  10.75900 49.42600 32.72300
C  9.49800 46.01400 33.65800
C  9.23400 46.19300 35.11400
H  9.63300 45.13300 36.11100
N  11.21400 47.78200 27.85000
C  12.20400 47.93000 28.78400
C  13.41900 48.06200 28.06000
C  13.14200 48.10000 26.67900
C  11.67100 48.02200 26.56600
C  14.73600 48.19600 28.71400
C  14.12000 48.05000 25.42600
O  13.69700 47.78500 24.29300
C  15.66900 48.24800 25.61200
N  8.54500 48.01500 26.29700
C  9.46900 48.32400 25.38700
C  8.87600 48.56500 24.00800
C  7.30000 48.22800 24.20000
C  7.25800 48.09300 25.71400
C  9.18700 49.90500 23.28900
C  6.70700 47.01500 23.35700
C  6.10400 47.32800 21.96600
N  7.09000 47.37700 28.60400
C  5.96100 47.57700 27.76000
C  4.73900 47.36600 28.54300
C  5.21700 47.10200 29.86700
C  6.59200 47.13200 29.85400
C  3.42600 47.38500 28.01300
C  4.81300 46.79200 31.25800
O  3.65000 46.55700 31.66900
C  6.13100 46.63100 32.13400
C  6.08000 45.29700 32.63200
O  6.56600 44.31800 32.06600
O  5.49500 45.19000 33.88700
C  5.78100 43.94000 34.54700
H  12.88100 48.04200 30.78500
H  11.31900 48.40900 24.47700
H  5.14200 48.05500 25.74600
H  8.71600 48.03100 33.32200
H  11.54100 47.36600 32.83200
H  9.90900 49.95300 33.15700
H  10.99800 49.96800 31.80900
H  11.61000 49.73200 33.33200
H  10.52400 45.66800 33.53500
H  8.96900 45.23800 33.10400
H  8.14800 46.28300 35.10700
H  9.59600 47.21500 35.22400
H  15.22600 49.01700 28.19100
H  15.42800 47.37200 28.54000
H  14.61000 48.34600 29.78600
H  15.87800 49.22500 26.04700
H  16.05400 48.35300 24.59700
H  16.09200 47.41100 26.16700
H  9.27500 47.85300 23.28600
H  6.74500 49.11000 23.88100
H  10.19300 50.19400 23.59500
H  8.48700 50.70500 23.52900
H  9.17400 49.96000 22.20100
H  6.01600 46.40600 23.94000
H  7.54500 46.39500 23.04100
H  6.31400 48.30100 21.52400
H  5.02200 47.26400 21.85100
H  6.56600 46.58700 21.31300
H  2.97800 46.51300 28.49000
H  3.36900 47.19800 26.94100
H  2.96900 48.32400 28.32600
H  6.19200 47.30500 32.98800
H  6.75300 43.89600 35.03900
H  5.72300 43.08500 33.87300
H  4.93100 43.77500 35.20900

