158

Mg 17.26900 -2.44200 27.37700
C  15.93200 -0.33200 29.84900
C  18.84100 -4.17900 29.83400
C  18.72400 -4.10700 24.98400
C  15.62900 -0.45200 24.95700
N  17.42500 -2.19200 29.56000
C  16.70400 -1.37100 30.36600
C  16.96200 -1.61500 31.78400
C  17.88400 -2.86000 31.78400
C  18.08500 -3.10300 30.28500
C  19.24400 -2.79400 32.56600
C  15.61200 -1.71400 32.57800
C  15.74100 -1.15700 34.01000
H  16.99400 -0.62600 34.66200
N  18.54200 -4.05400 27.39000
C  19.07200 -4.59300 28.53000
C  19.90500 -5.71000 28.11900
C  19.88800 -5.72200 26.70800
C  19.07600 -4.59500 26.27400
C  20.46000 -6.77200 29.00700
C  20.50700 -6.71400 25.74900
O  20.17700 -6.67000 24.59400
C  21.34100 -7.85900 26.20100
N  17.01200 -2.52800 25.28200
C  17.85900 -3.20100 24.53400
C  17.87600 -2.80500 23.03100
C  16.70200 -1.71100 23.00900
C  16.32700 -1.58600 24.49200
C  19.25400 -2.26600 22.48300
C  15.51900 -1.94200 21.97600
C  15.10300 -0.74500 21.08900
N  16.03900 -0.70300 27.33000
C  15.35100 -0.14400 26.28500
C  14.54300 0.94600 26.77800
C  14.80500 0.98800 28.13300
C  15.71700 -0.05800 28.42600
C  13.72800 1.82500 25.88100
C  14.44200 1.68900 29.37700
O  13.74800 2.62400 29.63400
C  15.17500 0.84700 30.49400
C  16.08500 1.81800 31.32000
O  17.26000 2.01400 30.96100
O  15.46500 2.45000 32.33900
C  16.10600 3.60300 32.99900
H  19.32700 -4.69700 30.66300
H  19.31500 -4.56600 24.18900
H  15.22300 0.26500 24.24000
H  17.53700 -0.77700 32.17900
H  17.26800 -3.67700 32.16100
H  19.20400 -2.10800 33.41200
H  20.12700 -2.51400 31.99200
H  19.32800 -3.79300 32.99200
H  15.38500 -2.75900 32.79000
H  14.73200 -1.34600 32.05100
H  15.29600 -1.92300 34.64400
H  15.11000 -0.27400 34.11000
H  21.47100 -7.10400 28.77100
H  19.82800 -7.65800 28.95500
H  20.38300 -6.51600 30.06400
H  20.77000 -8.45900 26.91000
H  22.22000 -7.41300 26.66600
H  21.62900 -8.50700 25.37400
H  17.57100 -3.69300 22.47700
H  17.19000 -0.75100 22.84100
H  20.01000 -2.18000 23.26300
H  19.12600 -1.31200 21.97100
H  19.51700 -3.00900 21.73100
H  14.60000 -2.09000 22.54300
H  15.78000 -2.78900 21.34200
H  14.42700 -1.26400 20.40900
H  15.89400 -0.40300 20.42100
H  14.73200 0.08700 21.68800
H  14.30900 2.11500 25.00500
H  13.38900 2.66400 26.48900
H  12.92200 1.22700 25.45600
H  14.33000 0.56900 31.12300
H  16.71500 3.15400 33.78300
H  15.33800 4.18000 33.51500
H  16.68900 4.30900 32.40800
Mg -11.57700 16.18000 42.44200
C  -8.17700 17.16600 42.30700
C  -12.40500 19.50600 42.22700
C  -14.85100 15.24400 42.07900
C  -10.59900 12.84900 42.29200
N  -10.38300 18.12500 42.37300
C  -9.05700 18.27400 42.28600
C  -8.65600 19.71100 41.98400
C  -10.06600 20.46500 42.34800
C  -11.05600 19.33000 42.30100
C  -9.94400 21.21900 43.73300
C  -8.19100 19.84300 40.42000
C  -7.04500 20.79300 40.10600
H  -6.02400 20.18900 39.09100
N  -13.39400 17.18600 42.33800
C  -13.48700 18.62700 42.22500
C  -14.87700 18.93200 42.12900
C  -15.61500 17.71000 42.15900
C  -14.64800 16.63000 42.21300
C  -15.32900 20.25700 41.99500
C  -17.17700 17.63900 42.22600
O  -17.83200 18.66200 42.29800
C  -17.97000 16.28600 42.36100
N  -12.56900 14.34300 42.31900
C  -13.91200 14.21100 42.18400
C  -14.29400 12.75800 42.28000
C  -12.99000 11.97400 42.00600
C  -11.96300 13.09600 42.27300
C  -14.78900 12.52200 43.62600
C  -12.86000 11.47900 40.52100
C  -13.60200 10.20400 40.35100
N  -9.75900 15.20300 42.15600
C  -9.49100 13.79900 42.22200
C  -8.07100 13.52600 42.24800
C  -7.52900 14.84400 42.24500
C  -8.61200 15.81200 42.24600
C  -7.40500 12.18700 42.45000
C  -6.28900 15.62500 42.36300
O  -5.11800 15.28800 42.41400
C  -6.68000 17.12600 42.42300
C  -6.22800 17.59400 43.81900
O  -6.01100 16.88300 44.82200
O  -5.91700 18.96000 43.87300
C  -5.36300 19.56000 45.11400
H  -12.62400 20.56700 42.09300
H  -15.88600 14.92000 41.95400
H  -10.17900 11.84600 42.18800
H  -7.82800 19.96600 42.64400
H  -10.26400 21.23400 41.60200
H  -10.63300 20.79800 44.46500
H  -10.23500 22.25800 43.57700
H  -8.93100 21.08000 44.11100
H  -9.03400 20.13100 39.79100
H  -7.85600 18.86100 40.08800
H  -6.49200 21.01500 41.01800
H  -7.48900 21.76100 39.87200
H  -14.56900 21.03800 42.02000
H  -15.95500 20.52500 42.84600
H  -15.83800 20.35400 41.03600
H  -18.95200 16.51100 42.77700
H  -17.42000 15.71900 43.11200
H  -18.08400 15.80400 41.39000
H  -15.05500 12.36700 41.60500
H  -12.87500 11.18800 42.75300
H  -15.22000 13.41100 44.08500
H  -14.12600 12.12800 44.39700
H  -15.56200 11.75600 43.57200
H  -11.83800 11.26200 40.20800
H  -13.26000 12.31400 39.94500
H  -14.47800 10.43100 39.74300
H  -13.84100 9.80300 41.33600
H  -12.99700 9.40100 39.92900
H  -7.31700 11.94200 43.50800
H  -6.46200 12.07500 41.91500
H  -7.99500 11.33500 42.11100
H  -6.13200 17.52200 41.56800
H  -5.56700 20.63000 45.11100
H  -4.27600 19.63800 45.13400
H  -5.72300 19.16200 46.06400

