158

Mg 46.87500 16.64700 27.55800
C  45.07600 16.38200 30.65000
C  49.05200 18.75300 29.22100
C  48.18700 17.36600 24.61200
C  44.17700 15.18000 25.98700
N  47.00800 17.53500 29.76500
C  46.23000 17.09400 30.83700
C  46.79200 17.67900 32.11000
C  47.97800 18.56300 31.64400
C  48.07100 18.26000 30.13300
C  47.85000 20.05000 32.06800
C  47.23100 16.47100 33.05500
C  47.00600 16.65800 34.54300
H  47.24700 18.09600 35.05500
N  48.46000 17.84600 27.02900
C  49.23800 18.63700 27.82100
C  50.35000 19.15100 27.02100
C  50.18200 18.71400 25.68300
C  48.90300 17.92800 25.73700
C  51.46200 19.88700 27.64200
C  51.04400 18.91400 24.48400
O  50.74300 18.49600 23.37100
C  52.41600 19.62100 24.63200
N  46.33300 16.31200 25.65200
C  47.02300 16.65100 24.52600
C  46.41400 16.16300 23.19400
C  45.12000 15.45500 23.68800
C  45.25800 15.62600 25.24000
C  46.01100 17.31100 22.12400
C  44.97200 14.02400 23.17300
C  45.66900 12.99700 23.99300
N  45.06700 15.87800 28.10000
C  44.02700 15.30800 27.31600
C  42.92600 14.91600 28.18000
C  43.27000 15.32400 29.53500
C  44.53700 15.95400 29.38600
C  41.69700 14.25700 27.79900
C  42.77300 15.41100 30.88000
O  41.79700 14.96800 31.45800
C  43.98400 16.03600 31.67000
C  43.45500 17.16300 32.56400
O  43.28800 18.31900 32.15300
O  43.20100 16.74900 33.89200
C  42.80700 17.72500 34.87700
H  49.77900 19.34200 29.78400
H  48.54000 17.64100 23.61600
H  43.32200 14.74800 25.46200
H  45.99000 18.20000 32.63200
H  48.89000 18.23500 32.14100
H  47.05800 20.21500 32.79800
H  47.52700 20.58600 31.17500
H  48.77000 20.48800 32.45600
H  48.28800 16.25400 32.90300
H  46.69800 15.53700 32.87500
H  47.49500 15.90800 35.16500
H  45.95100 16.39900 34.63500
H  51.44800 19.87700 28.73200
H  51.39800 20.87100 27.17800
H  52.34500 19.29900 27.39200
H  52.33000 20.59100 25.12300
H  52.75500 19.79100 23.61000
H  53.03900 19.00300 25.27800
H  47.14200 15.48800 22.74500
H  44.19400 15.99300 23.48900
H  46.46200 18.22400 22.51400
H  44.95900 17.50300 21.91200
H  46.44300 17.04600 21.15900
H  45.42200 13.93000 22.18500
H  43.90700 13.79900 23.22500
H  46.14500 12.26900 23.33600
H  45.00500 12.49700 24.69800
H  46.51600 13.37200 24.56800
H  41.36600 14.61300 26.82400
H  40.88600 14.46700 28.49600
H  41.84200 13.18100 27.70100
H  44.28400 15.30200 32.41800
H  42.51000 17.30800 35.84000
H  41.97400 18.32100 34.50500
H  43.70400 18.34300 34.91600
Mg 42.51100 41.81100 27.18700
C  41.50600 43.90100 29.82500
C  43.59300 39.50000 29.66900
C  43.59600 39.87300 24.76700
C  41.54500 44.36300 24.89700
N  42.56700 41.74100 29.48400
C  41.87400 42.64900 30.35400
C  41.84500 42.15700 31.79600
C  42.58400 40.68500 31.67400
C  42.88500 40.61200 30.14900
C  43.90300 40.60400 32.55800
C  40.35500 42.07200 32.32400
C  40.15100 42.88900 33.67000
H  39.50100 42.12800 34.87000
N  43.49400 39.95600 27.22000
C  43.81400 39.16300 28.32100
C  44.34200 37.88300 27.84200
C  44.20800 37.87000 26.38100
C  43.74300 39.27800 26.02700
C  44.79900 36.81700 28.81400
C  44.58500 36.83800 25.34200
O  44.48300 36.98400 24.13900
C  45.07400 35.53600 25.83200
N  42.64300 42.11900 25.14300
C  43.07700 41.13100 24.33400
C  43.02700 41.59800 22.83700
C  41.97600 42.77800 22.88700
C  42.03400 43.15200 24.38600
C  44.39400 41.94100 22.25200
C  40.50700 42.41700 22.41100
C  39.78800 41.23700 23.03200
N  41.79000 43.80000 27.26800
C  41.37700 44.68600 26.29800
C  40.86200 45.91100 26.89600
C  40.88000 45.67800 28.30900
C  41.36800 44.33500 28.40200
C  40.45200 47.15900 26.14800
C  40.54200 46.19900 29.61700
O  40.08900 47.28800 29.91700
C  40.85600 45.04800 30.61800
C  41.67300 45.63400 31.73800
O  42.89200 45.89500 31.67300
O  40.84700 45.81800 32.87500
C  41.42000 46.11700 34.20100
H  43.95600 38.88300 30.49400
H  43.97200 39.24000 23.96100
H  41.23400 45.14700 24.20300
H  42.36000 42.83300 32.48000
H  41.89800 39.89100 31.96800
H  44.77300 40.59200 31.90200
H  43.94800 39.61500 33.01500
H  43.71600 41.42200 33.25400
H  40.23400 40.99900 32.47300
H  39.59500 42.23700 31.56000
H  39.50600 43.74700 33.47800
H  41.10000 43.33800 33.96100
H  44.51200 37.14900 29.81200
H  45.87000 36.74100 29.00400
H  44.48400 35.82300 28.49800
H  45.92500 35.80300 26.46000
H  45.55400 35.07400 24.97000
H  44.29300 34.91300 26.26600
H  42.54000 40.80200 22.27500
H  42.33900 43.63900 22.32500
H  45.17400 41.46600 22.84800
H  44.48000 43.02700 22.26600
H  44.26200 41.66800 21.20500
H  40.55100 42.38500 21.32200
H  39.88900 43.27500 22.67400
H  39.24600 40.70100 22.25300
H  39.19100 41.71400 23.80900
H  40.63700 40.76600 23.52700
H  39.96800 46.88000 25.21200
H  41.16700 47.96400 25.97900
H  39.71100 47.62700 26.79600
H  39.94600 44.68400 31.09600
H  42.11700 46.92600 33.98200
H  42.09700 45.36900 34.61200
H  40.59700 46.32800 34.88400

