158

Mg -0.79200 7.83900 26.08500
C  0.40400 9.32700 29.13400
C  -1.07500 4.86700 27.81900
C  -1.17800 6.34800 23.15900
C  -0.19800 10.78200 24.52300
N  -0.31300 7.21700 28.27000
C  0.03100 8.05300 29.33000
C  -0.06900 7.28800 30.63500
C  -0.56300 5.88000 30.21900
C  -0.72600 5.94000 28.63200
C  0.30700 4.68500 30.61500
C  -1.05400 8.02400 31.60500
C  -0.53500 8.22000 33.08200
H  0.73400 7.33500 33.39900
N  -1.15100 5.85800 25.54500
C  -1.16800 4.81200 26.38300
C  -1.38000 3.61400 25.59900
C  -1.44700 4.03000 24.23600
C  -1.26900 5.49900 24.21500
C  -1.60900 2.26700 26.25500
C  -1.68300 3.23700 22.98400
O  -1.72100 3.70200 21.84700
C  -1.91800 1.72000 23.11800
N  -0.67200 8.43300 24.14600
C  -0.86000 7.69600 23.09300
C  -0.60900 8.50600 21.85500
C  -0.84000 9.91600 22.26600
C  -0.57800 9.73400 23.76700
C  0.78500 8.28800 21.20900
C  -2.25800 10.47000 21.88100
C  -2.32900 11.20800 20.54000
N  -0.16200 9.69600 26.64900
C  0.05000 10.81000 25.89900
C  0.43900 11.98700 26.70900
C  0.66800 11.38400 27.95500
C  0.27100 10.02400 27.91600
C  0.77800 13.33900 26.23000
C  1.26400 11.63800 29.23700
O  1.85800 12.64300 29.67000
C  1.07100 10.34900 30.08500
C  2.41700 9.93200 30.70500
O  3.29200 9.21500 30.25700
O  2.50500 10.58700 31.89800
C  3.87000 10.90700 32.30400
H  -1.13600 3.96000 28.42500
H  -0.97900 5.86400 22.20100
H  0.02100 11.66300 23.91700
H  1.00600 7.28100 30.81600
H  -1.54900 5.60500 30.59400
H  0.96000 4.40500 29.78800
H  -0.33900 3.89500 30.99900
H  0.92400 5.11700 31.40200
H  -1.97500 7.44000 31.61200
H  -1.37600 9.02800 31.32700
H  -1.31200 7.98200 33.80900
H  -0.50300 9.29900 33.23300
H  -0.70800 1.70000 26.02600
H  -2.50100 1.76800 25.87400
H  -1.75200 2.19100 27.33300
H  -2.92400 1.50100 23.47800
H  -1.07400 1.23800 23.61200
H  -1.74300 1.34100 22.11100
H  -1.40600 8.20800 21.17400
H  -0.10900 10.60900 21.85000
H  0.56700 8.19500 20.14500
H  1.17300 7.33200 21.56000
H  1.51500 9.06300 21.44200
H  -2.49700 11.25600 22.59700
H  -2.99000 9.66400 21.83500
H  -1.52400 10.82900 19.91000
H  -2.01900 12.24600 20.66200
H  -3.26100 11.04900 19.99800
H  1.41500 13.19600 25.35700
H  1.07800 13.77600 27.18200
H  -0.12100 13.85200 25.88700
H  0.37700 10.53500 30.90500
H  3.92600 11.89200 32.76800
H  4.71900 10.84800 31.62300
H  4.16800 10.17000 33.04900
Mg 23.95700 -5.67500 46.08300
C  26.29400 -3.41000 44.58900
C  21.60300 -4.40600 43.94900
C  22.26100 -8.52800 46.46800
C  26.74600 -7.13800 47.82400
N  23.94500 -3.97600 44.68900
C  24.98700 -3.28600 44.18800
C  24.52000 -2.39100 43.05600
C  22.97300 -2.44100 43.11800
C  22.72500 -3.59500 44.04100
C  22.22900 -1.13400 43.66800
C  25.15000 -2.66700 41.67800
C  25.78100 -1.47600 40.89600
H  25.39200 -1.17000 39.47100
N  22.17300 -6.32400 45.37800
C  21.32900 -5.73200 44.45600
C  20.17600 -6.51900 44.15800
C  20.29000 -7.69100 44.98600
C  21.62900 -7.55900 45.69200
C  19.10600 -6.13900 43.15000
C  19.23100 -8.76300 45.08700
O  18.09800 -8.64500 44.59700
C  19.42400 -9.99300 45.80200
N  24.38500 -7.49100 47.22000
C  23.48800 -8.52700 47.19600
C  23.92400 -9.73100 48.07100
C  25.30100 -9.25900 48.61200
C  25.57500 -7.93000 47.85900
C  22.86200 -10.09800 49.14100
C  26.48700 -10.34600 48.72600
C  27.07500 -10.65900 50.11400
N  26.03800 -5.36400 46.26800
C  27.01800 -5.99800 46.99300
C  28.37000 -5.34800 46.76300
C  28.06500 -4.33300 45.83900
C  26.68900 -4.37100 45.59800
C  29.70000 -5.78300 47.29300
C  28.64800 -3.29900 44.97900
O  29.86200 -2.99400 44.79600
C  27.53400 -2.68900 44.13100
C  27.33300 -1.21600 44.41600
O  26.69300 -0.72700 45.32500
O  28.11300 -0.61100 43.50900
C  28.45900 0.84400 43.72300
H  20.85900 -3.92300 43.31200
H  21.71000 -9.47100 46.48800
H  27.61500 -7.65600 48.23600
H  24.80000 -1.41200 43.44500
H  22.52100 -2.79600 42.19200
H  21.80700 -0.44600 42.93500
H  22.94200 -0.69800 44.36800
H  21.36400 -1.47900 44.23400
H  24.33600 -2.91700 40.99800
H  25.86600 -3.48600 41.75000
H  26.84600 -1.64700 41.05100
H  25.71000 -0.48100 41.33600
H  18.62900 -7.00500 42.69200
H  19.57700 -5.53300 42.37500
H  18.43900 -5.66300 43.86800
H  18.51100 -10.58300 45.87600
H  19.57000 -9.58000 46.80000
H  20.25900 -10.64500 45.54300
H  24.02100 -10.69400 47.57000
H  25.10100 -8.95400 49.63900
H  21.95500 -9.49400 49.18200
H  23.31400 -10.00500 50.12800
H  22.66200 -11.16900 49.10900
H  27.32700 -10.20900 48.04500
H  26.14000 -11.28500 48.29500
H  28.15100 -10.48600 50.11700
H  26.98300 -11.71800 50.35500
H  26.53200 -10.12000 50.89100
H  29.75100 -5.62300 48.37000
H  30.50900 -5.27400 46.76900
H  29.83400 -6.85200 47.12200
H  27.70300 -2.65800 43.05400
H  29.05800 0.91600 44.63100
H  27.54900 1.38100 43.99200
H  28.94700 1.36400 42.89900

