158

Mg 55.79400 25.11200 45.23300
C  52.78400 26.52200 44.12900
C  54.58800 22.08300 44.12300
C  58.99900 23.96600 45.19700
C  56.89000 28.28000 46.08200
N  53.98600 24.45500 44.02400
C  52.85000 25.15100 43.93600
C  51.68000 24.26000 43.51000
C  52.18600 22.92300 44.00700
C  53.63300 23.08100 44.10200
C  51.49700 22.28900 45.31500
C  51.47500 24.26000 41.94000
C  50.07600 24.60100 41.57000
H  49.43000 24.00500 40.27400
N  56.66100 23.19600 44.87900
C  56.00400 22.12900 44.40300
C  56.98700 21.06400 44.30700
C  58.30900 21.59100 44.67500
C  58.02800 23.02600 44.91800
C  56.57100 19.58200 43.91400
C  59.58700 20.76100 44.72700
O  59.63000 19.53300 44.47700
C  60.86800 21.33000 45.17500
N  57.73800 26.03400 45.55300
C  58.87300 25.30600 45.55900
C  60.03000 26.19400 46.03400
C  59.40500 27.59700 46.03000
C  57.89600 27.30700 46.02200
C  60.71500 25.82900 47.40700
C  59.82100 28.57700 44.79000
C  60.44000 29.93800 45.22100
N  55.04800 27.00000 45.22300
C  55.55800 28.14300 45.68900
C  54.53000 29.21900 45.55300
C  53.36000 28.60200 44.96700
C  53.81200 27.33600 44.71100
C  54.54600 30.53900 46.30900
C  51.92800 28.76700 44.58500
O  51.10700 29.71100 44.68100
C  51.54200 27.44200 43.86400
C  51.14100 27.94600 42.52500
O  51.93300 28.17900 41.65700
O  49.71900 28.03100 42.55500
C  49.06800 28.48000 41.34400
H  54.10200 21.11600 43.97300
H  60.06200 23.72300 45.26100
H  57.21900 29.30400 46.27200
H  50.73900 24.49300 44.00700
H  51.91100 22.24400 43.20000
H  52.26200 22.10600 46.07000
H  51.14000 21.31400 44.98500
H  50.74100 22.91100 45.79400
H  51.83400 23.34300 41.47200
H  52.13100 25.06600 41.61200
H  50.00500 25.66000 41.32100
H  49.37300 24.31200 42.35100
H  57.01900 18.72700 44.42000
H  57.00500 19.30200 42.95400
H  55.48400 19.52200 43.85800
H  61.24200 21.96500 44.37200
H  61.57500 20.50300 45.25100
H  60.77100 21.83700 46.13500
H  60.71300 26.14700 45.18500
H  59.61600 28.04400 47.00200
H  60.14900 25.05200 47.92100
H  60.65900 26.64200 48.13000
H  61.73300 25.43900 47.36800
H  58.91100 28.75500 44.21800
H  60.48600 28.08900 44.07700
H  61.39700 30.03400 44.70900
H  60.57200 29.88100 46.30200
H  59.81500 30.74100 44.82900
H  53.62200 30.91200 46.75100
H  54.99700 31.23400 45.60100
H  55.32500 30.49500 47.07000
H  50.71100 27.05800 44.45500
H  48.89700 29.55200 41.44100
H  48.14000 27.96100 41.10700
H  49.71800 28.40200 40.47200
Mg 48.42400 34.26800 26.89400
C  46.73600 32.87400 29.66600
C  48.45100 37.22200 28.74800
C  49.65900 35.65900 24.34200
C  47.62600 31.38500 25.10700
N  47.63200 35.06000 28.95300
C  47.12100 34.20000 29.92900
C  46.95100 34.97000 31.24800
C  47.12000 36.48500 30.79200
C  47.85600 36.23900 29.49700
C  45.75500 37.23100 30.74000
C  48.05000 34.56900 32.26900
C  47.54900 34.38800 33.75000
H  46.53100 35.34400 34.33400
N  49.08700 36.10700 26.63600
C  49.10800 37.16300 27.50700
C  49.96400 38.14300 26.88500
C  50.20900 37.82100 25.54500
C  49.66500 36.47200 25.47300
C  50.33800 39.48300 27.58100
C  50.92300 38.55900 24.39200
O  50.76900 38.32500 23.19100
C  51.64100 39.86600 24.82900
N  48.38400 33.73100 24.92800
C  49.11200 34.44400 24.07400
C  49.40400 33.73900 22.81700
C  48.87600 32.26500 23.03100
C  48.23200 32.43900 24.39500
C  48.93200 34.44800 21.53000
C  49.92900 31.06400 23.10800
C  50.62900 30.63400 21.74700
N  47.45100 32.43100 27.25300
C  47.12100 31.35900 26.40000
C  46.44300 30.33400 27.16000
C  46.25500 30.92400 28.43200
C  46.92300 32.17400 28.41400
C  45.95600 29.02000 26.71900
C  45.81700 30.60000 29.78000
O  45.40900 29.55800 30.31900
C  45.97800 31.90100 30.55900
C  46.45700 31.50700 31.94600
O  47.49700 31.10800 32.30100
O  45.27100 31.48700 32.71600
C  45.35900 31.04700 34.10200
H  48.46900 38.20400 29.22700
H  50.32100 35.97800 23.53500
H  47.53600 30.44300 24.56300
H  46.01600 34.64400 31.70400
H  47.75900 36.93400 31.55300
H  45.40400 37.44300 29.73000
H  45.73900 38.13000 31.35700
H  45.04200 36.59000 31.25800
H  48.73600 35.40200 32.42800
H  48.62200 33.68400 31.98800
H  48.40800 34.38700 34.42200
H  47.22000 33.34900 33.73200
H  49.76000 40.27900 27.11200
H  51.38000 39.60900 27.28900
H  50.09700 39.36000 28.63700
H  50.92400 40.65900 25.04200
H  52.18500 40.16900 23.93400
H  52.41500 39.70200 25.57900
H  50.48200 33.59400 22.74500
H  48.08300 31.90200 22.37700
H  47.95000 33.99700 21.38500
H  49.64600 34.38900 20.70900
H  48.71600 35.50300 21.69600
H  49.41900 30.13900 23.37800
H  50.67000 31.36100 23.84900
H  50.77200 29.56400 21.59300
H  51.60500 31.11500 21.80600
H  50.09900 31.00400 20.86900
H  46.28000 28.68500 25.73300
H  44.87000 29.03300 26.81700
H  46.38000 28.39800 27.50700
H  44.97200 32.31700 30.61300
H  46.25600 30.46000 34.30100
H  44.51700 30.38400 34.30100
H  45.24000 31.80600 34.87500

