158

Mg 9.14200 47.47200 28.33900
C  7.35000 47.12100 31.38000
C  11.94900 48.21200 30.15200
C  10.74100 48.52300 25.53700
C  6.05700 48.28200 26.72900
N  9.52600 47.60900 30.52400
C  8.73500 47.34600 31.63300
C  9.49400 47.61800 32.97400
C  10.84600 48.05500 32.45800
C  10.77100 48.04100 30.90100
C  11.29600 49.48900 32.94200
C  9.37800 46.41700 33.88700
C  10.51900 46.09400 34.86500
H  10.10500 45.20600 36.08900
N  11.15800 47.77700 27.91100
C  12.13800 48.02200 28.80900
C  13.42400 48.14900 28.17300
C  13.11600 48.31400 26.75600
C  11.60600 48.21900 26.63300
C  14.80300 48.28600 28.84400
C  14.03800 48.56000 25.55600
O  13.61600 48.75100 24.45400
C  15.46700 48.51300 25.82500
N  8.49700 48.21000 26.35700
C  9.32700 48.51200 25.40600
C  8.73600 49.09100 24.16300
C  7.22900 48.84200 24.49100
C  7.21100 48.35600 25.94900
C  9.08600 50.59700 23.92700
C  6.49300 47.78700 23.57600
C  7.30000 46.42700 23.60700
N  7.12400 47.54300 28.81500
C  5.98600 47.83500 28.06500
C  4.79000 47.55700 28.89500
C  5.29700 47.21000 30.23000
C  6.71900 47.29900 30.06900
C  3.31600 47.67200 28.43100
C  4.91500 46.92900 31.57600
O  3.80700 46.79700 32.03300
C  6.20900 47.07300 32.36700
C  6.33000 45.89000 33.17900
O  6.52300 44.75800 32.71100
O  6.26200 46.13300 34.52900
C  6.49500 44.91700 35.35100
H  12.81200 48.38100 30.79800
H  11.33800 48.83100 24.67600
H  5.09300 48.39100 26.22800
H  8.94500 48.49700 33.31100
H  11.48300 47.20100 32.68800
H  12.38200 49.52800 33.02400
H  10.80000 49.63300 33.90200
H  10.87900 50.28300 32.32400
H  8.98400 45.52900 33.39100
H  8.61300 46.72700 34.59800
H  10.78500 47.05800 35.29900
H  11.43300 45.72200 34.40200
H  15.64800 47.74900 28.41200
H  14.81900 48.05400 29.90900
H  15.09100 49.33800 28.83900
H  15.97900 48.81600 24.91300
H  15.64100 47.45700 26.02900
H  15.77700 49.19100 26.62100
H  9.04000 48.49700 23.30100
H  6.74200 49.81000 24.37300
H  9.93200 50.57800 23.24000
H  9.43900 51.01200 24.87100
H  8.23700 51.15500 23.53200
H  6.43000 48.08500 22.52900
H  5.50100 47.60700 23.99200
H  8.07800 46.41900 24.37000
H  7.75900 46.27100 22.63100
H  6.74100 45.52000 23.83900
H  3.25000 48.43500 27.65500
H  2.60400 48.01700 29.18100
H  2.97200 46.66700 28.18900
H  6.06900 47.90900 33.05300
H  6.41000 45.31700 36.36100
H  7.42000 44.40000 35.09300
H  5.68500 44.21100 35.17000
Mg -10.06500 40.50900 42.32000
C  -9.31100 37.22700 41.31800
C  -7.22700 41.45200 40.53900
C  -11.29200 43.66800 42.08100
C  -13.42500 39.25700 42.97500
N  -8.55500 39.45500 40.94400
C  -8.37000 38.07300 40.84600
C  -6.96600 37.68700 40.40700
C  -6.24800 39.10000 40.44100
C  -7.39500 40.11400 40.63600
C  -5.16900 39.26000 41.49600
C  -6.95200 37.14700 38.93600
C  -6.32000 35.75100 38.68900
H  -5.19300 35.63700 37.56900
N  -9.25000 42.31100 41.69000
C  -8.09500 42.47500 41.02800
C  -7.84900 43.88000 40.83400
C  -9.08500 44.55700 41.13700
C  -9.94400 43.51400 41.64000
C  -6.52000 44.48900 40.37900
C  -9.31200 46.02700 40.96400
O  -8.39000 46.70100 40.46600
C  -10.63400 46.74300 41.34400
N  -12.03100 41.35500 42.61800
C  -12.25100 42.73900 42.53300
C  -13.70300 43.10900 43.01500
C  -14.34900 41.65100 43.28000
C  -13.19000 40.69100 42.88800
C  -13.67600 43.95400 44.30100
C  -15.62300 41.39400 42.38300
C  -16.93600 41.33800 43.20300
N  -11.17900 38.61200 42.36400
C  -12.47800 38.25900 42.64100
C  -12.62600 36.81600 42.56800
C  -11.43300 36.36800 42.09800
C  -10.57600 37.53200 41.85600
C  -13.87300 35.97500 42.67600
C  -10.67700 35.19600 41.65700
O  -10.89600 34.02700 41.65700
C  -9.36900 35.73700 41.09600
C  -8.23200 35.04300 41.69200
O  -7.52400 35.56500 42.55000
O  -8.06300 33.81300 41.15500
C  -6.82800 33.15900 41.56100
H  -6.26800 41.68300 40.07100
H  -11.78100 44.64300 42.02600
H  -14.44300 38.94500 43.21800
H  -6.36500 37.04100 41.04800
H  -5.75700 39.31600 39.49200
H  -4.21700 39.67400 41.16600
H  -5.15600 38.43800 42.21100
H  -5.39500 40.07100 42.18900
H  -6.41800 37.90300 38.36000
H  -7.93900 37.10700 38.47500
H  -7.17500 35.23000 38.25900
H  -5.90800 35.30700 39.59500
H  -6.22900 45.10100 41.23300
H  -6.78500 45.16600 39.56700
H  -5.83400 43.69400 40.08800
H  -10.87900 46.68200 42.40400
H  -11.39200 46.46800 40.61000
H  -10.39400 47.78100 41.11500
H  -14.15900 43.70900 42.22800
H  -14.52100 41.32600 44.30600
H  -12.67100 43.75200 44.67000
H  -14.50500 43.74100 44.97700
H  -13.76300 44.98900 43.96900
H  -15.54300 40.57900 41.66400
H  -15.72400 42.36800 41.90500
H  -17.04000 42.31900 43.66700
H  -16.86100 40.49300 43.88700
H  -17.81400 41.25500 42.56300
H  -14.13500 35.70300 43.69800
H  -13.78200 35.04900 42.10800
H  -14.68800 36.51700 42.19700
H  -9.34200 35.51100 40.03000
H  -6.73600 33.00000 42.63600
H  -5.92900 33.67200 41.22200
H  -6.85500 32.19300 41.05800

