158

Mg -1.12800 18.39400 27.43500
C  -1.69900 16.31000 30.27500
C  -1.33000 21.18200 29.61500
C  -1.19700 20.64200 24.80500
C  -1.48300 15.77200 25.39200
N  -1.55600 18.66600 29.70200
C  -1.50300 17.65300 30.64000
C  -1.75200 18.20100 32.08500
C  -2.02400 19.74700 31.78400
C  -1.57100 19.92200 30.26800
C  -3.43900 20.20400 31.96900
C  -0.60300 17.92700 33.04400
C  -1.07200 17.28800 34.35100
H  -0.05800 17.21600 35.48700
N  -1.12300 20.57500 27.23000
C  -1.19000 21.51500 28.22600
C  -1.06100 22.82500 27.71900
C  -0.90600 22.67600 26.27000
C  -1.04700 21.28300 26.06100
C  -1.16600 24.12100 28.47700
C  -0.69300 23.75200 25.08300
O  -0.64900 23.54600 23.88300
C  -0.49600 25.15900 25.55200
N  -1.47400 18.23500 25.43100
C  -1.25300 19.24800 24.48900
C  -1.25800 18.70600 23.04100
C  -1.00600 17.19300 23.36000
C  -1.36100 17.02400 24.86300
C  -2.59200 19.03400 22.41200
C  0.45000 16.69900 22.95300
C  1.63900 17.51800 23.53200
N  -1.68100 16.43200 27.70300
C  -1.63700 15.44200 26.72100
C  -1.77000 14.16100 27.42800
C  -1.74300 14.44600 28.78700
C  -1.63600 15.84500 28.93900
C  -1.98600 12.84600 26.73600
C  -1.90700 13.90400 30.09500
O  -2.04400 12.74900 30.45600
C  -1.69200 15.06300 31.08700
C  -0.40500 14.78600 31.79400
O  0.72300 14.95400 31.33800
O  -0.70800 14.20100 32.98600
C  0.39500 13.66200 33.78200
H  -1.46900 22.00600 30.31700
H  -1.11400 21.20800 23.87500
H  -1.40500 14.91500 24.71900
H  -2.66300 17.70800 32.42200
H  -1.39500 20.41900 32.36800
H  -4.13700 19.52400 32.45800
H  -3.88000 20.73300 31.12400
H  -3.38200 20.99300 32.72000
H  0.01400 18.81100 33.20700
H  0.00000 17.24300 32.44800
H  -1.39500 16.26400 34.16300
H  -1.94600 17.87600 34.63100
H  -1.55700 24.20000 29.49200
H  -1.99200 24.66700 28.02100
H  -0.31300 24.79300 28.39000
H  -1.36700 25.48400 26.12200
H  -0.44400 25.90000 24.75500
H  0.37900 25.12700 26.20100
H  -0.45500 19.06700 22.39800
H  -1.68600 16.54700 22.80300
H  -3.31800 18.22100 22.38800
H  -2.56700 19.31500 21.35900
H  -3.09100 19.81200 22.99000
H  0.55200 16.63900 21.86900
H  0.64000 15.64600 23.16100
H  2.09700 16.89800 24.30200
H  1.38500 18.53100 23.84400
H  2.33000 17.60200 22.69400
H  -3.02600 12.57800 26.54900
H  -1.57800 12.02600 27.32600
H  -1.40400 12.76000 25.81800
H  -2.49200 14.99400 31.82400
H  0.09100 13.85200 34.81100
H  1.29500 14.27400 33.73600
H  0.64700 12.61000 33.64400
Mg -10.39000 39.77300 38.92000
C  -9.07200 36.63600 38.29700
C  -7.05200 40.99100 38.33300
C  -11.56100 42.93500 38.57000
C  -13.54200 38.50300 39.17300
N  -8.40400 38.87100 38.40400
C  -8.08600 37.56900 38.22200
C  -6.58000 37.31900 37.80500
C  -6.03100 38.56500 38.53600
C  -7.18100 39.55800 38.40200
C  -5.69700 38.23600 40.06800
C  -6.34000 37.41800 36.28300
C  -6.17800 36.07800 35.54900
H  -7.29000 35.78300 34.49500
N  -9.44700 41.69000 38.51100
C  -8.06600 41.95500 38.25300
C  -7.89500 43.33200 38.09200
C  -9.16300 43.98400 38.10500
C  -10.13900 42.86800 38.47000
C  -6.55800 43.93500 37.75900
C  -9.45600 45.40800 37.86600
O  -8.54100 46.21700 37.63400
C  -10.83800 46.02400 37.94800
N  -12.26800 40.56600 38.85900
C  -12.49400 41.91300 38.90700
C  -13.99000 42.21700 39.15100
C  -14.66500 40.80500 39.27300
C  -13.41800 39.87500 39.10100
C  -14.21300 43.10000 40.39100
C  -15.82300 40.56400 38.22900
C  -17.17500 40.14400 38.90300
N  -11.16100 37.90900 38.89000
C  -12.49500 37.55800 39.06100
C  -12.56700 36.11900 39.01800
C  -11.30100 35.69500 38.63800
C  -10.46600 36.79700 38.64200
C  -13.83600 35.35900 39.18700
C  -10.41000 34.57200 38.27200
O  -10.65300 33.44200 38.11700
C  -8.96600 35.09200 38.04100
C  -8.10400 34.38800 38.99600
O  -8.41800 34.11800 40.16100
O  -6.93900 33.86600 38.46200
C  -6.16700 32.92500 39.23800
H  -6.01700 41.32900 38.25100
H  -11.89000 43.96300 38.73400
H  -14.49000 38.01500 39.40500
H  -6.05500 36.46300 38.22900
H  -5.08900 38.88100 38.09000
H  -6.49100 38.63300 40.70100
H  -4.71300 38.65500 40.28000
H  -5.47700 37.18700 40.26600
H  -5.42700 38.00100 36.16100
H  -7.17000 37.97500 35.84800
H  -6.04100 35.23400 36.22400
H  -5.20700 36.24400 35.08300
H  -6.54400 44.29500 36.73000
H  -5.71300 43.25300 37.85800
H  -6.45400 44.86700 38.31500
H  -11.54200 45.44800 37.34800
H  -10.94000 47.03300 37.54700
H  -11.26100 45.95700 38.95100
H  -14.33800 42.76100 38.27400
H  -15.04200 40.58000 40.27000
H  -15.06600 42.90300 41.04000
H  -14.33200 44.15600 40.15000
H  -13.23600 42.97800 40.85900
H  -15.55800 39.82900 37.46800
H  -16.16700 41.47600 37.74100
H  -17.32700 40.81500 39.74900
H  -17.05300 39.07100 39.05200
H  -17.88800 40.31900 38.09800
H  -14.76100 35.89700 38.98200
H  -13.91000 35.06900 40.23500
H  -13.75600 34.51400 38.50300
H  -8.65200 34.93500 37.00900
H  -5.84300 33.39200 40.16800
H  -5.32400 32.54800 38.65900
H  -6.75400 32.07300 39.57900

