158

Mg -1.20100 17.48000 25.76900
C  -1.97400 15.34500 28.57200
C  -2.36200 20.14300 27.69500
C  -0.95300 19.44100 23.12700
C  -0.99500 14.55200 23.86300
N  -1.88200 17.71900 28.03100
C  -2.18900 16.68500 28.91500
C  -2.79900 17.31500 30.24200
C  -3.21500 18.66800 29.66700
C  -2.46300 18.92600 28.34900
C  -4.78500 18.70400 29.33900
C  -1.75200 17.49500 31.39300
C  -2.30800 17.38300 32.74900
H  -1.32600 16.95500 33.80800
N  -1.28600 19.48100 25.54200
C  -1.78800 20.45500 26.41600
C  -1.52200 21.73000 25.88700
C  -1.13000 21.58400 24.51700
C  -1.23700 20.11400 24.30000
C  -1.69300 23.06500 26.65100
C  -0.82500 22.66000 23.49500
O  -0.59100 22.35700 22.31300
C  -0.67600 24.16400 23.84000
N  -0.97900 17.03800 23.83800
C  -0.85000 18.07600 22.99000
C  -0.47000 17.50800 21.58400
C  -0.07500 15.99100 21.95000
C  -0.66000 15.78900 23.32900
C  -1.53800 17.62300 20.41700
C  1.48700 15.68500 21.79500
C  2.44600 16.26000 22.81900
N  -1.47800 15.31600 26.06400
C  -1.35300 14.26300 25.24000
C  -1.29000 12.99800 25.97300
C  -1.56100 13.39000 27.30700
C  -1.69600 14.81500 27.28000
C  -0.86400 11.71200 25.33100
C  -1.72400 12.91200 28.60500
O  -1.68800 11.80200 29.07300
C  -1.88400 14.16400 29.54100
C  -0.71400 14.20100 30.43300
O  0.44800 14.49200 30.15400
O  -1.03000 13.61900 31.57600
C  0.06500 13.45500 32.57600
H  -2.68500 21.02400 28.25400
H  -0.70300 19.94000 22.18800
H  -0.85600 13.67000 23.23400
H  -3.68000 16.76800 30.57800
H  -2.94200 19.55600 30.23600
H  -5.43900 17.90300 29.68300
H  -4.99900 18.79500 28.27400
H  -5.14800 19.65800 29.72200
H  -1.28300 18.47800 31.35100
H  -0.95200 16.76700 31.25500
H  -3.09100 16.62600 32.79900
H  -2.73000 18.33200 33.08000
H  -0.85100 23.71900 26.42200
H  -1.83000 22.97200 27.72800
H  -2.51900 23.61500 26.20200
H  0.23500 24.36200 24.40500
H  -1.59000 24.52700 24.30900
H  -0.47600 24.66400 22.89300
H  0.47800 17.95400 21.28300
H  -0.67800 15.31100 21.34800
H  -1.99800 18.60200 20.55500
H  -2.26700 16.81400 20.45600
H  -0.97200 17.52500 19.49100
H  1.83800 16.11500 20.85800
H  1.56400 14.59900 21.83100
H  1.99000 16.37000 23.80300
H  2.92100 17.18000 22.47900
H  3.24000 15.54600 23.03800
H  -1.77000 11.20600 24.99600
H  -0.30100 11.08600 26.02300
H  -0.21800 11.96800 24.49200
H  -2.78000 14.11500 30.15900
H  0.96000 14.03800 32.36200
H  0.36200 12.41300 32.45000
H  -0.28200 13.59700 33.59900
Mg 36.03600 49.86300 25.47800
C  36.06500 48.02100 28.51100
C  35.68800 52.73400 27.24600
C  35.87700 51.27400 22.54200
C  36.41800 46.63500 23.92900
N  35.72500 50.27300 27.61200
C  35.86400 49.42000 28.68200
C  35.83300 50.22500 30.04000
C  35.60800 51.65600 29.57600
C  35.69900 51.59200 28.05400
C  34.41000 52.39200 30.07800
C  37.05200 50.01700 30.92500
C  36.75100 49.81900 32.44700
H  35.32200 49.81200 32.96300
N  35.80100 51.75300 24.98800
C  35.80800 52.80000 25.84200
C  35.78700 53.96300 25.11300
C  35.86100 53.66900 23.70300
C  35.84600 52.14000 23.66000
C  35.72100 55.32200 25.64300
C  35.91700 54.64100 22.41800
O  35.86700 54.11700 21.30700
C  35.94500 56.26600 22.47900
N  36.03300 49.07500 23.49900
C  36.06600 49.89500 22.42500
C  36.26200 49.15100 21.10000
C  36.64300 47.65100 21.52900
C  36.41100 47.79400 23.14000
C  34.97700 49.26200 20.11000
C  38.09600 47.26600 21.21400
C  38.22900 45.75500 21.07700
N  36.19400 47.86300 26.03100
C  36.29700 46.68300 25.26900
C  36.32000 45.46000 26.06600
C  36.24700 45.97000 27.37600
C  36.08800 47.40500 27.30700
C  36.46300 44.00400 25.58800
C  36.42500 45.57100 28.74000
O  36.63000 44.46900 29.24500
C  36.23400 46.85800 29.60400
C  34.99000 46.59800 30.38100
O  33.86800 46.79700 29.93900
O  35.26100 46.04600 31.59800
C  34.03800 45.68800 32.36500
H  35.64000 53.67100 27.80600
H  36.02100 51.73000 21.56000
H  36.57400 45.70300 23.38300
H  34.86000 49.85100 30.35600
H  36.45000 52.30500 29.81800
H  33.94500 53.04900 29.34300
H  34.72600 53.04400 30.89300
H  33.60500 51.79200 30.50500
H  37.71800 50.87800 30.86100
H  37.60700 49.16600 30.53000
H  37.33400 50.63100 32.88100
H  37.12600 48.83300 32.72300
H  36.29400 56.01800 25.02900
H  36.13800 55.47400 26.63800
H  34.65400 55.52600 25.55800
H  36.83500 56.59500 23.01600
H  35.14300 56.54900 23.16100
H  35.87200 56.67600 21.47200
H  37.13300 49.70300 20.74700
H  35.99900 46.87400 21.11900
H  35.24000 49.90300 19.26800
H  34.19600 49.77100 20.67500
H  34.66000 48.28800 19.73700
H  38.65000 47.53700 22.11300
H  38.46900 47.77000 20.32300
H  37.33500 45.21700 20.76100
H  38.61700 45.31400 21.99500
H  38.89400 45.65500 20.22000
H  36.41700 43.30700 26.42500
H  37.43500 43.81700 25.13300
H  35.62800 43.81400 24.91300
H  37.05200 46.97600 30.31400
H  33.90700 44.60700 32.33500
H  33.19600 46.27200 31.99400
H  34.15400 46.09000 33.37100

