158

Mg 48.03700 16.41100 28.68200
C  46.09400 16.16900 31.64100
C  50.33500 18.17300 30.39600
C  49.54800 16.70600 25.74200
C  45.18400 14.83700 27.06500
N  48.14300 17.11300 30.73500
C  47.31900 16.83700 31.78800
C  47.82400 17.32500 33.16300
C  49.04100 18.22000 32.70000
C  49.20900 17.82900 31.16300
C  48.98600 19.73000 33.03600
C  48.11000 16.03400 34.06800
C  47.94200 16.14700 35.61600
H  47.49400 17.50000 36.22900
N  49.76700 17.20900 28.13200
C  50.62200 17.90800 29.00200
C  51.90100 18.15300 28.32900
C  51.72900 17.70500 26.95700
C  50.37200 17.19600 26.91400
C  53.18400 18.74000 29.06300
C  52.69200 17.72700 25.87800
O  52.38100 17.26400 24.78400
C  54.06700 18.19600 26.07400
N  47.45000 15.75900 26.75600
C  48.30000 16.12200 25.69100
C  47.64200 15.71600 24.33900
C  46.34500 14.96800 24.75400
C  46.31400 15.19000 26.26600
C  47.52200 16.82600 23.35800
C  46.25700 13.41600 24.50500
C  46.04600 12.95600 23.06400
N  46.14900 15.53300 29.29100
C  45.12000 14.98200 28.45000
C  43.94600 14.78300 29.25800
C  44.30100 15.18000 30.53000
C  45.59500 15.67300 30.47500
C  42.57700 14.25700 28.69000
C  43.75600 15.28900 31.83000
O  42.66500 14.99800 32.38400
C  45.01900 15.77800 32.64600
C  44.57700 16.96100 33.36900
O  44.13800 18.00700 32.87600
O  44.45100 16.60700 34.70700
C  43.50300 17.24100 35.66300
H  51.07600 18.75000 30.95400
H  50.03200 16.71100 24.76300
H  44.34000 14.51200 26.45300
H  46.96800 17.86600 33.56700
H  49.94000 17.78200 33.13400
H  48.86700 20.44100 32.21800
H  49.86200 19.96600 33.64000
H  48.08400 19.89000 33.62600
H  49.13100 15.73500 33.83100
H  47.48500 15.23200 33.67500
H  48.91400 15.91600 36.05300
H  47.17400 15.38000 35.71100
H  53.93800 17.95900 29.15300
H  53.05400 19.05700 30.09700
H  53.47100 19.61900 28.48700
H  54.61500 18.04400 25.14400
H  54.38500 17.56100 26.90200
H  54.01700 19.25700 26.32000
H  48.33700 15.04000 23.84100
H  45.49100 15.51700 24.35800
H  48.21200 16.62800 22.53800
H  47.89800 17.71900 23.85800
H  46.48900 17.00200 23.06000
H  45.77000 12.85400 25.30200
H  47.26700 13.07200 24.72700
H  46.49000 11.96900 22.93000
H  46.47100 13.66400 22.35300
H  44.96200 12.93300 22.95200
H  42.20000 14.77100 27.80600
H  41.87000 14.45100 29.49800
H  42.68400 13.19100 28.48900
H  45.25500 14.99700 33.36700
H  42.80500 16.43800 35.89800
H  42.88800 17.98100 35.15000
H  43.90800 17.60100 36.60900
Mg -1.94800 34.70900 26.49600
C  -3.93100 33.30200 29.08300
C  -0.69700 36.92600 28.78200
C  -0.60400 36.32000 23.89400
C  -3.70600 32.82000 24.23200
N  -2.37500 35.14200 28.71300
C  -3.06700 34.34900 29.53200
C  -2.81500 34.71900 31.00700
C  -1.85800 36.02300 30.90600
C  -1.59300 36.06900 29.41000
C  -2.29800 37.34900 31.46400
C  -2.17000 33.54300 31.81000
C  -1.57000 33.90000 33.20200
H  -2.49200 33.70700 34.41700
N  -0.83100 36.38400 26.36100
C  -0.39000 37.15900 27.41300
C  0.54500 38.08800 26.88200
C  0.62500 37.89100 25.47900
C  -0.28100 36.78400 25.16800
C  1.21700 39.16100 27.67800
C  1.57200 38.58800 24.51200
O  1.35800 38.57100 23.26900
C  2.81600 39.27500 25.07900
N  -2.15100 34.58600 24.31200
C  -1.51400 35.36700 23.51000
C  -1.74500 35.01500 22.01200
C  -2.81600 33.90000 22.12100
C  -2.91300 33.73900 23.64500
C  -2.10900 36.28100 21.12200
C  -2.48200 32.53700 21.45300
C  -1.16500 31.90000 22.02700
N  -3.51400 33.37300 26.56200
C  -4.15700 32.70300 25.54200
C  -5.14700 31.75500 26.03000
C  -5.08000 31.98800 27.39200
C  -4.16000 32.96000 27.70600
C  -6.05100 30.97000 25.26700
C  -5.53600 31.48200 28.71700
O  -6.22900 30.58800 28.94900
C  -4.85400 32.35200 29.82700
C  -5.75800 33.17000 30.69900
O  -6.68600 33.79600 30.28300
O  -5.46800 32.96600 32.01300
C  -6.44800 33.55900 32.99800
H  -0.04400 37.49200 29.45000
H  -0.36800 36.94000 23.02700
H  -4.15100 32.11100 23.53100
H  -3.75500 34.98700 31.49000
H  -0.82700 35.93300 31.24800
H  -1.48200 37.81700 32.01500
H  -3.13500 37.25200 32.15500
H  -2.53500 37.91200 30.56200
H  -1.37500 33.22400 31.13600
H  -2.95000 32.83800 32.09700
H  -1.46800 34.98600 33.19800
H  -0.62200 33.37100 33.30100
H  0.72700 39.33400 28.63600
H  1.24600 40.12300 27.16600
H  2.20900 38.78300 27.92700
H  2.73000 40.36100 25.11900
H  3.49900 39.04400 24.26100
H  3.28600 38.73800 25.90200
H  -0.86800 34.57500 21.53800
H  -3.79200 34.22400 21.75900
H  -2.12500 37.19800 21.71100
H  -3.08100 36.20400 20.63400
H  -1.45100 36.47400 20.27500
H  -2.25700 32.84600 20.43200
H  -3.29200 31.80900 21.49700
H  -0.40200 31.96900 21.25200
H  -1.43900 30.87700 22.28500
H  -0.77300 32.28400 22.96800
H  -5.54600 30.00600 25.20900
H  -6.13200 31.36400 24.25400
H  -7.06900 30.84800 25.63700
H  -4.23300 31.73100 30.47300
H  -7.32600 32.92200 33.09900
H  -6.85700 34.48800 32.59900
H  -6.12000 33.68400 34.03000

