158

Mg 26.92000 49.56900 26.56300
C  24.96700 50.97400 29.14700
C  29.35600 48.68200 28.87000
C  28.93100 48.86100 24.00400
C  24.58400 51.14100 24.28400
N  27.14600 49.78100 28.78100
C  26.11200 50.31900 29.59600
C  26.57900 50.18000 31.04300
C  28.09300 49.74000 31.00500
C  28.21600 49.36400 29.48500
C  29.15400 50.74500 31.46100
C  25.58400 49.30200 31.96400
C  24.93400 50.05800 33.15600
H  24.92800 49.35100 34.54500
N  28.77100 48.73100 26.43100
C  29.55000 48.34600 27.51100
C  30.72800 47.68300 27.00300
C  30.75100 47.85900 25.56300
C  29.41600 48.49900 25.25000
C  31.81800 47.09600 27.83200
C  31.76900 47.53000 24.49900
O  31.75300 47.95900 23.36000
C  33.07800 46.87200 24.99700
N  26.80800 50.11000 24.49200
C  27.75200 49.53500 23.62400
C  27.39900 49.79300 22.17900
C  25.88400 50.29500 22.27400
C  25.74000 50.59200 23.79000
C  28.45800 50.68100 21.58500
C  24.97900 49.26700 21.69100
C  24.15600 49.70700 20.45800
N  25.14500 50.75400 26.70100
C  24.34000 51.33500 25.67200
C  23.17800 51.88400 26.27900
C  23.40600 51.74800 27.68300
C  24.58800 51.09800 27.83500
C  22.04200 52.47500 25.52500
C  22.79600 51.98900 28.98700
O  21.71200 52.43200 29.35400
C  23.83300 51.55400 30.00200
C  24.15500 52.74400 30.78800
O  24.93000 53.54300 30.42400
O  23.34800 52.76800 31.91700
C  23.50000 53.90600 32.81100
H  30.22700 48.45300 29.48700
H  29.49700 48.47100 23.15500
H  23.81900 51.55500 23.62300
H  26.58500 51.21500 31.38600
H  28.15000 48.81600 31.58100
H  28.95700 50.93500 32.51600
H  29.11700 51.57500 30.75500
H  30.11900 50.24100 31.51300
H  26.31600 48.65100 32.44100
H  24.80900 48.74200 31.44000
H  23.88900 50.31600 32.98600
H  25.59700 50.91000 33.30600
H  31.43700 46.89300 28.83300
H  32.65100 47.79300 27.92400
H  32.09400 46.10200 27.48100
H  32.81100 45.93400 25.48600
H  33.79600 47.53800 25.47500
H  33.62700 46.51400 24.12700
H  27.44100 48.80700 21.71400
H  25.57300 51.21500 21.78000
H  29.26500 50.96300 22.26100
H  27.94700 51.57500 21.22800
H  28.84300 50.23900 20.66600
H  24.40600 48.92400 22.55300
H  25.43200 48.32800 21.37200
H  24.31200 49.20000 19.50600
H  24.07100 50.78300 20.30500
H  23.14100 49.52100 20.81000
H  22.46200 53.39700 25.12300
H  21.28000 52.57700 26.29800
H  21.78500 51.69400 24.80800
H  23.41400 50.78000 30.64500
H  23.93300 54.72900 32.24200
H  24.13000 53.80700 33.69500
H  22.55000 54.13800 33.29300
Mg -11.37200 16.60700 41.59200
C  -8.39100 14.99200 40.94100
C  -10.27000 19.35000 39.75400
C  -14.52400 17.83900 41.63600
C  -12.69200 13.48200 42.42000
N  -9.49200 17.14600 40.55300
C  -8.42800 16.26800 40.32400
C  -7.26600 16.91800 39.52800
C  -7.91700 18.24900 39.02400
C  -9.27700 18.29400 39.81600
C  -6.95500 19.50600 39.09600
C  -6.79000 15.97800 38.37300
C  -5.28600 15.94800 38.19100
H  -4.71800 15.83500 36.80800
N  -12.27600 18.38900 40.89100
C  -11.65100 19.40600 40.21400
C  -12.53700 20.56100 39.96400
C  -13.79300 20.15500 40.52700
C  -13.59100 18.72800 41.01600
C  -12.15300 21.83800 39.18200
C  -15.06800 20.98400 40.56000
O  -15.16500 22.03300 39.95300
C  -16.23600 20.58500 41.34500
N  -13.33800 15.72300 41.77600
C  -14.41200 16.53700 42.05600
C  -15.58200 15.75400 42.62600
C  -15.16900 14.33900 42.32600
C  -13.65300 14.46900 42.20100
C  -15.79300 15.96600 44.13300
C  -15.87800 13.67600 41.03300
C  -16.37100 12.19300 41.30600
N  -10.66200 14.77700 41.86800
C  -11.33100 13.59000 42.24400
C  -10.38500 12.57000 42.49500
C  -9.21400 13.12400 42.03400
C  -9.46400 14.43300 41.62800
C  -10.52700 11.17000 42.93300
C  -7.81600 12.84500 41.84400
O  -7.19000 11.84400 42.08900
C  -7.23200 14.03000 41.06800
C  -6.16700 14.61900 41.95600
O  -6.31500 15.11000 43.07600
O  -4.89500 14.55400 41.33900
C  -3.80100 15.38100 41.89700
H  -9.88100 20.12600 39.09000
H  -15.55900 18.13300 41.82100
H  -13.23300 12.58700 42.73300
H  -6.48100 17.14800 40.24900
H  -8.24800 18.14500 37.99100
H  -6.02200 19.12400 39.51100
H  -7.37400 20.33600 39.66500
H  -6.81100 19.89100 38.08700
H  -7.19500 16.31000 37.41700
H  -7.22100 14.97900 38.43300
H  -4.79500 15.20000 38.81400
H  -4.95900 16.95500 38.45200
H  -12.96700 22.56100 39.23800
H  -11.81100 21.57200 38.18200
H  -11.27100 22.22800 39.69200
H  -16.99600 21.36500 41.39900
H  -15.96900 20.20400 42.33100
H  -16.68100 19.81700 40.71200
H  -16.45500 15.92800 41.99800
H  -15.30900 13.67700 43.18100
H  -16.55600 16.73900 44.22200
H  -14.85800 16.16400 44.65700
H  -16.25000 15.03900 44.48000
H  -15.21500 13.74700 40.17100
H  -16.74100 14.29800 40.79500
H  -15.79400 11.57400 41.99300
H  -16.46400 11.70200 40.33800
H  -17.36400 12.11700 41.75000
H  -9.64000 10.73400 43.39400
H  -10.66300 10.47000 42.10900
H  -11.33600 11.16800 43.66400
H  -6.76900 13.58500 40.18700
H  -2.82800 15.24500 41.42600
H  -3.72300 15.25900 42.97700
H  -4.01300 16.45000 41.87800

