158

Mg 25.99800 -0.38000 28.99100
C  27.82900 -0.75100 31.96500
C  23.26700 0.20400 30.82200
C  24.35800 -0.25300 26.11500
C  28.95100 -1.60400 27.22600
N  25.61800 -0.31400 31.17400
C  26.49800 -0.49500 32.25900
C  25.82400 -0.14900 33.65700
C  24.38200 0.12300 33.17600
C  24.39000 -0.02700 31.62100
C  23.42700 -0.89600 33.82100
C  26.43700 1.08300 34.39600
C  25.93600 1.34000 35.82500
H  26.52600 2.52800 36.68500
N  24.03100 -0.10900 28.54700
C  23.03200 0.11400 29.39700
C  21.82500 0.47400 28.69100
C  22.17700 0.38300 27.30200
C  23.60900 0.07100 27.22500
C  20.45300 0.71400 29.34300
C  21.30700 0.54800 26.14500
O  21.71500 0.59300 24.99600
C  19.74600 0.78400 26.22600
N  26.52600 -1.01900 26.99800
C  25.62300 -0.87200 25.94700
C  26.35100 -0.89300 24.67100
C  27.69700 -1.53900 24.97300
C  27.75300 -1.38600 26.49500
C  25.61600 -1.57000 23.48900
C  28.96000 -1.00200 24.27100
C  29.11900 0.53700 24.19800
N  28.03200 -0.93200 29.45800
C  29.13400 -1.36700 28.64800
C  30.28700 -1.44300 29.45800
C  29.85800 -1.19000 30.78800
C  28.48600 -0.96700 30.76600
C  31.65000 -1.71700 28.89700
C  30.30800 -1.12700 32.15200
O  31.43700 -1.34100 32.61600
C  28.99100 -0.69100 32.92400
C  28.74600 -1.50700 34.10200
O  28.33000 -2.67600 34.16400
O  29.05000 -0.77600 35.18500
C  28.97700 -1.46200 36.49200
H  22.41400 0.45700 31.45500
H  23.90200 0.05400 25.17200
H  29.91200 -1.81700 26.75300
H  25.94000 -1.05700 34.24700
H  24.11100 1.14000 33.45900
H  24.09900 -1.66100 34.21000
H  22.83500 -1.37600 33.04100
H  22.70700 -0.51200 34.54400
H  26.13700 1.97500 33.84600
H  27.52500 1.08700 34.46000
H  26.31900 0.47300 36.36200
H  24.85000 1.41200 35.89200
H  19.71800 1.34900 28.84700
H  20.66800 1.32700 30.21900
H  20.04700 -0.23800 29.68400
H  19.33500 0.95600 25.23100
H  19.47300 1.64100 26.84200
H  19.28300 -0.13400 26.58600
H  26.46800 0.13800 24.33500
H  27.60100 -2.62000 24.87300
H  24.56900 -1.76700 23.71700
H  26.07500 -2.53100 23.25600
H  25.68300 -1.04700 22.53500
H  28.87100 -1.28500 23.22200
H  29.79700 -1.56600 24.68200
H  28.49700 1.16300 24.83800
H  28.99300 0.76200 23.13900
H  30.15000 0.57900 24.54900
H  31.63900 -1.24000 27.91700
H  31.77200 -2.77800 28.68000
H  32.41000 -1.22500 29.50400
H  29.10900 0.35100 33.22100
H  28.51400 -0.67200 37.08400
H  29.95000 -1.62700 36.95400
H  28.30800 -2.32200 36.52000
Mg 35.72900 0.73300 29.29600
C  33.31600 2.23700 31.49400
C  37.97500 0.87800 31.87200
C  38.14800 -0.06100 27.18300
C  33.55900 1.17800 26.59700
N  35.66800 1.64700 31.39400
C  34.56700 1.98300 32.13000
C  34.92600 2.32100 33.57000
C  36.53500 2.18500 33.56300
C  36.77100 1.58000 32.15400
C  37.40000 3.56100 33.82800
C  34.20500 1.37700 34.56300
C  33.90300 2.04900 35.90000
H  34.81400 3.17200 36.38700
N  37.77100 0.31500 29.51900
C  38.50600 0.28800 30.67500
C  39.82200 -0.21000 30.45200
C  39.78700 -0.58900 29.05800
C  38.51900 -0.11900 28.53500
C  40.84200 -0.31200 31.50400
C  40.86700 -1.27300 28.29500
O  40.76600 -1.60600 27.12000
C  42.04900 -1.65800 29.06000
N  35.77500 0.42000 27.17600
C  36.94500 0.19900 26.57300
C  36.77300 0.27800 25.00900
C  35.24800 0.70800 24.86600
C  34.79000 0.69400 26.27800
C  37.63500 1.14300 24.08100
C  34.31500 -0.15700 23.94200
C  33.32400 0.54800 22.97700
N  33.75400 1.42700 29.10100
C  33.03100 1.54200 27.92600
C  31.69400 2.14500 28.31600
C  31.77500 2.45500 29.70600
C  33.02000 2.04800 30.12300
C  30.50400 2.27900 27.34000
C  31.10200 3.10300 30.84400
O  29.93600 3.56700 30.91800
C  32.09500 2.94200 32.05100
C  32.30400 4.23100 32.77000
O  32.73500 5.24200 32.30500
O  31.80800 4.10200 34.05700
C  31.75900 5.34000 34.86000
H  38.73900 0.82100 32.65000
H  38.85000 -0.30800 26.38300
H  33.05200 1.51500 25.69000
H  34.60100 3.33600 33.79900
H  36.99600 1.47400 34.24900
H  38.35100 3.23600 34.25000
H  36.83000 4.18600 34.51600
H  37.61600 4.04500 32.87600
H  34.93100 0.57400 34.69100
H  33.32200 0.93300 34.10200
H  33.92200 1.31000 36.70100
H  32.89600 2.42000 36.09100
H  41.22000 -1.31800 31.68700
H  40.48200 -0.18400 32.52500
H  41.64900 0.38600 31.27800
H  42.65300 -2.31200 28.43100
H  41.88400 -2.24700 29.96200
H  42.70200 -0.82100 29.30300
H  36.88400 -0.73600 24.62600
H  35.16400 1.74300 24.53300
H  37.19600 2.12300 23.89400
H  37.66200 0.58600 23.14500
H  38.62500 1.22300 24.53000
H  33.80500 -0.89000 24.56600
H  34.93500 -0.75900 23.27700
H  33.41900 1.63300 23.03000
H  32.28600 0.25200 23.12500
H  33.61400 0.31900 21.95100
H  29.70100 2.75200 27.90700
H  30.23700 1.31900 26.90100
H  30.92000 2.87000 26.52400
H  31.64700 2.30500 32.81400
H  30.75200 5.75600 34.82200
H  32.57200 5.99700 34.54900
H  31.98700 4.99500 35.86800

