158

Mg 8.05700 3.23000 27.53800
C  9.54300 1.98300 30.32300
C  6.18000 5.39200 29.36800
C  6.57300 4.29900 24.63000
C  9.51700 0.58700 25.63900
N  7.92400 3.65200 29.61000
C  8.62600 3.01500 30.61000
C  8.26000 3.64100 32.01800
C  7.07500 4.55500 31.69700
C  7.02000 4.52300 30.11000
C  5.70700 4.32500 32.40400
C  9.51300 4.36300 32.65500
C  9.22400 5.31400 33.87800
H  10.04700 5.15900 35.08500
N  6.67000 4.72900 27.02800
C  5.95200 5.46000 27.93900
C  5.04700 6.37600 27.32300
C  5.09800 6.08500 25.93000
C  6.17500 5.05300 25.81700
C  4.12100 7.34000 28.05800
C  4.36200 6.72200 24.76900
O  4.72700 6.49800 23.61500
C  3.23700 7.66800 24.96400
N  8.15200 2.57300 25.37300
C  7.41100 3.15200 24.37300
C  7.70900 2.55900 23.07800
C  8.67300 1.38700 23.40200
C  8.77500 1.46300 24.90400
C  6.42700 2.15300 22.21900
C  10.04100 1.24300 22.54100
C  11.23400 1.85700 23.30700
N  9.20600 1.56300 27.86100
C  9.76000 0.63200 27.03700
C  10.68400 -0.26700 27.77900
C  10.73200 0.30800 29.07600
C  9.75000 1.39300 29.07600
C  11.55800 -1.41200 27.28100
C  11.40300 0.23100 30.37400
O  12.17900 -0.58600 30.79300
C  10.55100 1.29700 31.27200
C  9.88300 0.56700 32.42800
O  9.16600 -0.41700 32.30200
O  10.26200 1.10100 33.69600
C  9.91000 0.35500 34.88600
H  5.68500 6.07500 30.06200
H  6.06100 4.74200 23.77300
H  9.98100 -0.15100 24.98100
H  7.94600 2.75200 32.56500
H  7.32700 5.59200 31.91800
H  5.22800 5.25400 32.71300
H  5.83500 3.72000 33.30100
H  5.11600 3.84800 31.62200
H  9.88000 5.00500 31.85400
H  10.30800 3.65600 32.89300
H  8.19500 5.31500 34.23700
H  9.33400 6.36200 33.59800
H  4.30900 7.39800 29.13000
H  3.09200 6.98300 28.08800
H  4.20600 8.35200 27.66300
H  2.43800 7.24200 25.57100
H  2.79600 7.91600 23.99800
H  3.64800 8.55000 25.45600
H  8.31900 3.27600 22.52800
H  8.18300 0.41600 23.33200
H  5.58200 2.31300 22.88900
H  6.46700 1.06900 22.10800
H  6.40900 2.74500 21.30500
H  10.00000 1.83500 21.62600
H  10.19900 0.21100 22.22800
H  10.89300 2.51300 24.10700
H  12.01200 2.34800 22.72200
H  11.72700 1.05300 23.85300
H  12.29400 -0.96300 26.61400
H  11.02100 -2.12200 26.65200
H  12.07000 -1.91100 28.10400
H  11.25800 2.00800 31.69800
H  9.69700 -0.70500 34.75100
H  9.04400 0.86200 35.31400
H  10.76800 0.45600 35.55000
Mg 30.61000 58.17100 40.21500
C  27.91100 55.94100 39.47400
C  32.74800 55.76400 38.83200
C  33.05000 60.50700 40.29000
C  28.23400 60.72700 40.79400
N  30.26000 56.19900 39.05500
C  29.14500 55.45600 39.01700
C  29.44800 54.12100 38.33900
C  30.95800 53.90600 38.64800
C  31.40500 55.30500 38.84900
C  31.26500 52.92100 39.81900
C  29.15800 54.22300 36.80800
C  28.01900 53.34100 36.34100
H  27.16600 54.07500 35.37400
N  32.63200 58.07900 39.82500
C  33.28600 57.05900 39.15600
C  34.68300 57.50000 39.07100
C  34.84300 58.82800 39.58600
C  33.45700 59.19900 39.90500
C  35.82000 56.63300 38.50400
C  36.21300 59.55800 39.52500
O  37.20700 58.97800 39.07100
C  36.39000 61.04800 39.70900
N  30.61700 60.33000 40.49700
C  31.79500 61.03300 40.62700
C  31.55800 62.59400 40.78500
C  30.00400 62.67400 40.94400
C  29.56600 61.17400 40.72000
C  32.48200 63.37600 41.81800
C  29.26200 63.79100 40.19500
C  28.57800 63.58900 38.78300
N  28.47400 58.39400 40.18900
C  27.65800 59.42600 40.55400
C  26.25900 59.01200 40.54300
C  26.33600 57.64700 40.14200
C  27.68000 57.28700 39.92800
C  25.10300 59.91300 40.71100
C  25.53600 56.46400 39.75800
O  24.34300 56.33500 39.61200
C  26.56800 55.28500 39.32100
C  26.24900 54.15600 40.23200
O  26.73800 54.08900 41.32500
O  25.42500 53.23900 39.65700
C  25.33000 51.93300 40.36400
H  33.54500 55.04900 38.61500
H  33.78700 61.29400 40.46600
H  27.47300 61.39500 41.20100
H  28.85500 53.42800 38.93600
H  31.43600 53.44900 37.78100
H  30.42900 52.63300 40.45600
H  32.15900 53.20000 40.37900
H  31.63000 51.98300 39.40100
H  30.03300 53.83500 36.28600
H  29.09400 55.24800 36.44300
H  27.45100 53.00600 37.20900
H  28.32000 52.45500 35.78100
H  36.31300 57.02800 37.61600
H  35.49800 55.61700 38.27400
H  36.55000 56.39100 39.27700
H  36.04600 61.38700 40.68600
H  35.84600 61.61200 38.95100
H  37.45600 61.23500 39.57800
H  31.75300 63.09300 39.83600
H  29.79400 62.70800 42.01300
H  31.83900 63.63700 42.65900
H  33.05700 64.20100 41.39800
H  33.20500 62.61300 42.10500
H  30.05800 64.52000 40.04400
H  28.47600 64.27700 40.77400
H  27.61700 64.10300 38.75600
H  28.42500 62.51700 38.65900
H  29.24000 63.98200 38.01200
H  24.49300 59.39000 41.44800
H  24.62200 59.93600 39.73300
H  25.31500 60.88300 41.15900
H  26.35000 54.94100 38.31000
H  26.15200 51.65400 41.02400
H  25.23900 51.15900 39.60300
H  24.39300 51.98800 40.91800

