158

Mg 48.07800 34.32800 27.58700
C  46.20200 32.92400 30.15000
C  48.09400 37.35200 29.36300
C  49.24400 36.01800 24.84200
C  47.55400 31.50800 25.61600
N  47.41700 34.96400 29.50100
C  46.85200 34.11300 30.40400
C  46.92700 34.75400 31.76700
C  47.10000 36.28300 31.45200
C  47.58000 36.21700 30.03700
C  45.71400 37.03300 31.67700
C  48.16700 34.28500 32.47400
C  48.50400 34.72800 33.91200
H  47.37500 35.40600 34.71200
N  48.76200 36.37100 27.23200
C  48.65800 37.39200 28.12800
C  49.32900 38.49500 27.51300
C  49.70800 38.16600 26.19400
C  49.23500 36.81600 26.06700
C  49.61300 39.79400 28.26200
C  50.50400 39.06700 25.18400
O  50.74300 38.67100 24.01600
C  51.00000 40.45600 25.61800
N  48.32300 33.83400 25.43300
C  48.79700 34.68300 24.53900
C  48.94900 33.97700 23.12000
C  48.77900 32.43100 23.54500
C  48.21100 32.57900 24.92200
C  47.90700 34.41700 22.12600
C  50.00700 31.51100 23.50800
C  50.87100 31.72600 24.72800
N  47.17300 32.54500 27.84000
C  46.96200 31.50000 26.94600
C  46.24700 30.42600 27.58200
C  45.77600 30.96700 28.84800
C  46.42800 32.24200 28.92800
C  45.86400 29.14000 26.97700
C  44.96500 30.75300 30.05500
O  44.26700 29.82500 30.44000
C  45.11600 32.08900 30.92400
C  45.46200 31.53700 32.30800
O  46.45800 30.90500 32.67900
O  44.37900 31.79700 33.10300
C  44.57200 31.45000 34.53400
H  48.25100 38.21900 30.00800
H  49.70200 36.43500 23.94200
H  47.36100 30.56000 25.11000
H  45.99000 34.54100 32.28200
H  47.84700 36.73500 32.10400
H  44.86200 36.38500 31.88200
H  45.51400 37.55600 30.74200
H  45.80600 37.77600 32.46900
H  49.03900 34.49000 31.85300
H  48.20400 33.19900 32.38200
H  49.40300 35.34400 33.89400
H  48.63600 33.79900 34.46600
H  49.36200 40.61800 27.59400
H  50.63300 39.77300 28.64700
H  48.91800 39.88300 29.09700
H  51.55700 40.53600 26.55100
H  50.15500 41.13600 25.50700
H  51.65600 41.00500 24.94300
H  49.95700 34.10600 22.72600
H  48.00900 31.96900 22.92700
H  47.25100 35.16800 22.56500
H  47.30500 33.66600 21.61300
H  48.46800 35.02100 21.41200
H  50.66300 31.79200 22.68400
H  49.74600 30.45300 23.47900
H  51.27200 32.74000 24.75200
H  51.73700 31.12000 24.46100
H  50.57400 31.33500 25.70100
H  44.77400 29.14100 26.95800
H  46.23900 28.35700 27.63700
H  46.34700 28.91400 26.02700
H  44.17000 32.62900 30.96300
H  45.00800 32.20900 35.18400
H  44.98500 30.45400 34.69100
H  43.60600 31.27900 35.00900
Mg 30.13500 57.32600 38.89300
C  27.22200 55.62300 37.95300
C  31.93300 54.53100 38.20300
C  32.92600 59.21000 38.43300
C  28.24800 60.27000 39.12300
N  29.56600 55.36300 38.26100
C  28.34400 54.85700 37.91600
C  28.40200 53.28900 37.72800
C  29.88100 52.98800 38.17100
C  30.52100 54.33400 38.20600
C  30.00700 52.07000 39.44400
C  28.09300 52.79100 36.24000
C  28.82400 53.57400 35.16400
H  27.93400 54.53200 34.35200
N  32.23700 56.90300 38.57100
C  32.70800 55.69700 38.29300
C  34.12500 55.78400 38.00700
C  34.46800 57.13500 38.09600
C  33.22600 57.84500 38.40200
C  35.07500 54.56400 37.68300
C  35.80500 57.72600 37.77200
O  36.74800 56.93100 37.74200
C  36.14600 59.08700 37.62700
N  30.51300 59.41000 38.81100
C  31.77200 59.95100 38.70400
C  31.76400 61.49800 38.68000
C  30.30200 61.82500 39.17000
C  29.62800 60.41300 38.98800
C  32.92000 62.12000 39.62200
C  29.65100 63.06000 38.44400
C  29.42400 64.32200 39.30800
N  28.04600 57.89500 38.72600
C  27.48000 59.13700 38.87900
C  25.99300 59.02100 38.72700
C  25.88700 57.59400 38.38100
C  27.13000 56.99600 38.33500
C  24.96400 60.14300 38.74600
C  24.93700 56.52900 38.13600
O  23.72000 56.61700 38.12200
C  25.75500 55.27100 37.69500
C  25.40100 54.19000 38.66400
O  25.36900 54.25700 39.91100
O  25.10500 53.10400 37.94600
C  24.59500 51.95700 38.69500
H  32.41800 53.55800 38.10000
H  33.71700 59.96200 38.42100
H  27.85700 61.26300 39.35600
H  27.59200 52.92500 38.36000
H  30.34600 52.39900 37.38000
H  30.39400 52.66700 40.27000
H  30.74100 51.29600 39.21800
H  29.00400 51.69200 39.64400
H  27.02300 52.95800 36.12000
H  28.35100 51.73700 36.13600
H  29.22200 52.83900 34.46300
H  29.66200 54.12400 35.59200
H  35.55000 54.76100 36.72200
H  34.60100 53.58900 37.56900
H  35.81000 54.41100 38.47400
H  36.56300 59.42500 38.57600
H  35.26400 59.65400 37.32800
H  36.77000 59.27200 36.75200
H  31.84500 61.86100 37.65500
H  30.32700 61.97700 40.24900
H  33.25300 61.28000 40.23100
H  32.63800 62.80700 40.42000
H  33.77900 62.44700 39.03600
H  28.71700 62.58700 38.14000
H  30.28100 63.45000 37.64500
H  30.06600 64.26900 40.18700
H  28.38100 64.24500 39.61600
H  29.50900 65.16100 38.61700
H  24.45500 60.21700 37.78400
H  25.59200 61.02700 38.85000
H  24.19400 60.19700 39.51500
H  25.50200 55.04400 36.65900
H  24.05300 52.28900 39.58100
H  25.43200 51.34100 39.02500
H  24.01600 51.23000 38.12600

