158

Mg 27.36100 52.03000 25.50700
C  25.50600 52.91400 28.37700
C  29.91700 51.15000 27.64300
C  29.30100 51.64400 22.79600
C  24.84700 53.42200 23.52100
N  27.64200 52.02900 27.83800
C  26.75700 52.31600 28.76200
C  27.25500 51.91600 30.15600
C  28.75500 51.49200 29.92400
C  28.83900 51.60500 28.34800
C  29.73100 52.41800 30.69400
C  26.30100 50.78500 30.70600
C  25.50900 51.03100 32.05800
H  25.75600 50.08300 33.28500
N  29.30200 51.21100 25.24700
C  30.19700 50.94100 26.23200
C  31.33800 50.25100 25.58600
C  31.18000 50.43300 24.18000
C  29.88900 51.13100 24.02000
C  32.43500 49.64200 26.35500
C  32.13400 49.98600 23.08600
O  31.84500 50.11900 21.90100
C  33.58700 49.58000 23.31600
N  27.10300 52.57100 23.49200
C  28.05600 52.29800 22.57100
C  27.46300 52.35300 21.19000
C  25.94800 52.69900 21.34800
C  25.93100 52.95500 22.88100
C  28.34400 53.31400 20.27600
C  24.95200 51.58700 20.97300
C  24.66600 51.60100 19.45400
N  25.57400 53.02300 25.78500
C  24.64700 53.45400 24.87500
C  23.49600 53.97900 25.55400
C  23.82700 53.81000 26.90100
C  25.01800 53.12800 26.97500
C  22.28800 54.65200 25.06500
C  23.29100 54.03000 28.19400
O  22.25700 54.64300 28.48400
C  24.23800 53.19800 29.15300
C  24.49400 54.12900 30.30000
O  25.20400 55.10200 30.34300
O  23.89200 53.52200 31.37100
C  23.80000 54.26100 32.60600
H  30.72700 50.70100 28.22200
H  29.83200 51.45500 21.86100
H  23.97000 53.58900 22.89200
H  27.21600 52.80800 30.78000
H  28.89500 50.42000 30.06200
H  29.34400 53.11100 31.44100
H  30.22400 53.03000 29.93900
H  30.44100 51.74500 31.17600
H  26.87600 49.86300 30.78300
H  25.67700 50.63500 29.82500
H  24.47600 51.03200 31.71200
H  25.75000 52.03100 32.42100
H  32.44400 50.05800 27.36300
H  33.40400 49.70200 25.86000
H  32.21300 48.58500 26.50400
H  33.47000 48.53800 23.61500
H  33.90100 50.31100 24.06000
H  34.28100 49.68100 22.48200
H  27.65900 51.36800 20.76500
H  25.62500 53.63600 20.89400
H  29.21400 53.68000 20.82000
H  27.86000 54.24300 19.97500
H  28.49200 52.84400 19.30400
H  23.99600 51.85400 21.42400
H  25.21400 50.59100 21.33100
H  25.06600 50.73700 18.92500
H  25.07200 52.52100 19.03400
H  23.58500 51.58800 19.31200
H  22.47000 55.72100 25.18000
H  21.40200 54.63000 25.69900
H  22.03000 54.45800 24.02400
H  23.68100 52.33900 29.52500
H  23.82100 55.34400 32.48700
H  24.57700 53.85000 33.25000
H  22.82400 54.03500 33.03400
Mg -0.78700 34.17200 27.62600
C  -2.91500 32.77300 29.96000
C  0.66800 36.00600 30.29800
C  0.63600 36.39600 25.36600
C  -2.41300 32.56400 25.04800
N  -1.22400 34.48800 29.79000
C  -2.07700 33.72800 30.54700
C  -1.86600 33.98900 32.02000
C  -0.95200 35.30300 32.06400
C  -0.38500 35.19100 30.66600
C  -1.56600 36.73500 32.35000
C  -1.25100 32.76400 32.78900
C  -1.91500 32.38300 34.13200
H  -0.99800 32.35700 35.37300
N  0.59700 35.76700 27.77000
C  1.03800 36.34300 28.93200
C  1.93700 37.45200 28.62200
C  1.89300 37.62200 27.24500
C  0.97500 36.59200 26.73400
C  2.71200 38.26400 29.68700
C  2.66100 38.62900 26.33500
O  2.71300 38.70900 25.11900
C  3.48500 39.69200 27.07800
N  -0.93200 34.48400 25.56700
C  -0.21100 35.43200 24.81800
C  -0.46800 35.25100 23.29000
C  -1.31400 33.96300 23.17100
C  -1.62900 33.68000 24.68900
C  -1.17900 36.53600 22.72800
C  -0.70500 32.74200 22.32600
C  -1.68100 31.97800 21.43500
N  -2.37100 32.95500 27.47800
C  -2.89800 32.34400 26.38800
C  -3.85600 31.35900 26.87800
C  -3.84900 31.51900 28.29600
C  -3.03100 32.53200 28.59800
C  -4.62200 30.30700 26.05300
C  -4.37000 30.97100 29.41200
O  -5.12500 30.01000 29.49800
C  -3.83800 31.74700 30.72100
C  -4.94800 32.43400 31.48100
O  -5.70600 33.29500 31.04900
O  -5.05100 31.86000 32.69900
C  -5.88500 32.53100 33.70400
H  1.21800 36.48400 31.11200
H  1.10600 37.10900 24.68500
H  -2.87600 32.05500 24.20100
H  -2.83100 34.31200 32.40900
H  -0.13300 35.10700 32.75600
H  -0.73900 37.33800 32.72300
H  -2.28900 36.73400 33.16600
H  -2.13600 37.17800 31.53300
H  -0.20900 33.04200 32.94900
H  -1.28000 31.91700 32.10400
H  -2.50300 31.47900 33.97200
H  -2.68800 33.11300 34.37000
H  3.76400 38.18900 29.41200
H  2.50000 37.86500 30.67900
H  2.32000 39.28100 29.69400
H  2.91000 40.36300 27.71600
H  3.84200 40.38300 26.31500
H  4.29200 39.11300 27.52500
H  0.46700 35.22500 22.73000
H  -2.32700 34.16400 22.82300
H  -1.26700 37.37900 23.41300
H  -2.17400 36.26700 22.37400
H  -0.61700 36.90600 21.87000
H  -0.58300 31.98300 23.09800
H  0.24300 32.98200 21.84300
H  -1.31100 32.04800 20.41200
H  -2.65900 32.43500 21.28700
H  -1.74400 30.94000 21.76000
H  -4.24400 30.20400 25.03600
H  -5.68200 30.56000 26.05500
H  -4.62600 29.34000 26.55700
H  -3.25600 30.99400 31.25200
H  -6.34500 31.73300 34.28600
H  -6.73000 33.05700 33.26000
H  -5.24000 33.11900 34.35700

