158

Mg 9.19700 3.46100 27.16300
C  10.31400 1.83100 29.96300
C  7.21700 5.47300 29.03000
C  8.01900 4.83400 24.25800
C  10.92700 1.11800 25.18500
N  8.67300 3.44900 29.30100
C  9.46800 2.89500 30.27400
C  9.10500 3.56400 31.71400
C  7.97600 4.57500 31.29000
C  7.92800 4.55300 29.80400
C  6.69700 4.43100 32.02000
C  10.37800 3.99500 32.48500
C  10.21500 4.85100 33.67100
H  10.39500 4.34800 35.09700
N  7.88700 4.98000 26.63900
C  7.14900 5.63100 27.61100
C  6.30500 6.61000 26.97500
C  6.53900 6.50600 25.54800
C  7.52300 5.45900 25.40700
C  5.46800 7.63300 27.78400
C  6.00500 7.29900 24.38400
O  6.30000 7.09900 23.24800
C  5.04900 8.41200 24.70100
N  9.50700 3.07600 25.09000
C  8.90100 3.78200 24.12500
C  9.34900 3.39900 22.73100
C  10.17200 2.16900 23.02600
C  10.23100 2.12700 24.51000
C  8.13900 3.30800 21.75800
C  11.48000 1.97300 22.24700
C  11.47000 0.87500 21.14300
N  10.35800 1.81100 27.44300
C  11.05400 0.95100 26.59000
C  11.86500 -0.05600 27.33600
C  11.56000 0.30100 28.70200
C  10.59500 1.38800 28.69100
C  12.74000 -1.20400 26.81900
C  12.01900 -0.01700 30.04500
O  12.97800 -0.74800 30.38300
C  11.19900 0.97500 30.89100
C  10.40100 0.48000 31.96800
O  9.22900 0.26000 31.93800
O  11.17600 0.20200 33.02000
C  10.49800 -0.13000 34.27700
H  6.73100 6.27600 29.58900
H  7.66100 5.28100 23.32800
H  11.45400 0.47100 24.48100
H  8.72600 2.77100 32.35800
H  8.42000 5.55700 31.45200
H  6.85000 3.66500 32.78100
H  5.95100 4.05700 31.31900
H  6.38700 5.40400 32.39900
H  11.14500 4.49800 31.89600
H  10.75500 3.01700 32.78400
H  9.26400 5.38100 33.65400
H  10.88200 5.69600 33.50300
H  4.50700 7.78400 27.29200
H  6.06300 8.54100 27.68400
H  5.31600 7.39600 28.83700
H  5.53900 9.13400 25.35400
H  4.13200 7.98100 25.10200
H  4.73000 8.84400 23.75200
H  10.04100 4.17200 22.39600
H  9.66600 1.21500 22.87800
H  7.21000 3.34400 22.32700
H  8.08400 2.36300 21.21700
H  8.23600 4.19700 21.13600
H  12.27000 1.68100 22.93900
H  11.89900 2.92400 21.92000
H  10.44700 0.85300 20.76700
H  11.89300 -0.04600 21.54500
H  12.03800 1.19700 20.27000
H  13.78900 -0.96700 26.64100
H  12.31300 -1.41000 25.83700
H  12.78900 -2.02500 27.53400
H  11.87700 1.71800 31.31000
H  11.14700 0.09000 35.12500
H  10.29200 -1.19300 34.40700
H  9.59600 0.47200 34.38700
Mg 36.15500 2.57900 30.34600
C  33.87200 3.34600 32.95700
C  38.76900 3.03900 32.66000
C  38.42600 2.39000 27.94000
C  33.59900 2.71500 28.02900
N  36.22600 3.10200 32.60900
C  35.20800 3.36600 33.42300
C  35.67200 3.52400 34.89300
C  37.24700 3.50800 34.70000
C  37.43000 3.26900 33.19700
C  37.84900 4.96300 35.11800
C  35.27700 2.31800 35.80800
C  34.78200 2.68300 37.25600
H  35.59400 3.78000 37.99100
N  38.30100 2.37700 30.34100
C  39.13000 2.51500 31.37700
C  40.38300 1.97300 31.01500
C  40.34000 1.81500 29.62400
C  39.00500 2.24200 29.21200
C  41.43500 1.61700 31.99300
C  41.39600 1.32200 28.72000
O  41.23300 1.25900 27.51300
C  42.81900 0.86700 29.13800
N  35.97100 2.69200 28.22800
C  37.10200 2.50600 27.46200
C  36.66900 2.31800 25.96000
C  35.09900 2.27600 25.99900
C  34.87500 2.48800 27.50900
C  37.27500 3.22200 24.87100
C  34.46600 0.97000 25.59300
C  33.04600 1.09300 24.96200
N  34.12300 2.88100 30.43800
C  33.20300 2.92200 29.43300
C  31.87000 3.33800 29.97700
C  32.06700 3.43600 31.37100
C  33.45300 3.15800 31.58200
C  30.62700 3.80000 29.25500
C  31.52200 3.85500 32.61300
O  30.38800 4.19400 32.88300
C  32.56700 3.65300 33.77300
C  32.60500 4.91600 34.54000
O  33.13900 5.94900 34.10600
O  32.13000 4.76100 35.83600
C  32.16300 5.87500 36.71400
H  39.58000 3.10000 33.38900
H  39.10100 2.27600 27.09000
H  32.88000 2.72700 27.20700
H  35.31700 4.45800 35.32700
H  37.71800 2.68500 35.23700
H  38.44300 5.31400 34.27500
H  38.55600 4.73600 35.91600
H  37.07300 5.68600 35.36800
H  36.11700 1.64200 35.96500
H  34.39000 1.79200 35.45400
H  34.73400 1.73200 37.78700
H  33.74200 2.97700 37.11800
H  41.83200 0.61100 31.85600
H  41.10500 1.71800 33.02700
H  42.29200 2.27800 31.86200
H  43.40400 0.43700 28.32600
H  42.76700 0.03200 29.83700
H  43.36300 1.67600 29.62700
H  36.91800 1.30300 25.65000
H  34.71800 3.15400 25.47700
H  37.65300 2.66900 24.01200
H  38.07500 3.78300 25.35400
H  36.50800 3.89400 24.48700
H  34.52100 0.28100 26.43600
H  35.13800 0.53800 24.85100
H  32.86900 0.29700 24.23900
H  32.87000 2.14000 24.71200
H  32.35300 0.72900 25.72000
H  30.01600 3.72800 30.15500
H  30.43600 3.06400 28.47400
H  30.73900 4.76700 28.76500
H  32.23800 2.85000 34.43300
H  32.09800 5.63500 37.77600
H  31.47300 6.65900 36.40200
H  33.15000 6.32800 36.61900

