158

Mg 36.35600 49.71400 24.65600
C  36.24400 47.88300 27.76900
C  35.12300 52.44400 26.26300
C  35.87900 51.11700 21.56200
C  37.28600 46.68100 23.14800
N  35.85100 50.11700 26.74400
C  35.86400 49.22000 27.84900
C  35.52600 50.03000 29.17000
C  34.90300 51.36400 28.64600
C  35.32100 51.33500 27.09300
C  33.37100 51.49400 28.82500
C  36.70200 50.11600 30.16600
C  36.31000 50.15500 31.66100
H  34.86900 49.81600 32.01000
N  35.68500 51.59000 24.05000
C  35.29900 52.58100 24.83500
C  34.97100 53.74900 23.97100
C  35.14700 53.41700 22.64500
C  35.69000 52.01100 22.68900
C  34.33900 55.10400 24.60800
C  34.85800 54.30100 21.41100
O  34.93700 53.85300 20.28400
C  34.54000 55.77400 21.50400
N  36.54500 49.03100 22.62600
C  36.25300 49.75500 21.53300
C  36.39900 48.88900 20.26900
C  37.21600 47.62500 20.83700
C  36.97500 47.73400 22.29100
C  35.06800 48.66200 19.50200
C  38.67300 47.62200 20.37700
C  39.04900 46.29200 19.63000
N  36.74500 47.65800 25.25100
C  37.13200 46.58500 24.49400
C  37.47800 45.45200 25.32500
C  37.13400 45.94400 26.65500
C  36.63000 47.27700 26.52900
C  38.17100 44.09200 25.06800
C  37.16900 45.60100 28.07100
O  37.54800 44.56400 28.52600
C  36.61300 46.79100 28.79700
C  35.50300 46.43800 29.61800
O  34.32600 46.51600 29.35600
O  36.01200 45.70200 30.68100
C  34.97200 45.18000 31.58000
H  34.73000 53.35700 26.71600
H  35.69600 51.57300 20.58700
H  37.51500 45.69900 22.72900
H  34.77500 49.36100 29.59000
H  35.33500 52.21500 29.17300
H  33.01300 50.63400 29.39000
H  32.93500 51.38900 27.83100
H  33.03500 52.44500 29.23800
H  37.28300 51.00700 29.92500
H  37.40600 49.28600 30.10300
H  36.66100 51.10800 32.05700
H  36.92300 49.41100 32.17000
H  33.95100 54.87700 25.60100
H  33.50500 55.46400 24.00600
H  35.19600 55.77600 24.64600
H  35.28500 56.15800 22.20000
H  33.46200 55.86800 21.63500
H  34.79900 56.07700 20.49000
H  37.04100 49.47800 19.61400
H  36.69600 46.72300 20.51300
H  34.25600 49.17700 20.01500
H  34.87900 47.59800 19.36300
H  35.18300 49.12100 18.52000
H  39.43500 47.69400 21.15400
H  38.82600 48.46800 19.70700
H  38.21600 45.61700 19.43700
H  39.88300 45.74300 20.06800
H  39.39000 46.61200 18.64500
H  38.65300 43.80000 26.00100
H  38.87400 44.28100 24.25700
H  37.37400 43.40000 24.79700
H  37.36700 47.32400 29.37600
H  34.43200 44.35100 31.12300
H  34.14200 45.81700 31.88500
H  35.58400 44.75000 32.37400
Mg 27.00600 50.43900 25.71800
C  25.13000 51.76600 28.33400
C  29.35100 49.51400 28.15400
C  29.17200 49.73400 23.25200
C  24.89000 51.97500 23.40400
N  27.25200 50.67300 27.99300
C  26.33100 51.20300 28.83400
C  26.60200 50.87300 30.36000
C  28.15000 50.50700 30.30400
C  28.27100 50.20100 28.74600
C  29.16000 51.49700 30.87300
C  25.68700 49.74700 30.83500
C  24.62500 50.17800 31.90900
H  24.68300 49.52300 33.30700
N  28.87400 49.59000 25.76300
C  29.67700 49.26500 26.84400
C  30.93600 48.72800 26.37200
C  30.88700 48.82500 24.93900
C  29.58400 49.35400 24.60300
C  32.01100 48.18000 27.26000
C  31.96100 48.51800 23.96700
O  31.85100 48.55600 22.73800
C  33.29300 48.17700 24.36900
N  27.06500 50.81700 23.56900
C  28.04800 50.43800 22.77600
C  27.69500 50.57900 21.31400
C  26.27200 51.29000 21.34200
C  26.08800 51.46400 22.87400
C  28.85400 51.33700 20.58900
C  25.10100 50.45800 20.60900
C  24.58000 49.07000 21.15700
N  25.33600 51.58800 25.76600
C  24.51400 52.06600 24.71900
C  23.35300 52.72200 25.30800
C  23.65000 52.66200 26.68400
C  24.83800 51.97700 26.98400
C  22.26800 53.31000 24.55300
C  23.06000 53.04200 27.96100
O  21.96800 53.56200 28.20600
C  23.98900 52.42100 29.17200
C  24.40600 53.58600 30.11700
O  25.37900 54.28700 29.96100
O  23.49300 53.73600 31.14000
C  23.84900 54.68800 32.17500
H  30.02600 48.93400 28.78600
H  29.78500 49.50200 22.37900
H  24.21500 52.31600 22.61600
H  26.45500 51.84500 30.83200
H  28.23500 49.53300 30.78500
H  28.59600 52.29500 31.35600
H  29.74200 51.84100 30.01800
H  29.68700 51.00500 31.69000
H  26.29900 48.98400 31.31600
H  25.08700 49.27900 30.05500
H  23.62100 49.99200 31.52800
H  24.83500 51.23600 32.06900
H  32.81700 48.86600 27.00000
H  32.30700 47.15700 27.02600
H  31.90100 48.15600 28.34400
H  34.00500 47.92100 23.58500
H  33.30500 47.35000 25.07900
H  33.65700 49.13300 24.74800
H  27.52800 49.55900 20.96800
H  26.39700 52.25300 20.84700
H  29.66900 51.62400 21.25400
H  28.44300 52.21200 20.08600
H  29.31000 50.63600 19.89100
H  25.54500 50.26300 19.63300
H  24.33500 51.21000 20.41700
H  24.81500 49.05200 22.22100
H  24.94000 48.21700 20.58100
H  23.49800 49.13200 21.04100
H  21.34200 52.86000 24.91100
H  22.34700 53.25200 23.46700
H  22.23000 54.37500 24.78100
H  23.36700 51.69700 29.69800
H  22.98600 54.93800 32.79200
H  24.27100 55.63900 31.85000
H  24.60300 54.14800 32.74800

