158

Mg 48.60300 45.10300 42.51600
C  45.24300 44.44200 42.29400
C  49.23900 41.72800 42.19000
C  51.88400 45.79500 42.50600
C  47.86500 48.52700 42.06800
N  47.35100 43.35200 42.46300
C  45.96600 43.28800 42.22100
C  45.50700 41.82700 42.00900
C  46.85100 40.98500 42.35600
C  47.85600 42.12200 42.40300
C  46.82200 40.08000 43.60200
C  44.97300 41.56900 40.53200
C  45.88700 42.21700 39.48000
H  45.69400 41.48800 38.04500
N  50.31900 43.95400 42.20600
C  50.34200 42.57800 42.20600
C  51.70600 42.15100 42.10600
C  52.52700 43.31300 42.23900
C  51.59800 44.42300 42.31900
C  52.15200 40.70900 41.94600
C  53.99300 43.32600 42.27900
O  54.60400 42.26800 42.27600
C  54.86700 44.56400 42.32500
N  49.72700 46.84000 42.04600
C  51.00100 46.89700 42.46000
C  51.52900 48.35900 42.56100
C  50.31000 49.13100 42.04100
C  49.22600 48.13600 42.10000
C  52.10800 48.73600 43.97700
C  50.45100 49.86300 40.69600
C  49.45600 50.96900 40.28900
N  46.96500 46.31800 42.38100
C  46.75400 47.68200 42.25300
C  45.32700 48.00600 42.33700
C  44.68200 46.70900 42.32700
C  45.70400 45.76300 42.36800
C  44.62000 49.34000 42.55500
C  43.43700 46.03500 42.27100
O  42.30800 46.52300 42.27000
C  43.68500 44.50000 42.28100
C  43.08800 43.98500 43.58600
O  42.24300 43.09000 43.55400
O  43.67800 44.61400 44.71400
C  42.99600 44.08200 45.93600
H  49.36300 40.64500 42.12100
H  52.90700 46.10600 42.72700
H  47.57800 49.57300 41.94200
H  44.71100 41.68500 42.74000
H  47.10200 40.33100 41.52100
H  45.80400 39.72300 43.76200
H  47.25100 40.61200 44.45000
H  47.44200 39.19600 43.45300
H  44.05400 42.15100 40.45300
H  44.88200 40.50200 40.32700
H  46.95600 42.14400 39.68000
H  45.64500 43.27200 39.35300
H  52.98900 40.46200 42.60000
H  52.50100 40.54800 40.92700
H  51.27400 40.09400 42.14400
H  54.66700 45.27600 41.52400
H  55.91300 44.31600 42.14700
H  54.69600 45.02700 43.29700
H  52.25000 48.48800 41.75400
H  50.23600 49.92900 42.77900
H  53.15300 49.01500 43.83400
H  52.00300 47.90500 44.67400
H  51.63200 49.55000 44.52200
H  50.50200 48.97800 40.06200
H  51.44200 50.31400 40.65400
H  49.06100 51.37700 41.21900
H  48.60700 50.64800 39.68500
H  49.97000 51.81000 39.82500
H  44.94200 49.67100 43.54200
H  43.53600 49.23900 42.51400
H  44.86400 50.20200 41.93400
H  43.10300 44.01500 41.49700
H  42.84600 43.00400 45.87700
H  42.11100 44.70900 46.04300
H  43.54200 44.20600 46.87200
Mg 48.60400 35.51500 27.90500
C  46.58200 34.29200 30.49500
C  49.33000 38.19600 30.05700
C  50.11800 37.00000 25.36300
C  47.49800 33.02300 25.82500
N  48.15800 36.03400 30.06600
C  47.39200 35.31400 30.93200
C  47.40900 35.88000 32.41600
C  48.05500 37.30900 32.15600
C  48.58400 37.14900 30.73000
C  47.12100 38.61300 32.23300
C  48.14100 35.01600 33.55300
C  49.52800 35.37600 34.15400
H  49.60600 36.16300 35.49300
N  49.70700 37.30600 27.69400
C  49.77200 38.28000 28.70800
C  50.34400 39.52800 28.08000
C  50.46500 39.28200 26.71500
C  50.04400 37.82400 26.52500
C  50.55100 40.89000 28.84500
C  50.99700 40.14300 25.59200
O  50.97900 39.74200 24.40700
C  51.55200 41.47900 25.92400
N  48.90500 35.02400 25.98500
C  49.63600 35.70400 25.10300
C  49.78300 35.07400 23.72100
C  48.83100 33.85600 23.82100
C  48.28700 33.97500 25.28700
C  49.34300 35.93400 22.64400
C  49.41800 32.42700 23.51200
C  49.16400 32.05200 22.06300
N  47.36900 33.93500 28.06700
C  47.05600 33.00700 27.16000
C  46.05600 32.10700 27.69800
C  45.74300 32.68600 28.99400
C  46.63000 33.70300 29.20900
C  45.37000 31.03500 27.02300
C  44.98400 32.53800 30.19700
O  44.18200 31.71200 30.49500
C  45.48300 33.59900 31.25100
C  45.82600 32.87400 32.47300
O  46.66400 32.05000 32.52300
O  44.93400 33.21300 33.51300
C  45.47000 32.54100 34.77800
H  49.64700 39.06400 30.64000
H  50.53900 37.47200 24.47300
H  47.06100 32.33200 25.10100
H  46.37900 35.94200 32.76800
H  48.98200 37.42400 32.71800
H  47.22500 39.18200 31.30900
H  47.34400 39.17300 33.14100
H  46.06100 38.36100 32.25700
H  48.46800 34.02700 33.23100
H  47.40700 34.75300 34.31400
H  50.18100 35.88300 33.44400
H  50.10500 34.45700 34.26400
H  50.32800 41.68900 28.13800
H  51.62200 40.72700 28.96100
H  49.93700 40.95900 29.74300
H  50.74700 42.14100 26.24400
H  51.88500 41.90000 24.97600
H  52.28500 41.32600 26.71600
H  50.80300 34.73700 23.53900
H  47.91800 33.97800 23.23800
H  48.89900 36.81600 23.10500
H  48.72600 35.47200 21.87300
H  50.23200 36.38000 22.19800
H  48.98600 31.70200 24.20100
H  50.50500 32.44800 23.44000
H  49.03400 32.86900 21.35400
H  48.36700 31.32000 21.93100
H  50.03100 31.58800 21.59200
H  45.16500 30.20900 27.70500
H  45.90500 30.71800 26.12800
H  44.34800 31.31400 26.76400
H  44.68700 34.28900 31.53100
H  45.56600 31.45500 34.77600
H  44.83200 32.90100 35.58500
H  46.47300 32.89700 35.01500

