158

Mg -2.00700 16.79800 26.91000
C  -2.55600 14.53200 29.61400
C  -2.60300 19.31600 29.00100
C  -1.79100 18.79600 24.26200
C  -2.24100 14.02000 24.73700
N  -2.55900 16.85600 29.09000
C  -2.53500 15.89500 30.01600
C  -2.59500 16.44200 31.43300
C  -2.58800 18.01700 31.20800
C  -2.61000 18.05200 29.64000
C  -3.61800 18.81600 32.06200
C  -1.53100 15.92300 32.35900
C  -0.92600 16.69400 33.51700
H  -0.66000 15.91900 34.92400
N  -2.21700 18.79800 26.69300
C  -2.39300 19.69900 27.72000
C  -2.36100 20.98800 27.12700
C  -2.09400 20.88100 25.74400
C  -1.99300 19.39300 25.49900
C  -2.77700 22.16900 27.99100
C  -1.90000 21.90100 24.64600
O  -1.75900 21.73100 23.40800
C  -1.70500 23.42500 25.03500
N  -1.82000 16.44500 24.78000
C  -1.81600 17.44600 23.90300
C  -1.91700 16.89500 22.49500
C  -1.73900 15.42600 22.64300
C  -1.99300 15.28900 24.11800
C  -3.29800 17.34900 21.92600
C  -0.33100 14.84900 22.26200
C  -0.31100 13.39300 21.73900
N  -2.24400 14.73900 27.04900
C  -2.32900 13.76000 26.07400
C  -2.59400 12.48100 26.68400
C  -2.64900 12.73400 28.03300
C  -2.42600 14.10700 28.21400
C  -2.76700 11.17300 25.95200
C  -2.85100 12.07900 29.29800
O  -3.21200 10.96600 29.54600
C  -2.82800 13.22000 30.44100
C  -1.80700 12.72100 31.31500
O  -0.58300 12.85600 31.18700
O  -2.40000 12.03300 32.33500
C  -1.42800 11.60000 33.31600
H  -2.76500 20.15600 29.68000
H  -1.90200 19.49400 23.43000
H  -2.50600 13.24300 24.01700
H  -3.50000 16.06800 31.91100
H  -1.65100 18.48700 31.50800
H  -3.14400 19.65500 32.57200
H  -4.03300 18.26300 32.90500
H  -4.47400 19.11300 31.45600
H  -0.71000 15.70800 31.67500
H  -1.79700 14.96900 32.81400
H  -1.50400 17.60800 33.65200
H  0.08200 16.93400 33.18000
H  -3.16800 22.91300 27.29600
H  -1.88100 22.51200 28.50800
H  -3.50700 21.94200 28.76800
H  -2.66200 23.91300 25.21600
H  -1.34400 23.96500 24.16000
H  -1.01500 23.44600 25.87900
H  -1.08900 17.20000 21.85500
H  -2.47800 14.97300 21.98200
H  -4.09800 17.12300 22.63100
H  -3.40700 16.80800 20.98600
H  -3.19700 18.41500 21.72500
H  0.28300 14.92200 23.16100
H  0.06300 15.53200 21.51000
H  0.19900 13.30500 20.77900
H  -1.31300 13.02100 21.52600
H  0.25100 12.73100 22.39800
H  -2.19300 11.07900 25.03000
H  -3.80200 11.12200 25.61500
H  -2.64500 10.30200 26.59700
H  -3.73800 13.52400 30.95800
H  -0.74300 10.90200 32.83400
H  -1.98600 11.09400 34.10300
H  -0.88400 12.39900 33.82000
Mg -5.42000 24.68700 25.96300
C  -4.09400 26.08100 28.84100
C  -7.17500 22.41700 27.96400
C  -6.43900 23.21500 23.30500
C  -3.39100 26.77200 24.12300
N  -5.63600 24.42100 28.17700
C  -5.01600 25.13500 29.14900
C  -5.55600 24.78700 30.55900
C  -6.32000 23.41200 30.26300
C  -6.36500 23.36900 28.70000
C  -5.67700 22.10500 30.86300
C  -6.48200 25.81600 31.24300
C  -6.21200 26.12500 32.72800
H  -7.19400 25.41400 33.69100
N  -6.70300 23.20000 25.68200
C  -7.39100 22.43200 26.57400
C  -8.39400 21.72000 25.94200
C  -8.24000 21.92400 24.55400
C  -7.03500 22.79500 24.45700
C  -9.44100 20.93700 26.60600
C  -9.01200 21.35500 23.40000
O  -8.59200 21.40000 22.22400
C  -10.33600 20.54600 23.54000
N  -4.76500 24.79300 24.01400
C  -5.41900 24.10800 23.09500
C  -4.89700 24.48500 21.72400
C  -4.09100 25.72500 21.96800
C  -4.05500 25.79700 23.44300
C  -4.20800 23.37500 20.91600
C  -4.41900 27.05200 21.14300
C  -3.24000 27.85100 20.56400
N  -3.89100 26.10700 26.34200
C  -3.24900 26.99300 25.51900
C  -2.30500 27.86600 26.22900
C  -2.70000 27.57200 27.57700
C  -3.65500 26.51700 27.59200
C  -1.27300 28.87600 25.65700
C  -2.51800 28.07000 28.96400
O  -1.82800 28.98200 29.41100
C  -3.40600 27.13300 29.84300
C  -2.53800 26.49200 30.92800
O  -1.68400 25.64600 30.77100
O  -2.79800 27.18900 32.10200
C  -1.79600 26.91600 33.15800
H  -7.64500 21.65400 28.58700
H  -6.70800 22.65600 22.40600
H  -2.81400 27.43600 23.47700
H  -4.65200 24.53900 31.11500
H  -7.38700 23.55600 30.43400
H  -6.46400 21.52000 31.33900
H  -4.98900 22.39100 31.65900
H  -5.06900 21.51700 30.17600
H  -7.49600 25.42700 31.14500
H  -6.44600 26.74900 30.68000
H  -6.28700 27.19700 32.90900
H  -5.23000 25.73500 32.99800
H  -10.41900 21.14800 26.17400
H  -9.43300 21.10900 27.68300
H  -9.27900 19.87100 26.44100
H  -10.78900 20.37400 22.56300
H  -11.00600 21.28300 23.98200
H  -10.27000 19.62500 24.11800
H  -5.80500 24.68800 21.15500
H  -3.08200 25.41300 21.70000
H  -4.45700 22.40500 21.34700
H  -3.12500 23.49100 20.94700
H  -4.48200 23.41900 19.86100
H  -5.15300 27.71200 21.60400
H  -5.06100 26.59800 20.38900
H  -3.53900 27.97200 19.52200
H  -2.34000 27.23600 20.55600
H  -2.98700 28.82700 20.97800
H  -0.63400 29.18100 26.48600
H  -1.79000 29.80800 25.43100
H  -0.71200 28.44100 24.83000
H  -4.06300 27.80700 30.39200
H  -2.10900 26.08200 33.78500
H  -1.94900 27.77200 33.81600
H  -0.77400 26.78800 32.80100

