158

Mg 47.74200 16.68800 28.52200
C  45.93000 16.93500 31.50000
C  50.26800 18.46000 30.07700
C  49.29400 16.96900 25.49400
C  44.84700 15.78800 26.76800
N  47.92600 17.68600 30.60200
C  47.20000 17.50100 31.71800
C  47.83500 18.07200 32.94900
C  49.20300 18.54200 32.38700
C  49.09400 18.33700 30.92800
C  49.69700 19.99200 32.68200
C  47.98600 16.99900 34.03000
C  48.71300 17.62600 35.23400
H  48.12900 18.97400 35.90700
N  49.59100 17.49300 27.90200
C  50.45900 18.27300 28.69700
C  51.59700 18.60000 27.82900
C  51.34500 18.03300 26.52800
C  50.00800 17.44000 26.57600
C  52.78100 19.36400 28.29200
C  52.27900 17.89500 25.33000
O  51.93400 17.44600 24.25600
C  53.72700 18.40700 25.40800
N  47.21800 16.26300 26.46700
C  48.01200 16.37500 25.43800
C  47.32900 15.97900 24.09400
C  45.91300 15.61500 24.49400
C  46.04200 15.79500 25.99200
C  47.33000 17.09700 23.05000
C  45.24200 14.28000 24.06900
C  45.69400 13.53600 22.81300
N  45.84200 16.40500 28.95900
C  44.76600 15.95700 28.18900
C  43.58400 15.78100 28.97000
C  43.99600 16.10500 30.30000
C  45.39400 16.49400 30.21300
C  42.19900 15.24400 28.56900
C  43.63600 16.14300 31.68600
O  42.55700 15.90800 32.17300
C  44.87700 16.65300 32.52300
C  44.50700 17.84400 33.36200
O  44.70600 19.00600 33.07000
O  43.80100 17.41900 34.46500
C  43.26600 18.39000 35.33400
H  51.10400 19.02400 30.49500
H  49.73200 17.00600 24.49400
H  43.95800 15.61300 26.15700
H  47.28600 18.94600 33.30000
H  49.99700 17.86600 32.70600
H  48.88500 20.58500 33.10300
H  50.16000 20.49900 31.83500
H  50.45500 19.88400 33.45800
H  48.62600 16.17300 33.72200
H  47.00200 16.75200 34.43000
H  49.76600 17.86300 35.08500
H  48.56800 16.95900 36.08300
H  53.73200 18.83200 28.33400
H  52.58900 19.86900 29.23900
H  52.87600 20.22100 27.62400
H  53.75300 19.47400 25.63000
H  54.11800 18.14100 24.42600
H  54.25700 17.75500 26.10200
H  47.87200 15.18800 23.57700
H  45.25200 16.42700 24.19100
H  48.38900 17.18900 22.80800
H  46.93500 18.05700 23.38300
H  46.85200 16.67000 22.16800
H  44.15900 14.24200 23.95100
H  45.51800 13.64400 24.91000
H  46.25900 14.22700 22.18900
H  44.88100 13.36700 22.10700
H  46.14700 12.59200 23.11400
H  41.80900 15.81500 27.72500
H  41.45500 15.33700 29.35900
H  42.37900 14.18000 28.41800
H  45.09500 15.82800 33.20200
H  43.10500 19.41500 34.99900
H  43.79300 18.30300 36.28400
H  42.29400 17.94600 35.55200
Mg 49.69600 47.09400 43.49100
C  46.45600 47.60200 42.30700
C  49.78400 44.07200 41.78000
C  52.99300 46.80500 44.09100
C  49.82500 50.49000 44.13800
N  48.26900 45.96600 42.29100
C  47.03500 46.36200 41.87600
C  46.35300 45.25600 41.04800
C  47.29200 44.05100 41.27300
C  48.57600 44.71900 41.71600
C  46.97500 42.86900 42.20300
C  45.96100 45.59200 39.54000
C  44.46500 45.25800 39.09800
H  44.21200 44.69100 37.65300
N  51.15600 45.53200 43.26400
C  50.98200 44.38500 42.53700
C  52.17900 43.64700 42.51100
C  53.21400 44.35900 43.22700
C  52.51500 45.60600 43.67500
C  52.31800 42.35200 41.77800
C  54.58500 43.91700 43.39300
O  54.93400 42.81700 42.97100
C  55.66600 44.69300 44.08900
N  51.17800 48.42700 44.18600
C  52.47700 48.09400 44.36800
C  53.36600 49.25900 44.74800
C  52.44400 50.48600 44.47200
C  51.05400 49.77200 44.27800
C  53.95500 49.29900 46.20000
C  53.00000 51.38200 43.35900
C  53.27100 52.87500 43.73300
N  48.38100 48.74900 43.39300
C  48.54200 50.00800 43.82400
C  47.34200 50.67300 43.78900
C  46.35900 49.76100 43.40400
C  47.15000 48.61700 43.01900
C  47.07200 52.09000 44.18900
C  44.96800 49.63300 43.01600
O  43.99400 50.37400 43.06200
C  45.02100 48.15700 42.24400
C  44.02100 47.33500 42.96100
O  44.06800 46.91300 44.14100
O  42.98700 47.00800 42.12100
C  42.03600 46.00900 42.59400
H  49.73800 43.13200 41.22600
H  54.06700 46.63600 44.19100
H  49.82700 51.54600 44.41300
H  45.40700 45.05600 41.55100
H  47.44300 43.55100 40.31700
H  46.50900 42.12600 41.55600
H  46.33100 43.04400 43.06500
H  47.82700 42.35000 42.64200
H  46.74100 45.05000 39.00500
H  46.05500 46.66800 39.38800
H  44.01800 46.25100 39.11400
H  44.07000 44.54000 39.81800
H  52.94900 42.32300 40.88900
H  51.37200 41.87500 41.52400
H  52.86400 41.70500 42.46500
H  56.53500 44.05200 44.23900
H  55.19000 44.90800 45.04600
H  55.91500 45.62600 43.58300
H  54.11900 49.21400 43.96200
H  52.27600 51.14800 45.32100
H  55.02400 49.47800 46.08600
H  53.75800 48.29800 46.58400
H  53.41200 49.97800 46.85800
H  52.28300 51.33100 42.53900
H  53.96900 51.04400 42.99000
H  54.31400 53.01400 44.01700
H  52.55900 53.13500 44.51600
H  53.06800 53.52800 42.88500
H  47.83200 52.64300 43.63600
H  47.03700 52.30000 45.25800
H  46.17800 52.42300 43.66200
H  44.65200 48.05100 41.22300
H  41.34300 46.07300 41.75500
H  41.51000 46.33300 43.49300
H  42.45600 45.00400 42.55800

