158

Mg 39.62500 9.88900 30.51500
C  41.67600 11.16000 33.18000
C  37.53100 8.73300 32.89500
C  38.01700 8.48500 28.03800
C  42.34000 10.75000 28.27800
N  39.63700 9.97400 32.78900
C  40.52300 10.54900 33.68000
C  40.03300 10.52000 35.19700
C  38.84900 9.47700 35.01600
C  38.59300 9.44100 33.42600
C  39.10100 8.07400 35.55000
C  39.63300 11.88600 35.85100
C  40.40400 12.22500 37.11500
H  39.57600 12.67400 38.28500
N  38.05300 8.67400 30.43700
C  37.29100 8.38700 31.52500
C  36.15100 7.63900 31.09900
C  36.28000 7.55600 29.68000
C  37.52400 8.20500 29.34300
C  34.98000 7.05500 31.96400
C  35.44100 6.75000 28.71500
O  35.74600 6.58100 27.53300
C  34.20900 6.16100 29.17700
N  40.12900 9.61800 28.39000
C  39.16800 9.15500 27.65700
C  39.65700 9.21600 26.10000
C  41.13000 9.75200 26.22000
C  41.22200 10.10100 27.72000
C  39.46000 7.92600 25.29400
C  41.51900 10.97700 25.16300
C  40.78500 12.25500 25.37900
N  41.45700 10.90400 30.59800
C  42.45100 11.11600 29.66400
C  43.55800 11.86300 30.25100
C  43.22100 11.92000 31.58900
C  41.99300 11.27500 31.81200
C  44.61400 12.49200 29.39900
C  43.66700 12.48100 32.91500
O  44.61700 13.15400 33.17900
C  42.60900 11.96200 33.99500
C  43.50700 11.19600 34.88100
O  43.82800 10.02300 34.77200
O  43.77200 11.92400 35.97200
C  44.76900 11.31400 36.93400
H  36.82000 8.43500 33.66900
H  37.41100 8.15000 27.19400
H  43.18100 11.03100 27.64000
H  40.92500 10.15300 35.70600
H  37.94400 9.87300 35.47700
H  38.98400 8.10900 36.63300
H  40.13400 7.74600 35.43500
H  38.36200 7.37600 35.15600
H  38.55200 11.89500 35.99500
H  39.76300 12.69200 35.12800
H  40.98300 13.12100 36.89000
H  41.12800 11.45400 37.37800
H  35.05400 7.49900 32.95700
H  35.10100 5.98300 32.11800
H  33.99900 7.36700 31.60600
H  33.83400 5.55400 28.35300
H  33.39200 6.85900 29.36100
H  34.44700 5.49300 30.00600
H  39.08600 9.99300 25.59300
H  41.86100 8.95600 26.08000
H  39.23200 7.07800 25.94000
H  40.30700 7.66400 24.66100
H  38.64200 7.87300 24.57600
H  41.22900 10.62600 24.17200
H  42.59300 11.16100 25.17100
H  40.02400 12.28400 26.15900
H  40.35300 12.67500 24.47100
H  41.54100 12.99900 25.62800
H  45.02000 13.37600 29.89000
H  44.34900 12.72000 28.36600
H  45.44200 11.79200 29.50300
H  42.26700 12.82400 34.56800
H  45.68200 11.15500 36.35900
H  44.44800 10.37500 37.38500
H  45.04200 12.07000 37.67000
Mg -1.37900 33.58700 26.50300
C  -3.19000 31.98200 29.10500
C  -0.22700 35.81500 29.01400
C  0.04700 35.50500 24.18800
C  -3.29400 31.91800 24.17700
N  -1.62600 33.76000 28.80300
C  -2.34700 32.96600 29.67900
C  -2.28200 33.42100 31.06800
C  -1.42900 34.74200 30.98900
C  -1.09000 34.81000 29.50000
C  -2.20500 35.95500 31.52700
C  -1.63700 32.37800 32.08700
C  -2.33600 32.39300 33.54400
H  -1.37200 32.17800 34.72400
N  -0.21000 35.35100 26.61000
C  0.20100 36.09500 27.65800
C  1.14400 37.09200 27.25100
C  1.17100 37.10900 25.84100
C  0.30000 35.97700 25.49500
C  1.81300 38.06300 28.23300
C  1.86100 38.12000 24.92100
O  1.77100 38.10400 23.73400
C  2.73400 39.13200 25.56000
N  -1.72800 33.82000 24.49500
C  -0.86700 34.53600 23.73900
C  -1.12000 34.28900 22.23600
C  -2.03700 32.95700 22.26000
C  -2.36000 32.91400 23.70100
C  -1.85900 35.47500 21.55400
C  -1.42000 31.64900 21.68400
C  -0.95400 30.47700 22.65000
N  -2.82800 32.12200 26.53000
C  -3.60300 31.58300 25.53900
C  -4.50200 30.58100 26.13100
C  -4.33800 30.68600 27.50800
C  -3.38700 31.61800 27.72700
C  -5.50500 29.90700 25.40200
C  -4.84300 30.18000 28.73900
O  -5.71800 29.39500 29.08700
C  -3.99200 30.93500 29.86600
C  -5.00900 31.50300 30.72600
O  -5.55000 32.58200 30.74700
O  -5.18600 30.59000 31.73400
C  -5.96900 30.95700 32.97800
H  0.14300 36.51200 29.76900
H  0.59100 36.03700 23.40500
H  -3.69200 31.26500 23.39800
H  -3.30200 33.67300 31.35800
H  -0.44600 34.68900 31.45700
H  -1.58300 36.48000 32.25200
H  -3.08500 35.64800 32.09300
H  -2.52800 36.68800 30.78900
H  -0.64300 32.71200 32.38400
H  -1.52700 31.38400 31.65400
H  -3.08800 31.60500 33.50900
H  -2.90300 33.31300 33.68400
H  1.98200 37.56000 29.18500
H  1.18400 38.94700 28.34100
H  2.84800 38.35700 28.05900
H  3.64900 38.72300 25.98800
H  2.20700 39.73000 26.30300
H  3.18400 39.76700 24.79700
H  -0.16300 34.21800 21.71800
H  -3.02400 33.04200 21.80600
H  -1.47500 35.74200 20.56900
H  -2.00000 36.32800 22.21800
H  -2.86300 35.07300 21.42600
H  -0.42200 31.86000 21.29900
H  -1.99200 31.33500 20.81100
H  -0.61700 30.88300 23.60400
H  -0.00400 30.11800 22.25400
H  -1.63400 29.63300 22.76300
H  -5.04600 28.98600 25.04200
H  -5.79200 30.54000 24.56400
H  -6.38800 29.69500 26.00400
H  -3.41500 30.21400 30.44400
H  -6.93500 31.30500 32.61100
H  -5.49500 31.78600 33.50400
H  -6.21900 30.10800 33.61400

