158

Mg 1.57100 7.95000 25.13700
C  2.76100 9.86600 27.89400
C  1.70100 5.16300 27.13500
C  1.13000 6.05100 22.35700
C  1.97600 10.79400 23.11100
N  2.52600 7.58600 27.24800
C  2.54200 8.55500 28.26500
C  2.31400 7.87000 29.70100
C  2.14100 6.34300 29.31300
C  2.13900 6.36800 27.76100
C  3.33100 5.42100 29.88600
C  1.21600 8.48500 30.55200
C  1.60700 8.94600 32.00400
H  2.65300 8.23900 32.80300
N  1.43300 5.95300 24.76000
C  1.51100 4.95000 25.73300
C  1.20300 3.69200 25.16800
C  0.98200 3.94100 23.78000
C  1.23000 5.38000 23.52800
C  1.05100 2.38400 25.95800
C  0.74200 2.89800 22.67800
O  0.90200 3.26200 21.52000
C  0.56300 1.41900 22.93500
N  1.80800 8.31700 22.98900
C  1.36000 7.40600 22.11100
C  1.26000 7.97500 20.72000
C  1.37300 9.48000 20.94100
C  1.73900 9.58000 22.43000
C  2.27800 7.26900 19.76200
C  0.15700 10.34400 20.58900
C  -1.04000 10.10900 21.51400
N  2.18600 9.95500 25.40000
C  2.20600 11.01000 24.47200
C  2.72900 12.21000 25.12300
C  2.84300 11.90100 26.51100
C  2.53000 10.47500 26.59200
C  2.92200 13.52300 24.46900
C  3.10800 12.31000 27.95400
O  3.33400 13.42900 28.38700
C  2.89900 11.05200 28.89400
C  4.04000 10.96200 29.89100
O  5.14100 10.54200 29.70300
O  3.56500 11.53400 31.13000
C  4.53200 11.66400 32.18200
H  1.39600 4.41000 27.86500
H  0.73800 5.55400 21.46700
H  2.06900 11.60900 22.39000
H  3.27500 7.97500 30.20300
H  1.17600 6.02500 29.70700
H  2.82900 4.57200 30.35100
H  3.99800 5.84800 30.63500
H  4.00800 5.06200 29.11100
H  0.34200 7.86900 30.76400
H  0.92100 9.35600 29.96700
H  0.70200 8.90500 32.61000
H  1.87100 10.00200 32.05600
H  0.09700 1.89600 25.75700
H  0.95500 2.69600 26.99800
H  1.87000 1.66900 25.89600
H  1.42700 0.86200 23.29700
H  0.08700 0.97800 22.05900
H  -0.25800 1.41000 23.65100
H  0.29300 7.78400 20.25500
H  2.17700 9.94300 20.36900
H  3.08500 7.97900 19.58000
H  1.84000 7.06500 18.78500
H  2.56900 6.29100 20.14500
H  0.03000 10.09200 19.53600
H  0.47300 11.38700 20.60300
H  -1.82600 9.57400 20.98100
H  -1.42900 11.08500 21.80200
H  -0.65600 9.56200 22.37500
H  3.60200 13.44200 23.62100
H  3.33800 14.25000 25.16600
H  2.02300 13.92400 24.00000
H  1.92900 11.30500 29.32000
H  4.25600 11.00700 33.00600
H  4.45000 12.66400 32.60900
H  5.50300 11.37300 31.78200
Mg 0.04100 44.20000 26.17300
C  1.78900 43.32200 29.05800
C  -2.86400 43.21000 27.87800
C  -1.67000 44.33900 23.27400
C  3.02600 44.86700 24.69900
N  -0.43900 43.17300 28.23300
C  0.40300 43.07600 29.27600
C  -0.30800 42.93000 30.66100
C  -1.78900 42.74400 30.13500
C  -1.73700 43.09300 28.64300
C  -2.43800 41.39300 30.43000
C  -0.11800 44.11400 31.53200
C  0.14600 43.91800 32.99700
H  -0.27800 42.55500 33.68500
N  -2.03900 44.05200 25.67700
C  -3.02700 43.64000 26.46100
C  -4.25300 43.63900 25.75600
C  -3.93100 43.98200 24.40400
C  -2.47900 44.13500 24.40000
C  -5.56000 43.30500 26.35500
C  -4.85700 44.28700 23.20000
O  -4.40800 44.73800 22.16900
C  -6.35400 43.98100 23.25300
N  0.56800 44.44100 24.27900
C  -0.31000 44.66300 23.21500
C  0.32900 45.21900 21.97800
C  1.76200 45.58300 22.58800
C  1.80300 44.95400 23.96800
C  0.39400 44.06500 20.87200
C  2.14100 47.06800 22.56300
C  3.47800 47.39200 21.90900
N  1.99700 44.11000 26.72000
C  3.11400 44.39800 26.03600
C  4.35200 44.21700 26.79900
C  3.87100 43.85000 28.08800
C  2.48000 43.79100 27.93300
C  5.84800 44.35500 26.37500
C  4.26100 43.49500 29.43300
O  5.31400 43.37100 29.96000
C  2.94800 43.09200 30.15600
C  3.06900 41.71200 30.73200
O  2.60500 40.64600 30.24600
O  3.98500 41.75700 31.70100
C  4.47700 40.52900 32.40100
H  -3.81600 42.93600 28.33800
H  -2.13600 44.31800 22.28700
H  3.90600 45.26400 24.18900
H  -0.02800 42.01500 31.18400
H  -2.42100 43.51300 30.57800
H  -3.38700 41.55100 30.94100
H  -1.85800 40.78100 31.12100
H  -2.74300 41.01300 29.45500
H  -0.85500 44.91500 31.48200
H  0.73600 44.66500 31.13900
H  -0.16700 44.77100 33.59900
H  1.22900 43.86400 33.10300
H  -6.30500 42.97700 25.63000
H  -5.97200 44.20600 26.80800
H  -5.46500 42.41700 26.97900
H  -6.38900 42.89600 23.35700
H  -6.87100 44.25500 22.33400
H  -6.93300 44.51600 24.00600
H  -0.27800 46.08100 21.70300
H  2.56500 45.09200 22.03900
H  1.38000 44.04900 20.40700
H  -0.30200 44.24800 20.05400
H  0.32100 43.02200 21.17900
H  2.33000 47.52300 23.53600
H  1.36400 47.71400 22.15400
H  3.74600 46.65500 21.15200
H  4.30300 47.56800 22.60000
H  3.38700 48.31400 21.33500
H  6.41900 43.76300 27.09000
H  6.32900 45.33200 26.31800
H  5.83800 43.90100 25.38400
H  2.87200 43.84000 30.94400
H  5.46300 40.74400 32.81400
H  4.42100 39.53000 31.96900
H  3.79100 40.51900 33.24800

