158

Mg 23.71900 -6.79700 45.26200
C  25.95700 -4.51700 43.70400
C  21.12600 -5.13200 43.65100
C  21.66000 -9.35100 46.01000
C  26.40700 -8.32800 46.69100
N  23.56600 -5.12900 43.66000
C  24.60500 -4.31100 43.25700
C  24.13600 -3.41500 42.16000
C  22.59200 -3.34600 42.49500
C  22.36300 -4.62600 43.33000
C  22.06200 -2.08200 43.17900
C  24.55400 -4.03100 40.78600
C  25.05500 -3.05400 39.67600
H  24.91500 -3.44700 38.20700
N  21.66400 -7.17300 44.90200
C  20.75900 -6.30700 44.28400
C  19.48600 -6.94200 44.21700
C  19.64700 -8.26600 44.82800
C  21.01500 -8.31700 45.28600
C  18.19100 -6.29100 43.69400
C  18.55300 -9.12900 45.23100
O  17.46100 -8.89900 44.68300
C  18.68500 -10.23800 46.25500
N  24.06000 -8.66600 46.02700
C  23.01700 -9.47700 46.36000
C  23.56200 -10.81400 47.03200
C  24.97600 -10.28000 47.50900
C  25.20500 -9.00800 46.70700
C  22.66700 -11.37100 48.16200
C  26.04300 -11.36100 47.39500
C  26.56200 -11.74500 48.70900
N  25.76500 -6.47500 45.27000
C  26.74000 -7.20200 45.90600
C  28.03300 -6.56400 45.65600
C  27.76000 -5.53800 44.80500
C  26.38600 -5.54700 44.58000
C  29.31800 -7.00900 46.19900
C  28.40200 -4.42500 44.04400
O  29.61700 -4.11500 43.92700
C  27.17300 -3.77300 43.33200
C  27.04300 -2.24400 43.49900
O  27.52000 -1.37300 42.74800
O  26.57600 -1.92900 44.75900
C  26.55600 -0.51400 45.07600
H  20.23700 -4.62300 43.27400
H  21.14800 -10.30000 46.18400
H  27.25100 -8.77900 47.21700
H  24.51400 -2.40400 42.31500
H  22.18100 -3.50500 41.49800
H  22.88600 -1.53500 43.63900
H  21.23700 -2.31400 43.85300
H  21.76800 -1.34900 42.42800
H  23.64600 -4.37200 40.28900
H  25.26700 -4.85400 40.84100
H  26.10700 -2.86900 39.89500
H  24.50600 -2.11900 39.78400
H  17.63600 -7.02900 43.11500
H  18.35100 -5.40900 43.07500
H  17.59300 -5.92600 44.52900
H  19.28800 -9.92600 47.10800
H  19.03400 -11.12800 45.73100
H  17.67800 -10.37900 46.64700
H  23.47100 -11.53200 46.21700
H  24.87900 -9.97300 48.55100
H  21.74600 -10.79500 48.24800
H  23.24200 -11.32700 49.08700
H  22.32200 -12.39500 48.01500
H  26.74400 -10.97800 46.65300
H  25.63300 -12.25900 46.93400
H  25.96800 -11.50600 49.59000
H  27.60300 -11.48500 48.90100
H  26.78300 -12.80800 48.60600
H  29.39500 -6.76500 47.25900
H  30.16600 -6.48900 45.75400
H  29.43600 -8.08500 46.07300
H  27.36100 -3.78700 42.25900
H  26.03600 0.08700 44.33000
H  27.56000 -0.10900 45.20100
H  26.00500 -0.39500 46.01000
Mg 16.39600 52.57300 26.24700
C  18.19900 50.89100 28.81100
C  14.31500 53.77200 28.61500
C  14.48400 53.91600 23.74000
C  18.52500 51.12400 23.89700
N  16.21600 52.19700 28.45900
C  17.09700 51.55800 29.30700
C  16.79200 51.87900 30.78800
C  15.42600 52.50400 30.70500
C  15.30900 52.95100 29.19600
C  14.24200 51.49200 31.11100
C  17.76500 52.92000 31.48100
C  18.01300 52.83100 33.03000
H  16.99000 52.03500 33.85500
N  14.54600 53.63500 26.19800
C  13.88500 54.07700 27.23500
C  12.84000 55.04100 26.85600
C  12.84100 55.05000 25.42600
C  13.93700 54.12300 25.02900
C  12.01100 55.72100 27.88000
C  11.97700 55.87100 24.53500
O  12.03900 55.77400 23.34500
C  10.93500 56.80200 25.16600
N  16.34100 52.35700 24.14700
C  15.52800 53.14600 23.33400
C  16.04500 53.05300 21.89700
C  17.48100 52.46600 22.07300
C  17.46000 51.91200 23.42100
C  15.10300 52.17900 21.01800
C  18.72400 53.34000 21.75900
C  19.69100 52.81900 20.69900
N  17.95400 51.09400 26.30500
C  18.74400 50.70600 25.22500
C  19.81000 49.82000 25.78900
C  19.67900 49.90500 27.16600
C  18.53000 50.64700 27.45000
C  20.88200 49.12700 25.05300
C  20.13400 49.45300 28.44000
O  21.10900 48.69900 28.71100
C  19.25300 50.19800 29.54300
C  18.68300 49.11100 30.45800
O  18.07000 48.07700 30.13500
O  19.09400 49.50500 31.70900
C  19.06200 48.38700 32.68000
H  13.71700 54.24200 29.39800
H  13.97600 54.43000 22.92100
H  19.28600 50.89300 23.14900
H  16.82300 51.00300 31.43600
H  15.25700 53.39600 31.30900
H  14.69400 50.64100 31.62000
H  13.74900 51.07100 30.23400
H  13.56900 52.07500 31.73900
H  17.32700 53.90500 31.32000
H  18.71200 53.02900 30.95300
H  18.22500 53.78400 33.51500
H  18.96000 52.30100 33.14100
H  12.07500 56.79300 27.69700
H  12.21400 55.33200 28.87700
H  10.94600 55.57700 27.69700
H  10.38400 56.11300 25.80500
H  10.28500 57.19100 24.38100
H  11.51400 57.56500 25.68700
H  15.99100 54.08000 21.53600
H  17.52500 51.54500 21.49100
H  14.18700 51.81800 21.48500
H  15.59900 51.37000 20.48100
H  14.70900 52.97000 20.38000
H  19.28700 53.55100 22.66800
H  18.29500 54.25100 21.34100
H  19.52500 53.38300 19.78100
H  19.37100 51.78000 20.62700
H  20.75200 52.83900 20.94800
H  21.10700 49.77500 24.20600
H  20.47300 48.20400 24.64100
H  21.84000 48.98100 25.55200
H  19.97700 50.78800 30.10500
H  19.00800 47.43700 32.14700
H  18.02600 48.32800 33.01300
H  19.67700 48.42400 33.57900

