158

Mg 47.53300 15.28000 27.61800
C  45.36200 15.17500 30.12800
C  49.81600 17.07400 29.48400
C  49.74200 15.40200 24.92900
C  45.14200 13.56900 25.54700
N  47.51900 16.22100 29.53400
C  46.53800 15.89700 30.49500
C  47.00900 16.36500 31.87600
C  48.20500 17.27300 31.53800
C  48.60100 16.76100 30.10200
C  47.98500 18.73600 31.36600
C  47.19400 15.30700 33.05400
C  47.16800 15.87600 34.45600
H  48.31700 15.53500 35.35700
N  49.50000 16.17800 27.24200
C  50.26500 16.86600 28.20100
C  51.49600 17.27100 27.62800
C  51.48600 16.90300 26.28200
C  50.22700 16.05700 26.10500
C  52.62900 18.07000 28.37200
C  52.54100 17.08700 25.22400
O  52.46100 16.44600 24.21100
C  53.77200 17.95700 25.34200
N  47.42900 14.68900 25.52200
C  48.52900 14.80700 24.64000
C  48.26600 14.06800 23.31400
C  46.87600 13.35100 23.64000
C  46.37600 13.97100 24.90500
C  48.20300 15.05800 22.15800
C  46.94600 11.83700 23.75600
C  47.81800 11.05000 22.77900
N  45.59500 14.64000 27.69200
C  44.78800 13.92800 26.90700
C  43.58400 13.67800 27.53400
C  43.76700 14.12900 28.82000
C  45.03600 14.66900 28.88100
C  42.42700 12.90800 27.02900
C  43.20400 14.17300 30.13500
O  42.11300 13.82900 30.50300
C  44.21600 14.80300 31.03700
C  43.71400 15.93000 31.83600
O  43.48400 17.06700 31.42400
O  43.65700 15.54900 33.16400
C  43.10700 16.41500 34.18300
H  50.49300 17.54500 30.19900
H  50.35600 15.38900 24.02600
H  44.42600 12.93000 25.02600
H  46.21900 17.02500 32.23400
H  49.11100 17.04300 32.09800
H  47.74200 19.00200 30.33800
H  48.83600 19.35000 31.66500
H  47.13400 19.00800 31.99100
H  48.13800 14.77800 32.92100
H  46.50400 14.52400 32.73800
H  46.26300 15.44700 34.88600
H  47.00600 16.92500 34.20900
H  52.79300 19.05000 27.92500
H  53.48500 17.39600 28.36700
H  52.51200 18.26600 29.43800
H  53.60200 18.99300 25.63300
H  54.15800 17.93600 24.32300
H  54.47300 17.52600 26.05800
H  49.09200 13.36100 23.23100
H  46.20100 13.67300 22.84700
H  47.18800 15.36200 21.90300
H  48.66100 14.61300 21.27500
H  48.78200 15.95400 22.38000
H  45.92800 11.44700 23.73700
H  47.42100 11.58600 24.70400
H  48.66000 10.55700 23.26400
H  48.33000 11.64800 22.02400
H  47.26500 10.24000 22.30500
H  42.40300 12.81100 25.94300
H  41.59400 13.38500 27.54500
H  42.46200 11.96100 27.56800
H  44.53000 13.99900 31.70400
H  43.86200 16.85700 34.83300
H  42.43700 15.80500 34.79000
H  42.50500 17.19800 33.72200
Mg 6.56600 57.61400 41.71500
C  5.37800 54.26300 41.47800
C  9.61000 56.25800 40.55300
C  7.67700 60.58100 41.33400
C  3.47800 58.60700 42.61500
N  7.33900 55.59100 40.87500
C  6.65600 54.35700 40.89800
C  7.48300 53.25100 40.26100
C  8.92400 53.90100 40.47400
C  8.63300 55.29700 40.67200
C  9.63700 53.29700 41.71600
C  7.00700 53.19400 38.78000
C  6.99400 51.91000 38.07800
H  7.80900 51.67200 36.82100
N  8.38000 58.39300 40.98600
C  9.49200 57.64600 40.63600
C  10.51100 58.50900 40.28700
C  10.04400 59.87300 40.44300
C  8.64500 59.65500 40.92900
C  11.89700 58.06900 39.77600
C  10.74200 61.13300 40.22600
O  11.88600 61.22300 39.78200
C  10.10500 62.47600 40.67400
N  5.56200 59.38000 41.49600
C  6.30900 60.46600 41.58900
C  5.57400 61.66600 42.22500
C  4.19000 61.01000 42.55600
C  4.40400 59.56500 42.16100
C  6.23000 62.19900 43.49500
C  3.09800 61.77300 41.89400
C  1.79500 61.78400 42.66100
N  4.71300 56.67500 42.04900
C  3.59900 57.18800 42.51700
C  2.61300 56.17500 42.73100
C  3.29100 54.99300 42.39200
C  4.59000 55.35200 41.97600
C  1.22300 56.47400 43.35700
C  3.12600 53.57600 42.34500
O  2.17500 52.83600 42.61800
C  4.52000 52.97800 41.71200
C  4.15400 52.33400 40.49800
O  3.93800 52.91200 39.42300
O  4.11900 50.98900 40.65600
C  3.80000 50.14000 39.44600
H  10.57700 55.75600 40.48200
H  8.08600 61.58600 41.46200
H  2.50900 58.94900 42.98600
H  7.27000 52.30500 40.75800
H  9.53400 53.84100 39.57300
H  9.71200 53.83600 42.66100
H  10.70500 53.12700 41.57900
H  9.27000 52.28700 41.90400
H  7.76100 53.75900 38.23200
H  6.05000 53.68700 38.60900
H  5.99900 51.86900 37.63600
H  7.23000 51.08600 38.75100
H  12.12800 58.36300 38.75200
H  12.16200 57.01600 39.87500
H  12.62700 58.62200 40.36700
H  9.95800 62.32100 41.74300
H  9.23500 62.60000 40.02900
H  10.83800 63.28000 40.60900
H  5.40500 62.40600 41.44300
H  4.02200 60.94400 43.63100
H  7.09900 61.62400 43.81400
H  5.53600 62.29500 44.33100
H  6.65700 63.12400 43.10800
H  2.91000 61.29600 40.93200
H  3.48700 62.78200 41.75900
H  1.50900 62.83300 42.72900
H  2.04600 61.40300 43.65000
H  0.88700 61.23800 42.40400
H  1.34700 57.20700 44.15400
H  0.77200 55.56800 43.76000
H  0.57600 56.74500 42.52300
H  4.99300 52.30200 42.42400
H  2.95500 49.55400 39.80900
H  4.69500 49.61500 39.11200
H  3.42400 50.70900 38.59600

