158

Mg 23.97500 -6.62400 46.43900
C  26.06000 -4.16300 44.69500
C  21.48200 -5.65900 44.14100
C  22.41500 -9.46500 46.98700
C  26.82700 -7.58600 48.21700
N  23.77700 -5.08400 44.72700
C  24.79500 -4.25500 44.12500
C  24.18100 -3.41900 42.99700
C  22.67700 -3.45200 43.31900
C  22.55800 -4.80500 44.14300
C  22.06000 -2.27000 44.19100
C  24.64600 -3.88000 41.62900
C  25.34800 -2.83400 40.74400
H  25.11900 -2.86900 39.22900
N  22.08700 -7.46200 45.72000
C  21.19500 -6.87200 44.84200
C  19.98800 -7.65000 44.80500
C  20.21000 -8.81300 45.63600
C  21.59200 -8.63400 46.18100
C  18.88800 -7.29000 43.87800
C  19.24600 -9.95600 45.91700
O  18.10200 -9.86400 45.53700
C  19.63500 -11.21700 46.75200
N  24.63000 -8.34300 47.27800
C  23.73900 -9.40200 47.51300
C  24.32900 -10.49300 48.47400
C  25.67400 -9.76800 48.85000
C  25.73600 -8.41000 48.10200
C  23.39000 -10.86500 49.62100
C  26.96100 -10.69100 48.58000
C  27.88900 -10.88400 49.66000
N  26.00400 -5.90900 46.58300
C  27.04600 -6.38700 47.36400
C  28.21700 -5.57400 47.27500
C  27.84900 -4.65700 46.28600
C  26.50900 -4.89700 45.83000
C  29.57500 -5.62500 48.03700
C  28.25200 -3.46100 45.54900
O  29.34900 -2.88500 45.63500
C  27.16500 -3.14400 44.48700
C  26.80800 -1.72500 44.74500
O  25.90500 -1.23300 45.39400
O  27.71500 -0.98200 44.07400
C  27.33500 0.44300 43.90100
H  20.63400 -5.30000 43.55500
H  21.91700 -10.42500 47.13500
H  27.63200 -7.88500 48.89100
H  24.48600 -2.37700 43.09700
H  22.05500 -3.41000 42.42500
H  21.97100 -2.49600 45.25400
H  21.06700 -1.96700 43.85900
H  22.71000 -1.39700 44.14000
H  23.77500 -4.34300 41.16500
H  25.39100 -4.67100 41.71300
H  26.41600 -2.90100 40.95000
H  25.04500 -1.82700 41.02900
H  18.29200 -8.16300 43.61200
H  19.14800 -6.62700 43.05200
H  18.18600 -6.67700 44.44400
H  18.89300 -12.00800 46.64900
H  19.89100 -10.91500 47.76800
H  20.42400 -11.79100 46.26600
H  24.35200 -11.36700 47.82400
H  25.68900 -9.53800 49.91600
H  22.60300 -10.11100 49.60500
H  23.96500 -10.88400 50.54700
H  22.97900 -11.87000 49.52900
H  27.46500 -10.18500 47.75700
H  26.70300 -11.70700 48.27900
H  28.92500 -10.66900 49.39900
H  27.96000 -11.93100 49.95700
H  27.73000 -10.26400 50.54200
H  29.26400 -5.19300 48.98800
H  30.32200 -5.05900 47.47900
H  29.97400 -6.62300 48.22100
H  27.58800 -3.19100 43.48400
H  27.69100 0.91900 44.81500
H  26.26500 0.63900 43.84000
H  27.79500 0.84200 42.99700
Mg 52.49900 24.54300 45.57100
C  50.18500 26.89600 44.20800
C  50.80200 22.14600 43.86400
C  55.09000 22.42600 45.93800
C  54.45500 27.24800 46.55500
N  50.82700 24.60500 43.97100
C  49.94500 25.63400 43.70900
C  48.77300 25.14600 42.78200
C  48.65800 23.67500 43.31100
C  50.19400 23.42000 43.69500
C  47.73100 23.38400 44.52800
C  49.14500 25.29500 41.29200
C  47.90600 25.43400 40.34900
H  48.00900 24.52900 39.10800
N  52.81500 22.54300 45.13600
C  52.02600 21.74100 44.42500
C  52.41800 20.35000 44.56300
C  53.63400 20.41700 45.34100
C  53.87200 21.83600 45.56000
C  51.63400 19.14400 43.92200
C  54.52900 19.23800 45.75000
O  54.24300 18.12100 45.34500
C  55.59600 19.42000 46.76800
N  54.43200 24.82200 46.08400
C  55.34800 23.77200 46.25900
C  56.69600 24.28300 46.78700
C  56.44200 25.80700 47.03300
C  55.03000 25.98500 46.52500
C  57.20000 23.47700 48.02100
C  57.39700 26.77200 46.28400
C  58.93700 26.42200 45.99300
N  52.25100 26.58500 45.74600
C  53.12800 27.51100 46.18100
C  52.44800 28.75500 46.26500
C  51.28100 28.62700 45.46300
C  51.26400 27.29900 45.11100
C  53.01400 30.04100 46.93600
C  50.12800 29.28000 44.94500
O  49.82000 30.47400 44.93500
C  49.35900 28.18200 44.12200
C  49.16700 28.78600 42.73900
O  49.98700 29.07400 41.87000
O  47.81400 28.84800 42.49500
C  47.43500 29.64700 41.29400
H  50.14900 21.27700 43.76300
H  56.01100 21.84500 46.02500
H  54.92300 28.12900 47.00000
H  47.88800 25.70600 43.08400
H  48.39700 22.94900 42.54000
H  48.38200 23.15900 45.37300
H  47.06500 22.53300 44.38700
H  47.16800 24.27500 44.80400
H  49.72600 24.43900 40.94900
H  49.69400 26.23400 41.21200
H  47.85100 26.49600 40.10800
H  46.95800 25.30100 40.87000
H  50.87300 18.82300 44.63300
H  52.27900 18.30100 43.67800
H  51.07200 19.38000 43.01800
H  56.58200 19.56800 46.32900
H  55.47900 18.48800 47.32100
H  55.32000 20.24300 47.42700
H  57.45000 24.17200 46.00800
H  56.38400 26.05400 48.09300
H  58.02900 22.77800 47.91500
H  56.34000 22.84500 48.24100
H  57.37200 24.15400 48.85800
H  57.47900 27.63300 46.94600
H  56.86000 27.00700 45.36500
H  59.17800 26.54300 44.93700
H  59.09400 25.38200 46.27900
H  59.54400 27.08900 46.60600
H  52.72600 29.96500 47.98500
H  52.56000 30.88000 46.40900
H  54.09000 30.15200 46.80200
H  48.42000 28.12300 44.67200
H  46.84600 29.00200 40.64200
H  48.30900 29.90700 40.69700
H  46.80900 30.49600 41.57200

