158

Mg 2.40100 -3.04100 45.67300
C  5.78400 -2.20100 45.23700
C  1.58600 -0.53800 43.42600
C  -0.79800 -4.35400 45.45800
C  3.42500 -5.77700 47.60100
N  3.55400 -1.58000 44.49300
C  4.95600 -1.38300 44.51200
C  5.36800 -0.25800 43.55300
C  3.97400 0.43100 43.22800
C  2.95000 -0.66300 43.78000
C  3.74300 1.81200 44.04300
C  6.03500 -0.74800 42.27100
C  7.47400 -0.17000 42.00700
H  7.44400 0.69700 40.77700
N  0.67800 -2.49900 44.61500
C  0.49700 -1.37100 43.84000
C  -0.87100 -1.23400 43.41700
C  -1.59800 -2.33800 43.97200
C  -0.55500 -3.11900 44.73400
C  -1.25600 -0.02300 42.53200
C  -3.12000 -2.63900 43.80800
O  -3.81400 -1.87200 43.16200
C  -3.93700 -3.55400 44.66100
N  1.45400 -4.77100 46.40600
C  0.12300 -5.02000 46.27400
C  -0.44700 -6.24800 47.05400
C  0.97800 -6.76600 47.65500
C  2.02900 -5.73700 47.22300
C  -1.56700 -5.86000 48.09700
C  1.47300 -8.01300 47.02300
C  1.87900 -9.08600 48.17600
N  4.22100 -3.87500 46.40400
C  4.45900 -4.91100 47.20300
C  5.85700 -5.02400 47.43100
C  6.41100 -4.01900 46.60900
C  5.35500 -3.34500 46.02800
C  6.61100 -6.06900 48.28700
C  7.64700 -3.42200 46.13200
O  8.78300 -3.82700 46.47200
C  7.29200 -2.17000 45.26200
C  7.68400 -0.99000 45.93300
O  7.07300 -0.44300 46.82400
O  8.75900 -0.42300 45.23700
C  8.70600 1.06100 45.27300
H  1.36100 0.27600 42.73300
H  -1.76800 -4.81400 45.25600
H  3.76700 -6.70800 48.05700
H  6.07300 0.35000 44.12000
H  3.76900 0.66000 42.18200
H  4.56500 2.45600 43.73000
H  3.79600 1.64700 45.11900
H  2.82200 2.29800 43.72200
H  5.45700 -0.40900 41.41200
H  5.95700 -1.83300 42.34800
H  8.19100 -0.95300 41.76100
H  7.87300 0.42900 42.82600
H  -2.32400 0.16700 42.64400
H  -1.16300 -0.32600 41.49000
H  -0.65700 0.85800 42.76400
H  -3.46900 -3.71800 45.63200
H  -4.09800 -4.53500 44.21300
H  -4.92800 -3.11400 44.76800
H  -0.96800 -7.03100 46.50200
H  0.87700 -6.80500 48.73900
H  -2.15200 -5.02000 47.72200
H  -1.16400 -5.59700 49.07500
H  -2.31100 -6.62800 48.30800
H  2.29400 -7.83000 46.32900
H  0.66100 -8.48800 46.47200
H  1.42100 -9.99500 47.78700
H  1.38200 -8.92100 49.13200
H  2.93000 -9.37200 48.21700
H  5.91300 -6.50100 49.00500
H  7.48100 -5.51000 48.63100
H  6.97600 -6.92200 47.71500
H  7.73300 -2.27600 44.27100
H  9.45900 1.42900 44.57600
H  9.03100 1.47800 46.22600
H  7.76500 1.48400 44.92100
Mg 29.95500 57.37600 39.73700
C  27.23300 55.18400 38.91900
C  32.10900 54.79300 38.89700
C  32.40400 59.58600 40.07000
C  27.62500 59.90900 40.21100
N  29.69300 55.30200 38.95500
C  28.49800 54.55600 38.74700
C  28.75700 53.08000 38.47400
C  30.27600 52.97900 38.70300
C  30.77000 54.43400 38.84600
C  30.73000 52.12800 39.94600
C  28.19900 52.73000 37.01900
C  28.73000 53.38700 35.68400
H  27.73500 54.27900 34.83500
N  31.99400 57.19800 39.43800
C  32.67700 56.07400 39.05900
C  34.05800 56.44300 39.06500
C  34.24800 57.81700 39.39800
C  32.86800 58.24700 39.68700
C  35.01200 55.44800 38.54900
C  35.62200 58.58400 39.27400
O  36.62900 57.97500 38.92700
C  35.74200 60.11900 39.65600
N  29.96300 59.52800 40.18700
C  31.11400 60.17800 40.21900
C  30.86200 61.66600 40.59200
C  29.30600 61.69800 40.78900
C  28.91200 60.32100 40.38200
C  31.66300 62.11900 41.86300
C  28.60800 62.88200 40.01100
C  27.86700 63.96100 40.66900
N  27.87300 57.50300 39.73600
C  27.09500 58.63800 39.87100
C  25.76000 58.27700 39.73000
C  25.80500 56.96000 39.45400
C  27.10200 56.49600 39.32000
C  24.54700 59.16200 39.84900
C  24.92900 55.81600 39.25400
O  23.71800 55.75500 39.41800
C  25.80800 54.61800 38.79800
C  25.47600 53.43400 39.71800
O  25.98000 53.12600 40.76200
O  24.56500 52.67500 39.09400
C  23.97500 51.49200 39.73700
H  32.80100 53.97300 38.70000
H  33.21000 60.31900 40.14300
H  26.84300 60.66000 40.34300
H  28.28500 52.51200 39.27500
H  30.87900 52.63900 37.86100
H  31.71600 51.68500 39.80700
H  29.99700 51.32100 39.96200
H  30.67500 52.67300 40.88800
H  27.11400 52.72900 37.13000
H  28.49700 51.68200 36.99200
H  29.14100 52.57300 35.08700
H  29.60800 54.01900 35.81800
H  34.58400 54.97000 37.66800
H  35.14000 54.61900 39.24400
H  35.96800 55.83000 38.19200
H  35.43300 60.22600 40.69600
H  35.23700 60.74000 38.91700
H  36.80600 60.33500 39.75700
H  31.17700 62.34900 39.80400
H  29.03600 61.60800 41.84100
H  32.00200 63.13100 41.64500
H  32.43900 61.36400 41.98900
H  30.99000 62.12400 42.72000
H  27.96800 62.57600 39.18300
H  29.35500 63.40600 39.41400
H  26.83900 63.86700 40.31700
H  28.23700 64.93700 40.35300
H  27.91400 63.88200 41.75500
H  24.82500 60.18500 39.59400
H  24.21300 59.08600 40.88300
H  23.71800 58.71400 39.30100
H  25.68000 54.27700 37.77100
H  24.54500 50.79200 39.12600
H  22.90400 51.54400 39.53800
H  24.08300 51.47600 40.82100

