158

Mg 25.56400 0.18100 29.58100
C  27.48000 0.29900 32.54000
C  22.75900 0.89200 31.37000
C  23.85400 0.27100 26.63800
C  28.47800 -0.83100 27.92800
N  25.24900 0.67800 31.71600
C  26.15200 0.70200 32.74600
C  25.46400 0.90700 34.09600
C  23.93800 0.88700 33.65200
C  23.98000 0.79400 32.16800
C  22.95400 -0.00600 34.49000
C  25.88700 2.18100 34.91500
C  26.53800 1.94700 36.34500
H  26.39000 2.94100 37.51200
N  23.54900 0.38400 29.05600
C  22.56200 0.79600 29.93700
C  21.28600 1.03800 29.16200
C  21.67700 0.95400 27.77100
C  23.08700 0.56400 27.76000
C  20.01000 1.20600 29.81100
C  20.84600 1.22800 26.59600
O  21.26500 1.28100 25.43400
C  19.41000 1.66400 26.71000
N  25.95000 -0.27400 27.58500
C  25.16100 -0.13300 26.49900
C  25.87900 -0.42400 25.12800
C  27.38100 -0.42700 25.56800
C  27.25100 -0.55500 27.15200
C  25.45100 -1.69600 24.41300
C  28.08800 0.90000 25.23500
C  28.90500 0.95800 23.93100
N  27.55100 -0.30200 30.09300
C  28.66600 -0.64600 29.33400
C  29.87100 -0.76900 30.15100
C  29.46500 -0.34200 31.37800
C  28.04400 -0.11200 31.35200
C  31.18800 -1.23600 29.72400
C  29.84600 -0.04700 32.80400
O  30.93600 -0.23200 33.29800
C  28.60800 0.40700 33.63200
C  28.48800 -0.47900 34.79000
O  27.83800 -1.51700 34.85000
O  29.32300 -0.00700 35.73300
C  29.10600 -0.69500 37.04000
H  21.85700 1.27300 31.85400
H  23.35400 0.41400 25.67700
H  29.42600 -1.05400 27.43500
H  25.74800 0.07200 34.73700
H  23.51900 1.87500 33.84400
H  23.51500 -0.63000 35.18500
H  22.40000 -0.70900 33.86800
H  22.34800 0.60900 35.15500
H  25.07900 2.90200 35.03500
H  26.61100 2.76900 34.35000
H  27.62000 1.97900 36.22200
H  26.27000 0.94400 36.67700
H  19.78500 2.27300 29.79400
H  19.96000 0.88700 30.85200
H  19.26100 0.64900 29.24800
H  18.84900 0.89100 27.23500
H  18.99900 1.77300 25.70600
H  19.28300 2.61200 27.23200
H  25.65500 0.38800 24.43700
H  27.95600 -1.27300 25.19000
H  26.32200 -2.03000 23.85000
H  24.76700 -1.44500 23.60200
H  24.95900 -2.48200 24.98500
H  28.78700 1.06800 26.05400
H  27.28600 1.63700 25.26600
H  29.99000 1.04200 23.98300
H  28.56200 1.73000 23.24200
H  28.71500 0.02800 23.39400
H  31.12300 -1.88400 28.85000
H  31.62800 -1.78600 30.55600
H  31.68400 -0.28800 29.52100
H  28.60700 1.46800 33.88500
H  28.05300 -0.65200 37.31900
H  29.66400 -0.06800 37.73600
H  29.49200 -1.71400 37.07900
Mg 43.86000 3.91200 47.53700
C  41.99300 6.78500 47.09700
C  41.02700 2.05300 47.02200
C  45.95300 1.27900 47.30800
C  46.75300 6.08400 47.49800
N  41.73200 4.36000 47.26200
C  41.20400 5.60700 47.02200
C  39.69300 5.57500 46.66300
C  39.37200 4.10200 47.07600
C  40.75400 3.46400 47.18800
C  38.73500 4.13200 48.47500
C  39.44000 6.01600 45.24600
C  38.30500 6.98800 44.94200
H  37.45800 6.61900 43.68200
N  43.54100 1.96600 47.35400
C  42.32200 1.40600 47.14800
C  42.54100 0.00200 46.86600
C  43.95100 -0.28200 46.89700
C  44.55600 1.02600 47.20600
C  41.46300 -0.96100 46.64600
C  44.56500 -1.63600 46.57100
O  43.86100 -2.58700 46.21300
C  46.12400 -1.88700 46.56100
N  46.08600 3.76400 47.11700
C  46.65300 2.49900 47.32200
C  48.14300 2.58700 47.58800
C  48.42600 4.07200 47.62700
C  47.00100 4.70700 47.40800
C  48.57300 1.80800 48.91200
C  49.39400 4.55900 46.51000
C  50.34100 5.69700 46.85600
N  44.35900 6.05000 47.43100
C  45.53200 6.74600 47.54300
C  45.28700 8.17400 47.49600
C  43.88000 8.26000 47.32300
C  43.34500 6.94700 47.29700
C  46.28100 9.25700 47.51600
C  42.76900 9.16200 47.24100
O  42.67000 10.35100 47.19500
C  41.52100 8.26600 46.97200
C  40.61200 8.65500 48.05700
O  40.67900 8.32600 49.28200
O  39.60700 9.45100 47.52800
C  38.70200 10.03600 48.53000
H  40.16000 1.42700 46.79900
H  46.56200 0.38600 47.46400
H  47.68100 6.64100 47.64700
H  39.18000 6.27100 47.32600
H  38.79000 3.70600 46.24300
H  39.42900 4.42400 49.26200
H  38.17900 3.22700 48.72300
H  37.97700 4.90200 48.61500
H  39.23200 5.09500 44.70100
H  40.36300 6.43100 44.84200
H  38.72900 7.98500 44.81500
H  37.64100 7.07800 45.80200
H  40.57400 -0.68300 47.21200
H  41.64400 -1.98200 46.98200
H  41.13100 -1.00100 45.60800
H  46.57900 -1.88500 47.55100
H  46.67500 -1.23000 45.88700
H  46.31000 -2.90000 46.20300
H  48.72000 2.20200 46.74700
H  48.82200 4.42200 48.58100
H  47.75600 1.91700 49.62600
H  49.46600 2.21900 49.38200
H  48.64400 0.76200 48.61500
H  48.92000 4.97900 45.62400
H  49.99300 3.72500 46.14300
H  50.07800 6.13600 47.81900
H  50.26700 6.46100 46.08200
H  51.36500 5.32700 46.80700
H  47.11000 8.98900 46.86100
H  46.54000 9.50900 48.54500
H  45.63900 10.03300 47.09800
H  41.18000 8.49200 45.96200
H  39.08300 11.04700 48.67500
H  38.49000 9.47900 49.44300
H  37.73100 10.25500 48.08700

