158

Mg 41.42100 8.65200 29.73900
C  43.06700 9.49400 32.73500
C  39.22100 6.70100 31.70400
C  39.88200 7.57200 26.89700
C  43.96000 9.93700 27.89300
N  41.30600 8.09400 31.93300
C  41.92400 8.70800 32.97700
C  41.36600 8.35800 34.35600
C  40.26400 7.20000 34.00000
C  40.25700 7.31300 32.42200
C  40.65100 5.74900 34.45800
C  40.90800 9.63100 35.10300
C  41.22100 9.77300 36.58100
H  41.48500 11.10800 37.20400
N  39.73900 7.40000 29.35500
C  38.96600 6.73400 30.32500
C  37.80500 6.15900 29.68800
C  37.91200 6.46300 28.28000
C  39.22800 7.13600 28.09800
C  36.70200 5.32500 30.38000
C  37.01100 6.17600 27.19000
O  37.30700 6.38500 26.06100
C  35.62800 5.61300 27.50900
N  41.83300 8.77700 27.77400
C  41.05800 8.33200 26.80000
C  41.68600 8.59900 25.49300
C  42.86500 9.51000 25.74800
C  42.85900 9.45400 27.25200
C  42.08700 7.26300 24.79800
C  42.60500 10.94800 25.31900
C  41.32400 11.67600 25.65600
N  43.15300 9.53800 30.15100
C  44.17400 9.96400 29.29000
C  45.23200 10.50700 30.01400
C  44.80900 10.45200 31.34500
C  43.63600 9.76800 31.38700
C  46.54700 11.01700 29.52000
C  45.07800 10.88400 32.75600
O  46.06400 11.45200 33.23300
C  43.87200 10.29900 33.60200
C  44.52300 9.61300 34.78000
O  45.01900 8.51700 34.73300
O  44.58500 10.41500 35.94900
C  45.50000 10.02800 37.04500
H  38.48000 6.12000 32.25700
H  39.42100 7.28000 25.95100
H  44.67500 10.53000 27.31900
H  42.19400 7.93600 34.92500
H  39.25300 7.37100 34.36800
H  41.64100 5.63900 34.90000
H  40.73300 4.94700 33.72400
H  39.89900 5.26500 35.08200
H  39.81900 9.60700 35.06700
H  41.17800 10.55900 34.59900
H  42.13000 9.20800 36.78600
H  40.30000 9.41700 37.04200
H  36.68900 5.23900 31.46600
H  36.54100 4.30100 30.04400
H  35.71500 5.76100 30.22500
H  35.14500 6.23600 28.26100
H  35.77200 4.60400 27.89500
H  35.07100 5.60100 26.57200
H  41.01600 9.15700 24.84000
H  43.80800 9.25000 25.26800
H  41.89200 6.38800 25.41800
H  43.14700 7.31700 24.55000
H  41.48500 7.18200 23.89300
H  42.62900 11.02400 24.23200
H  43.36100 11.63800 25.69300
H  40.72600 11.19800 26.43200
H  40.70500 11.81500 24.76900
H  41.73500 12.62900 25.98900
H  46.82000 11.97400 29.96500
H  46.58300 11.14300 28.43800
H  47.30900 10.26300 29.71800
H  43.29500 11.15700 33.94800
H  45.99300 9.07800 36.83900
H  44.92300 9.89600 37.96000
H  46.31100 10.74500 37.17000
Mg -2.36200 34.53600 26.60600
C  -4.21300 32.78600 29.20000
C  -1.20700 36.51400 29.03500
C  -0.84500 36.16000 24.17900
C  -4.04500 32.47300 24.30200
N  -2.79800 34.76600 28.95300
C  -3.42200 33.83300 29.75800
C  -3.21900 34.22000 31.20100
C  -2.39700 35.53400 31.08100
C  -2.06100 35.64200 29.57500
C  -3.13100 36.79200 31.61600
C  -2.54700 33.09600 32.03300
C  -3.34200 32.36200 33.15000
H  -3.39300 33.23500 34.39800
N  -1.20700 36.13900 26.56800
C  -0.74300 36.80000 27.70500
C  0.20300 37.82600 27.32700
C  0.33500 37.72500 25.94300
C  -0.62000 36.64800 25.48000
C  0.91100 38.68900 28.35400
C  1.28000 38.46100 25.01400
O  1.26300 38.34400 23.80600
C  2.34500 39.32900 25.57500
N  -2.73000 34.46700 24.51600
C  -1.72600 35.15400 23.78400
C  -1.68400 34.60800 22.35100
C  -2.61900 33.38700 22.36000
C  -3.19700 33.38300 23.77900
C  -1.98500 35.64500 21.28700
C  -1.87300 32.05900 22.06300
C  -2.69500 30.81000 21.61400
N  -4.03400 33.13500 26.69900
C  -4.54700 32.34200 25.63100
C  -5.42900 31.32900 26.17500
C  -5.32900 31.43900 27.56200
C  -4.45900 32.58800 27.83000
C  -6.18500 30.17800 25.44800
C  -5.72300 30.88600 28.80800
O  -6.59100 30.02000 28.99700
C  -5.06700 31.77900 29.91600
C  -6.25700 32.36700 30.59900
O  -6.73600 33.43800 30.29400
O  -6.63400 31.70300 31.68500
C  -7.59800 32.20600 32.61800
H  -0.80800 37.18600 29.79800
H  -0.14700 36.44000 23.38700
H  -4.41200 31.76900 23.55200
H  -4.23100 34.37200 31.57700
H  -1.44000 35.53600 31.60200
H  -4.08800 36.49100 32.04300
H  -3.32500 37.46700 30.78200
H  -2.54700 37.34200 32.35500
H  -1.64800 33.53800 32.46300
H  -2.12800 32.40800 31.29900
H  -2.75100 31.47500 33.38200
H  -4.31900 32.04400 32.78500
H  1.99200 38.68500 28.21000
H  0.65100 38.51600 29.39800
H  0.56900 39.69700 28.11900
H  3.00100 39.62400 24.75600
H  3.02700 38.70700 26.15500
H  1.94200 40.11400 26.21500
H  -0.64000 34.32600 22.21400
H  -3.39300 33.60800 21.62400
H  -1.15700 35.72800 20.58400
H  -2.08100 36.60200 21.79900
H  -2.97500 35.45600 20.87100
H  -1.39900 31.69400 22.97400
H  -1.01600 32.14800 21.39500
H  -2.38700 30.50800 20.61300
H  -3.74700 31.09500 21.59000
H  -2.56200 30.04400 22.37800
H  -5.91100 29.23600 25.92200
H  -5.91300 30.24300 24.39400
H  -7.25600 30.36300 25.53800
H  -4.49500 31.20400 30.64500
H  -7.03200 32.85000 33.29100
H  -8.12000 31.42100 33.16500
H  -8.32400 32.78900 32.05200

