158

Mg 1.94000 -1.04400 43.68400
C  5.44800 -0.54200 43.47200
C  1.48100 1.87800 42.06300
C  -1.04600 -2.17300 43.05100
C  2.84500 -4.45800 44.89300
N  3.29000 0.48000 42.84100
C  4.66100 0.49000 42.91900
C  5.13000 1.76300 42.23000
C  3.91800 2.61900 41.95600
C  2.77200 1.64800 42.27800
C  3.94900 3.91500 42.80300
C  5.86600 1.30700 40.84800
C  7.23100 1.94800 40.61200
H  7.23700 3.07300 39.62400
N  0.38700 -0.23100 42.79100
C  0.31900 1.00300 42.20800
C  -0.93200 1.20200 41.72500
C  -1.73400 0.09300 42.20600
C  -0.82200 -0.89600 42.63400
C  -1.36700 2.43000 40.97200
C  -3.29900 0.06300 42.06400
O  -3.90800 1.07000 41.62900
C  -4.07100 -1.13100 42.54200
N  1.06300 -3.04300 44.07300
C  -0.25900 -3.14900 43.70400
C  -0.83500 -4.60200 44.10000
C  0.43700 -5.41100 44.57100
C  1.52800 -4.22900 44.49100
C  -1.96000 -4.54900 45.15800
C  0.77700 -6.68400 43.74300
C  1.33400 -7.91500 44.50500
N  3.71500 -2.23700 44.24500
C  3.91200 -3.50500 44.77200
C  5.34700 -3.66600 45.06800
C  5.93600 -2.51700 44.66500
C  4.90900 -1.70000 44.08400
C  5.99400 -4.87400 45.71600
C  7.22100 -1.75900 44.64300
O  8.28000 -1.90300 45.20100
C  6.94000 -0.44400 43.79200
C  7.32300 0.71500 44.55100
O  6.90600 1.16000 45.60700
O  8.24000 1.40000 43.76100
C  8.52100 2.72400 44.17800
H  1.29800 2.83100 41.56200
H  -2.04400 -2.57000 42.85700
H  3.00700 -5.48800 45.21400
H  5.81700 2.39900 42.78800
H  3.85800 2.79500 40.88200
H  4.79400 4.04700 43.47900
H  2.99800 3.94200 43.33500
H  3.98000 4.81900 42.19400
H  5.20800 1.47400 39.99600
H  5.97900 0.22300 40.86400
H  7.98800 1.20600 40.35900
H  7.65000 2.39700 41.51300
H  -0.49500 2.91100 40.53000
H  -1.80900 3.07300 41.73300
H  -2.07600 2.18400 40.18100
H  -5.12900 -0.93000 42.37400
H  -3.94800 -1.20100 43.62300
H  -3.78800 -1.96900 41.90600
H  -1.25100 -5.02000 43.18300
H  0.41200 -5.75700 45.60400
H  -1.47400 -4.91600 46.06200
H  -2.86400 -5.15200 45.06800
H  -2.33100 -3.52600 45.20400
H  1.46600 -6.28300 43.00000
H  -0.17900 -7.00700 43.33000
H  2.37900 -8.10300 44.25800
H  0.79200 -8.80600 44.19000
H  1.25800 -7.73800 45.57800
H  5.22200 -5.49300 46.17400
H  6.77300 -4.60300 46.42900
H  6.56400 -5.39000 44.94400
H  7.49000 -0.50700 42.85300
H  7.96100 3.41300 43.54700
H  9.57700 2.92500 44.00000
H  8.31100 2.94600 45.22400
Mg -12.53100 15.97100 41.62600
C  -9.38400 14.43400 41.29300
C  -11.15900 18.64900 40.03500
C  -15.57900 17.07800 41.45300
C  -13.79900 12.64100 42.51600
N  -10.51300 16.44300 40.72500
C  -9.38300 15.70600 40.71800
C  -8.24000 16.31700 40.00100
C  -8.69200 17.82500 39.88000
C  -10.20600 17.67400 40.26900
C  -7.97400 18.80300 40.90600
C  -7.91700 15.59100 38.64800
C  -6.42900 15.25700 38.50400
H  -5.83200 15.97900 37.29200
N  -13.22400 17.64600 40.99100
C  -12.55200 18.66500 40.34300
C  -13.42000 19.73100 40.10200
C  -14.70600 19.37700 40.52300
C  -14.53800 17.96400 41.00300
C  -13.10900 20.94400 39.43500
C  -15.94600 20.28600 40.48800
O  -15.88700 21.42500 40.02400
C  -17.26600 19.78100 41.00000
N  -14.42600 14.96600 41.97400
C  -15.51300 15.72900 41.93500
C  -16.78000 14.93600 42.29800
C  -16.21600 13.45000 42.52700
C  -14.72500 13.65900 42.33600
C  -17.44200 15.54700 43.48900
C  -16.76700 12.40100 41.55300
C  -17.14900 11.05900 42.20300
N  -11.79300 14.02100 41.94300
C  -12.39200 12.77800 42.27500
C  -11.33400 11.72800 42.38300
C  -10.14600 12.36200 42.09200
C  -10.53500 13.69300 41.70900
C  -11.51800 10.24400 42.85100
C  -8.71300 12.18300 42.01800
O  -7.96100 11.30400 42.30300
C  -8.10100 13.47100 41.48700
C  -7.10600 13.89200 42.53700
O  -7.33600 13.97900 43.71800
O  -5.86100 14.11300 41.95400
C  -4.87400 14.66100 42.90700
H  -10.82500 19.63400 39.70400
H  -16.57400 17.51100 41.33300
H  -14.05900 11.65500 42.90700
H  -7.32300 16.31900 40.59100
H  -8.53300 18.11500 38.84100
H  -7.20000 18.23900 41.42600
H  -8.65400 19.16900 41.67600
H  -7.53900 19.55700 40.25100
H  -8.17000 16.26100 37.82600
H  -8.61500 14.76300 38.52900
H  -6.26100 14.19000 38.36100
H  -5.86200 15.41900 39.42100
H  -13.29600 21.82900 40.04300
H  -13.85900 21.07400 38.65400
H  -12.17000 20.94900 38.88100
H  -17.69900 19.13100 40.24000
H  -17.84700 20.70300 41.02800
H  -17.19600 19.33900 41.99400
H  -17.49900 14.96800 41.48000
H  -16.42500 13.09200 43.53500
H  -17.30200 16.62600 43.42700
H  -17.05100 15.22000 44.45200
H  -18.52300 15.45100 43.38300
H  -16.06400 12.26800 40.73100
H  -17.73700 12.71200 41.16600
H  -18.19600 10.75700 42.22000
H  -16.90400 11.07100 43.26500
H  -16.44000 10.26500 41.97100
H  -12.12500 10.28400 43.75600
H  -10.59000 9.69300 43.00400
H  -12.16900 9.75900 42.12400
H  -7.67600 13.24100 40.51000
H  -4.03200 13.97200 42.98500
H  -5.20700 14.95100 43.90400
H  -4.55200 15.62100 42.50400

