158

Mg 31.22800 58.09200 40.43400
C  28.51200 56.12100 39.40300
C  33.28200 55.57600 39.34000
C  33.87300 60.10400 40.85400
C  28.99100 60.80400 40.60000
N  30.86700 56.08300 39.49100
C  29.70200 55.48300 39.12300
C  29.89800 54.25800 38.30500
C  31.40300 53.90200 38.59000
C  31.88800 55.26600 39.19900
C  31.57000 52.72300 39.55500
C  29.57700 54.58400 36.75900
C  28.45600 53.78900 35.99700
H  27.47000 54.58000 35.14500
N  33.31700 57.83400 40.32200
C  33.89300 56.77500 39.79800
C  35.35600 56.94100 39.86000
C  35.60000 58.23200 40.32000
C  34.26600 58.78300 40.62000
C  36.34600 55.88500 39.52200
C  36.97400 58.84800 40.58600
O  37.95300 58.24500 40.26500
C  37.11800 60.22600 41.06100
N  31.32200 60.12600 40.69400
C  32.57000 60.74500 40.93000
C  32.46500 62.26900 40.95800
C  30.89400 62.41400 41.07000
C  30.34900 61.05200 40.75900
C  33.18700 63.12900 42.00400
C  30.23400 63.45800 40.08300
C  29.22300 64.44300 40.82500
N  29.13500 58.42500 40.14300
C  28.35900 59.55900 40.28000
C  26.96800 59.28100 40.06500
C  26.96900 57.89800 39.76400
C  28.32200 57.43300 39.83500
C  25.77300 60.22800 40.14000
C  26.07900 56.76500 39.40100
O  24.91400 56.73000 39.22500
C  27.10300 55.55900 39.08300
C  26.65600 54.33100 39.78900
O  26.66100 54.20500 41.03800
O  26.27900 53.40200 38.91600
C  25.64200 52.24100 39.42500
H  33.79700 54.62100 39.21800
H  34.74700 60.73400 41.03300
H  28.23300 61.58500 40.69300
H  29.16600 53.52300 38.63800
H  31.95900 53.56400 37.71600
H  31.95400 52.95200 40.54900
H  32.21800 51.98200 39.08800
H  30.63800 52.15900 39.60100
H  30.55100 54.49800 36.27900
H  29.26100 55.62400 36.67400
H  27.99600 53.24300 36.82100
H  28.89100 53.00900 35.37200
H  37.02300 55.71800 40.35900
H  36.98900 56.11400 38.67200
H  35.85000 54.93100 39.34600
H  36.56900 60.30100 41.99900
H  36.77200 60.83700 40.22700
H  38.16600 60.50100 41.17800
H  32.75600 62.52300 39.93800
H  30.54900 62.70000 42.06400
H  33.51600 63.95400 41.37300
H  34.05200 62.54400 42.31600
H  32.64900 63.40000 42.91300
H  29.70500 63.14200 39.18400
H  30.96900 64.13000 39.64000
H  28.89200 64.05900 41.79000
H  28.29600 64.47300 40.25200
H  29.71900 65.38300 41.06800
H  25.00500 59.85700 39.46100
H  26.01500 61.24300 39.82400
H  25.39600 60.09700 41.15500
H  27.10900 55.42800 38.00100
H  24.69700 52.39000 39.94800
H  26.25300 51.70600 40.15200
H  25.44700 51.56000 38.59700
Mg 9.75000 47.82000 26.51700
C  8.08500 47.61200 29.48300
C  12.45000 48.99200 28.37400
C  11.30100 48.24800 23.54900
C  6.60700 47.45500 24.74800
N  10.20600 48.23400 28.70800
C  9.32400 48.15000 29.71500
C  9.93500 48.67800 31.03400
C  11.09300 49.59400 30.56900
C  11.30100 48.89200 29.12700
C  10.84100 51.22000 30.58900
C  10.35500 47.49200 31.93300
C  9.88600 47.55500 33.38600
H  9.98400 46.19200 34.11800
N  11.68400 48.32100 26.07900
C  12.60800 48.76900 27.00600
C  13.82100 48.74400 26.31700
C  13.51200 48.51200 24.92600
C  12.07600 48.37300 24.76700
C  15.17400 48.97800 27.03200
C  14.47900 48.50600 23.73100
O  14.17900 48.19600 22.60700
C  15.91300 48.66900 23.92400
N  9.01300 47.90100 24.39200
C  9.87400 48.03000 23.40800
C  9.21300 48.06700 22.01000
C  7.68200 47.79400 22.42200
C  7.74400 47.61800 23.97600
C  9.45500 49.30900 21.03700
C  7.01200 46.62100 21.65900
C  6.57300 46.99000 20.20200
N  7.74700 47.46700 26.99600
C  6.64500 47.37300 26.22900
C  5.51900 47.19600 27.09700
C  5.99400 47.27600 28.39400
C  7.38500 47.46400 28.22700
C  4.14800 46.97000 26.58300
C  5.71100 47.17700 29.80500
O  4.69800 46.99300 30.43600
C  7.06000 47.43100 30.50900
C  7.27800 46.18500 31.28300
O  7.73500 45.11700 30.92400
O  6.75900 46.31200 32.51400
C  6.42100 45.07800 33.28200
H  13.32700 49.33700 28.92700
H  11.81800 48.34000 22.59200
H  5.63600 47.30500 24.27200
H  9.18200 49.24600 31.58000
H  11.94400 49.51700 31.24600
H  10.98800 51.40000 29.52400
H  11.76600 51.53600 31.07300
H  9.93300 51.56900 31.08100
H  11.44300 47.46200 31.97800
H  10.18400 46.51300 31.48400
H  8.85500 47.90200 33.32900
H  10.33900 48.40300 33.90000
H  15.27300 48.77400 28.09800
H  15.46500 49.95400 26.64300
H  15.84200 48.18100 26.70300
H  16.43100 48.77800 22.97100
H  16.19600 47.74700 24.43100
H  16.29800 49.49800 24.51900
H  9.52800 47.21600 21.40600
H  7.07500 48.69000 22.29300
H  8.52300 49.72400 20.65400
H  10.02300 49.03300 20.14900
H  10.00800 50.06800 21.59100
H  6.09800 46.37600 22.19900
H  7.65200 45.74400 21.76000
H  6.71700 48.05200 20.00200
H  5.54000 46.75900 19.94100
H  7.13800 46.37500 19.50200
H  4.07000 46.36400 25.68100
H  3.61700 47.91100 26.43800
H  3.48600 46.48600 27.30000
H  6.93800 48.21600 31.25500
H  6.87300 45.13200 34.27200
H  6.65000 44.11100 32.83400
H  5.34500 45.12600 33.44500

