158

Mg -0.46600 6.98600 24.44600
C  0.54600 9.03700 27.17500
C  0.19800 4.30200 26.31200
C  -1.29000 5.20500 21.75200
C  -0.43000 9.86400 22.45700
N  0.54700 6.77400 26.41400
C  0.54800 7.69900 27.42900
C  0.55800 6.99900 28.87900
C  0.43200 5.53600 28.51000
C  0.41200 5.54200 26.96100
C  1.46400 4.50700 28.99000
C  -0.63100 7.39500 29.76100
C  -0.25300 7.79800 31.23200
H  1.08400 7.32000 31.76100
N  -0.54800 4.92900 24.09400
C  -0.21800 4.03100 24.98200
C  -0.47500 2.71300 24.37300
C  -0.96100 2.91700 23.03900
C  -0.97500 4.41800 22.89100
C  -0.13900 1.44400 25.17400
C  -1.23200 1.89100 21.94700
O  -1.62800 2.18600 20.82500
C  -0.89000 0.40600 22.13000
N  -0.81800 7.44000 22.45700
C  -1.18600 6.57400 21.49600
C  -1.35900 7.11200 20.13400
C  -1.26900 8.63400 20.43400
C  -0.75900 8.70600 21.90400
C  -0.31000 6.61700 19.11400
C  -2.57400 9.29200 20.37000
C  -2.66900 10.34100 19.19900
N  -0.03500 8.99600 24.66700
C  -0.02700 10.05800 23.78000
C  0.33300 11.33600 24.38600
C  0.46100 10.96900 25.72500
C  0.32100 9.56700 25.89500
C  0.41800 12.73000 23.79500
C  0.69200 11.49600 27.06400
O  0.90100 12.65700 27.42300
C  0.70600 10.23500 28.09800
C  2.05500 10.36300 28.80500
O  3.17900 10.23400 28.35200
O  1.79000 10.92000 30.07800
C  2.82200 11.22300 31.03200
H  0.24100 3.43000 26.96700
H  -1.50400 4.53700 20.91500
H  -0.52100 10.82800 21.95200
H  1.49100 7.36200 29.30900
H  -0.48400 5.06800 28.87100
H  2.14700 4.98200 29.69400
H  2.11700 4.28600 28.14600
H  1.01000 3.61700 29.42600
H  -1.40200 6.62700 29.81700
H  -1.15900 8.20100 29.25100
H  -1.04400 7.34900 31.83200
H  -0.42400 8.86600 31.36700
H  -0.42000 1.48300 26.22700
H  0.92900 1.22500 25.20200
H  -0.66400 0.62400 24.68400
H  -1.69900 -0.03900 22.70900
H  0.12700 0.47300 22.51700
H  -0.84600 -0.13300 21.18400
H  -2.29900 6.68400 19.78700
H  -0.50200 9.17900 19.88300
H  0.66500 6.34100 19.51600
H  -0.15700 7.50600 18.50200
H  -0.69400 5.78500 18.52500
H  -2.82600 9.78100 21.31100
H  -3.34300 8.54600 20.16800
H  -3.44200 10.05000 18.48700
H  -1.73300 10.44400 18.65000
H  -2.94500 11.29900 19.63900
H  -0.23200 12.90000 22.93700
H  1.44300 12.89800 23.46500
H  0.08400 13.46400 24.52800
H  -0.03300 10.44500 28.87100
H  3.04000 12.28900 30.96300
H  3.72300 10.62500 30.89100
H  2.38300 11.04500 32.01300
Mg 42.98600 42.21000 25.75900
C  41.80000 44.58300 27.98900
C  43.98300 40.18800 28.30000
C  43.66300 39.87500 23.38400
C  41.94200 44.43400 23.10800
N  43.05100 42.49300 27.85400
C  42.46200 43.44000 28.62100
C  42.64700 43.17800 30.09600
C  43.68500 42.00600 30.08800
C  43.56700 41.50400 28.63700
C  45.07400 42.40400 30.47700
C  41.33700 42.82900 30.88000
C  41.10900 43.46200 32.26900
H  42.24400 43.50300 33.29200
N  43.87300 40.33800 25.81300
C  44.17500 39.63500 26.95100
C  44.63600 38.29500 26.61000
C  44.48900 38.16800 25.20600
C  43.97800 39.47700 24.71700
C  45.23200 37.34300 27.64800
C  44.67500 36.93300 24.33400
O  44.56400 37.03300 23.09700
C  44.99700 35.62000 24.92700
N  42.97300 42.15100 23.46200
C  43.15300 41.04200 22.78100
C  42.96600 41.27000 21.23100
C  42.15500 42.65500 21.23700
C  42.42700 43.14100 22.68200
C  44.24300 41.31900 20.47800
C  40.62900 42.49000 20.90500
C  39.94400 41.47700 21.82500
N  42.25400 44.26900 25.51000
C  41.90400 45.04000 24.40800
C  41.27000 46.31900 24.87500
C  41.29800 46.18900 26.27800
C  41.81100 44.88100 26.59300
C  40.82100 47.48800 24.05800
C  40.93200 46.83300 27.52500
O  40.38200 47.87600 27.68800
C  41.11500 45.78900 28.69100
C  41.85400 46.37000 29.74500
O  43.12000 46.44200 29.78000
O  40.99200 46.77700 30.79800
C  41.71900 47.14500 32.09500
H  44.24400 39.63100 29.20200
H  43.90200 39.13200 22.62000
H  41.58400 45.07900 22.30300
H  43.04400 44.07700 30.56800
H  43.43800 41.23000 30.81300
H  45.77300 42.31900 29.64400
H  45.35900 41.70800 31.26600
H  45.25100 43.41900 30.83300
H  41.19900 41.76300 31.06100
H  40.60400 43.09700 30.11800
H  40.20500 43.06200 32.72800
H  40.74500 44.47000 32.07300
H  45.47300 37.81100 28.60300
H  46.18800 36.93200 27.32500
H  44.54600 36.50900 27.79600
H  44.27400 35.38100 25.70600
H  45.90500 35.67700 25.52900
H  44.99200 34.83800 24.16800
H  42.29200 40.47500 20.91300
H  42.51500 43.22200 20.37800
H  45.06300 41.24400 21.19100
H  44.26500 42.19900 19.83500
H  44.18400 40.44800 19.82500
H  40.55300 42.16200 19.86900
H  40.13000 43.45900 20.90600
H  39.62800 40.66000 21.17600
H  39.07200 41.92000 22.30500
H  40.65100 40.99700 22.50100
H  41.55700 48.25100 24.31200
H  39.85800 47.83200 24.43500
H  40.78400 47.33400 22.97900
H  40.17400 45.52000 29.17100
H  41.47700 48.17500 32.35900
H  42.80500 47.06100 32.10600
H  41.47800 46.44900 32.89800

