158

Mg -0.04400 7.76500 27.17800
C  0.74500 9.58700 29.93800
C  0.08900 4.99600 29.17500
C  -0.24700 5.80600 24.31900
C  0.33400 10.56500 25.10100
N  0.45300 7.30000 29.37800
C  0.57100 8.26600 30.33400
C  0.40700 7.66500 31.78000
C  0.61100 6.11600 31.45800
C  0.31800 6.12400 29.95300
C  1.96900 5.58300 31.67900
C  -0.91600 7.99000 32.47200
C  -0.92800 8.44700 33.93900
H  0.19900 7.88900 34.81000
N  -0.07800 5.66500 26.77500
C  -0.13000 4.68800 27.74700
C  -0.35000 3.36300 27.15200
C  -0.54300 3.65200 25.70700
C  -0.33100 5.08400 25.57300
C  -0.49500 2.04100 27.86300
C  -0.92900 2.77600 24.55500
O  -1.28400 3.28400 23.47700
C  -0.92900 1.28800 24.67800
N  0.04000 8.12400 25.03400
C  -0.21800 7.20200 24.07500
C  -0.53400 7.77300 22.67000
C  -0.30600 9.33000 23.01000
C  0.01100 9.36100 24.44900
C  0.50200 7.25500 21.57400
C  -1.48300 10.20200 22.69100
C  -2.09400 9.85600 21.32100
N  0.41800 9.75000 27.38000
C  0.55300 10.78100 26.47000
C  1.09700 11.91500 27.14100
C  1.06500 11.57100 28.52100
C  0.70000 10.16000 28.60700
C  1.52600 13.12500 26.39100
C  1.39700 12.03000 29.86900
O  1.88200 13.10500 30.25100
C  0.91000 10.81500 30.83000
C  1.86700 10.63800 31.94500
O  2.96700 10.14900 31.82500
O  1.38900 11.32200 33.01100
C  2.38200 11.55900 34.00200
H  0.09500 4.11200 29.81700
H  -0.36600 5.31800 23.35000
H  0.33700 11.52800 24.58700
H  1.26300 8.09000 32.30400
H  0.01000 5.46000 32.08800
H  2.76700 6.30700 31.84500
H  2.22400 4.97600 30.80900
H  2.00100 4.93900 32.55800
H  -1.63400 7.17100 32.44400
H  -1.32800 8.80200 31.87200
H  -1.88600 8.32000 34.44300
H  -0.68600 9.51000 33.93500
H  -0.26200 2.09000 28.92600
H  0.06100 1.16500 27.52700
H  -1.49500 1.62600 27.73500
H  -1.38200 0.87400 23.77700
H  -1.63700 1.13800 25.49200
H  0.07800 0.95500 24.93100
H  -1.56300 7.44800 22.51700
H  0.48000 9.75700 22.38700
H  1.30100 6.71600 22.08200
H  0.89200 7.99600 20.87700
H  0.00800 6.50900 20.95000
H  -1.45100 11.29000 22.75800
H  -2.19100 10.00400 23.49500
H  -1.64800 9.02400 20.77600
H  -1.89000 10.70500 20.66900
H  -3.16300 9.66300 21.41100
H  2.23000 13.70700 26.98600
H  0.63700 13.65500 26.04900
H  1.87600 12.75500 25.42800
H  -0.04300 11.06300 31.29700
H  2.86900 12.53400 33.98700
H  3.19700 10.84300 34.10900
H  1.90700 11.50300 34.98200
Mg 40.70700 9.76400 29.26300
C  42.61900 10.82800 31.93600
C  38.63400 8.01200 31.42900
C  39.34800 7.87700 26.52700
C  43.24000 10.87700 27.07100
N  40.76000 9.35900 31.51700
C  41.50700 10.08100 32.41300
C  41.02400 9.82600 33.81100
C  39.64500 9.14200 33.58800
C  39.69600 8.74500 32.09300
C  39.37600 7.86600 34.49500
C  40.98200 10.99100 34.75600
C  41.46200 10.75600 36.21900
H  40.86500 11.47100 37.38200
N  39.14800 8.28500 29.00800
C  38.32500 7.78100 30.02300
C  37.29200 6.98700 29.45200
C  37.49900 6.92700 28.08400
C  38.70200 7.74300 27.81800
C  36.15600 6.30600 30.36400
C  36.63600 6.23900 27.00800
O  36.86800 6.40300 25.79900
C  35.44500 5.37800 27.37000
N  41.26100 9.33700 27.11100
C  40.49400 8.55600 26.22800
C  40.91300 8.87100 24.81800
C  42.19000 9.78800 25.03000
C  42.27100 10.00200 26.48800
C  41.19100 7.55900 24.06900
C  42.26500 10.98600 24.11500
C  41.75400 12.36200 24.61800
N  42.52400 10.82100 29.41100
C  43.45300 11.19900 28.43100
C  44.58200 11.85800 29.08200
C  44.28300 11.77700 30.44800
C  43.03200 11.07400 30.60300
C  45.68500 12.55000 28.39500
C  44.72300 12.18300 31.75400
O  45.67900 12.79000 32.17000
C  43.65000 11.57300 32.72200
C  44.39300 10.72100 33.77200
O  44.66700 9.54200 33.79200
O  44.82300 11.59600 34.74300
C  45.51700 11.14100 35.90100
H  37.85700 7.68900 32.12500
H  38.89400 7.35800 25.68100
H  43.91000 11.33800 26.34200
H  41.80700 9.17900 34.20600
H  38.79100 9.81200 33.69100
H  39.84600 7.00400 34.02100
H  38.33600 7.63200 34.72300
H  39.80500 7.93800 35.49400
H  39.91200 11.17700 34.84200
H  41.37600 11.90500 34.31100
H  42.48900 11.12100 36.24900
H  41.33800 9.73800 36.58800
H  36.24500 5.22000 30.32700
H  35.17700 6.53700 29.94400
H  36.14200 6.71200 31.37600
H  34.96100 5.16200 26.41700
H  34.80800 5.98700 28.01100
H  35.76400 4.53400 27.98200
H  40.11300 9.48000 24.39700
H  43.08500 9.21000 24.80100
H  42.18600 7.55900 23.62200
H  40.56100 7.33400 23.20900
H  41.21900 6.69200 24.72900
H  41.76900 10.73100 23.17900
H  43.29700 11.17200 23.81800
H  42.58600 13.03400 24.82900
H  41.19800 12.24600 25.54800
H  41.15100 12.81000 23.82800
H  45.47000 12.59100 27.32700
H  46.57100 11.92400 28.50000
H  45.86600 13.47300 28.94700
H  43.08100 12.33700 33.25200
H  44.86200 11.26400 36.76300
H  46.30900 11.87100 36.06800
H  45.83500 10.09800 35.89200

