158

Mg 2.06200 -2.26400 43.92300
C  5.41000 -1.57600 43.38500
C  1.14000 0.55200 42.26700
C  -1.25000 -3.29000 43.95400
C  3.04800 -5.39300 45.20800
N  3.22600 -0.75900 42.77400
C  4.58500 -0.59600 42.81000
C  5.05000 0.75700 42.15300
C  3.63800 1.45500 41.96100
C  2.57500 0.38500 42.34200
C  3.35400 2.81900 42.67900
C  5.94500 0.44800 40.89100
C  7.05300 1.51400 40.61900
H  6.79400 2.51200 39.54800
N  0.15000 -1.46600 43.27900
C  0.05500 -0.29400 42.59700
C  -1.32000 0.04400 42.40600
C  -2.06500 -0.90900 43.07500
C  -1.07400 -2.03800 43.33100
C  -1.79300 1.33900 41.75900
C  -3.58000 -0.98400 43.42500
O  -4.32900 -0.16700 42.93700
C  -4.11100 -1.98700 44.37400
N  1.01900 -4.20600 44.35600
C  -0.32000 -4.33100 44.28600
C  -0.76100 -5.70500 44.91800
C  0.63500 -6.33400 45.33400
C  1.65400 -5.26700 44.98700
C  -1.76500 -5.55300 46.18100
C  0.99100 -7.70300 44.83000
C  1.86000 -8.68900 45.66800
N  3.85100 -3.38300 44.22400
C  4.10100 -4.60900 44.77500
C  5.54300 -4.83500 44.78200
C  6.05600 -3.65800 44.30900
C  5.00700 -2.79700 43.94800
C  6.22100 -5.97500 45.37100
C  7.32900 -2.92300 44.10500
O  8.45900 -3.24500 44.35000
C  6.88800 -1.57700 43.46700
C  7.39800 -0.32400 44.22000
O  8.25600 0.41800 43.87000
O  6.72500 -0.02500 45.38000
C  6.96800 1.28800 46.08300
H  0.88500 1.41700 41.65200
H  -2.28800 -3.62500 44.01400
H  3.25300 -6.37800 45.63200
H  5.58700 1.30600 42.92700
H  3.49300 1.60400 40.89200
H  2.45000 2.84100 43.28700
H  3.23500 3.58000 41.90800
H  4.23500 2.97300 43.30200
H  5.25700 0.42500 40.04600
H  6.41200 -0.53200 40.99300
H  7.94200 1.00900 40.24100
H  7.29900 2.01400 41.55600
H  -0.99300 2.03100 41.49700
H  -2.57600 1.83400 42.33300
H  -2.14000 0.92200 40.81300
H  -3.29400 -2.20600 45.06200
H  -4.34700 -2.93100 43.88300
H  -5.06600 -1.66100 44.78700
H  -1.27300 -6.27600 44.14300
H  0.74700 -6.25200 46.41500
H  -1.40700 -5.91700 47.14400
H  -2.73900 -6.02000 46.03400
H  -1.93300 -4.49600 46.39100
H  1.42100 -7.44500 43.86200
H  0.01700 -8.18600 44.76100
H  2.61200 -9.11700 45.00400
H  1.32000 -9.59300 45.94600
H  2.44700 -8.13800 46.40300
H  6.36400 -6.79000 44.66200
H  5.63500 -6.26500 46.24300
H  7.21800 -5.70800 45.72200
H  7.51300 -1.39300 42.59300
H  6.52200 1.45600 47.06400
H  6.57900 2.03400 45.39000
H  8.01700 1.56300 46.18600
Mg -2.63100 34.97600 26.25800
C  -4.31900 33.03600 28.74400
C  -1.08800 36.72600 28.60700
C  -1.45300 36.81600 23.79600
C  -4.65300 33.19900 23.85500
N  -2.91100 34.99300 28.44100
C  -3.42200 34.04900 29.23200
C  -3.00700 34.30100 30.76700
C  -2.08100 35.48700 30.60800
C  -1.97300 35.73300 29.09400
C  -2.71700 36.81400 31.36300
C  -2.24200 33.07300 31.37900
C  -2.88000 32.52100 32.66000
H  -2.02100 32.42100 33.91700
N  -1.44500 36.65100 26.15600
C  -0.88200 37.17800 27.26400
C  -0.01800 38.28900 26.82600
C  0.07400 38.19200 25.38000
C  -0.97600 37.21400 25.04600
C  0.66000 39.22200 27.78800
C  0.98500 38.94100 24.39100
O  0.86200 38.66700 23.18000
C  2.13900 39.75500 24.83600
N  -3.18800 35.08600 24.10600
C  -2.41000 35.87600 23.35300
C  -2.81000 35.85200 21.85600
C  -3.54000 34.45000 21.81700
C  -3.85200 34.23300 23.32800
C  -3.73000 37.00900 21.36200
C  -2.70500 33.31600 21.12300
C  -1.53200 32.66200 22.00300
N  -4.17300 33.45300 26.21900
C  -4.82000 32.80200 25.19400
C  -5.63900 31.71600 25.64600
C  -5.46200 31.75200 27.06600
C  -4.53000 32.81600 27.35800
C  -6.37300 30.80000 24.79100
C  -5.73700 31.10800 28.30300
O  -6.46200 30.16900 28.56000
C  -5.02600 31.86800 29.45100
C  -6.04200 32.37600 30.39000
O  -6.89000 33.27200 30.27100
O  -5.85600 31.76900 31.61100
C  -6.71800 32.30800 32.69200
H  -0.44900 37.28100 29.29800
H  -0.96100 37.28700 22.94200
H  -5.16300 32.62100 23.08200
H  -3.89900 34.48500 31.36600
H  -1.08600 35.39100 31.04200
H  -2.88700 37.59100 30.61700
H  -1.98600 37.24200 32.05000
H  -3.67000 36.58000 31.83600
H  -1.20900 33.28400 31.65300
H  -2.15200 32.35000 30.56700
H  -3.22300 31.52000 32.39700
H  -3.85600 32.99300 32.77700
H  0.93100 40.18600 27.35700
H  1.59600 38.73300 28.05500
H  0.07700 39.30200 28.70500
H  1.95200 40.81800 24.99300
H  2.89300 39.83500 24.05200
H  2.64300 39.41300 25.74000
H  -1.89100 35.73500 21.28300
H  -4.45100 34.49800 21.22000
H  -4.77300 36.70100 21.42700
H  -3.46700 37.48700 20.41800
H  -3.56500 37.74100 22.15300
H  -2.24300 33.82600 20.27900
H  -3.29600 32.59400 20.56000
H  -1.70000 31.68300 22.45100
H  -1.34600 33.38600 22.79700
H  -0.57900 32.54400 21.48600
H  -6.07400 30.92100 23.75000
H  -7.40300 31.15200 24.84600
H  -6.45200 29.75100 25.07800
H  -4.38800 31.27400 30.10400
H  -6.16900 33.13800 33.13600
H  -6.91500 31.49100 33.38600
H  -7.70600 32.63800 32.37200

