158

Mg 48.61800 35.17200 27.44500
C  46.65600 33.87200 30.06900
C  49.30100 37.92100 29.34600
C  50.37800 36.28500 24.84700
C  47.55200 32.34600 25.49600
N  48.14900 35.70700 29.48900
C  47.40100 35.01100 30.42400
C  47.74500 35.58800 31.80600
C  47.94400 37.09400 31.46800
C  48.49500 36.95000 29.99100
C  46.80400 38.19100 31.64900
C  48.94500 34.78600 32.54900
C  48.98500 34.64900 34.09700
H  48.11800 35.56700 34.87300
N  49.56200 36.92100 27.10000
C  49.77600 37.88800 28.03000
C  50.64300 38.88600 27.40600
C  51.08600 38.39000 26.12300
C  50.36600 37.13300 25.97900
C  50.98100 40.25800 28.02600
C  52.16500 38.92300 25.22000
O  52.43900 38.40300 24.17700
C  52.97800 40.15500 25.63800
N  48.80100 34.45100 25.47600
C  49.63400 35.10700 24.62400
C  49.84200 34.37300 23.32500
C  48.92000 33.01900 23.51200
C  48.38400 33.29200 24.93700
C  49.34000 35.33100 22.24100
C  49.84200 31.65600 23.31900
C  49.50800 30.80600 22.06400
N  47.38300 33.50400 27.64700
C  47.05700 32.41900 26.84000
C  46.21100 31.52700 27.48900
C  46.04800 32.11100 28.75000
C  46.77700 33.27200 28.78100
C  45.60800 30.24600 26.98700
C  45.33000 31.89300 29.99500
O  44.49100 31.07500 30.27200
C  45.79400 33.01200 30.96700
C  46.56100 32.33200 32.06200
O  47.57000 31.66100 31.99900
O  45.72300 32.40600 33.16000
C  46.07400 31.48300 34.19500
H  49.57600 38.80700 29.92300
H  50.98000 36.60600 23.99400
H  47.23900 31.41500 25.01800
H  46.88100 35.53700 32.47000
H  48.75400 37.47600 32.08900
H  46.30000 38.42600 30.71100
H  47.07800 39.10200 32.18100
H  45.98500 37.75900 32.22400
H  49.89600 35.22200 32.24500
H  48.89000 33.77900 32.13500
H  49.99600 34.65100 34.50500
H  48.65800 33.63900 34.34300
H  50.18000 40.51900 28.71800
H  50.87900 40.92700 27.17100
H  51.89500 40.43500 28.59300
H  53.83100 40.21900 24.96200
H  53.20100 40.06500 26.70100
H  52.27800 40.96800 25.44800
H  50.90300 34.12900 23.29600
H  48.07100 33.17300 22.84600
H  48.64600 36.08600 22.61100
H  48.87000 34.84900 21.38400
H  50.15200 35.92300 21.82000
H  49.87700 30.93400 24.13400
H  50.84900 31.99900 23.08400
H  49.26400 29.82500 22.47200
H  50.37900 30.70100 21.41800
H  48.65100 31.22800 21.53900
H  45.39900 30.23700 25.91800
H  44.72000 30.02100 27.57700
H  46.37100 29.51100 27.24600
H  45.09900 33.71100 31.43100
H  45.51400 31.61800 35.12000
H  47.08500 31.55800 34.59500
H  46.01200 30.44200 33.87700
Mg 36.10400 49.08500 25.60800
C  36.46500 47.14600 28.47400
C  34.82300 51.61100 27.62600
C  35.37900 50.84500 22.81600
C  37.08900 46.31700 23.57000
N  35.50100 49.16500 27.77500
C  35.95900 48.42400 28.79000
C  35.86900 49.10200 30.14000
C  35.09200 50.40800 29.77500
C  35.16200 50.40400 28.28500
C  33.60600 50.46600 30.27400
C  37.20600 49.22700 30.97400
C  37.09200 49.24400 32.50600
H  35.71100 49.53600 33.10500
N  35.23200 50.93600 25.29500
C  34.86700 51.86200 26.24400
C  34.48600 53.10300 25.60600
C  34.43100 52.80800 24.20400
C  35.02400 51.46400 24.04400
C  34.25300 54.40000 26.43600
C  34.03500 53.73600 23.08400
O  34.19400 53.45800 21.91600
C  33.47900 55.14200 23.38100
N  36.46500 48.74000 23.48700
C  35.96800 49.60100 22.53100
C  36.10600 49.04100 21.08200
C  36.80600 47.62900 21.27200
C  36.78100 47.53900 22.82500
C  34.71200 49.02500 20.39300
C  38.29700 47.55400 20.70800
C  38.72900 46.22900 19.94000
N  36.74200 47.22600 25.90100
C  37.06900 46.19300 25.02300
C  37.50700 45.02800 25.72900
C  37.20900 45.36000 27.05800
C  36.73100 46.70000 27.17700
C  38.24500 43.88200 25.22700
C  37.19800 44.84000 28.45100
O  37.61900 43.75800 28.78700
C  36.62500 45.98100 29.37300
C  35.39500 45.55300 30.00700
O  34.27000 45.28600 29.53900
O  35.56400 45.74200 31.35300
C  34.40100 45.47000 32.28100
H  34.49600 52.43700 28.26100
H  35.32500 51.43700 21.90000
H  37.29700 45.41000 22.99800
H  35.13400 48.47200 30.64000
H  35.50500 51.38100 30.04400
H  33.43700 51.47800 30.64100
H  33.29100 49.74600 31.02900
H  32.92100 50.28000 29.44700
H  37.59700 50.22900 30.79900
H  37.91300 48.48800 30.59600
H  37.78900 49.98900 32.89100
H  37.49600 48.25700 32.73200
H  33.18200 54.58500 26.50800
H  34.66300 55.17000 25.78100
H  34.82500 54.41800 27.36400
H  34.35900 55.77800 23.48000
H  32.65800 55.09900 24.09600
H  32.99100 55.49300 22.47100
H  36.77100 49.74600 20.58300
H  36.17200 46.79600 20.96800
H  34.72800 49.68200 19.52300
H  33.84700 49.18900 21.03700
H  34.59000 48.06400 19.89500
H  39.09000 47.60100 21.45400
H  38.42300 48.41500 20.05100
H  39.40900 45.59000 20.50300
H  39.15100 46.54700 18.98700
H  37.87500 45.61900 19.64600
H  38.74200 43.55400 26.14000
H  38.85400 44.18500 24.37500
H  37.55500 43.07800 24.96900
H  37.48200 46.15400 30.02400
H  33.54500 44.95300 31.84800
H  34.06200 46.39100 32.75700
H  34.77100 44.81500 33.07000

