158

Mg 1.17500 -1.82700 43.24700
C  4.45300 -0.63500 43.14700
C  0.05900 1.14700 41.85700
C  -1.94600 -3.29700 42.69600
C  2.38300 -4.90100 44.18900
N  2.13000 0.06700 42.68000
C  3.46200 0.27600 42.69800
C  3.74300 1.66700 42.01000
C  2.35700 2.42800 41.88500
C  1.45900 1.15700 42.17000
C  2.21000 3.66100 42.77200
C  4.51900 1.51400 40.60200
C  5.98900 2.13600 40.44100
H  6.28300 2.73300 39.05600
N  -0.74400 -1.16100 42.40900
C  -0.95900 0.10800 41.94800
C  -2.33900 0.19200 41.52700
C  -2.98200 -1.03600 41.88800
C  -1.90000 -1.92000 42.38000
C  -2.81200 1.44700 40.62000
C  -4.54200 -1.32100 41.76200
O  -5.22500 -0.44600 41.16100
C  -5.20900 -2.65400 42.21600
N  0.28000 -3.88100 43.50900
C  -1.00200 -4.22700 43.30100
C  -1.34800 -5.76700 43.64900
C  0.12800 -6.18300 43.95800
C  1.00300 -4.94400 43.86000
C  -2.30500 -5.96400 44.83400
C  0.71400 -7.26600 42.97100
C  1.12800 -8.55500 43.63800
N  3.09100 -2.64900 43.60800
C  3.38600 -3.94100 44.02400
C  4.85000 -4.03200 44.19900
C  5.36200 -2.74000 43.87400
C  4.18100 -1.95300 43.57700
C  5.79000 -5.18100 44.47700
C  6.53000 -1.88000 43.73800
O  7.73400 -2.08500 43.91200
C  5.90600 -0.52100 43.11500
C  6.47100 0.57200 43.91700
O  6.30300 0.63500 45.14900
O  7.30300 1.42900 43.25900
C  7.81200 2.55500 44.04200
H  -0.16000 2.19100 41.62500
H  -2.90000 -3.81700 42.58700
H  2.84500 -5.76000 44.68000
H  4.38600 2.07700 42.78900
H  1.97200 2.63600 40.88700
H  2.27200 4.46000 42.03300
H  2.93700 3.70400 43.58300
H  1.18900 3.59700 43.14900
H  3.88700 1.76500 39.75000
H  4.61400 0.43700 40.46200
H  6.62900 1.31000 40.75000
H  6.11300 2.98100 41.11800
H  -3.42800 1.11100 39.78600
H  -2.04400 2.05600 40.14500
H  -3.48500 2.07200 41.20800
H  -6.25500 -2.69200 41.91100
H  -4.87400 -2.56400 43.24900
H  -4.72900 -3.45100 41.64800
H  -1.62200 -6.20700 42.69000
H  0.27500 -6.58500 44.96000
H  -2.80400 -5.08100 45.23200
H  -1.77500 -6.56500 45.57300
H  -3.14300 -6.48100 44.36600
H  1.62800 -6.95600 42.46400
H  0.01500 -7.43600 42.15300
H  1.76100 -8.25100 44.47100
H  1.65500 -9.29100 43.03000
H  0.26600 -9.10300 44.01900
H  5.84900 -5.84500 43.61500
H  5.39300 -5.76600 45.30700
H  6.74800 -4.81600 44.84900
H  6.29800 -0.44400 42.10100
H  8.50000 2.97500 43.30900
H  8.34800 2.19400 44.91900
H  6.96300 3.19000 44.29500
Mg -5.68600 25.17000 26.04700
C  -4.23400 26.65200 28.84800
C  -7.35600 23.07200 28.08300
C  -6.67600 23.44000 23.27900
C  -3.40300 26.99500 24.03700
N  -5.55400 24.74300 28.21000
C  -5.09800 25.57200 29.20400
C  -5.66300 25.22600 30.62100
C  -6.18200 23.78600 30.26900
C  -6.37000 23.80000 28.74400
C  -5.22700 22.58700 30.68200
C  -6.71800 26.25200 31.26700
C  -6.88400 26.16600 32.80800
H  -6.11200 25.08500 33.56500
N  -7.00600 23.58700 25.71800
C  -7.65600 22.90200 26.69200
C  -8.63400 21.97700 26.12100
C  -8.47400 22.11900 24.67200
C  -7.37600 23.16200 24.47600
C  -9.53300 21.12800 26.99300
C  -9.26200 21.43900 23.52900
O  -8.95700 21.63100 22.31000
C  -10.45800 20.62200 23.76400
N  -5.28100 25.44900 23.84500
C  -5.71100 24.51400 22.98200
C  -4.90900 24.54400 21.58000
C  -3.95200 25.79900 21.84000
C  -4.28500 26.16400 23.28300
C  -4.19600 23.09900 21.28700
C  -4.19900 26.99500 20.85000
C  -5.17800 28.07200 21.28500
N  -4.30300 26.67800 26.31300
C  -3.42400 27.33200 25.43800
C  -2.56400 28.24800 26.20700
C  -2.92900 28.10900 27.52000
C  -3.82100 27.00500 27.57700
C  -1.63800 29.22500 25.68100
C  -2.62100 28.53000 28.82200
O  -1.90200 29.37400 29.25100
C  -3.48700 27.57400 29.75000
C  -2.67800 26.88700 30.73100
O  -2.13100 25.82700 30.45100
O  -2.64600 27.51500 31.93400
C  -2.14300 26.71800 33.10200
H  -7.92300 22.34600 28.66900
H  -6.84000 22.80000 22.41000
H  -2.61600 27.38100 23.38500
H  -4.86300 25.18300 31.36000
H  -7.12300 23.48300 30.72800
H  -5.83100 21.84500 31.20500
H  -4.38300 22.96200 31.26100
H  -4.69600 22.19000 29.81700
H  -7.61000 26.09400 30.66000
H  -6.51200 27.27800 30.96100
H  -7.93900 26.07800 33.06900
H  -6.58000 27.12900 33.21800
H  -10.39600 21.62100 27.43900
H  -8.91400 20.61900 27.73300
H  -9.83300 20.25900 26.40700
H  -10.13300 19.59500 23.92900
H  -10.93400 20.62400 22.78300
H  -11.10200 21.06400 24.52400
H  -5.61300 24.77000 20.77900
H  -2.93900 25.41200 21.95800
H  -3.17900 23.22600 20.91700
H  -4.77000 22.64800 20.47700
H  -4.23900 22.34800 22.07500
H  -4.45200 26.58900 19.87100
H  -3.19500 27.39400 20.70400
H  -5.66000 28.29600 20.33400
H  -4.65800 28.89900 21.76900
H  -6.02100 27.68500 21.85800
H  -1.21500 28.82800 24.75800
H  -0.74100 29.30400 26.29500
H  -2.03300 30.22600 25.50900
H  -4.21700 28.23000 30.22300
H  -1.28700 26.10000 32.83100
H  -2.91500 26.03500 33.45800
H  -1.85400 27.34100 33.94800

