158

Mg 40.75500 7.78900 29.49000
C  42.64600 9.22000 31.96800
C  38.53600 6.66400 31.80900
C  38.91300 6.61000 26.92600
C  43.21300 8.68300 27.11600
N  40.59900 7.96100 31.62000
C  41.42200 8.64200 32.46900
C  41.00100 8.60900 33.97300
C  39.96600 7.43700 33.85300
C  39.60700 7.38900 32.34800
C  40.24600 6.13700 34.56800
C  40.47900 10.00700 34.52700
C  39.75500 10.02400 35.90000
H  40.56800 10.63200 37.05500
N  39.08400 6.73800 29.40200
C  38.27300 6.41900 30.46200
C  37.21700 5.58200 29.94600
C  37.15900 5.72000 28.50800
C  38.42200 6.41900 28.24300
C  36.31300 4.87500 30.99500
C  36.11500 5.28100 27.56700
O  36.30600 5.26400 26.34700
C  34.76800 4.93600 28.15900
N  41.03600 7.64000 27.37900
C  40.20000 7.03800 26.59900
C  40.56900 7.16700 25.04800
C  41.82100 8.02900 25.17200
C  42.04300 8.07300 26.62000
C  40.86900 5.74700 24.46600
C  41.91100 9.42600 24.30500
C  40.90400 10.44200 24.73600
N  42.57400 8.74100 29.53200
C  43.47400 9.00900 28.46100
C  44.58000 9.70900 28.98700
C  44.27000 9.89800 30.34300
C  43.05100 9.23300 30.62500
C  45.79900 10.24300 28.16200
C  44.72000 10.39900 31.61600
O  45.77800 11.00300 31.77000
C  43.72100 10.07500 32.69100
C  44.31900 9.45500 33.93900
O  44.88700 8.38700 33.99100
O  44.20500 10.29400 34.96400
C  44.64800 9.73600 36.30900
H  37.76900 6.24100 32.46100
H  38.30700 6.32600 26.06300
H  43.89100 9.09400 26.36500
H  41.81000 8.36200 34.66000
H  39.02400 7.83900 34.22500
H  39.46900 5.97300 35.31500
H  41.24200 6.10100 35.00700
H  40.23700 5.36700 33.79600
H  39.90600 10.45500 33.71600
H  41.28400 10.74100 34.54100
H  39.52800 9.00000 36.20000
H  38.77000 10.42400 35.66200
H  35.46100 5.55200 31.05700
H  36.76400 4.52600 31.92400
H  35.77200 3.99300 30.65400
H  34.60800 5.44900 29.10700
H  34.94200 3.89100 28.41600
H  33.98900 5.04600 27.40600
H  39.75600 7.55000 24.43100
H  42.66100 7.44600 24.79600
H  41.83000 5.66000 23.95900
H  40.15800 5.53100 23.66900
H  40.63000 4.99600 25.21900
H  41.56400 9.14000 23.31200
H  42.91900 9.83500 24.37800
H  39.92400 9.96700 24.69200
H  40.88100 11.25100 24.00600
H  41.19300 10.77200 25.73300
H  45.47900 10.93700 27.38400
H  46.38000 9.43200 27.72300
H  46.48000 10.76700 28.83200
H  43.38600 11.05500 33.03100
H  45.71600 9.95700 36.33700
H  44.27700 8.73700 36.53300
H  44.24600 10.37600 37.09400
Mg -6.08100 25.70600 26.35600
C  -4.14900 27.27300 28.88100
C  -7.07300 23.38200 28.78500
C  -7.55200 24.00800 23.96000
C  -4.48600 27.72900 24.03900
N  -5.56200 25.29700 28.54600
C  -4.95800 26.21900 29.34300
C  -5.45500 25.99200 30.80700
C  -5.99300 24.53100 30.79500
C  -6.28100 24.39100 29.30800
C  -4.97500 23.42500 31.35900
C  -6.42600 27.08400 31.31100
C  -6.63000 27.08400 32.83600
H  -5.81700 26.07000 33.65900
N  -7.16900 23.95600 26.36900
C  -7.47600 23.16600 27.43800
C  -8.29400 22.01400 26.97500
C  -8.53300 22.16200 25.57300
C  -7.77400 23.40400 25.24600
C  -8.90600 20.95500 27.95000
C  -9.31300 21.27700 24.56100
O  -9.44100 21.55700 23.36200
C  -9.99800 20.01200 25.01900
N  -6.16700 25.91800 24.36600
C  -6.87000 25.12000 23.49100
C  -6.86100 25.65900 22.01700
C  -5.60500 26.56800 22.01700
C  -5.33100 26.74000 23.57400
C  -6.90600 24.55900 20.89000
C  -5.84800 27.98700 21.41300
C  -5.25000 28.12500 20.00500
N  -4.60400 27.20500 26.38000
C  -4.08200 27.97900 25.37100
C  -3.12700 28.95800 25.94100
C  -3.17100 28.71100 27.32400
C  -4.06800 27.65000 27.51400
C  -2.18800 29.91900 25.36900
C  -2.60400 29.11900 28.58200
O  -1.86300 29.99800 28.97300
C  -3.14900 28.11900 29.69800
C  -1.92700 27.38800 30.21700
O  -1.34500 26.41400 29.66400
O  -1.78500 27.75300 31.54500
C  -1.03900 26.83400 32.42300
H  -7.47500 22.75100 29.58000
H  -8.12800 23.38600 23.27200
H  -3.90100 28.31800 23.33000
H  -4.53700 26.18400 31.36200
H  -6.91200 24.53400 31.38100
H  -4.69500 22.88800 30.45300
H  -5.56300 22.78700 32.01900
H  -4.06000 23.78800 31.82700
H  -7.35700 26.88900 30.77800
H  -6.15200 27.99200 30.77400
H  -7.70400 27.08000 33.02400
H  -6.39800 28.06600 33.24800
H  -9.98100 20.90000 27.77800
H  -8.66000 21.11400 28.99900
H  -8.52600 19.96200 27.70900
H  -10.72500 20.22500 25.80200
H  -9.32100 19.19600 25.27300
H  -10.58500 19.59400 24.20100
H  -7.77200 26.24000 21.87400
H  -4.81200 26.01500 21.51300
H  -7.93000 24.39400 20.55200
H  -6.60100 23.58300 21.27000
H  -6.19900 24.90400 20.13600
H  -5.50700 28.77600 22.08300
H  -6.91700 28.18100 21.32700
H  -4.87900 27.13500 19.73900
H  -4.35600 28.71500 20.20500
H  -5.91500 28.42300 19.19400
H  -2.62700 30.91500 25.31900
H  -1.71300 29.64100 24.42900
H  -1.34000 30.10100 26.03100
H  -3.68600 28.57700 30.52900
H  -0.00700 27.17700 32.49000
H  -1.03900 25.83000 31.99700
H  -1.59000 26.92600 33.35900

