158

Mg 23.53400 -5.76100 44.82400
C  25.81400 -3.41000 43.71000
C  21.14600 -4.28300 42.80400
C  21.76600 -8.56400 44.89900
C  26.29800 -7.56300 46.07400
N  23.53800 -4.13500 43.42500
C  24.53900 -3.25500 43.19500
C  24.14700 -2.10900 42.29000
C  22.56100 -2.23800 42.28100
C  22.35700 -3.58500 42.93700
C  21.70300 -1.10700 42.93900
C  24.69000 -2.06200 40.84000
C  25.11900 -0.67100 40.37000
H  24.88400 -0.34400 38.86300
N  21.59900 -6.24300 44.14800
C  20.87600 -5.59100 43.28700
C  19.76100 -6.30500 42.98000
C  19.91100 -7.53400 43.46900
C  21.12400 -7.50600 44.28100
C  18.69600 -5.80800 41.99100
C  19.04300 -8.79100 43.13800
O  18.13100 -8.70500 42.35300
C  19.22500 -10.13200 43.84200
N  24.02800 -7.75300 45.54200
C  23.00100 -8.71900 45.53700
C  23.51200 -10.09600 45.90500
C  24.97300 -9.72200 46.50100
C  25.10400 -8.27300 46.07300
C  22.56100 -10.79300 46.97900
C  26.14800 -10.51800 45.82300
C  26.26700 -12.00900 46.27700
N  25.65200 -5.42000 45.18000
C  26.60400 -6.29100 45.57900
C  27.98000 -5.65300 45.47400
C  27.70300 -4.51000 44.75600
C  26.28900 -4.47700 44.55200
C  29.34800 -6.22700 45.72900
C  28.21800 -3.27400 44.16400
O  29.37600 -2.81100 44.17900
C  27.08000 -2.63400 43.35000
C  27.07400 -1.18700 43.60600
O  26.50100 -0.60500 44.46200
O  27.97600 -0.56200 42.70600
C  28.15600 0.85400 42.84600
H  20.29900 -3.82300 42.29000
H  21.23200 -9.50700 45.03300
H  27.17400 -8.02400 46.53500
H  24.34900 -1.22100 42.88700
H  22.22500 -2.48100 41.27300
H  22.30800 -0.23400 43.18400
H  21.29400 -1.59300 43.82500
H  20.87200 -0.85300 42.28200
H  24.02800 -2.45500 40.06900
H  25.52900 -2.75800 40.85400
H  26.20400 -0.61000 40.45500
H  24.83100 0.14200 41.03700
H  18.82800 -5.95100 40.91900
H  18.55700 -4.72800 42.04300
H  17.73300 -6.29300 42.15600
H  18.48400 -10.91000 43.66000
H  19.10800 -9.82800 44.88200
H  20.23400 -10.50500 43.66300
H  23.70300 -10.85000 45.14100
H  24.90600 -9.80800 47.58500
H  22.26400 -11.82700 46.80100
H  21.61000 -10.26800 47.06300
H  23.07100 -10.93200 47.93200
H  27.10300 -10.15800 46.20500
H  26.08900 -10.49600 44.73500
H  27.22100 -12.42300 45.94800
H  25.36000 -12.53400 45.97600
H  26.17700 -12.06500 47.36200
H  29.67200 -6.64300 44.77400
H  29.23500 -6.99900 46.48900
H  30.00100 -5.41900 46.05900
H  27.34800 -2.74000 42.29900
H  28.00000 1.26600 41.84900
H  29.16600 1.03100 43.21600
H  27.53100 1.46100 43.50100
Mg 17.51400 -0.87700 27.64600
C  16.56400 1.07800 30.41600
C  19.60800 -2.66600 29.68200
C  18.81600 -2.33600 24.85800
C  15.90200 1.49700 25.53400
N  17.93100 -0.79800 29.84200
C  17.50700 0.07600 30.79500
C  17.91500 -0.44500 32.19300
C  19.03600 -1.48400 31.89800
C  18.87200 -1.66400 30.31500
C  20.37500 -0.91200 32.18600
C  16.77800 -1.02800 32.93700
C  16.54600 -0.54600 34.42400
H  17.65600 0.23400 35.16500
N  18.83600 -2.45300 27.27200
C  19.56900 -3.05800 28.29300
C  20.36200 -4.13200 27.71000
C  20.20300 -3.99600 26.24800
C  19.20600 -2.92900 26.06300
C  21.24400 -5.05900 28.57800
C  20.73500 -4.85900 25.14900
O  20.48700 -4.69200 23.89700
C  21.57600 -6.01300 25.54200
N  17.42400 -0.41300 25.53700
C  18.11500 -1.17600 24.59000
C  17.97400 -0.56400 23.11600
C  16.78200 0.45000 23.32400
C  16.69600 0.51300 24.84900
C  19.23300 0.19400 22.67400
C  15.44000 -0.15400 22.76400
C  14.76300 0.94700 21.80700
N  16.41300 0.89800 27.89200
C  15.72300 1.67700 26.95100
C  14.96700 2.72000 27.63900
C  15.21100 2.45800 28.98700
C  16.15500 1.39000 29.10600
C  13.99600 3.80000 27.05000
C  14.86100 2.85600 30.41100
O  14.10300 3.63600 30.95900
C  15.79200 2.04100 31.36600
C  16.73100 2.99200 32.09800
O  17.75800 3.40900 31.58800
O  16.31200 3.17900 33.35200
C  16.97900 4.14300 34.16000
H  20.30300 -3.23000 30.30900
H  19.12800 -2.82500 23.93200
H  15.45500 2.22200 24.85000
H  18.25300 0.42500 32.75600
H  18.87400 -2.43500 32.40600
H  20.77600 -1.78400 32.70300
H  20.42300 -0.10500 32.91700
H  20.89200 -0.72500 31.24500
H  16.90800 -2.09800 33.09300
H  15.86700 -0.99800 32.33900
H  16.35800 -1.43100 35.03300
H  15.60700 0.00100 34.51000
H  22.31900 -5.03400 28.39600
H  20.80500 -6.05200 28.67200
H  21.29300 -4.69100 29.60300
H  21.83400 -6.76600 24.79700
H  21.02500 -6.49500 26.34900
H  22.41500 -5.52900 26.04000
H  17.74700 -1.28900 22.33400
H  16.95400 1.41100 22.84000
H  20.16000 -0.07700 23.18000
H  19.04500 1.26200 22.77600
H  19.50700 -0.05700 21.65000
H  14.67200 -0.38400 23.50300
H  15.66700 -1.04800 22.18300
H  15.05500 1.88400 22.28100
H  13.68800 0.79600 21.71600
H  15.13600 1.09200 20.79300
H  13.44200 4.00200 27.96700
H  13.30900 3.41500 26.29600
H  14.37800 4.69800 26.56500
H  15.08500 1.51700 32.01000
H  18.00200 4.42300 33.90700
H  17.15800 3.73900 35.15700
H  16.31600 5.00800 34.18200

