158

Mg 40.93700 8.00700 29.05600
C  42.74800 9.36400 31.78400
C  38.97300 6.40600 31.29700
C  39.33200 6.89800 26.44900
C  43.31500 9.48800 26.91600
N  40.95800 7.77000 31.25700
C  41.64500 8.62300 32.17100
C  41.08300 8.57300 33.58500
C  39.96800 7.41000 33.41000
C  39.92300 7.18700 31.89300
C  40.14700 6.19800 34.35400
C  40.47600 9.95400 34.13200
C  40.14500 9.97000 35.63600
H  41.03500 10.82300 36.55100
N  39.43300 6.74900 28.92300
C  38.76200 6.08900 29.93100
C  37.76400 5.25700 29.41600
C  37.69500 5.45000 27.98100
C  38.84600 6.36600 27.71700
C  36.84900 4.49800 30.36500
C  36.70300 4.97100 27.03400
O  36.86600 5.17500 25.85900
C  35.45300 4.24600 27.40000
N  41.24000 8.18800 27.04200
C  40.41700 7.69500 26.16200
C  40.74600 7.99100 24.73500
C  41.93100 8.99600 24.89300
C  42.20000 8.88200 26.38600
C  40.98800 6.78300 23.82600
C  41.52400 10.45300 24.48200
C  40.72300 11.29800 25.53800
N  42.70900 9.12100 29.23700
C  43.60600 9.59700 28.27300
C  44.64300 10.32800 28.92100
C  44.33800 10.28400 30.30900
C  43.16400 9.53700 30.44200
C  45.88100 10.93200 28.22900
C  44.80300 10.64400 31.66400
O  45.91700 11.06200 32.02800
C  43.71400 10.09300 32.70600
C  44.36500 9.22500 33.71200
O  44.87500 8.10200 33.60200
O  44.08300 9.80900 34.89100
C  44.35100 9.06100 36.11800
H  38.32700 5.93100 32.03900
H  38.84000 6.57000 25.53100
H  43.86100 9.96100 26.09700
H  41.85500 8.08800 34.18300
H  39.00500 7.79800 33.74100
H  39.87500 5.22700 33.94000
H  39.46700 6.35700 35.19100
H  41.15600 6.17900 34.76600
H  39.53200 10.15300 33.62400
H  40.96400 10.85100 33.75300
H  40.32200 8.95000 35.97700
H  39.08800 10.21300 35.74100
H  37.22100 4.26100 31.36200
H  36.60700 3.56200 29.86000
H  35.91500 5.05400 30.28300
H  34.87900 4.72500 28.19300
H  35.85500 3.26600 27.65700
H  34.71200 4.13000 26.60900
H  39.87000 8.56600 24.43700
H  42.81000 8.77900 24.28500
H  40.12100 6.85100 23.16900
H  40.80700 5.82200 24.30900
H  41.85700 6.85000 23.17100
H  40.90400 10.35700 23.59100
H  42.44700 10.91800 24.13500
H  40.82600 10.90400 26.54900
H  39.68000 11.13300 25.26700
H  40.97100 12.35900 25.50100
H  45.77800 12.01700 28.23700
H  45.91200 10.61300 27.18800
H  46.70800 10.54400 28.82300
H  43.19400 10.88800 33.24100
H  43.49500 8.40500 36.27800
H  44.38800 9.76300 36.95100
H  45.28000 8.50400 35.99700
Mg 26.04700 50.04300 26.71000
C  24.20700 51.35800 29.32300
C  28.41100 48.98600 29.07800
C  28.21900 49.20200 24.24500
C  23.73200 51.08500 24.38500
N  26.36800 50.22800 28.89600
C  25.39300 50.70400 29.73000
C  25.69100 50.30900 31.28300
C  27.07200 49.71900 31.15400
C  27.36000 49.64600 29.62300
C  28.30600 50.32800 31.90300
C  24.63200 49.46600 31.92900
C  23.97400 50.13000 33.16000
H  23.66700 49.19300 34.32900
N  28.04000 49.13900 26.65800
C  28.79600 48.72200 27.74200
C  30.01800 48.08800 27.25600
C  30.00700 48.24300 25.79900
C  28.67900 48.90100 25.52900
C  31.11200 47.52000 28.10400
C  31.10700 47.87100 24.74100
O  30.98000 48.11500 23.56500
C  32.33200 47.13500 25.22700
N  26.05300 50.24000 24.58400
C  27.04900 49.79400 23.82000
C  26.67400 49.69500 22.32200
C  25.20500 50.20400 22.42500
C  24.89500 50.47400 23.87700
C  27.71000 50.32400 21.31700
C  24.22500 49.26400 21.62900
C  23.83400 47.90700 22.34100
N  24.25500 51.01300 26.78200
C  23.47400 51.40300 25.76100
C  22.37500 52.05300 26.30500
C  22.57300 52.11800 27.72800
C  23.76300 51.41400 28.01900
C  21.24100 52.68300 25.57800
C  22.08900 52.55400 28.97500
O  21.02300 53.13400 29.21000
C  23.15200 52.06800 30.14200
C  23.66800 53.21100 30.92400
O  24.70000 53.80700 30.71600
O  23.02800 53.18800 32.14400
C  23.59500 54.09400 33.11000
H  29.17600 48.60600 29.75900
H  28.80900 48.84700 23.39700
H  22.96200 51.38900 23.67400
H  25.82100 51.19800 31.89900
H  27.02900 48.65900 31.40600
H  29.07100 50.66600 31.20300
H  28.80200 49.64200 32.58900
H  28.09200 51.22500 32.48400
H  24.99000 48.47000 32.19100
H  23.93600 49.26200 31.11600
H  22.97100 50.41400 32.84100
H  24.48500 51.04500 33.46000
H  32.00900 48.12500 27.97200
H  31.24700 46.44300 28.00400
H  30.95800 47.66300 29.17300
H  33.02200 47.77600 25.77500
H  32.76400 46.84500 24.26900
H  31.99200 46.29500 25.83400
H  26.65200 48.60600 22.28600
H  25.29000 51.18300 21.95400
H  28.55400 50.80300 21.81400
H  27.06700 50.98300 20.73300
H  28.05600 49.52700 20.65800
H  24.70500 48.86100 20.73700
H  23.29000 49.80100 21.46900
H  24.18200 47.08000 21.72300
H  22.75600 47.74700 22.37700
H  24.11900 47.76000 23.38300
H  21.17400 52.38400 24.53200
H  21.49200 53.73800 25.69000
H  20.31400 52.56900 26.14000
H  22.51200 51.38000 30.69500
H  24.05700 54.98800 32.69000
H  24.25100 53.50300 33.75000
H  22.74300 54.37800 33.72800

