158

Mg 53.54700 24.36800 44.70000
C  50.73200 26.38600 44.23700
C  51.73000 21.71900 44.23500
C  56.53500 22.55000 44.13400
C  55.49300 27.29000 45.13500
N  51.43200 24.16100 44.21300
C  50.45900 25.05700 44.01100
C  49.13100 24.36800 43.69600
C  49.45100 22.87600 43.92200
C  50.96100 22.89700 44.23200
C  48.58500 22.07200 44.97100
C  48.54600 24.64600 42.26400
C  49.50200 24.59700 41.10200
H  49.04600 24.37500 39.64500
N  54.05400 22.29300 44.31800
C  53.14500 21.37500 44.22800
C  53.76600 20.07100 43.98100
C  55.17900 20.24600 44.01000
C  55.32500 21.73500 44.11700
C  52.96900 18.82200 43.92800
C  56.24300 19.15200 44.01400
O  56.00100 17.98400 43.89800
C  57.68800 19.51700 44.24700
N  55.80700 24.91300 44.74700
C  56.78800 23.97500 44.35700
C  58.14900 24.75900 44.28600
C  57.78500 26.24700 44.58100
C  56.28100 26.15400 44.90700
C  59.26700 24.21100 45.23100
C  58.15600 27.36200 43.51600
C  59.51800 28.09500 43.74200
N  53.20400 26.36300 44.81500
C  54.13200 27.45200 45.02400
C  53.36500 28.67400 45.06700
C  52.06300 28.28900 44.73700
C  52.03300 26.91200 44.61500
C  53.93500 30.00400 45.22000
C  50.75000 28.81400 44.58800
O  50.24100 29.96400 44.70600
C  49.83200 27.65700 44.13000
C  49.38700 27.90800 42.74500
O  50.13900 28.12000 41.81200
O  48.10400 28.43000 42.86000
C  47.45600 28.97000 41.63400
H  51.10000 20.83200 44.14000
H  57.53000 22.12400 43.98800
H  56.00300 28.24900 45.24800
H  48.36600 24.73500 44.38000
H  49.23900 22.21900 43.07800
H  48.29700 22.64600 45.85200
H  49.08700 21.22600 45.44100
H  47.73000 21.74700 44.37900
H  48.02100 25.59400 42.14700
H  47.87000 23.85300 41.94600
H  50.31500 23.87300 41.15800
H  50.11100 25.49600 41.19200
H  53.52500 17.91400 43.69100
H  52.13900 18.75300 43.22500
H  52.67700 18.68500 44.96900
H  58.24600 18.59700 44.41900
H  57.69000 19.91700 45.26100
H  58.01400 20.20300 43.46400
H  58.50200 24.77700 43.25500
H  58.29600 26.55000 45.49500
H  58.81400 23.55900 45.97800
H  59.69700 25.01900 45.82300
H  60.04100 23.74400 44.62200
H  57.39000 28.13600 43.47300
H  58.21700 26.98100 42.49700
H  59.37500 29.17500 43.71500
H  60.29300 27.90600 42.99900
H  59.99700 27.87000 44.69500
H  53.91700 30.31800 44.17700
H  54.90000 30.00200 45.72700
H  53.18700 30.46400 45.86700
H  48.98400 27.59700 44.81200
H  46.53300 29.43300 41.98500
H  47.11900 28.04200 41.17400
H  47.91200 29.69500 40.96000
Mg 26.98000 50.46700 26.11000
C  24.91200 51.53800 28.82700
C  29.30800 49.55300 28.51400
C  29.11500 49.93300 23.60200
C  24.76500 51.93300 23.94600
N  27.02400 50.52600 28.47000
C  26.08100 50.95900 29.32500
C  26.44900 50.61300 30.80100
C  27.97100 50.19800 30.65000
C  28.18700 50.16600 29.07500
C  29.04000 51.01100 31.42300
C  25.51800 49.54700 31.51600
C  24.97900 49.63000 32.97700
H  25.82300 50.23700 34.13000
N  28.89400 49.64200 26.05700
C  29.67500 49.30600 27.10400
C  30.89800 48.78000 26.56600
C  30.82400 48.92600 25.17900
C  29.61500 49.57400 24.89100
C  31.92000 48.15200 27.46800
C  31.74100 48.33000 24.08800
O  31.75300 48.74300 22.90700
C  32.92400 47.51600 24.55100
N  26.97900 50.89400 24.05100
C  27.93500 50.56700 23.19500
C  27.48000 50.75500 21.76200
C  26.00400 51.31700 21.89000
C  25.89100 51.40400 23.38200
C  28.37600 51.73400 20.95300
C  24.82000 50.52500 21.04000
C  23.86700 51.29800 20.09000
N  25.23800 51.57600 26.32600
C  24.47900 52.11600 25.32300
C  23.38100 52.85500 25.95400
C  23.52600 52.65500 27.33000
C  24.63500 51.79900 27.49400
C  22.30000 53.59900 25.22300
C  22.85200 52.87700 28.54000
O  21.81400 53.44900 28.71800
C  23.79300 52.24200 29.61400
C  24.45600 53.31900 30.39900
O  25.39200 53.98500 30.14000
O  23.79000 53.51600 31.51700
C  24.52000 54.14900 32.65400
H  30.07300 49.29500 29.24900
H  29.74000 49.63200 22.75800
H  23.97700 52.30200 23.28500
H  26.31700 51.51900 31.39200
H  28.10900 49.21000 31.09000
H  29.74000 51.44100 30.70700
H  29.64300 50.29300 31.97900
H  28.65800 51.84800 32.00700
H  25.87300 48.51600 31.52100
H  24.68100 49.39400 30.83400
H  24.92000 48.57900 33.26000
H  23.94800 49.98300 33.01300
H  31.90400 47.09600 27.19900
H  31.69200 48.21700 28.53200
H  32.92900 48.52600 27.29500
H  33.63400 47.42000 23.72900
H  32.64000 46.51800 24.88500
H  33.25800 48.14300 25.37800
H  27.36900 49.77400 21.30000
H  25.88700 52.36900 21.62900
H  29.23100 52.05500 21.54800
H  27.85800 52.63500 20.62600
H  28.68000 51.13800 20.09200
H  24.26400 49.93300 21.76800
H  25.35800 49.81000 20.41800
H  23.37900 52.21900 20.41200
H  23.08400 50.62300 19.74500
H  24.54200 51.44100 19.24700
H  21.80500 53.00800 24.45300
H  22.74100 54.54400 24.90400
H  21.50000 53.77900 25.94100
H  23.43900 51.42700 30.24500
H  24.12800 53.71000 33.57200
H  24.21900 55.19500 32.71800
H  25.60200 54.04600 32.73200

