158

Mg 24.56500 -7.97800 47.28600
C  27.09800 -5.47900 46.48500
C  22.56200 -6.41500 45.00200
C  22.40200 -10.32400 47.80000
C  26.94500 -9.42600 49.37700
N  24.72300 -6.06100 45.92300
C  25.87700 -5.28000 45.73900
C  25.60400 -4.22600 44.67100
C  24.05100 -4.42100 44.41900
C  23.77200 -5.70900 45.13900
C  23.15200 -3.20600 44.90300
C  26.53300 -4.46100 43.38800
C  27.21400 -3.17900 42.92600
H  26.90700 -2.83000 41.45800
N  22.78500 -8.36400 46.47900
C  22.12900 -7.59900 45.51600
C  20.80000 -8.16400 45.29500
C  20.67400 -9.29800 46.20800
C  21.96200 -9.37400 46.91400
C  19.66400 -7.48700 44.39700
C  19.40600 -10.06400 46.39100
O  18.37800 -9.85900 45.71600
C  19.22700 -11.02000 47.57500
N  24.70300 -9.69200 48.42900
C  23.61000 -10.44600 48.60800
C  23.77100 -11.56400 49.64300
C  25.25700 -11.30400 50.12200
C  25.70600 -10.10900 49.28900
C  22.75300 -11.61500 50.83700
C  26.23200 -12.56200 49.96500
C  27.41900 -12.65800 51.01600
N  26.55400 -7.51000 47.89200
C  27.35600 -8.25300 48.72600
C  28.70900 -7.66200 48.79700
C  28.58800 -6.56400 47.88100
C  27.26400 -6.50700 47.41300
C  29.88100 -8.20500 49.63200
C  29.37800 -5.49700 47.28200
O  30.55800 -5.13500 47.32600
C  28.43200 -4.71800 46.35300
C  28.30100 -3.30400 46.80800
O  28.12900 -2.79500 47.93600
O  28.52800 -2.57100 45.61100
C  28.20400 -1.12200 45.70800
H  21.92300 -5.88500 44.29200
H  21.70600 -11.14700 47.97900
H  27.67000 -9.95200 50.00100
H  25.67300 -3.23200 45.11200
H  23.84100 -4.52500 43.35500
H  23.68500 -2.28600 45.14100
H  22.61000 -3.54400 45.78700
H  22.43200 -2.88600 44.14900
H  26.00600 -4.96800 42.58000
H  27.30200 -5.17800 43.67500
H  28.29400 -3.32000 42.97300
H  27.01400 -2.29400 43.53100
H  18.98700 -8.18100 43.89900
H  20.15300 -6.85600 43.65500
H  19.16300 -6.79700 45.07500
H  19.32800 -10.58800 48.57100
H  19.90400 -11.85200 47.38100
H  18.19800 -11.37600 47.55100
H  23.72100 -12.46600 49.03300
H  25.33400 -10.93100 51.14300
H  21.98800 -10.90700 50.51600
H  23.22400 -11.16700 51.71100
H  22.50500 -12.66100 51.01600
H  26.78500 -12.45600 49.03200
H  25.63200 -13.46100 50.10700
H  27.37100 -13.60600 51.55100
H  27.45600 -11.80700 51.69700
H  28.35900 -12.75000 50.47000
H  30.48900 -7.39200 50.03000
H  30.53800 -8.81500 49.01200
H  29.56800 -8.80500 50.48600
H  28.79300 -4.67600 45.32500
H  28.90200 -0.70000 46.43100
H  27.19800 -0.85100 46.02800
H  28.48600 -0.58400 44.80300
Mg 43.65900 2.90900 47.59400
C  41.51200 5.57700 47.25800
C  40.97900 0.72100 47.71000
C  45.88300 0.31000 47.56400
C  46.36800 5.06600 46.79200
N  41.46800 3.11100 47.22800
C  40.84000 4.34700 47.14200
C  39.37100 4.13000 47.03600
C  39.19400 2.57100 47.45000
C  40.62800 2.05900 47.48000
C  38.46900 2.46400 48.84100
C  38.95200 4.43800 45.55900
C  37.94200 5.65000 45.24300
H  38.24300 6.53100 43.95800
N  43.41600 0.72400 47.66200
C  42.28300 0.04200 47.80700
C  42.54100 -1.25500 47.97900
C  43.93900 -1.42300 47.79300
C  44.49400 -0.08600 47.66800
C  41.43700 -2.24600 48.20000
C  44.64400 -2.79300 47.78800
O  43.92500 -3.80000 47.71100
C  46.17200 -2.86800 47.91800
N  45.74400 2.69200 47.05100
C  46.47600 1.52900 47.10300
C  47.99400 1.82300 47.08800
C  48.10100 3.30900 46.61500
C  46.62500 3.68500 46.74000
C  48.76300 1.57400 48.43600
C  48.64000 3.45500 45.17300
C  50.10300 3.77700 45.14000
N  43.94600 4.92100 47.28000
C  45.09700 5.63700 47.04300
C  44.70700 7.11500 46.92200
C  43.29200 7.12400 47.18200
C  42.92000 5.75500 47.26800
C  45.55900 8.22400 46.64000
C  42.11600 7.93600 47.32900
O  41.97800 9.19300 47.17400
C  40.95200 6.97100 47.45800
C  40.41400 7.05800 48.85000
O  40.99000 6.62600 49.86700
O  39.19700 7.68600 48.85300
C  38.62000 8.11000 50.14800
H  40.04800 0.19900 47.94100
H  46.70400 -0.41000 47.56100
H  47.24100 5.72100 46.74900
H  38.82900 4.71800 47.77600
H  38.73600 1.86000 46.76200
H  38.21700 3.43200 49.27300
H  38.98800 1.87400 49.59700
H  37.53700 1.91500 48.70700
H  38.42700 3.57800 45.14200
H  39.85600 4.40100 44.95200
H  38.04100 6.39700 46.03100
H  36.88200 5.39300 45.25200
H  40.43500 -1.82300 48.13500
H  41.52900 -2.65700 49.20500
H  41.51300 -3.15800 47.60800
H  46.37500 -2.61100 48.95700
H  46.65800 -2.27000 47.14700
H  46.56600 -3.88400 47.93000
H  48.49800 1.11900 46.42600
H  48.67100 3.89500 47.33600
H  49.20000 0.57900 48.35900
H  48.07600 1.73900 49.26700
H  49.54500 2.32800 48.52400
H  48.15100 4.28600 44.66300
H  48.60800 2.50700 44.63700
H  50.67400 2.86000 44.99500
H  50.43000 4.28400 46.04800
H  50.38000 4.50800 44.38100
H  46.18800 8.02300 45.77300
H  46.29900 8.35400 47.43000
H  45.01300 9.16300 46.55500
H  40.20600 7.06900 46.67000
H  39.08500 7.67600 51.03400
H  37.56700 7.83200 50.10300
H  38.69700 9.19700 50.14300

