158

Mg 35.19900 2.01800 29.17900
C  32.63900 2.80000 31.43600
C  37.38600 1.95200 31.76000
C  37.53300 1.00200 26.97800
C  32.78700 2.27500 26.60400
N  35.03100 2.44300 31.38200
C  33.90500 2.66200 32.09100
C  34.19700 2.69900 33.61200
C  35.76200 2.72200 33.70000
C  36.14400 2.37100 32.18800
C  36.43400 4.00900 34.17000
C  33.58700 1.53000 34.53300
C  33.32900 1.73900 36.02900
H  34.01900 2.92900 36.69800
N  37.18300 1.49900 29.32000
C  37.94600 1.53500 30.51700
C  39.24900 1.06200 30.22500
C  39.37300 0.75500 28.87200
C  37.97900 1.01700 28.30600
C  40.24700 1.10600 31.37600
C  40.53000 0.19100 28.08500
O  40.34100 -0.16300 26.92800
C  41.75700 -0.12700 28.76000
N  35.20600 1.79800 27.10400
C  36.26200 1.29200 26.44400
C  35.92900 1.20800 24.89700
C  34.48600 1.65200 24.79500
C  34.12100 1.88500 26.24600
C  36.92600 1.97500 24.02100
C  33.49500 0.77700 23.96500
C  32.90600 -0.43600 24.76400
N  33.21200 2.50700 29.04500
C  32.35900 2.50700 27.94000
C  31.13200 3.06700 28.32400
C  31.17400 3.13500 29.68700
C  32.43800 2.76700 30.06800
C  30.01700 3.43000 27.38500
C  30.41000 3.36300 30.82800
O  29.17800 3.58400 30.92700
C  31.29400 3.16800 32.00300
C  31.40200 4.44000 32.82700
O  32.07200 5.45600 32.51700
O  30.58500 4.20500 33.94500
C  30.56600 5.22300 34.98600
H  38.08500 2.00800 32.59600
H  38.35400 0.66100 26.34300
H  32.07600 2.42400 25.78900
H  33.85800 3.65800 34.00300
H  36.21900 1.92100 34.28200
H  37.06500 3.81500 35.03700
H  35.69000 4.77400 34.39400
H  37.06000 4.43500 33.38600
H  34.24400 0.69300 34.29800
H  32.56300 1.32000 34.22500
H  33.73000 0.78300 36.36400
H  32.28000 1.64700 36.31300
H  39.86800 0.49700 32.19600
H  40.20900 2.14900 31.68900
H  41.29100 0.89500 31.14300
H  41.53000 -0.62100 29.70500
H  42.23500 0.82500 28.99100
H  42.47300 -0.65800 28.13200
H  36.07300 0.12800 24.88200
H  34.48400 2.62100 24.29600
H  36.48800 2.43700 23.13600
H  37.72600 1.26000 23.82900
H  37.45800 2.73300 24.59500
H  34.09000 0.36700 23.15000
H  32.78500 1.53600 23.63600
H  31.83600 -0.23600 24.81900
H  33.44000 -0.59800 25.70100
H  33.01600 -1.42200 24.31300
H  30.40700 3.94600 26.50700
H  29.24100 4.02200 27.87000
H  29.60600 2.50000 26.99300
H  30.72600 2.44100 32.58300
H  29.60000 5.70200 35.14500
H  31.37000 5.95300 34.89300
H  30.69600 4.58200 35.85700
Mg 48.21400 46.24700 42.69900
C  44.98300 46.86000 41.51400
C  48.08800 43.13900 41.17100
C  51.53800 46.06100 42.96400
C  48.31000 49.83600 43.31800
N  46.77000 45.16800 41.31500
C  45.47400 45.61300 41.16900
C  44.63000 44.54100 40.49900
C  45.49500 43.29000 40.68500
C  46.87600 43.94200 41.02700
C  44.95700 42.21800 41.65100
C  44.32900 45.00200 39.00200
C  43.01100 44.40700 38.56200
H  43.11600 43.49700 37.21400
N  49.62100 44.81600 42.15700
C  49.35100 43.56400 41.60400
C  50.56700 42.75700 41.67800
C  51.55800 43.56100 42.10800
C  50.95100 44.92500 42.42800
C  50.56800 41.32300 41.23000
C  53.04300 43.06700 42.24300
O  53.48300 42.00600 41.82700
C  53.97500 43.91100 42.99700
N  49.70600 47.75000 42.92600
C  51.00900 47.36600 43.16700
C  51.89400 48.62100 43.51700
C  50.87400 49.78100 43.50200
C  49.56900 49.11900 43.22100
C  52.72200 48.52600 44.83800
C  51.30900 51.00500 42.56700
C  51.63000 52.31000 43.21500
N  46.89500 47.90900 42.77200
C  47.03900 49.25300 43.10900
C  45.83300 49.91700 43.09000
C  44.95000 48.98100 42.55400
C  45.63700 47.79400 42.25100
C  45.59500 51.35600 43.69800
C  43.62400 48.79400 42.08800
O  42.60600 49.46100 42.12600
C  43.54100 47.38900 41.40600
C  42.54800 46.61500 42.14500
O  42.71700 45.91900 43.15300
O  41.43700 46.71400 41.41200
C  40.35600 45.78700 41.85500
H  47.94800 42.06400 41.04200
H  52.57700 46.02200 43.29600
H  48.31000 50.90600 43.53300
H  43.70700 44.43500 41.06700
H  45.57200 42.80100 39.71400
H  44.76000 41.37500 40.98800
H  44.05800 42.61200 42.12400
H  45.75600 41.96800 42.34800
H  45.14800 44.70800 38.34500
H  44.25000 46.08600 39.09300
H  42.31100 45.23800 38.48100
H  42.62400 43.70600 39.30200
H  50.73100 41.31900 40.15200
H  49.68500 40.76800 41.54700
H  51.39000 40.74800 41.65700
H  54.22100 44.81900 42.44800
H  54.93000 43.39400 43.09500
H  53.53300 43.99300 43.99000
H  52.65800 48.74200 42.74900
H  50.75600 50.16600 44.51400
H  52.55500 47.47700 45.08100
H  52.29400 49.04900 45.69400
H  53.76900 48.78700 44.68400
H  50.54300 51.28300 41.84300
H  52.25200 50.77700 42.07100
H  51.46600 52.28400 44.29200
H  50.98800 53.08200 42.79000
H  52.66600 52.52900 42.95800
H  44.89900 51.74400 42.95500
H  46.46800 52.00600 43.76100
H  45.02500 51.23800 44.61900
H  43.15500 47.53300 40.39700
H  39.53700 45.72200 41.13800
H  39.92400 46.05500 42.81900
H  40.80300 44.79300 41.85200

