158

Mg 36.48400 0.41700 29.64300
C  34.26700 1.60500 32.01700
C  38.89300 0.43800 32.05600
C  38.74800 0.00400 27.15400
C  34.00900 1.11700 27.15500
N  36.50700 0.94200 31.77200
C  35.51700 1.41000 32.57000
C  35.93300 1.49300 34.01400
C  37.50700 1.38300 33.90800
C  37.66800 0.89900 32.47500
C  38.32500 2.70400 34.08100
C  35.20900 0.43500 34.85600
C  35.61800 0.25400 36.37200
H  36.41400 1.39600 37.09300
N  38.48600 0.14300 29.63000
C  39.31400 0.15100 30.75400
C  40.62000 -0.10400 30.32300
C  40.65200 -0.35300 28.93300
C  39.26200 -0.07500 28.48000
C  41.70700 -0.24500 31.33300
C  41.82300 -0.67000 27.94200
O  41.63500 -0.79800 26.69700
C  43.26200 -0.74800 28.45700
N  36.36400 0.45200 27.51000
C  37.45200 0.21300 26.75900
C  37.08000 0.19000 25.21500
C  35.62900 0.47400 25.23600
C  35.31100 0.71000 26.71000
C  37.93800 1.06000 24.22800
C  34.62500 -0.56400 24.52100
C  34.16800 -1.77900 25.38000
N  34.47900 1.07100 29.60300
C  33.65500 1.37100 28.51800
C  32.39800 1.91700 29.01300
C  32.58400 2.01600 30.41300
C  33.83900 1.46400 30.69200
C  31.34100 2.38500 28.12000
C  32.04000 2.50700 31.57400
O  31.00500 3.10000 31.78000
C  33.04000 2.21000 32.70500
C  33.25900 3.43500 33.48200
O  33.96600 4.39500 33.16900
O  32.73300 3.31900 34.76200
C  32.89900 4.53900 35.60000
H  39.64800 0.47100 32.84400
H  39.36100 -0.27500 26.29500
H  33.27000 1.31100 26.37500
H  35.77000 2.51400 34.35800
H  37.99600 0.70100 34.60400
H  37.72800 3.60800 34.20600
H  38.98700 2.84400 33.22600
H  39.10300 2.58300 34.83500
H  35.50900 -0.46900 34.32600
H  34.12400 0.53100 34.87800
H  36.32700 -0.55600 36.19800
H  34.89500 -0.18000 37.06300
H  42.23500 0.67400 31.58700
H  42.44400 -0.93800 30.92600
H  41.40200 -0.82000 32.20700
H  43.46100 0.03500 29.18800
H  43.88800 -0.63400 27.57100
H  43.45100 -1.72700 28.89700
H  37.19200 -0.82600 24.83800
H  35.38400 1.37400 24.67100
H  38.85700 1.37700 24.71900
H  37.34000 1.91300 23.90600
H  38.21100 0.37200 23.42800
H  34.93900 -1.00500 23.57600
H  33.71600 0.01000 24.33800
H  34.27500 -2.71100 24.82600
H  33.11400 -1.70000 25.64600
H  34.88700 -1.85700 26.19600
H  31.14600 1.63000 27.35900
H  31.72600 3.23700 27.55900
H  30.35600 2.55900 28.55500
H  32.62500 1.45900 33.37700
H  32.38500 5.38500 35.14200
H  33.97100 4.73300 35.62700
H  32.51000 4.32600 36.59600
Mg 6.41700 55.56000 42.13000
C  5.90500 52.13800 42.06100
C  9.33200 55.15600 40.32800
C  6.31500 58.85500 41.54800
C  3.13300 55.83800 43.65600
N  7.38700 53.85200 41.26700
C  6.98500 52.55400 41.25900
C  7.91900 51.67100 40.35700
C  9.21500 52.58500 40.25900
C  8.59500 53.96600 40.58700
C  10.24700 52.33100 41.37200
C  7.16200 51.53200 38.98300
C  7.62100 50.20500 38.21700
H  6.83500 49.85900 36.98900
N  7.63600 56.86100 41.07700
C  8.86900 56.50100 40.49500
C  9.46300 57.66700 39.95500
C  8.58000 58.79800 40.22500
C  7.40300 58.24400 40.93400
C  10.78300 57.68200 39.19100
C  8.77700 60.26300 39.93600
O  9.76000 60.66100 39.36800
C  7.74500 61.31400 40.00900
N  4.77500 57.11500 42.29800
C  5.10400 58.39700 42.13500
C  3.97100 59.33700 42.57400
C  2.98000 58.34400 43.13900
C  3.65600 56.96700 42.97400
C  4.37700 60.44000 43.70100
C  1.56800 58.26700 42.46500
C  0.42000 57.89600 43.38800
N  4.90900 54.24800 42.99000
C  3.65200 54.47500 43.59300
C  3.10900 53.27400 44.14200
C  3.88400 52.30900 43.47600
C  4.95700 52.99200 42.79600
C  1.79900 53.14800 44.84200
C  4.06500 50.91900 43.21800
O  3.42400 49.91600 43.57000
C  5.27500 50.75700 42.28800
C  4.91800 49.97600 41.04000
O  3.83400 50.09200 40.39200
O  5.79500 48.95100 40.93500
C  5.30800 47.79800 40.23000
H  10.29600 54.88500 39.89100
H  6.47800 59.92400 41.70000
H  2.14800 55.84900 44.12800
H  8.10900 50.72100 40.85800
H  9.59400 52.54900 39.23700
H  11.13600 51.91600 40.89700
H  9.94300 51.66600 42.18100
H  10.61400 53.27100 41.78200
H  7.24300 52.50300 38.49500
H  6.12500 51.42300 39.29900
H  7.83600 49.35500 38.86600
H  8.58000 50.42400 37.74700
H  10.64600 57.76000 38.11200
H  11.46800 56.89300 39.50200
H  11.34300 58.57300 39.47500
H  6.76300 60.85400 39.90200
H  7.84200 62.01700 39.18100
H  7.82900 61.83100 40.96500
H  3.48000 59.79300 41.71400
H  2.75500 58.38300 44.20500
H  5.36300 60.14700 44.06000
H  3.63800 60.34900 44.49800
H  4.41800 61.45900 43.31700
H  1.56000 57.63400 41.57800
H  1.36100 59.27600 42.10600
H  -0.25100 58.73100 43.58700
H  0.79500 57.55000 44.35100
H  -0.12200 57.12300 42.84300
H  1.29000 54.08600 45.06400
H  1.81600 52.59500 45.78100
H  1.06900 52.60500 44.24200
H  5.96000 50.14400 42.87400
H  5.81700 47.73100 39.26800
H  4.23000 47.87200 40.09000
H  5.54700 46.96500 40.89100

