158

Mg 35.00000 3.55100 29.56500
C  32.56200 4.25800 32.12400
C  37.27600 2.98300 32.00300
C  37.10900 2.81100 27.18300
C  32.31100 4.10800 27.18200
N  34.96700 3.76000 31.78900
C  33.86400 3.96500 32.60500
C  34.30300 3.99100 34.13500
C  35.87000 3.70200 33.99000
C  36.07500 3.47400 32.48800
C  36.90200 4.71700 34.64000
C  33.48800 2.89600 34.92300
C  32.89600 3.47400 36.23500
H  33.76200 4.44500 37.03700
N  36.90800 2.92200 29.58900
C  37.68800 2.63200 30.68600
C  38.93800 1.98500 30.28900
C  38.91500 2.08300 28.80400
C  37.62400 2.65200 28.51500
C  40.05400 1.50600 31.20800
C  39.95600 1.60000 27.77100
O  39.76900 1.61500 26.56000
C  41.31900 1.11800 28.27200
N  34.69700 3.53300 27.41100
C  35.81000 3.08800 26.70000
C  35.41600 2.96800 25.23000
C  33.86900 3.21800 25.24700
C  33.57000 3.65800 26.67500
C  36.21600 3.96200 24.30200
C  32.97500 1.95400 24.89600
C  31.70100 2.42400 24.12900
N  32.89600 4.22800 29.60000
C  31.96300 4.35400 28.51500
C  30.71800 4.66200 29.09400
C  30.90400 4.65600 30.53400
C  32.24500 4.40300 30.78400
C  29.34900 4.78300 28.42600
C  30.21600 4.82200 31.79600
O  29.10000 5.08000 31.98000
C  31.33900 4.71800 32.95800
C  31.52200 6.03000 33.63600
O  31.97800 7.00300 33.06300
O  30.98600 6.07800 34.85800
C  30.92300 7.32700 35.61200
H  37.89000 2.53400 32.78700
H  37.67300 2.39900 26.34400
H  31.53900 4.22100 26.41900
H  34.16300 4.98000 34.57100
H  36.11300 2.74000 34.44000
H  37.45800 4.31300 35.48600
H  36.41900 5.58100 35.09700
H  37.72600 4.95600 33.96700
H  34.12300 2.03600 35.13400
H  32.65600 2.61100 34.27900
H  32.86500 2.57800 36.85500
H  31.88700 3.86700 36.10800
H  40.54400 0.57000 30.93900
H  39.66200 1.38800 32.21800
H  40.86300 2.22800 31.31600
H  41.63100 1.70700 29.13400
H  42.06200 1.06100 27.47600
H  41.03900 0.10700 28.57000
H  35.57600 1.92700 24.95000
H  33.82900 4.13700 24.66200
H  36.63400 4.76600 24.90800
H  35.49600 4.40200 23.61200
H  37.04100 3.48400 23.77500
H  32.67200 1.34700 25.74900
H  33.51200 1.33200 24.18100
H  31.63300 2.09300 23.09300
H  31.55300 3.50300 24.12800
H  30.81700 1.99900 24.60400
H  29.46300 5.46500 27.58300
H  28.63900 5.22500 29.12500
H  29.09300 3.75500 28.17200
H  30.98600 4.10100 33.78500
H  30.27300 7.16500 36.47200
H  30.31400 8.04200 35.05900
H  31.90600 7.56300 36.01900
Mg 9.61600 47.87300 26.27500
C  7.63300 47.89700 29.20800
C  12.23900 49.05600 28.09600
C  11.36100 47.44100 23.52100
C  6.63000 46.96800 24.46900
N  9.78500 48.48200 28.44000
C  8.95200 48.28300 29.49400
C  9.59900 48.58400 30.80300
C  10.80900 49.38400 30.30900
C  11.03100 48.97500 28.83800
C  10.69900 50.94100 30.42900
C  10.09500 47.33100 31.57800
C  10.82300 47.61300 32.85700
H  10.57900 46.60000 33.99600
N  11.52500 48.35200 25.89500
C  12.52500 48.81400 26.75000
C  13.78700 48.86800 26.00700
C  13.50700 48.45200 24.68500
C  12.11100 47.99400 24.68500
C  15.04200 49.40400 26.56400
C  14.45800 48.42900 23.58700
O  14.02300 47.96100 22.56800
C  15.84800 48.85400 23.67500
N  8.99600 47.32900 24.20900
C  10.01200 47.19200 23.33700
C  9.53800 46.61500 21.99700
C  7.94500 46.43800 22.22100
C  7.82900 46.89300 23.75500
C  9.94000 47.43600 20.76000
C  7.49300 44.93000 21.91100
C  7.62900 43.96900 23.01200
N  7.52700 47.57100 26.64300
C  6.44600 47.27600 25.82200
C  5.23700 47.24400 26.63000
C  5.70500 47.39800 27.96600
C  7.06300 47.66300 27.91500
C  3.79800 46.88800 26.16600
C  5.35200 47.35500 29.35800
O  4.35800 47.05500 29.90900
C  6.55300 47.73500 30.14700
C  6.76200 46.57700 31.07100
O  6.87800 45.42000 30.78600
O  6.68500 47.04600 32.32000
C  6.21900 46.11900 33.34500
H  13.06700 49.28400 28.77200
H  11.92600 47.11600 22.64600
H  5.71400 46.75700 23.91300
H  8.89200 49.13900 31.41900
H  11.76600 49.15000 30.77600
H  9.95000 51.34000 31.11400
H  10.45600 51.41700 29.47900
H  11.70300 51.23400 30.73700
H  10.74900 46.78600 30.89700
H  9.31600 46.58600 31.73900
H  10.27600 48.49400 33.19000
H  11.84300 47.99100 32.79300
H  14.99900 49.58000 27.63900
H  15.44400 50.31500 26.12000
H  15.89300 48.73100 26.45900
H  16.47100 48.35800 24.42000
H  15.99300 49.91800 23.86200
H  16.34900 48.55400 22.75500
H  10.00700 45.64700 21.82000
H  7.36700 47.11400 21.59000
H  9.08400 48.08400 20.57500
H  10.08300 46.76100 19.91500
H  10.75000 48.13300 20.97400
H  8.14300 44.59700 21.10300
H  6.47000 45.01400 21.54400
H  8.34200 44.34800 23.74400
H  8.15700 43.09300 22.63500
H  6.62700 43.76600 23.39200
H  3.74300 47.32900 25.17000
H  3.00300 47.33000 26.76700
H  3.63700 45.81000 26.17800
H  6.41700 48.63500 30.74700
H  5.48600 46.69600 33.90900
H  7.07100 45.99300 34.01300
H  5.88400 45.13600 33.01200

