158

Mg 43.27900 3.45200 47.35300
C  41.08000 6.16600 46.63700
C  40.50900 1.32800 46.94500
C  45.40800 0.87500 47.41300
C  46.09500 5.72400 47.14100
N  41.14700 3.73200 46.93700
C  40.41200 4.94100 46.73000
C  38.91100 4.68800 46.44200
C  38.87200 3.19700 46.88400
C  40.27700 2.71300 46.95400
C  38.10500 2.91900 48.23000
C  38.65500 4.91000 44.89900
C  37.33600 5.47900 44.47700
H  37.38500 6.57800 43.42000
N  42.97400 1.38800 47.13700
C  41.76100 0.68100 47.04700
C  41.99800 -0.76700 47.05400
C  43.43500 -0.89700 47.20300
C  44.02000 0.47300 47.22900
C  40.88100 -1.89200 47.14100
C  44.16100 -2.18500 47.33700
O  43.58200 -3.28500 47.13300
C  45.57600 -2.35900 47.57200
N  45.38100 3.32100 47.28600
C  45.94900 2.14100 47.51100
C  47.50000 2.22400 47.53300
C  47.74200 3.76200 47.44900
C  46.32400 4.35800 47.30800
C  48.18000 1.43200 48.69000
C  48.77500 4.19100 46.39600
C  48.57700 3.66100 44.89100
N  43.57900 5.48200 47.01600
C  44.75500 6.31400 46.97900
C  44.29600 7.73800 46.81800
C  42.87200 7.66200 46.77000
C  42.51600 6.29400 46.78600
C  45.17600 9.02600 46.83900
C  41.64800 8.46900 46.66300
O  41.50900 9.70100 46.59100
C  40.42900 7.52300 46.66100
C  39.48900 7.84900 47.79500
O  39.68400 7.52900 48.94900
O  38.26600 8.39500 47.33200
C  37.30100 8.61100 48.43000
H  39.53900 0.83200 46.87300
H  46.10600 0.05500 47.23500
H  46.96500 6.38300 47.10700
H  38.31300 5.34700 47.07100
H  38.27800 2.62200 46.17400
H  37.29600 2.22700 47.99400
H  37.63000 3.87600 48.44700
H  38.70100 2.69300 49.11400
H  38.92200 4.00900 44.34700
H  39.34500 5.65200 44.49600
H  36.89900 5.98800 45.33600
H  36.69200 4.65500 44.16800
H  39.90000 -1.44500 46.98100
H  40.74300 -2.24100 48.16400
H  41.14800 -2.65500 46.40900
H  46.23600 -2.25100 46.71100
H  45.67800 -3.36200 47.98500
H  46.00500 -1.70700 48.33200
H  47.80400 1.78800 46.58200
H  48.00700 4.10600 48.44900
H  47.57300 0.66500 49.17200
H  48.72200 1.99600 49.44900
H  48.87400 0.82300 48.11100
H  49.75700 3.87500 46.74700
H  48.88400 5.27300 46.47200
H  49.33800 2.98600 44.50000
H  48.42500 4.48800 44.19700
H  47.66800 3.06500 44.81400
H  45.42500 9.45100 47.81200
H  44.82100 9.70800 46.06600
H  46.17000 8.69700 46.53800
H  39.76800 7.72900 45.81900
H  36.30700 8.91100 48.09900
H  37.72000 9.25600 49.20200
H  37.16200 7.63500 48.89500
Mg 29.83500 58.50500 40.28400
C  26.81800 57.00400 39.16200
C  31.55100 55.69800 38.95200
C  32.68600 60.47200 39.86800
C  28.02900 61.42000 40.82700
N  29.18700 56.58400 39.16200
C  27.94900 56.17000 38.84700
C  27.90100 54.87000 37.93600
C  29.37700 54.30600 38.23900
C  30.13900 55.61500 38.83300
C  29.33500 53.19400 39.33700
C  27.76500 55.23600 36.40800
C  27.40100 54.15400 35.42900
H  26.60200 54.64100 34.21100
N  31.86600 58.11200 39.68800
C  32.34700 56.93500 39.21300
C  33.79800 57.08200 39.04100
C  34.15100 58.46700 39.27600
C  32.87100 59.05600 39.65700
C  34.63200 55.95200 38.59100
C  35.50100 59.19700 39.07200
O  36.39700 58.64600 38.43500
C  35.80800 60.54800 39.59900
N  30.33300 60.66900 40.35000
C  31.54200 61.19300 40.25400
C  31.60700 62.70600 40.54500
C  30.15900 62.97500 40.90700
C  29.46400 61.63800 40.74400
C  32.68100 63.18800 41.55500
C  29.31500 64.08000 40.07700
C  28.56000 65.13800 40.88300
N  27.75900 59.09400 40.23400
C  27.24300 60.35800 40.48200
C  25.82300 60.23900 40.24500
C  25.60000 58.94600 39.78600
C  26.81600 58.31200 39.74700
C  24.76600 61.34300 40.42800
C  24.54900 58.06400 39.18800
O  23.38800 58.26400 38.92700
C  25.31000 56.66900 38.91400
C  24.89800 55.77300 40.00100
O  24.64700 56.03400 41.11400
O  24.76600 54.49800 39.46200
C  24.06000 53.46400 40.24600
H  32.09200 54.82400 38.58100
H  33.43300 61.24700 39.68500
H  27.50200 62.32100 41.14800
H  27.10200 54.18900 38.22800
H  29.93100 53.96900 37.36400
H  28.33000 52.82700 39.54500
H  29.65600 53.43500 40.35000
H  29.80100 52.30100 38.92000
H  28.71100 55.65800 36.06800
H  26.99500 56.00400 36.33300
H  26.75900 53.45500 35.96400
H  28.34100 53.70000 35.11600
H  34.27300 55.22900 39.32300
H  35.71600 56.05600 38.64000
H  34.37500 55.62600 37.58400
H  36.89400 60.56000 39.70100
H  35.28800 60.44200 40.55000
H  35.43500 61.26900 38.87200
H  31.83300 63.30400 39.66100
H  30.05300 63.21300 41.96500
H  32.17600 63.48300 42.47500
H  33.20800 64.08400 41.22800
H  33.42500 62.45600 41.86900
H  28.66300 63.56000 39.37600
H  30.06500 64.62200 39.50200
H  28.76500 65.05400 41.95000
H  27.49800 64.99400 40.68200
H  28.84700 66.16100 40.64100
H  25.15000 61.94500 41.25100
H  23.80800 60.87900 40.65800
H  24.90900 61.95000 39.53300
H  25.18400 56.24500 37.91800
H  23.53700 52.86400 39.50100
H  23.29300 53.96300 40.83900
H  24.73300 52.84400 40.83900

