158

Mg 47.88200 45.12000 43.37800
C  44.46900 45.46200 42.65400
C  47.76900 41.98900 41.98000
C  51.25500 45.33700 43.14200
C  47.76100 48.42700 44.62800
N  46.34300 43.94300 42.40500
C  45.01800 44.26900 42.24600
C  44.31000 43.11700 41.48400
C  45.24500 41.91400 41.74300
C  46.50900 42.63300 42.06300
C  44.80900 41.01400 42.94600
C  44.16500 43.51100 39.97100
C  42.88100 43.01500 39.25600
H  42.81000 43.33500 37.80900
N  49.34200 43.82900 42.73400
C  49.07400 42.57600 42.18700
C  50.34700 41.87000 42.04900
C  51.42700 42.77100 42.34700
C  50.67500 44.05500 42.68700
C  50.49000 40.37000 41.69700
C  52.88500 42.39400 42.26700
O  53.27600 41.27400 41.91100
C  53.94500 43.35000 42.67300
N  49.28100 46.72800 43.51900
C  50.65900 46.51200 43.58000
C  51.39800 47.80700 44.11900
C  50.19900 48.76600 44.29100
C  48.98000 47.87600 44.23800
C  52.18800 47.58900 45.33800
C  50.19700 49.79200 43.10200
C  49.83800 51.25700 43.54500
N  46.43500 46.66000 43.65800
C  46.50100 47.90100 44.16900
C  45.25300 48.64200 44.15500
C  44.42200 47.71700 43.51400
C  45.18700 46.54900 43.22500
C  44.95800 49.94300 44.77400
C  43.11800 47.54600 43.05100
O  42.18900 48.32900 43.08300
C  43.07200 46.03300 42.43000
C  41.99400 45.26800 43.09900
O  41.30900 44.42700 42.52300
O  41.84700 45.56300 44.46100
C  40.94600 44.66400 45.23600
H  47.72700 40.94000 41.68100
H  52.34300 45.29900 43.05300
H  47.73700 49.42600 45.06800
H  43.33000 42.84100 41.87200
H  45.47300 41.33100 40.85000
H  44.69900 39.99400 42.57900
H  43.82000 41.12400 43.39200
H  45.63500 40.91400 43.65000
H  45.02700 43.31100 39.33500
H  44.05100 44.57100 39.74400
H  42.11200 43.55800 39.80600
H  42.68800 41.94800 39.36300
H  50.80800 40.37800 40.65500
H  49.69300 39.64000 41.83600
H  51.33400 40.02600 42.29400
H  53.91200 44.24400 42.04900
H  54.88700 42.83100 42.49100
H  53.79600 43.44200 43.74800
H  52.14600 48.11600 43.38800
H  50.15800 49.29600 45.24300
H  52.46700 46.53500 45.36300
H  51.58300 47.82200 46.21400
H  53.05700 48.24700 45.32900
H  49.49300 49.52100 42.31500
H  51.15300 49.82500 42.57900
H  50.76100 51.82700 43.65100
H  49.37000 51.26200 44.52900
H  49.20300 51.64500 42.74800
H  45.20700 50.77800 44.11900
H  45.69600 50.04400 45.57000
H  43.97300 49.95200 45.23900
H  42.88300 46.07800 41.35800
H  41.10800 44.96300 46.27200
H  41.22400 43.62100 45.08700
H  39.96100 44.92500 44.85000
Mg 36.56000 49.23600 25.78500
C  36.42000 47.14500 28.61900
C  35.50100 51.81400 27.73700
C  35.99300 50.99200 23.04700
C  36.91300 46.26100 23.88000
N  35.89100 49.41300 27.90900
C  36.01800 48.45700 28.87200
C  35.86600 49.09800 30.33200
C  35.34700 50.52800 29.96500
C  35.67100 50.65500 28.45600
C  33.83900 50.79600 30.22400
C  37.23300 49.04400 31.09900
C  37.11000 48.72300 32.63900
H  35.67200 48.64100 33.26900
N  35.96100 51.18900 25.45800
C  35.52000 52.04000 26.38400
C  35.00800 53.22000 25.78800
C  35.13500 53.02100 24.38700
C  35.73300 51.72200 24.22000
C  34.39500 54.37000 26.59800
C  34.71500 53.93400 23.27200
O  35.03300 53.64100 22.12900
C  33.92900 55.23900 23.64500
N  36.53200 48.73900 23.80400
C  36.41400 49.67200 22.85000
C  36.58700 49.04400 21.49200
C  36.89200 47.57600 21.76500
C  36.84400 47.54400 23.22800
C  35.36000 49.15600 20.52900
C  38.13600 46.96900 21.11200
C  39.45100 46.84500 21.86500
N  36.83400 47.11400 26.10300
C  36.92400 45.99600 25.24200
C  37.11100 44.79500 26.02300
C  36.96800 45.24900 27.33700
C  36.72300 46.63100 27.34900
C  37.12100 43.42500 25.56800
C  36.80800 44.74400 28.71800
O  36.85400 43.64400 29.20100
C  36.42200 45.98700 29.61800
C  35.11200 45.63300 30.16400
O  34.02600 45.80800 29.66500
O  35.35300 45.07300 31.40300
C  34.21400 44.65400 32.23700
H  35.29700 52.59100 28.47700
H  35.78900 51.51700 22.11200
H  36.92000 45.42200 23.18100
H  35.02200 48.57900 30.78600
H  35.99200 51.29700 30.38900
H  33.49100 49.93400 30.79400
H  33.34400 50.87400 29.25600
H  33.85800 51.69400 30.84200
H  37.71700 50.01700 31.02600
H  37.97300 48.38800 30.64000
H  37.69400 49.37200 33.29100
H  37.60100 47.76700 32.82100
H  34.42600 54.12200 27.65900
H  33.33700 54.49800 26.36900
H  35.00300 55.21600 26.27900
H  33.05500 55.03000 24.26300
H  33.71900 55.74000 22.70000
H  34.66900 55.94700 24.01900
H  37.44900 49.53300 21.03900
H  36.03500 46.92200 21.60500
H  35.67300 49.82100 19.72400
H  34.52300 49.58600 21.07800
H  35.19300 48.15500 20.13200
H  38.26600 47.52300 20.18200
H  37.84400 45.93400 20.93400
H  39.97600 47.68800 21.41700
H  39.98700 45.93200 21.60500
H  39.34900 46.94100 22.94600
H  36.83900 43.27800 24.52500
H  36.49300 42.83400 26.23500
H  38.16800 43.12600 25.62500
H  37.18700 46.02100 30.39400
H  34.58500 44.64400 33.26100
H  33.83400 43.67600 31.94300
H  33.43000 45.39800 32.09100

