158

Mg 35.80300 1.77100 29.03200
C  33.47200 2.90100 31.44800
C  38.24400 1.95700 31.31400
C  37.90400 1.30600 26.49100
C  33.07500 2.05500 26.66200
N  35.81000 2.52300 31.07400
C  34.78600 2.67400 31.94500
C  35.24300 2.80600 33.47300
C  36.83800 2.70600 33.33600
C  36.99000 2.29500 31.85300
C  37.65600 3.91600 33.78500
C  34.62300 1.75100 34.35600
C  34.24200 2.38400 35.76600
H  35.05800 3.58700 36.31900
N  37.75600 1.59100 28.90400
C  38.63300 1.60900 29.98800
C  40.02700 1.25200 29.49800
C  39.91100 1.03000 28.09300
C  38.48800 1.34700 27.80400
C  41.17700 0.95000 30.48800
C  41.15100 0.68700 27.15500
O  41.01600 0.56200 25.96600
C  42.50100 0.45000 27.71100
N  35.53400 1.70500 26.89100
C  36.59200 1.62200 26.07400
C  36.14100 1.79200 24.62700
C  34.55700 1.71300 24.60800
C  34.38000 1.76300 26.13800
C  36.67200 3.12900 24.04700
C  33.94300 0.49200 23.92100
C  34.04100 0.49900 22.36500
N  33.78400 2.30600 29.01000
C  32.86800 2.40500 27.99900
C  31.55900 2.87000 28.46600
C  31.79600 3.06900 29.84900
C  33.15500 2.78700 30.06600
C  30.28200 3.06800 27.77200
C  31.13400 3.46000 31.12500
O  29.93400 3.60200 31.40600
C  32.21900 3.38000 32.18800
C  32.34500 4.70200 32.85400
O  33.11000 5.62800 32.54300
O  31.53900 4.78200 33.98900
C  31.68700 5.94900 34.90100
H  39.07600 2.01700 32.01900
H  38.63500 1.03200 25.72800
H  32.25000 2.10700 25.94800
H  34.88400 3.78900 33.77500
H  37.17900 1.80900 33.85300
H  38.20300 4.46400 33.01800
H  38.46800 3.57500 34.42700
H  37.02500 4.60900 34.34100
H  35.33200 0.93100 34.47200
H  33.65000 1.50100 33.93500
H  34.27500 1.58300 36.50400
H  33.18000 2.62900 35.73400
H  40.78100 0.81200 31.49400
H  41.81900 1.82800 30.55800
H  41.72500 0.03800 30.24900
H  43.09200 0.39500 26.79800
H  42.49700 -0.54300 28.16200
H  42.82400 1.25900 28.36700
H  36.52100 0.95400 24.04200
H  34.15300 2.61200 24.14300
H  37.45600 3.63000 24.61400
H  35.92000 3.81600 23.65800
H  36.96900 2.83900 23.03900
H  32.95100 0.27900 24.32000
H  34.55400 -0.30400 24.34500
H  34.94900 -0.01000 22.04100
H  34.10200 1.50400 21.94800
H  33.20800 -0.03900 21.91200
H  29.69600 2.14900 27.74500
H  30.58800 3.43100 26.79100
H  29.67100 3.88200 28.16300
H  31.97700 2.59100 32.90000
H  30.83400 6.62300 34.81900
H  32.61900 6.48500 34.72100
H  31.59500 5.69900 35.95800
Mg -1.30600 33.88900 25.99000
C  -3.18700 32.15900 28.61300
C  0.01400 35.99500 28.24900
C  -0.08600 35.48300 23.50600
C  -3.12600 31.86600 23.74300
N  -1.69800 34.06500 28.10200
C  -2.40600 33.27100 29.00700
C  -2.06800 33.71300 30.43600
C  -1.16900 35.01000 30.24000
C  -0.86800 34.99700 28.79700
C  -1.92900 36.30700 30.79700
C  -1.36700 32.54100 31.26300
C  -2.01400 32.29800 32.70700
H  -1.10900 32.25300 33.99800
N  -0.16600 35.54300 25.83500
C  0.29300 36.33400 26.85100
C  1.21800 37.28300 26.39400
C  1.21300 37.12500 25.02100
C  0.29400 36.07000 24.72600
C  2.07400 38.16300 27.32000
C  2.14100 37.89200 24.03200
O  2.11900 37.76600 22.78400
C  3.13000 38.88900 24.51400
N  -1.81300 33.91800 23.80600
C  -1.00800 34.57100 22.99900
C  -1.05600 34.08300 21.57400
C  -1.67100 32.67700 21.73600
C  -2.27400 32.79500 23.17000
C  -1.66100 34.87000 20.48000
C  -0.60500 31.52100 21.62500
C  -1.15800 30.35000 20.80100
N  -2.82300 32.32900 26.09500
C  -3.47100 31.62300 25.07600
C  -4.42100 30.67000 25.60600
C  -4.21100 30.79500 26.99700
C  -3.35800 31.85100 27.23100
C  -5.32300 29.76400 24.84300
C  -4.67000 30.25300 28.25600
O  -5.39300 29.28300 28.44400
C  -4.03600 31.13500 29.32200
C  -5.20600 31.73800 30.02400
O  -5.74600 32.78100 29.75200
O  -5.38700 31.08200 31.21200
C  -6.20300 31.80600 32.19300
H  0.54600 36.59700 28.98900
H  0.28900 36.04800 22.65000
H  -3.68700 31.23100 23.05400
H  -3.07100 33.75600 30.86000
H  -0.25700 34.91300 30.83000
H  -1.40700 36.84400 31.58900
H  -2.87000 35.87300 31.13500
H  -2.14700 36.93900 29.93700
H  -0.35000 32.78700 31.56700
H  -1.45900 31.70300 30.57200
H  -2.64900 31.41300 32.76000
H  -2.74600 33.10200 32.78400
H  1.86300 38.09100 28.38700
H  2.04300 39.22200 27.06800
H  3.12200 37.90000 27.17800
H  2.57200 39.63600 25.07800
H  3.80200 39.38300 23.81100
H  3.84400 38.47100 25.22400
H  0.00900 34.04800 21.34500
H  -2.49900 32.43800 21.06900
H  -2.63100 34.52400 20.12300
H  -0.96000 34.97000 19.65100
H  -1.83900 35.83000 20.96400
H  -0.31500 31.17000 22.61500
H  0.26400 32.00800 21.18100
H  -0.47700 30.36200 19.95000
H  -2.13900 30.39200 20.32700
H  -1.12700 29.36500 21.26800
H  -6.20600 29.51200 25.43100
H  -4.78200 28.89000 24.48000
H  -5.62400 30.40000 24.01000
H  -3.52400 30.49300 30.03800
H  -5.55500 32.41000 32.83000
H  -6.75100 31.15600 32.87500
H  -6.78800 32.58200 31.70000

