158

Mg 26.92600 51.13600 27.14900
C  24.52600 52.12900 29.45600
C  28.95200 50.22800 29.53500
C  29.12000 50.60700 24.78300
C  24.57300 52.24600 24.63500
N  26.73300 51.27500 29.33500
C  25.64100 51.51200 30.06000
C  25.84200 51.23400 31.50700
C  27.33400 50.56000 31.52900
C  27.69600 50.66800 30.04700
C  28.18900 51.31500 32.54500
C  24.76100 50.29800 32.07700
C  24.04400 50.72400 33.41000
H  24.19000 49.76500 34.58700
N  28.83000 50.56000 27.18200
C  29.53400 50.26700 28.26500
C  30.89700 49.93600 27.90200
C  30.96200 50.17300 26.47500
C  29.59500 50.46400 26.06300
C  31.96500 49.58000 28.81400
C  32.12100 50.08800 25.56200
O  32.14000 50.40300 24.34600
C  33.46700 49.60700 26.07600
N  26.78900 51.36700 25.01500
C  27.86400 51.00700 24.26700
C  27.69500 51.02100 22.82300
C  26.13200 51.31900 22.74900
C  25.73000 51.64800 24.23000
C  28.57100 52.05000 22.05200
C  25.16400 50.22000 22.19600
C  23.81200 50.75300 21.64700
N  24.95700 52.01700 27.02400
C  24.21400 52.45700 25.98300
C  23.01700 53.05300 26.41700
C  23.07100 52.91200 27.81700
C  24.26700 52.25500 28.10700
C  22.04200 53.74700 25.51400
C  22.38200 53.24400 29.05500
O  21.31500 53.77400 29.28500
C  23.24900 52.57200 30.12600
C  23.59800 53.62000 31.14600
O  24.42200 54.51200 31.08300
O  22.75000 53.45900 32.21400
C  23.00900 54.44000 33.31500
H  29.61500 49.89000 30.33400
H  29.79100 50.21700 24.01400
H  23.76100 52.33800 23.91100
H  25.81700 52.17500 32.05600
H  27.41000 49.50000 31.77300
H  29.14400 50.79600 32.63700
H  27.89600 51.28500 33.59500
H  28.38200 52.34500 32.24700
H  25.26500 49.36300 32.32000
H  23.90600 50.05300 31.44700
H  22.98900 50.87600 33.18100
H  24.37800 51.66800 33.84000
H  31.60400 49.74900 29.82800
H  32.88900 50.15200 28.72900
H  32.22100 48.54600 28.58100
H  34.14600 49.51500 25.22800
H  33.42000 48.62200 26.54000
H  33.82800 50.36000 26.77600
H  27.93500 50.02500 22.45300
H  26.00600 52.18900 22.10400
H  29.54200 52.03900 22.54700
H  28.15500 53.05600 22.10100
H  28.67000 51.74500 21.01000
H  24.88000 49.64900 23.08000
H  25.66100 49.52000 21.52400
H  23.67100 50.56600 20.58300
H  23.69500 51.79500 21.94600
H  22.99100 50.26300 22.17000
H  21.07500 53.74100 26.01800
H  21.79300 53.05800 24.70700
H  22.40100 54.75200 25.29500
H  22.64200 51.78100 30.56700
H  23.99700 54.39000 33.77300
H  22.30600 54.34700 34.14300
H  22.85100 55.47400 33.00700
Mg -5.55500 25.94400 26.24900
C  -4.30800 27.60900 29.02400
C  -7.00000 23.68800 28.29900
C  -6.53600 24.21800 23.38900
C  -3.72500 28.06500 24.13200
N  -5.66300 25.80500 28.35600
C  -5.20300 26.61600 29.33900
C  -5.61000 26.15100 30.73300
C  -6.13200 24.72200 30.46900
C  -6.28200 24.70800 28.90200
C  -5.27900 23.59700 31.08800
C  -6.66600 27.12300 31.27400
C  -6.65700 27.00600 32.83200
H  -6.04700 25.76900 33.65200
N  -6.63300 24.26700 25.93500
C  -7.17900 23.43100 26.90500
C  -7.95600 22.43500 26.31300
C  -7.95000 22.61600 24.92700
C  -6.97300 23.70500 24.66000
C  -8.37100 21.20800 27.11100
C  -8.65900 21.81500 23.87400
O  -8.43500 22.00300 22.70000
C  -9.71200 20.68000 24.09700
N  -5.22000 26.15200 24.07100
C  -5.78300 25.37900 23.09300
C  -5.42100 25.80800 21.68100
C  -4.64300 27.10000 21.90500
C  -4.61200 27.19300 23.40500
C  -4.60900 24.74900 20.89100
C  -5.35900 28.43900 21.32500
C  -5.21500 28.70400 19.72000
N  -4.14000 27.44700 26.46000
C  -3.50400 28.25200 25.57500
C  -2.68600 29.21800 26.29200
C  -2.91500 29.00600 27.63300
C  -3.89400 27.94800 27.68300
C  -1.85800 30.35500 25.65800
C  -2.62500 29.42300 28.98900
O  -1.97500 30.33600 29.46900
C  -3.55900 28.60900 29.93000
C  -2.68400 27.96200 30.82300
O  -1.87400 27.13600 30.52900
O  -2.96000 28.37700 32.14900
C  -2.34400 27.46000 33.13400
H  -7.55600 23.04600 28.98500
H  -6.85400 23.66100 22.50500
H  -3.30700 28.77300 23.41300
H  -4.71600 26.10700 31.35500
H  -7.16900 24.69400 30.80300
H  -5.92700 22.93500 31.66200
H  -4.43600 24.04100 31.61700
H  -4.77800 22.99300 30.33100
H  -7.63200 26.83500 30.85900
H  -6.57300 28.17300 30.99600
H  -7.67000 27.11400 33.22000
H  -6.01500 27.79000 33.23300
H  -8.48700 20.34700 26.45400
H  -9.44200 21.27000 27.29900
H  -7.77400 21.10500 28.01700
H  -10.34100 20.40100 23.25200
H  -10.39500 20.98100 24.89200
H  -9.27000 19.72700 24.38600
H  -6.30800 25.91400 21.05500
H  -3.61400 27.02600 21.55300
H  -4.31000 23.88000 21.47700
H  -3.70900 25.21900 20.49500
H  -5.20000 24.39100 20.04800
H  -4.97500 29.30000 21.87200
H  -6.42700 28.27000 21.46400
H  -4.97200 29.76700 19.70400
H  -6.15500 28.43900 19.23700
H  -4.43100 28.04000 19.35700
H  -2.43700 31.27500 25.74400
H  -1.92700 30.26000 24.57400
H  -0.81000 30.38500 25.95400
H  -4.28500 29.28000 30.38900
H  -2.57500 26.40100 33.02500
H  -2.67700 27.87500 34.08500
H  -1.27600 27.63800 33.00600

