158

Mg 46.12400 24.41600 28.58900
C  46.99800 26.71600 31.11600
C  45.83900 22.02400 30.99600
C  45.50500 22.18700 26.07800
C  47.21000 26.74300 26.24000
N  46.19800 24.46200 30.78200
C  46.53500 25.51200 31.56800
C  46.42900 25.12400 33.04300
C  46.52900 23.51700 33.03500
C  46.10600 23.30400 31.51400
C  47.92300 22.92900 33.44700
C  45.12800 25.69100 33.61500
C  45.37700 26.84000 34.64800
H  44.68700 26.75500 35.99000
N  45.58000 22.39800 28.59200
C  45.54300 21.57400 29.72800
C  45.29500 20.18600 29.27100
C  45.33300 20.23100 27.79000
C  45.46200 21.60300 27.40200
C  45.39300 19.00300 30.18500
C  45.38900 18.99600 26.82000
O  45.44600 19.07800 25.59400
C  45.48900 17.65500 27.41200
N  46.38600 24.42300 26.52800
C  45.96200 23.48200 25.69800
C  46.17600 23.80800 24.19300
C  46.49800 25.28700 24.30500
C  46.71100 25.50900 25.74900
C  47.30500 22.83000 23.67600
C  45.37400 26.14300 23.74500
C  45.72400 27.39000 23.00500
N  47.02300 26.25900 28.58900
C  47.34300 27.11300 27.56000
C  47.67600 28.42700 28.04900
C  47.57600 28.30400 29.45600
C  47.18800 26.98600 29.71100
C  48.17500 29.52500 27.25000
C  47.77400 28.96200 30.78700
O  48.30400 30.04500 30.95000
C  47.37400 27.98400 31.91500
C  48.66000 27.74000 32.75100
O  49.60500 27.29700 32.25000
O  48.56400 28.17900 34.05300
C  49.78000 28.07200 34.85500
H  45.82700 21.30100 31.81400
H  45.24600 21.54100 25.23700
H  47.47900 27.42100 25.42700
H  47.29400 25.52300 33.57200
H  45.77200 23.06100 33.67300
H  48.30000 22.34700 32.60600
H  47.69400 22.40500 34.37500
H  48.63300 23.75400 33.51500
H  44.48100 24.94800 34.08200
H  44.54600 26.01700 32.75300
H  44.83400 27.69600 34.24700
H  46.45600 26.94600 34.76900
H  45.49400 19.30600 31.22800
H  46.31500 18.42700 30.11000
H  44.49000 18.39400 30.16400
H  46.46800 17.56400 27.88200
H  45.46800 16.88100 26.64400
H  44.63800 17.43600 28.05700
H  45.17900 23.64800 23.78200
H  47.41800 25.50900 23.76400
H  48.22300 23.41000 23.58900
H  47.04100 22.60000 22.64400
H  47.31700 21.92100 24.27800
H  44.66000 26.34200 24.54400
H  44.90900 25.58500 22.93300
H  45.59500 27.30300 21.92600
H  46.80400 27.52400 23.07500
H  45.20200 28.24900 23.42600
H  47.71300 29.45900 26.26500
H  49.25900 29.50000 27.14200
H  47.82200 30.43100 27.74200
H  46.56800 28.22800 32.60700
H  49.57100 27.56200 35.79500
H  50.02900 29.11800 35.03200
H  50.59800 27.60600 34.30700
Mg 9.30900 48.24700 25.34500
C  6.98500 48.80500 27.86600
C  11.70100 49.46500 27.44000
C  11.46100 47.64800 22.96800
C  6.67200 47.70000 22.98800
N  9.27800 49.20400 27.40000
C  8.28300 49.05500 28.35000
C  8.81800 49.13700 29.83200
C  10.21500 49.83500 29.60200
C  10.42800 49.47400 28.02300
C  10.15700 51.34300 29.82700
C  8.80600 47.75600 30.52400
C  9.37600 47.75700 31.96000
H  8.46000 47.21600 33.06100
N  11.34000 48.39000 25.25500
C  12.14800 48.90400 26.25200
C  13.50900 48.71900 25.78200
C  13.52000 48.21600 24.51400
C  12.05500 48.08700 24.18400
C  14.66000 49.15200 26.71600
C  14.58300 47.90800 23.57400
O  14.38600 47.35600 22.50000
C  15.96700 48.10200 23.99600
N  9.07200 47.81300 23.23600
C  10.18100 47.60200 22.57300
C  9.86500 46.99000 21.16000
C  8.29500 47.01700 21.13800
C  7.97200 47.61500 22.47700
C  10.67700 47.51000 19.93700
C  7.60600 45.67000 20.78800
C  6.59400 45.75600 19.54200
N  7.25800 48.33100 25.37600
C  6.28400 48.09200 24.30600
C  4.98400 48.18200 24.90900
C  5.25700 48.41800 26.34000
C  6.59000 48.52500 26.50700
C  3.62800 48.18300 24.17600
C  4.58800 48.66500 27.59900
O  3.36000 48.60700 27.88300
C  5.70100 48.85900 28.65100
C  5.39500 47.74800 29.66100
O  5.74900 46.60100 29.59600
O  4.60200 48.23000 30.65900
C  4.06900 47.26200 31.63700
H  12.46900 49.69000 28.18300
H  12.11900 47.31300 22.16400
H  5.87000 47.53400 22.26700
H  8.16000 49.77200 30.42500
H  11.05600 49.35900 30.10600
H  9.26000 51.61300 30.38300
H  10.18700 51.88500 28.88100
H  11.01300 51.60800 30.44800
H  9.23700 46.91900 29.97700
H  7.75500 47.52200 30.69300
H  9.72300 48.78000 32.10900
H  10.23500 47.08700 31.92400
H  14.42900 49.36600 27.75900
H  15.03900 50.12400 26.40000
H  15.44800 48.40000 26.67200
H  16.12500 47.31300 24.73100
H  16.01300 49.05400 24.52400
H  16.60700 48.05500 23.11500
H  10.25500 45.97200 21.13900
H  7.94100 47.86300 20.54900
H  10.08800 48.19400 19.32700
H  11.14300 46.77800 19.27700
H  11.49900 48.06200 20.39300
H  7.14800 45.14300 21.62500
H  8.37700 44.93900 20.54800
H  5.78600 45.04900 19.73300
H  7.07300 45.67600 18.56600
H  6.10900 46.72500 19.65500
H  3.84300 48.10200 23.11100
H  2.99700 49.04400 24.39900
H  3.10500 47.35500 24.65500
H  5.67300 49.83300 29.14000
H  3.44600 47.92100 32.24100
H  4.89500 46.97800 32.28900
H  3.57600 46.37700 31.23500

