158

Mg 37.78200 50.00800 25.09300
C  38.21300 48.05100 28.00700
C  36.07000 52.35600 26.86200
C  36.78800 51.54700 22.15700
C  38.97900 47.34800 23.16000
N  37.05200 50.01800 27.25800
C  37.54000 49.29000 28.26900
C  37.22200 49.83500 29.65100
C  36.50400 51.22800 29.19900
C  36.58700 51.24500 27.70900
C  35.02000 51.22100 29.75600
C  38.55900 50.04300 30.49300
C  38.33300 49.73300 32.06000
H  36.90000 49.87600 32.69100
N  36.76900 51.89000 24.58300
C  36.07600 52.69100 25.46300
C  35.64600 53.82300 24.77200
C  35.83500 53.57100 23.37500
C  36.43100 52.29000 23.25700
C  35.09800 55.06400 25.45500
C  35.59000 54.48900 22.19000
O  35.79800 54.14500 21.04200
C  34.97500 55.89700 22.45900
N  37.70100 49.43800 22.96000
C  37.45900 50.34800 21.95100
C  37.89800 49.81200 20.56100
C  38.80900 48.60300 20.92100
C  38.47800 48.43800 22.43800
C  36.78000 49.53000 19.57300
C  40.20500 48.77700 20.31300
C  41.40700 49.25200 21.13600
N  38.36900 48.10900 25.41200
C  38.86100 47.15100 24.56300
C  39.32700 45.96900 25.25800
C  39.17800 46.33800 26.63000
C  38.49900 47.60000 26.67700
C  39.68800 44.66600 24.76300
C  39.27600 45.87800 28.00700
O  39.75500 44.80100 28.34600
C  38.64600 46.98400 29.01400
C  37.56900 46.33800 29.76400
O  36.42600 46.06000 29.39500
O  37.96900 46.13000 31.02000
C  36.95200 45.83100 31.98300
H  35.68900 53.11100 27.55300
H  36.51400 51.99000 21.19800
H  39.56600 46.65900 22.55000
H  36.50600 49.12400 30.06300
H  36.94200 52.13300 29.61900
H  34.89900 51.97200 30.53700
H  34.69600 50.24700 30.12200
H  34.36600 51.53200 28.94200
H  38.87400 51.08000 30.37700
H  39.37000 49.39100 30.16800
H  38.99900 50.43300 32.56500
H  38.59000 48.70200 32.30400
H  34.03600 54.82700 25.52100
H  35.42400 56.05900 25.15200
H  35.48400 55.08900 26.47400
H  33.97800 55.77100 22.88100
H  34.78000 56.43300 21.53000
H  35.67100 56.56400 22.96800
H  38.39500 50.67900 20.12700
H  38.41600 47.72500 20.40700
H  36.87000 50.28500 18.79100
H  35.85200 49.74500 20.10200
H  36.73300 48.52500 19.15400
H  40.12900 49.46400 19.47000
H  40.57500 47.84800 19.88100
H  41.28600 50.30700 21.38300
H  42.29100 49.27100 20.50000
H  41.55800 48.57600 21.97800
H  39.98500 44.06600 25.62300
H  40.47300 44.69200 24.00700
H  38.83200 44.10800 24.38200
H  39.42500 47.33400 29.69200
H  36.59200 44.85600 31.65500
H  36.14500 46.55800 32.07000
H  37.46600 45.61300 32.91900
Mg -12.30100 16.79800 41.45100
C  -9.37300 14.95200 41.15300
C  -10.63200 19.54900 40.02500
C  -15.27600 18.16800 40.89100
C  -13.96100 13.77700 42.32200
N  -10.17400 17.14000 40.57600
C  -9.15600 16.25900 40.64200
C  -7.84200 16.83500 40.05400
C  -8.24700 18.36400 39.81100
C  -9.76600 18.37600 40.19000
C  -7.41400 19.37800 40.55200
C  -7.23900 16.08600 38.76200
C  -5.74600 16.28500 38.45400
H  -5.35500 16.95600 37.15900
N  -12.91700 18.63400 40.66600
C  -12.05600 19.62400 40.09800
C  -12.89800 20.70500 39.65200
C  -14.22900 20.43400 40.01100
C  -14.18400 19.02300 40.51800
C  -12.30200 21.92700 38.90400
C  -15.47100 21.37500 39.78800
O  -15.29200 22.44200 39.14400
C  -16.84400 21.12000 40.48900
N  -14.30900 16.10900 41.67800
C  -15.37300 16.90900 41.49500
C  -16.73200 16.16300 41.65900
C  -16.21700 14.83000 42.18800
C  -14.71000 14.88700 42.04800
C  -17.85400 16.83200 42.42600
C  -16.77600 13.53000 41.56000
C  -17.17100 12.35900 42.48200
N  -11.79100 14.74500 41.78200
C  -12.61700 13.64800 42.03200
C  -11.77200 12.49900 42.09200
C  -10.52300 12.94100 41.71500
C  -10.60800 14.30700 41.46400
C  -12.13800 11.15000 42.68000
C  -9.09600 12.53400 41.66200
O  -8.58400 11.46100 41.71200
C  -8.30100 13.83300 41.23400
C  -7.09400 14.13900 42.18500
O  -7.20900 14.17200 43.42800
O  -5.94000 14.37200 41.49600
C  -4.75900 14.80000 42.26100
H  -10.19100 20.48700 39.68400
H  -16.21500 18.66700 40.64300
H  -14.38400 12.84200 42.69500
H  -7.10300 16.81500 40.85500
H  -8.02200 18.65400 38.78500
H  -6.96500 18.88300 41.41300
H  -7.94400 20.28400 40.84400
H  -6.63200 19.78500 39.91100
H  -7.85000 16.43000 37.92800
H  -7.48200 15.06000 39.04100
H  -5.20700 15.35100 38.61100
H  -5.29600 16.88900 39.24200
H  -12.71800 21.89200 37.89700
H  -11.23200 22.13100 38.86500
H  -12.72000 22.82600 39.35700
H  -17.39200 22.06200 40.52000
H  -16.55000 20.85200 41.50400
H  -17.52700 20.42500 40.00100
H  -17.07500 16.01900 40.63500
H  -16.40100 14.81800 43.26200
H  -18.68800 17.13200 41.79100
H  -17.52100 17.75100 42.90800
H  -18.18300 16.19000 43.24400
H  -16.20800 13.27400 40.66600
H  -17.70600 13.98900 41.22300
H  -16.53200 11.51100 42.23400
H  -18.21400 12.15400 42.24200
H  -17.11000 12.60200 43.54300
H  -12.89100 11.19700 43.46700
H  -11.15300 10.80400 42.99300
H  -12.51000 10.38400 42.00000
H  -7.91700 13.52000 40.26300
H  -4.19200 14.02500 42.77700
H  -4.99500 15.44900 43.10500
H  -4.16600 15.40200 41.57300

