158

Mg 8.99300 3.83200 27.20300
C  10.25700 2.22200 30.03000
C  7.03800 5.75000 29.24000
C  7.87400 5.47800 24.50600
C  10.69300 1.57300 25.24800
N  8.68900 3.87500 29.39200
C  9.42100 3.26600 30.38000
C  9.08000 3.90100 31.72700
C  7.85600 4.83200 31.53300
C  7.86400 4.82300 29.95800
C  6.50200 4.41100 32.08600
C  10.32200 4.54500 32.37900
C  10.16900 5.18100 33.77900
H  10.99600 4.62100 34.97700
N  7.62200 5.33900 26.89000
C  6.87300 5.98500 27.84800
C  6.09900 7.10500 27.25300
C  6.49700 7.13900 25.91800
C  7.35400 5.93100 25.72400
C  5.16700 8.02900 27.99700
C  6.18200 8.15000 24.87100
O  6.52400 7.99700 23.67700
C  5.45700 9.48700 25.24900
N  9.02200 3.37300 25.10800
C  8.68600 4.33100 24.24300
C  9.19700 4.02600 22.88300
C  10.06300 2.69200 23.02100
C  9.90600 2.46500 24.53800
C  8.08900 3.95600 21.83400
C  11.55200 2.75200 22.42900
C  11.98400 1.52600 21.67600
N  10.19100 2.15600 27.48600
C  10.82500 1.37500 26.59300
C  11.64400 0.36900 27.22100
C  11.40600 0.67000 28.59900
C  10.49200 1.76100 28.68300
C  12.55000 -0.71100 26.71900
C  11.73800 0.29700 29.87400
O  12.60000 -0.51200 30.14700
C  11.09200 1.27800 30.89900
C  10.38400 0.65700 32.05800
O  9.22200 0.24100 31.96400
O  11.19600 0.68600 33.15900
C  10.39800 0.58100 34.37400
H  6.50600 6.36400 29.96800
H  7.80600 6.24000 23.72700
H  11.26200 0.88300 24.62100
H  8.83200 3.07900 32.39700
H  8.06300 5.87600 31.76500
H  6.62100 3.41400 32.51000
H  5.69700 4.33700 31.35500
H  6.11600 4.98300 32.93000
H  10.74300 5.33600 31.75700
H  11.15600 3.84300 32.39500
H  9.14100 5.13400 34.13800
H  10.36100 6.25000 33.69500
H  5.65500 8.96400 28.26900
H  4.92800 7.59100 28.96600
H  4.23800 8.16600 27.44300
H  5.63600 10.16400 24.41300
H  5.89100 9.96700 26.12600
H  4.43100 9.12500 25.31800
H  9.82600 4.85900 22.57100
H  9.57700 1.82300 22.57700
H  7.17000 4.18300 22.37500
H  7.92600 3.07000 21.22000
H  8.14100 4.74100 21.07900
H  12.25600 2.85800 23.25500
H  11.64900 3.63700 21.80000
H  12.81900 1.00200 22.14100
H  12.20400 1.84000 20.65600
H  11.12300 0.86000 21.61400
H  12.36200 -0.85800 25.65600
H  12.41400 -1.69500 27.16600
H  13.56400 -0.39100 26.96200
H  11.97300 1.82200 31.23900
H  11.06100 0.20300 35.15200
H  9.52600 -0.07300 34.36600
H  10.07500 1.59400 34.61300
Mg 9.39100 48.43200 25.86300
C  7.36300 48.98800 28.72700
C  12.07000 50.10800 27.63600
C  11.43200 48.23200 23.10100
C  6.68000 47.42800 24.16400
N  9.68600 49.40600 27.99000
C  8.73000 49.51300 28.97400
C  9.43400 49.86100 30.27600
C  10.82200 50.41600 29.82900
C  10.87200 50.01100 28.36700
C  11.10100 51.92900 30.09400
C  9.50600 48.68900 31.19800
C  9.11000 48.98100 32.67400
H  8.91500 47.80200 33.61400
N  11.46100 48.94300 25.47100
C  12.31700 49.69700 26.30000
C  13.60500 49.60800 25.72000
C  13.45400 49.06200 24.39600
C  12.08600 48.67600 24.27300
C  14.84300 50.28000 26.43000
C  14.63000 48.84900 23.38800
O  14.39900 48.32900 22.29800
C  16.09000 49.41000 23.58700
N  9.19200 47.89600 23.89600
C  10.10900 47.91200 22.92200
C  9.47700 47.48400 21.53300
C  8.09600 46.97000 22.01200
C  7.94600 47.42900 23.43500
C  9.46800 48.69800 20.57200
C  7.90900 45.40300 21.89100
C  8.57600 44.52500 22.96200
N  7.34100 48.22600 26.25000
C  6.32800 47.95200 25.40600
C  5.12200 47.91500 26.13600
C  5.44900 48.35800 27.40400
C  6.86400 48.57700 27.45800
C  3.83000 47.57900 25.56500
C  4.83500 48.69300 28.74400
O  3.69100 48.76200 29.10400
C  6.13000 48.89900 29.69100
C  6.15000 47.67300 30.53000
O  6.73200 46.60900 30.25000
O  5.21200 47.74800 31.54000
C  5.04100 46.46000 32.32100
H  12.86800 50.63300 28.16500
H  12.07900 48.07700 22.23600
H  5.85400 46.98900 23.60100
H  8.90900 50.70200 30.72800
H  11.66700 49.84000 30.20500
H  10.71300 52.41400 29.19800
H  12.16500 52.16100 30.13000
H  10.58300 52.25600 30.99500
H  10.50100 48.25500 31.09400
H  8.89800 47.84400 30.87600
H  8.12900 49.42800 32.51700
H  9.81100 49.66700 33.15000
H  14.68500 50.59900 27.46000
H  15.19900 51.16300 25.90000
H  15.64600 49.54300 26.43800
H  15.89800 50.45000 23.32500
H  16.74300 48.98800 22.82200
H  16.46600 49.15700 24.57800
H  10.15500 46.72500 21.14400
H  7.39900 47.39600 21.29100
H  9.70600 49.63300 21.08000
H  8.49300 48.85500 20.11000
H  10.27900 48.58900 19.85100
H  8.37200 45.16300 20.93300
H  6.85600 45.12300 21.89200
H  9.37600 45.01300 23.51900
H  8.95000 43.68500 22.37700
H  7.87200 44.25000 23.74700
H  3.64200 46.51500 25.42700
H  3.83600 48.10200 24.60800
H  3.03700 47.92700 26.22700
H  5.98600 49.84900 30.20600
H  5.39700 46.70900 33.32100
H  5.61200 45.60900 31.95100
H  4.00200 46.14900 32.43200

