158

Mg 24.64200 -7.11100 48.67000
C  27.13700 -5.12300 47.05400
C  22.54100 -6.47400 45.91900
C  22.61600 -9.58500 49.69600
C  27.16400 -8.14100 50.94700
N  24.87300 -5.96900 46.72200
C  25.96500 -5.24700 46.32100
C  25.64100 -4.55100 44.96700
C  24.11700 -4.84000 44.61200
C  23.79600 -5.79400 45.84400
C  23.19100 -3.58600 44.59300
C  26.56800 -4.95200 43.80900
C  27.39200 -3.92000 43.09900
H  27.21600 -3.69000 41.64100
N  22.68400 -7.76600 48.14500
C  22.04300 -7.28600 47.03200
C  20.70000 -7.89700 47.05200
C  20.63500 -8.81200 48.19000
C  22.03900 -8.82600 48.68200
C  19.69300 -7.73900 46.00500
C  19.49800 -9.63200 48.79600
O  18.39300 -9.62700 48.30600
C  19.61500 -10.33500 50.10700
N  24.86800 -8.57100 50.17000
C  23.88700 -9.60800 50.33100
C  24.16600 -10.39000 51.63700
C  25.56000 -9.84200 52.12600
C  25.88100 -8.77700 51.06600
C  23.00000 -10.43700 52.70200
C  26.56000 -11.03700 52.31200
C  27.25300 -10.96300 53.66700
N  26.67500 -6.57900 49.11400
C  27.54600 -7.18800 49.95900
C  28.87900 -6.62800 49.83400
C  28.76800 -5.75800 48.72300
C  27.43400 -5.86700 48.27700
C  29.99600 -6.95900 50.76600
C  29.46700 -4.84000 47.86800
O  30.64200 -4.36400 47.98800
C  28.44000 -4.39300 46.73400
C  28.31200 -2.92000 46.97000
O  27.98400 -2.35500 48.03400
O  28.55200 -2.28200 45.79800
C  28.69800 -0.80400 45.88100
H  21.86300 -6.28400 45.08400
H  22.13100 -10.43800 50.17300
H  27.90800 -8.54300 51.63700
H  25.75400 -3.48700 45.17800
H  24.00100 -5.39200 43.67900
H  22.64900 -3.56100 43.64800
H  23.62400 -2.61500 44.83700
H  22.40900 -3.64700 45.35000
H  26.00400 -5.41000 42.99600
H  27.23400 -5.69700 44.24500
H  28.45400 -4.16100 43.07400
H  27.17900 -2.96800 43.58600
H  18.68700 -7.71000 46.42300
H  19.77000 -8.56300 45.29700
H  19.81800 -6.76800 45.52600
H  20.09800 -11.29600 49.92800
H  18.59900 -10.51700 50.45600
H  20.16300 -9.64700 50.75100
H  24.28000 -11.41800 51.29200
H  25.48500 -9.30700 53.07200
H  22.12400 -9.91900 52.31300
H  23.36500 -9.89100 53.57100
H  22.66800 -11.42800 53.01300
H  27.36600 -10.85100 51.60200
H  26.15100 -12.04000 52.18900
H  28.29100 -10.73300 53.42700
H  27.18400 -11.93700 54.15300
H  26.93300 -10.28800 54.46000
H  30.07900 -6.23600 51.57700
H  30.87300 -6.90500 50.12100
H  29.83500 -7.96100 51.16400
H  28.92600 -4.66500 45.79600
H  28.93600 -0.54200 44.85000
H  29.43900 -0.43700 46.59100
H  27.69100 -0.46300 46.12400
Mg 26.08200 -0.75500 29.13800
C  27.81900 -0.92400 32.26500
C  23.17000 -0.56000 30.76900
C  24.56500 -0.68700 26.14000
C  29.12900 -1.57000 27.56200
N  25.57700 -0.78500 31.29600
C  26.45100 -0.61500 32.34400
C  25.69500 -0.25200 33.65900
C  24.20000 -0.22200 33.13900
C  24.28300 -0.51800 31.61200
C  23.27400 -1.23500 33.84200
C  26.29800 1.06600 34.37700
C  27.26200 0.81700 35.56200
H  27.19000 1.74000 36.84400
N  24.14400 -0.67300 28.54800
C  23.06300 -0.58900 29.33900
C  21.81700 -0.59200 28.55800
C  22.24600 -0.63200 27.23600
C  23.71800 -0.61400 27.24600
C  20.41100 -0.54200 29.22900
C  21.32000 -0.47800 26.04200
O  21.62900 -0.42700 24.85400
C  19.85600 -0.43600 26.25100
N  26.75800 -1.08400 27.16600
C  25.90700 -0.91800 26.08900
C  26.69300 -0.90700 24.77500
C  28.15700 -1.01500 25.25700
C  28.02200 -1.26400 26.75600
C  26.22500 -1.95200 23.74800
C  29.10300 0.08900 24.81800
C  28.85700 1.56300 25.08900
N  28.06100 -1.18600 29.73900
C  29.14200 -1.54400 28.97500
C  30.27600 -1.65500 29.79000
C  29.81300 -1.53000 31.07900
C  28.42800 -1.19400 31.04500
C  31.69300 -1.87000 29.23600
C  30.26900 -1.48500 32.40500
O  31.38200 -1.57300 32.91600
C  29.01800 -1.01900 33.29800
C  28.82600 -2.14600 34.28700
O  28.11200 -3.14200 34.11700
O  29.40200 -1.81300 35.50100
C  28.87200 -2.58500 36.58400
H  22.24400 -0.29600 31.28400
H  23.97600 -0.69600 25.22000
H  30.03500 -1.87200 27.03100
H  25.82000 -1.10600 34.32500
H  23.83300 0.80200 33.21100
H  22.39500 -1.38000 33.21400
H  23.00000 -0.77700 34.79200
H  23.82500 -2.17400 33.79500
H  25.61000 1.90000 34.51200
H  26.84400 1.59100 33.59200
H  28.25500 1.17000 35.28100
H  27.20500 -0.22600 35.87200
H  19.76500 0.28300 28.92800
H  20.35300 -0.56300 30.31800
H  19.91400 -1.48900 29.02200
H  19.50800 -1.20300 26.94200
H  19.39100 -0.70200 25.30100
H  19.61700 0.59400 26.51600
H  26.43500 0.11700 24.50300
H  28.64600 -1.85000 24.75500
H  25.51800 -2.68300 24.14000
H  27.08500 -2.50900 23.37500
H  25.77000 -1.41700 22.91400
H  29.17200 -0.02600 23.73600
H  30.03800 -0.22700 25.28200
H  28.14900 1.81600 25.87800
H  28.63100 2.15400 24.20100
H  29.82700 1.94300 25.40700
H  31.55300 -1.49500 28.22300
H  31.82600 -2.94500 29.11200
H  32.43100 -1.35100 29.84700
H  29.15100 -0.01400 33.69900
H  27.84500 -2.92700 36.46000
H  29.07900 -1.99000 37.47400
H  29.50900 -3.46900 36.61000

