158

Mg 16.57300 -1.57300 28.01000
C  15.59200 0.31100 30.67300
C  18.34700 -3.55400 30.10900
C  17.87200 -2.96400 25.24900
C  14.75000 0.54900 25.83600
N  16.89600 -1.65800 30.14800
C  16.38100 -0.83700 31.05300
C  16.93200 -1.11600 32.47900
C  17.79200 -2.38100 32.28800
C  17.66400 -2.59600 30.75500
C  19.27100 -2.13100 32.65600
C  15.97500 -1.34200 33.68300
C  16.36900 -0.85600 35.10300
H  17.83300 -0.99900 35.52000
N  18.00900 -2.96200 27.75400
C  18.56200 -3.76600 28.72100
C  19.28800 -4.79500 28.13300
C  19.18500 -4.60700 26.70000
C  18.31700 -3.44400 26.48200
C  19.87100 -5.97100 28.97800
C  19.75700 -5.48800 25.61100
O  19.62700 -5.28800 24.38800
C  20.73100 -6.53600 26.06300
N  16.39500 -1.21900 25.85200
C  16.94100 -2.02000 24.94100
C  16.53900 -1.74400 23.47600
C  15.70800 -0.39100 23.70900
C  15.55300 -0.38300 25.24300
C  17.67900 -1.40400 22.48600
C  14.42000 -0.39200 22.95200
C  13.31700 -1.40000 23.42900
N  15.29800 0.02000 28.16100
C  14.68500 0.83200 27.24800
C  14.09800 2.00000 27.87400
C  14.41800 1.87200 29.22000
C  15.14200 0.68500 29.32100
C  13.36700 3.09900 27.17700
C  14.35800 2.46500 30.44200
O  13.78200 3.44800 30.82600
C  15.04200 1.52400 31.49100
C  16.21900 2.18800 32.19800
O  17.23600 2.50100 31.57500
O  15.82300 2.41300 33.45600
C  16.70500 3.32400 34.15300
H  18.85100 -4.32800 30.69100
H  18.30800 -3.42900 24.36200
H  14.20400 1.18100 25.13200
H  17.43000 -0.18400 32.74700
H  17.49800 -3.29600 32.80100
H  19.52500 -1.16700 33.09800
H  20.03700 -2.23500 31.88700
H  19.47500 -2.86000 33.44000
H  15.84800 -2.42100 33.77800
H  15.03800 -0.83000 33.46900
H  15.83700 -1.50700 35.79700
H  15.95500 0.11600 35.37100
H  20.92400 -6.10900 28.73100
H  19.39300 -6.94300 28.85200
H  19.90000 -5.68700 30.03000
H  21.61000 -6.12800 26.56300
H  21.01700 -6.97700 25.10800
H  20.30300 -7.40400 26.56500
H  15.85800 -2.47600 23.04400
H  16.30800 0.47400 23.42700
H  17.29300 -1.49900 21.47100
H  18.33200 -2.26400 22.63400
H  18.09100 -0.40300 22.61700
H  14.71800 -0.53400 21.91300
H  14.02500 0.61400 23.09200
H  12.55200 -1.00500 24.09700
H  13.82600 -2.22900 23.92200
H  12.77800 -1.86500 22.60400
H  12.29000 2.97800 27.29700
H  13.51300 3.20400 26.10200
H  13.70700 4.00200 27.68400
H  14.26400 1.25800 32.20700
H  16.06200 4.06000 34.63700
H  17.37400 3.85200 33.47300
H  17.21800 2.76500 34.93500
Mg 9.48900 48.05900 25.63200
C  7.34200 48.29700 28.30600
C  11.92000 49.20100 27.67800
C  11.62500 47.89600 23.03200
C  6.77800 47.61100 23.53600
N  9.60500 48.79800 27.71500
C  8.63600 48.59400 28.70200
C  9.19700 48.85200 30.07900
C  10.58600 49.46500 29.76900
C  10.74800 49.16100 28.30300
C  10.70800 50.92200 30.15400
C  9.30800 47.55100 30.96800
C  10.21600 47.45100 32.24400
H  9.79500 46.44300 33.31300
N  11.52300 48.53100 25.37000
C  12.34800 48.85800 26.36900
C  13.73200 48.77500 25.89400
C  13.67500 48.35700 24.59700
C  12.23300 48.30400 24.21200
C  14.94700 49.05100 26.74600
C  14.76300 48.02100 23.55000
O  14.58100 47.61700 22.36200
C  16.17800 48.01700 24.09300
N  9.20400 47.83100 23.57000
C  10.28600 47.79300 22.69900
C  9.82200 47.56200 21.22300
C  8.25000 47.62100 21.35100
C  8.01700 47.63600 22.88400
C  10.39500 48.50400 20.17700
C  7.52900 46.52500 20.58700
C  6.45200 46.92900 19.61000
N  7.41100 47.98100 25.75800
C  6.43600 47.70600 24.84900
C  5.15400 47.64700 25.53100
C  5.47700 47.82000 26.88900
C  6.86100 48.12500 26.99500
C  3.76800 47.65100 24.95500
C  4.91300 47.98600 28.21500
O  3.76200 47.88100 28.60200
C  6.10000 48.16100 29.22600
C  6.14800 46.91500 30.00600
O  6.82500 45.93100 29.76100
O  5.64800 47.12300 31.20900
C  6.06700 46.15800 32.28800
H  12.80700 49.45000 28.26300
H  12.40200 47.72300 22.28400
H  5.91000 47.63000 22.87300
H  8.45500 49.53700 30.49000
H  11.24200 48.88200 30.41500
H  10.54700 51.54000 29.27100
H  11.71300 51.11000 30.53300
H  9.89000 51.13000 30.84300
H  9.56600 46.75100 30.27500
H  8.31100 47.44700 31.39600
H  10.11900 48.44500 32.68200
H  11.22900 47.23400 31.90400
H  14.86500 48.83500 27.81100
H  15.28300 50.07100 26.55900
H  15.72000 48.30100 26.57500
H  16.15200 47.22800 24.84500
H  16.44400 48.94200 24.60500
H  16.85400 47.77000 23.27500
H  10.18400 46.60000 20.85900
H  7.91200 48.57400 20.94300
H  10.88800 49.38300 20.59000
H  9.53800 48.94900 19.67000
H  11.03000 48.11400 19.38200
H  7.04100 45.93900 21.36700
H  8.17700 45.79200 20.10600
H  5.58300 46.31800 19.85500
H  6.95100 46.78100 18.65300
H  6.21700 47.98500 19.74400
H  3.03700 47.68100 25.76300
H  3.65300 46.79800 24.28700
H  3.67900 48.60700 24.44000
H  5.92800 49.08600 29.77800
H  6.47500 46.90500 32.96900
H  6.73400 45.36500 31.95000
H  5.26900 45.70500 32.87700

