158

Mg 41.18400 8.86900 29.39300
C  43.04200 10.03200 32.05900
C  38.89200 7.63400 31.70900
C  39.27100 7.69800 26.89600
C  43.71700 9.71100 27.12200
N  41.15800 8.70800 31.70400
C  41.91600 9.38000 32.56900
C  41.30500 9.41500 34.01300
C  40.17200 8.34300 33.83000
C  40.01000 8.24500 32.30800
C  40.44000 6.92400 34.39400
C  40.78300 10.81100 34.36700
C  39.86200 10.88300 35.67600
H  40.30300 11.82600 36.80800
N  39.32000 7.80900 29.37000
C  38.55400 7.45000 30.37400
C  37.33500 6.86600 29.89900
C  37.34800 7.05800 28.46400
C  38.65400 7.51800 28.24400
C  36.20200 6.34900 30.82000
C  36.28300 6.86900 27.45300
O  36.55500 6.99100 26.27200
C  34.86900 6.60600 27.92600
N  41.50600 8.69400 27.33700
C  40.51300 8.15600 26.49400
C  41.09600 8.05600 25.02600
C  42.33000 8.92300 25.08300
C  42.50700 9.17800 26.57900
C  41.28500 6.54300 24.58800
C  42.28100 10.17000 24.28100
C  41.65100 11.44700 24.87400
N  43.04000 9.69800 29.47800
C  43.96400 10.05400 28.50100
C  45.02200 10.83400 29.05000
C  44.67800 10.87000 30.44900
C  43.44800 10.10900 30.65200
C  46.13400 11.46100 28.31800
C  45.19500 11.25300 31.79000
O  46.23800 11.80300 32.01200
C  44.08400 10.80200 32.83500
C  44.80400 9.95900 33.84000
O  45.14800 8.81600 33.70000
O  44.82300 10.61100 34.99800
C  45.22900 9.89500 36.25000
H  38.24500 7.31700 32.53000
H  38.69800 7.58500 25.97300
H  44.50400 10.00700 26.42500
H  42.10400 9.01500 34.63700
H  39.24400 8.71900 34.26100
H  40.83600 6.34700 33.55900
H  39.64700 6.45700 34.97900
H  41.37200 7.05800 34.94400
H  40.27200 11.28300 33.52800
H  41.64900 11.43600 34.58400
H  39.68500 9.87800 36.05900
H  38.96500 11.42200 35.37100
H  36.56800 6.00800 31.78800
H  35.70900 5.45900 30.42600
H  35.38300 7.05300 30.96700
H  34.85500 5.56600 28.25100
H  34.13400 6.73200 27.13100
H  34.53000 7.36600 28.63000
H  40.32100 8.54500 24.43500
H  43.11600 8.35500 24.58400
H  40.78800 5.81700 25.23200
H  42.35900 6.36100 24.55700
H  40.85400 6.41100 23.59600
H  41.86200 10.10000 23.27700
H  43.30200 10.41800 23.99100
H  42.20300 11.76100 25.76000
H  40.60300 11.20500 25.05000
H  41.68000 12.22900 24.11500
H  45.74600 11.81000 27.36100
H  46.83300 10.66000 28.07500
H  46.61300 12.27500 28.86100
H  43.58200 11.68600 33.23000
H  44.46300 10.18300 36.97000
H  46.29800 10.02000 36.42200
H  45.04000 8.83600 36.07500
Mg -1.76500 35.24500 26.47600
C  -3.76100 33.84900 29.13300
C  -1.01200 37.80700 28.72400
C  -0.12500 36.69900 24.03300
C  -3.00200 32.86100 24.34200
N  -2.49900 35.79600 28.63800
C  -3.11100 35.01400 29.55500
C  -2.98100 35.49600 31.00500
C  -2.24200 36.90700 30.79200
C  -1.87400 36.84400 29.30500
C  -2.98300 38.22100 31.23600
C  -2.19700 34.51900 31.85500
C  -1.61700 35.06300 33.18700
H  -1.83100 34.26600 34.47000
N  -0.68400 36.92000 26.45100
C  -0.51300 37.89000 27.38400
C  0.47800 38.86200 26.93400
C  0.87300 38.45900 25.62100
C  -0.07600 37.35800 25.30300
C  1.08900 39.94900 27.77800
C  1.92100 38.95200 24.68500
O  2.20000 38.63300 23.53400
C  2.67500 40.11800 25.19300
N  -1.70800 34.89500 24.43500
C  -0.86400 35.60300 23.61200
C  -0.76700 35.03200 22.26100
C  -1.53500 33.65400 22.39500
C  -2.13000 33.83500 23.78000
C  -1.32800 35.98500 21.16200
C  -0.54500 32.44900 22.34900
C  0.23300 31.98900 23.64200
N  -3.03500 33.57500 26.68100
C  -3.54500 32.80700 25.64600
C  -4.60500 31.93400 26.09500
C  -4.60500 32.22900 27.50000
C  -3.72200 33.33500 27.79000
C  -5.50900 31.02300 25.37200
C  -5.12300 31.90200 28.78300
O  -5.97500 31.01900 28.99700
C  -4.60700 32.86700 29.93700
C  -5.76200 33.44900 30.72100
O  -6.62200 34.24100 30.40400
O  -5.66600 32.90800 31.95800
C  -6.86100 33.06700 32.84800
H  -0.65300 38.55700 29.43200
H  0.40100 37.13700 23.18200
H  -3.42700 32.18100 23.60000
H  -4.01800 35.60300 31.32600
H  -1.27000 36.92500 31.28500
H  -3.92300 38.12900 31.77900
H  -3.00800 38.87100 30.36100
H  -2.33500 38.68500 31.98000
H  -1.42900 34.18500 31.15700
H  -2.91600 33.70900 31.98000
H  -2.01100 36.07400 33.28200
H  -0.52800 35.03400 33.14700
H  0.73500 39.90500 28.80800
H  0.84400 40.89800 27.30200
H  2.16300 39.76300 27.80100
H  2.06200 40.96700 25.49500
H  3.48800 40.42800 24.53600
H  3.26800 39.78000 26.04400
H  0.28800 34.81900 22.08700
H  -2.29200 33.52600 21.62200
H  -2.27200 35.70400 20.69500
H  -0.57700 36.05100 20.37500
H  -1.43200 36.97800 21.60000
H  0.19400 32.66700 21.57900
H  -1.14000 31.58300 22.05800
H  1.31000 32.14100 23.57700
H  0.11500 30.92700 23.86000
H  -0.09600 32.54200 24.52200
H  -5.13800 30.94400 24.35000
H  -6.55100 31.32300 25.26900
H  -5.52800 29.99300 25.72900
H  -3.99000 32.19100 30.53000
H  -6.52500 33.66900 33.69200
H  -7.16100 32.14400 33.34500
H  -7.73500 33.58000 32.44800

