158

Mg 24.41000 -4.92500 45.08900
C  26.25200 -2.61800 43.38100
C  21.76800 -4.38900 42.91800
C  22.98900 -7.86000 46.08300
C  27.32600 -5.94000 46.86700
N  24.11400 -3.56900 43.40100
C  24.96100 -2.73300 42.89500
C  24.37200 -1.95400 41.68300
C  22.87800 -2.32200 41.80500
C  22.91800 -3.50100 42.80900
C  21.94800 -1.17600 42.33600
C  25.05200 -2.37500 40.38200
C  25.52300 -1.31900 39.30900
H  25.28300 -1.56900 37.85600
N  22.49500 -5.83700 44.71200
C  21.59000 -5.49800 43.74100
C  20.48400 -6.42900 43.76800
C  20.79000 -7.46000 44.66300
C  22.14800 -7.07200 45.22400
C  19.20500 -6.35900 42.82800
C  19.98400 -8.77700 44.84400
O  18.94800 -8.92000 44.23600
C  20.42100 -9.95900 45.59600
N  25.02200 -6.61900 46.46200
C  24.25600 -7.72000 46.63000
C  24.90000 -8.75800 47.54100
C  26.14600 -7.97500 48.06000
C  26.20100 -6.78200 47.08100
C  23.93100 -9.18100 48.66700
C  27.43600 -8.81700 48.17300
C  28.41100 -8.47900 49.25800
N  26.37600 -4.27900 45.31700
C  27.45000 -4.76100 46.06000
C  28.62300 -3.93100 45.76700
C  28.22300 -3.09400 44.73200
C  26.86200 -3.37800 44.48700
C  30.01400 -4.04500 46.43100
C  28.65400 -2.08000 43.69900
O  29.77000 -1.56700 43.57500
C  27.35700 -1.73900 42.81300
C  27.04600 -0.23900 42.82400
O  26.62300 0.43300 43.74300
O  27.52100 0.27300 41.62300
C  27.23900 1.72700 41.34600
H  20.98500 -4.16300 42.19100
H  22.70900 -8.88400 46.33800
H  28.20600 -6.35900 47.35900
H  24.54900 -0.90700 41.92700
H  22.52600 -2.75800 40.87100
H  22.38100 -0.17800 42.26900
H  21.40900 -1.37800 43.26100
H  21.16700 -0.97800 41.60200
H  24.22700 -2.83900 39.84200
H  25.82800 -3.13500 40.48000
H  26.59000 -1.11600 39.40200
H  25.08900 -0.36000 39.59000
H  19.04000 -5.32600 42.52300
H  18.30000 -6.78600 43.25900
H  19.64400 -6.93900 42.01600
H  21.26400 -10.46100 45.12100
H  19.58800 -10.62000 45.83800
H  20.61500 -9.66600 46.62700
H  25.27700 -9.65100 47.04200
H  25.98300 -7.65600 49.08900
H  23.20900 -8.39100 48.87300
H  24.50500 -9.22300 49.59300
H  23.48700 -10.13800 48.39300
H  27.87500 -8.86200 47.17700
H  27.05400 -9.78600 48.49400
H  28.63000 -9.39700 49.80200
H  28.13000 -7.79500 50.05800
H  29.28500 -8.22100 48.65900
H  30.03400 -3.74300 47.47800
H  30.86900 -3.58300 45.93700
H  30.25700 -5.10600 46.38800
H  27.70200 -2.14100 41.86000
H  28.13000 2.19100 41.76800
H  26.30700 1.99500 41.84400
H  27.11300 1.98600 40.29400
Mg 45.71300 4.96800 47.11500
C  43.64100 7.72300 46.66300
C  43.07800 2.90100 46.35200
C  47.98600 2.35000 46.95500
C  48.45800 7.16800 47.34000
N  43.75600 5.30600 46.33700
C  43.09100 6.51800 46.29900
C  41.58800 6.28600 45.80900
C  41.32900 4.79300 46.06600
C  42.81700 4.25400 46.34000
C  40.34400 4.55500 47.20300
C  41.33400 6.74900 44.34200
C  39.84200 7.21200 43.96900
H  39.53800 7.72900 42.57100
N  45.48200 2.90000 46.77500
C  44.31800 2.19700 46.59100
C  44.55500 0.78300 46.38700
C  45.98700 0.59000 46.48200
C  46.62500 1.97000 46.72100
C  43.53400 -0.27000 45.98600
C  46.70800 -0.66700 46.17900
O  46.20700 -1.75100 46.21700
C  48.15200 -0.69300 45.73300
N  47.94000 4.76400 47.24100
C  48.55900 3.56500 47.24200
C  50.07000 3.70100 47.32600
C  50.17600 5.32000 47.33400
C  48.77600 5.79600 47.35400
C  50.65000 2.94800 48.51600
C  50.87500 5.94300 46.10800
C  52.18900 6.73200 46.35200
N  46.01400 7.00700 47.11200
C  47.13200 7.74600 47.31100
C  46.84400 9.15000 47.29100
C  45.40800 9.18800 47.11600
C  45.02600 7.85900 46.97100
C  47.78200 10.32900 47.42000
C  44.24200 10.04900 46.93600
O  44.16100 11.23300 47.10100
C  43.08600 9.19300 46.55000
C  41.99600 9.29800 47.59800
O  41.94400 8.66200 48.66400
O  41.01200 10.18700 47.13700
C  39.90500 10.59900 48.04700
H  42.14400 2.37500 46.14600
H  48.66300 1.50200 46.83700
H  49.20900 7.95100 47.21400
H  41.06200 6.94800 46.49600
H  40.82000 4.25400 45.26800
H  39.62600 5.37600 47.20900
H  40.75500 4.44600 48.20600
H  39.75100 3.69500 46.89100
H  41.63500 5.90700 43.71800
H  41.95900 7.63300 44.21700
H  39.68500 8.10200 44.57800
H  39.10200 6.46100 44.24500
H  43.58600 -1.22500 46.50900
H  43.53300 -0.38400 44.90200
H  42.55500 0.17000 46.17700
H  48.34800 -1.61300 45.18200
H  48.60500 -0.59600 46.72000
H  48.50100 0.17300 45.17100
H  50.62300 3.27700 46.48700
H  50.62700 5.53700 48.30300
H  49.88800 2.51200 49.16100
H  51.41600 3.45000 49.10600
H  51.21100 2.10100 48.12000
H  50.22000 6.70500 45.68500
H  50.99600 5.20700 45.31400
H  52.31700 6.62000 47.42900
H  52.05200 7.80300 46.20200
H  53.02900 6.37700 45.75400
H  47.34100 11.26900 47.08700
H  48.66100 10.24800 46.78100
H  48.16500 10.25700 48.43800
H  42.60800 9.26000 45.57300
H  38.98000 10.11100 47.74100
H  39.72300 11.65900 47.87300
H  40.14300 10.38700 49.08900

