158

Mg 2.46600 -1.59100 44.05400
C  5.73000 -0.26100 43.27600
C  1.24700 1.24700 42.49600
C  -0.48300 -2.87600 44.35900
C  4.05100 -4.54900 45.09100
N  3.42800 0.22100 42.85500
C  4.77500 0.59900 42.75100
C  4.92600 1.95700 42.11800
C  3.48300 2.47700 42.03000
C  2.64400 1.29500 42.47400
C  3.30900 3.68500 42.95500
C  5.70400 1.68100 40.75600
C  6.83600 2.63400 40.17300
H  6.53300 2.93600 38.73600
N  0.60900 -0.96100 43.47700
C  0.32900 0.24900 42.90700
C  -1.10700 0.37400 42.85600
C  -1.69800 -0.85600 43.46000
C  -0.50400 -1.60600 43.81100
C  -1.79200 1.74500 42.44300
C  -3.18100 -1.10200 43.74100
O  -3.96500 -0.33700 43.22500
C  -3.68800 -2.34700 44.48700
N  1.95500 -3.46200 44.56400
C  0.61600 -3.77600 44.64200
C  0.42500 -5.28900 44.96300
C  1.79200 -5.73900 45.37700
C  2.67000 -4.51800 44.93900
C  -0.79100 -5.56900 45.92100
C  2.27200 -7.09100 44.69500
C  2.93500 -8.14200 45.53300
N  4.45400 -2.19600 44.33000
C  4.95800 -3.41600 44.81100
C  6.38000 -3.37800 44.98700
C  6.70800 -2.07600 44.40000
C  5.51000 -1.46900 43.98800
C  7.27400 -4.37400 45.62500
C  7.79500 -1.20900 44.05300
O  8.99200 -1.35700 44.18700
C  7.20700 -0.01100 43.31500
C  7.44800 1.14700 44.14100
O  6.81400 1.38500 45.17500
O  8.48500 1.89300 43.64000
C  9.10600 2.84400 44.58400
H  0.80900 2.16700 42.10300
H  -1.50600 -3.25000 44.44500
H  4.59400 -5.37500 45.55400
H  5.52500 2.65200 42.70700
H  3.13700 2.65800 41.01200
H  2.33200 3.63400 43.43600
H  3.30100 4.53100 42.26800
H  4.14900 3.88100 43.62000
H  4.87500 1.63600 40.04900
H  6.08600 0.66100 40.71400
H  7.80300 2.15200 40.31900
H  6.95900 3.59700 40.66700
H  -2.86800 1.81600 42.59900
H  -1.61100 1.87800 41.37600
H  -1.27700 2.54500 42.97600
H  -3.11700 -2.37700 45.41600
H  -3.53100 -3.22700 43.86400
H  -4.71500 -2.01000 44.62800
H  0.14100 -5.70200 43.99500
H  1.77600 -5.83800 46.46200
H  -1.24700 -4.65200 46.29400
H  -0.42900 -6.11700 46.79100
H  -1.57100 -6.09300 45.36800
H  2.99400 -6.83700 43.91900
H  1.41600 -7.63600 44.29600
H  3.51700 -7.72000 46.35300
H  3.70000 -8.60100 44.90700
H  2.26500 -8.89400 45.94700
H  8.27500 -4.06900 45.32100
H  7.05200 -5.36100 45.21700
H  7.14700 -4.30600 46.70500
H  7.66700 0.02200 42.32800
H  8.87400 2.77100 45.64600
H  9.13800 3.89200 44.28600
H  10.08900 2.37400 44.60000
Mg 9.25700 47.90000 25.70300
C  6.75900 48.16400 28.08500
C  11.38300 49.43900 27.98800
C  11.64200 47.50600 23.55400
C  6.82900 47.23700 23.27700
N  9.04800 48.81200 27.68200
C  8.01100 48.55100 28.53600
C  8.36400 48.88800 30.05800
C  9.72900 49.62700 29.85800
C  10.07800 49.26800 28.39900
C  9.75600 51.06100 30.24300
C  8.44500 47.68000 31.04100
C  9.17800 47.68700 32.33300
H  8.56500 47.08800 33.55500
N  11.29700 48.32700 25.80800
C  11.99900 48.97200 26.78100
C  13.34600 49.12600 26.34300
C  13.51900 48.43200 25.10000
C  12.11200 48.03800 24.77600
C  14.43800 49.87000 27.16300
C  14.65700 48.19200 24.18900
O  14.54600 47.74300 23.04000
C  16.02000 48.38200 24.68700
N  9.23900 47.62800 23.71100
C  10.37900 47.37500 23.07400
C  10.21700 47.04700 21.58300
C  8.68300 46.96100 21.49700
C  8.19700 47.30600 22.93300
C  10.85800 48.08300 20.55100
C  8.03800 45.61600 21.08900
C  8.63900 44.33800 21.75100
N  7.17500 47.66800 25.65400
C  6.32300 47.33300 24.56200
C  4.97400 47.31200 25.12800
C  5.11900 47.57800 26.47400
C  6.47400 47.81800 26.78000
C  3.76200 47.05600 24.34000
C  4.33400 47.78600 27.68000
O  3.13200 47.80900 27.84600
C  5.37200 48.15500 28.79400
C  5.32800 47.11000 29.79800
O  5.84800 45.99300 29.68800
O  4.59900 47.56900 30.85900
C  4.47200 46.73000 32.11200
H  12.06500 49.88300 28.71600
H  12.37000 47.26800 22.77500
H  6.13200 46.97800 22.47700
H  7.54400 49.55800 30.31800
H  10.46400 49.26300 30.57700
H  10.40300 51.59300 29.54600
H  10.21300 51.25400 31.21300
H  8.81600 51.60600 30.15800
H  8.99100 46.94800 30.44600
H  7.44200 47.33200 31.28700
H  9.33000 48.76300 32.41700
H  10.16600 47.25000 32.18500
H  13.91700 50.49700 27.88600
H  15.04300 50.48600 26.49800
H  15.21100 49.25500 27.62400
H  16.77600 48.18400 23.92800
H  16.24300 47.75200 25.54800
H  16.07000 49.44700 24.91700
H  10.78900 46.12000 21.62500
H  8.30200 47.78100 20.88900
H  11.46500 48.85100 21.02900
H  10.21200 48.63300 19.86700
H  11.47600 47.47200 19.89300
H  8.23400 45.63600 20.01700
H  6.95200 45.68900 21.14500
H  7.84500 43.87800 22.34000
H  9.57100 44.35200 22.31700
H  8.86100 43.72500 20.87800
H  3.93400 47.38700 23.31600
H  2.90100 47.59500 24.73400
H  3.50100 46.00000 24.26700
H  5.20600 49.14700 29.21400
H  4.47200 45.67000 31.85800
H  3.54200 46.93500 32.64100
H  5.36400 46.94300 32.70100

