158

Mg 40.55600 9.85100 30.12100
C  42.41000 10.79500 32.95100
C  38.26800 8.20200 32.22000
C  39.03600 8.54100 27.45600
C  43.09700 11.09700 28.13400
N  40.47600 9.47500 32.34900
C  41.24900 10.08500 33.32300
C  40.60200 10.07500 34.74500
C  39.29800 9.10700 34.47900
C  39.36500 8.90300 32.92300
C  39.14400 7.89600 35.34500
C  40.17100 11.54600 35.03800
C  39.49800 11.76000 36.34300
H  40.13400 12.46300 37.52600
N  38.85400 8.49300 29.82000
C  38.04800 8.00300 30.82000
C  36.91500 7.20700 30.21400
C  37.16500 7.19400 28.76100
C  38.36900 8.14000 28.59600
C  35.76200 6.72900 31.08800
C  36.51600 6.49300 27.65300
O  36.81000 6.60900 26.45300
C  35.45200 5.51100 27.91700
N  40.88200 9.96800 28.03300
C  40.11400 9.34100 27.14400
C  40.77100 9.38400 25.76900
C  42.02400 10.25200 25.93900
C  42.03400 10.49300 27.44100
C  41.03400 8.01900 25.16200
C  42.05200 11.58700 25.02800
C  43.15000 11.50700 24.00100
N  42.36400 10.72200 30.42000
C  43.29500 11.21800 29.48800
C  44.42400 11.87300 30.12600
C  44.11900 11.76600 31.50400
C  42.90800 10.99600 31.63900
C  45.60100 12.40100 29.41900
C  44.57500 11.99800 32.89500
O  45.48500 12.69900 33.32500
C  43.38700 11.41900 33.84600
C  44.05900 10.35400 34.76700
O  44.46100 9.25500 34.46600
O  43.87400 10.78500 36.09200
C  44.08800 9.82100 37.20100
H  37.41900 7.92300 32.84700
H  38.49700 8.11500 26.60700
H  43.83400 11.52300 27.45000
H  41.23700 9.67800 35.53700
H  38.41400 9.72700 34.62800
H  38.08200 7.66100 35.41000
H  39.54500 8.30900 36.27100
H  39.61400 7.01700 34.90500
H  39.55100 11.99300 34.26000
H  41.12700 12.06100 35.13000
H  39.19200 10.75400 36.62800
H  38.58600 12.34900 36.25000
H  35.79800 5.64100 31.13600
H  34.85400 7.13000 30.63700
H  35.75200 7.04700 32.13000
H  34.89300 5.10100 27.07600
H  34.77000 5.91800 28.66300
H  35.93700 4.61500 28.30600
H  40.06700 9.92900 25.14000
H  42.88500 9.64700 25.65300
H  40.59600 7.28100 25.83300
H  42.08900 7.75200 25.09700
H  40.58600 7.93300 24.17100
H  42.24600 12.38000 25.75000
H  41.04500 11.69400 24.62300
H  43.03700 10.48900 23.63100
H  44.14700 11.66200 24.41300
H  42.91500 12.30100 23.29200
H  46.45100 12.69300 30.03600
H  45.32200 13.23600 28.77700
H  46.03200 11.64600 28.76100
H  43.10200 12.28100 34.44900
H  43.38900 9.94500 38.02700
H  45.10000 9.99700 37.56800
H  43.99300 8.80100 36.82800
Mg -11.45400 15.99900 41.67600
C  -8.51800 13.96100 41.12500
C  -9.97400 18.46400 40.11400
C  -14.40400 17.35100 41.75500
C  -12.99700 12.84200 42.77600
N  -9.52300 16.10700 40.69800
C  -8.46600 15.25400 40.61300
C  -7.23000 15.93900 39.90100
C  -7.73300 17.42800 39.76500
C  -9.19200 17.31500 40.18500
C  -6.93400 18.53000 40.42100
C  -6.75800 15.20700 38.62500
C  -5.24100 15.05900 38.47200
H  -4.64800 15.60900 37.15400
N  -12.14700 17.63500 40.97300
C  -11.35800 18.64800 40.46600
C  -12.10700 19.81700 40.30800
C  -13.42900 19.61900 40.80200
C  -13.39400 18.14700 41.17200
C  -11.46900 21.18800 39.86000
C  -14.55700 20.63600 40.91700
O  -14.40300 21.76600 40.46900
C  -15.91100 20.28800 41.59700
N  -13.53000 15.03200 41.77600
C  -14.50900 16.02000 42.06200
C  -15.85800 15.28900 42.21500
C  -15.40400 13.87000 42.68900
C  -13.90500 13.92900 42.43600
C  -16.83600 15.94700 43.32000
C  -15.97300 12.68700 41.86400
C  -16.62800 11.54200 42.70800
N  -10.84200 13.84400 42.12800
C  -11.59100 12.75200 42.60100
C  -10.68100 11.65200 42.78800
C  -9.47600 12.08700 42.31700
C  -9.59800 13.38200 41.80800
C  -10.99500 10.28100 43.38800
C  -8.08700 11.69500 42.15700
O  -7.47000 10.70400 42.52600
C  -7.39200 12.87500 41.26700
C  -6.33200 13.45800 42.08100
O  -6.44400 13.78900 43.25400
O  -5.12800 13.39500 41.40800
C  -3.89600 13.86600 41.91100
H  -9.48200 19.33200 39.67000
H  -15.36500 17.86000 41.85000
H  -13.44200 11.95200 43.22500
H  -6.43000 16.05500 40.63200
H  -7.64500 17.78000 38.73700
H  -6.76300 19.28600 39.65400
H  -6.07100 18.14900 40.96600
H  -7.45800 19.11900 41.17500
H  -7.06300 15.79200 37.75700
H  -7.13200 14.18400 38.58900
H  -4.92500 14.02100 38.57000
H  -4.79000 15.60300 39.30200
H  -11.10900 21.75600 40.71700
H  -12.14600 21.77200 39.23600
H  -10.60300 20.92600 39.25100
H  -16.37000 21.27100 41.69700
H  -15.66900 19.82000 42.55100
H  -16.60100 19.68400 41.00800
H  -16.34800 15.21900 41.24300
H  -15.50200 13.76800 43.77000
H  -16.57400 16.99200 43.48600
H  -16.89100 15.45400 44.29100
H  -17.83100 15.98400 42.87600
H  -15.16700 12.25000 41.27300
H  -16.74600 13.03500 41.17900
H  -16.38000 10.58700 42.24400
H  -17.70400 11.71500 42.70200
H  -16.26500 11.54700 43.73500
H  -10.08300 9.69800 43.51600
H  -11.65800 9.70700 42.74100
H  -11.51500 10.36700 44.34200
H  -7.02600 12.53500 40.29800
H  -3.27800 14.21800 41.08500
H  -3.35600 12.97100 42.22000
H  -3.93500 14.50900 42.79100

