158

Mg 43.95500 3.22400 47.52600
C  41.76300 5.89400 46.94100
C  41.23200 1.08000 47.29400
C  46.03100 0.57900 47.86300
C  46.56800 5.45400 47.54000
N  41.73600 3.52800 47.29800
C  41.02900 4.68900 47.01800
C  39.52800 4.48800 46.75600
C  39.44800 2.96000 47.15000
C  40.92700 2.44300 47.22400
C  38.77600 2.69000 48.55600
C  39.08400 4.83500 45.31400
C  37.72100 5.55000 45.17500
H  37.63400 6.62100 44.00800
N  43.65500 1.04800 47.64500
C  42.47000 0.42800 47.44500
C  42.68000 -1.00800 47.53400
C  44.09800 -1.21400 47.59100
C  44.67500 0.16200 47.74100
C  41.56200 -2.01100 47.35600
C  44.74000 -2.60900 47.46500
O  43.97300 -3.59200 47.36500
C  46.26800 -2.80200 47.43500
N  46.04500 3.00000 47.59900
C  46.61700 1.78900 47.82100
C  48.15000 2.06000 47.92100
C  48.41000 3.57800 47.69500
C  46.94900 4.06300 47.64900
C  48.80600 1.21800 49.10100
C  49.43900 4.02600 46.64200
C  50.84500 4.51700 47.17600
N  44.20300 5.32700 47.17300
C  45.35200 6.06800 47.22400
C  44.97900 7.47300 46.96000
C  43.60900 7.44400 46.96900
C  43.16400 6.10300 47.07300
C  45.85200 8.60700 46.96500
C  42.44100 8.31100 46.77900
O  42.48200 9.56000 46.60000
C  41.20000 7.28200 46.76100
C  40.25300 7.68800 47.81400
O  40.04300 7.08000 48.83200
O  39.52200 8.83500 47.40700
C  38.48000 9.30000 48.34500
H  40.41400 0.35800 47.34100
H  46.71500 -0.26300 47.98500
H  47.31000 6.25300 47.59500
H  38.91600 4.95300 47.52800
H  38.89200 2.38800 46.40600
H  39.54800 2.39000 49.26600
H  38.04800 1.87900 48.58200
H  38.29700 3.56000 49.00400
H  38.89500 3.86500 44.85400
H  39.85100 5.25800 44.66700
H  37.26400 5.86700 46.11200
H  37.04200 4.74600 44.89100
H  41.45300 -2.49900 46.38700
H  40.60400 -1.58200 47.64600
H  41.61800 -2.78300 48.12300
H  46.87900 -2.50100 46.58400
H  46.35300 -3.88700 47.51000
H  46.60800 -2.44200 48.40600
H  48.45900 1.61200 46.97700
H  48.76500 4.02200 48.62500
H  48.01000 1.07400 49.83200
H  49.55600 1.96300 49.36400
H  49.25100 0.24400 48.89800
H  48.94300 4.89900 46.21800
H  49.51200 3.22700 45.90400
H  51.67100 3.88300 46.85400
H  50.83500 4.38400 48.25800
H  51.13900 5.52100 46.86800
H  45.51600 9.20000 46.11500
H  46.90700 8.49300 46.71900
H  45.86300 9.15700 47.90600
H  40.62500 7.47500 45.85500
H  37.74300 9.83300 47.74400
H  38.94100 9.98800 49.05400
H  38.02000 8.44200 48.83500
Mg 48.14700 34.65700 27.16000
C  46.39900 33.00400 29.76000
C  48.31200 37.42600 29.11700
C  49.24800 36.20300 24.48200
C  47.10500 31.98800 25.08600
N  47.56200 35.05400 29.29500
C  46.88200 34.29800 30.17800
C  46.85300 34.98100 31.65100
C  47.24000 36.49300 31.24100
C  47.78500 36.33300 29.83200
C  46.24400 37.62800 31.56100
C  47.83300 34.32600 32.67100
C  47.24800 34.18000 34.05500
H  47.55300 35.20000 35.16500
N  48.73000 36.57400 26.88400
C  48.81500 37.55200 27.82400
C  49.42300 38.73200 27.15000
C  49.70200 38.40000 25.80100
C  49.28600 36.99600 25.70700
C  49.67400 40.05400 27.95700
C  50.41200 39.29200 24.71400
O  50.61400 38.78600 23.66000
C  50.81100 40.65900 24.97600
N  47.98600 34.27000 25.10400
C  48.70700 34.95100 24.19300
C  48.86600 34.30100 22.78700
C  47.94900 33.11100 22.98800
C  47.67300 33.07500 24.44400
C  48.65100 35.16800 21.55200
C  48.71300 31.86000 22.43900
C  49.93200 31.37300 23.25800
N  47.12000 32.75700 27.36300
C  46.76300 31.81200 26.43400
C  46.06200 30.69400 27.00500
C  45.92600 31.14100 28.33900
C  46.48200 32.41700 28.47000
C  45.47600 29.53000 26.26700
C  45.39500 30.67800 29.59600
O  44.90100 29.65900 30.01900
C  45.39900 31.99500 30.52400
C  45.80100 31.61800 31.90200
O  46.86100 31.09100 32.24000
O  44.69800 31.74700 32.67700
C  44.90300 31.49400 34.12000
H  48.12200 38.36600 29.64000
H  49.72100 36.67700 23.61900
H  46.88000 31.06600 24.54600
H  45.84400 34.85700 32.04300
H  48.17300 36.69000 31.76900
H  45.46500 37.23600 32.21400
H  45.87200 38.01600 30.61200
H  46.67300 38.47500 32.09600
H  48.72000 34.95700 32.72300
H  48.13700 33.33400 32.33600
H  47.52800 33.26000 34.56800
H  46.17100 34.25700 33.90400
H  49.30400 40.92400 27.41500
H  50.69600 40.35400 28.18900
H  49.10400 40.17200 28.87800
H  50.00000 41.30900 25.30400
H  51.15600 41.13500 24.05800
H  51.65600 40.82800 25.64300
H  49.90200 33.97200 22.71300
H  47.06700 33.25000 22.36400
H  48.41700 36.17900 21.88400
H  47.81000 34.85700 20.93400
H  49.58700 35.14300 20.99400
H  49.06700 32.01400 21.41900
H  47.94900 31.08600 22.36900
H  49.61200 30.41600 23.67000
H  50.23400 32.09200 24.02000
H  50.83600 31.28300 22.65600
H  44.71500 30.00900 25.65000
H  45.00200 28.79000 26.91100
H  46.27800 29.17300 25.62100
H  44.44500 32.51600 30.60200
H  44.20500 31.94100 34.82800
H  45.93000 31.74700 34.38200
H  44.89500 30.41000 34.24000

