158

Mg 47.45000 45.69200 43.18100
C  44.25400 44.36100 42.78800
C  48.76700 42.42900 43.28700
C  50.51500 46.95100 43.22900
C  46.13600 48.97900 42.73000
N  46.67800 43.69000 42.94600
C  45.25800 43.37800 42.90800
C  45.00900 41.73400 42.99200
C  46.48900 41.21300 43.26200
C  47.38000 42.55000 43.19500
C  46.73300 40.23500 44.41100
C  44.21300 40.89900 41.84200
C  44.60700 41.38700 40.42400
H  44.94000 40.35800 39.34100
N  49.38200 44.79000 43.16400
C  49.65900 43.44600 43.28000
C  51.06600 43.29100 43.13300
C  51.65900 44.61000 43.25400
C  50.54000 45.54900 43.27600
C  51.79800 42.00300 43.05300
C  53.18700 44.93300 43.36000
O  54.03600 44.02500 43.36300
C  53.66100 46.31500 43.58300
N  48.16900 47.62900 43.05300
C  49.46500 47.87000 43.17000
C  49.80700 49.38600 42.92300
C  48.47900 49.96900 42.45800
C  47.51600 48.75400 42.76000
C  50.37300 49.90600 44.28100
C  48.38800 50.58900 40.98700
C  48.52900 52.09000 40.95300
N  45.51300 46.55000 42.77000
C  45.15500 47.93000 42.71200
C  43.66300 47.96000 42.53100
C  43.27200 46.53700 42.47700
C  44.42000 45.79700 42.75100
C  42.76300 49.10700 42.36400
C  42.22800 45.57500 42.18700
O  41.09600 45.74000 41.74600
C  42.81600 44.20500 42.45700
C  42.07100 43.47500 43.48400
O  41.41900 42.46100 43.24700
O  42.30200 43.88000 44.75100
C  41.84200 42.90800 45.78100
H  49.21900 41.44300 43.41400
H  51.47300 47.47200 43.17000
H  45.77900 49.97600 42.46200
H  44.38200 41.53600 43.86200
H  46.92400 40.80300 42.35100
H  47.15600 40.89700 45.16700
H  47.38500 39.40900 44.12600
H  45.72500 39.96100 44.72000
H  43.15400 41.10100 42.00300
H  44.26100 39.82100 42.00100
H  45.43000 42.09900 40.47800
H  43.68900 41.80600 40.01400
H  52.08400 41.71800 44.06500
H  52.58800 42.05700 42.30400
H  51.15400 41.20000 42.69300
H  53.34900 46.88300 42.70600
H  54.74800 46.36000 43.64800
H  53.23700 46.68800 44.51500
H  50.58500 49.55100 42.17700
H  48.26700 50.65400 43.27900
H  51.16800 49.19000 44.48800
H  49.70400 49.91500 45.14100
H  50.89700 50.82400 44.01700
H  47.45500 50.34400 40.48000
H  49.15400 49.99900 40.48200
H  48.11400 52.27100 39.96200
H  49.59200 52.32800 40.98900
H  47.96100 52.48800 41.79300
H  41.99000 48.94800 43.11600
H  42.24700 49.11100 41.40400
H  43.30100 50.05400 42.31700
H  42.85300 43.63700 41.52800
H  40.77000 42.71500 45.73500
H  42.17400 43.38500 46.70300
H  42.30900 41.94600 45.57000
Mg -11.90300 38.99800 41.87400
C  -9.88000 36.14500 41.22400
C  -9.45100 41.03500 40.61700
C  -14.17100 41.51500 42.02800
C  -14.49400 36.68600 42.69400
N  -9.93600 38.62400 40.91100
C  -9.30700 37.39700 40.80200
C  -7.97000 37.61300 40.10300
C  -7.73000 39.13900 40.07100
C  -9.12500 39.69100 40.55100
C  -6.50900 39.77000 40.73600
C  -7.71600 36.74100 38.78400
C  -6.50700 35.72600 38.74500
H  -5.53500 35.99100 37.67100
N  -11.77000 41.06200 41.47700
C  -10.64100 41.72500 40.90700
C  -10.93300 43.12700 40.92900
C  -12.32900 43.28000 41.15700
C  -12.85400 41.94500 41.58900
C  -9.97600 44.17000 40.38500
C  -13.04200 44.61700 41.10500
O  -12.44900 45.65200 40.85800
C  -14.56400 44.72300 41.39000
N  -14.04600 39.05700 42.18600
C  -14.65400 40.20900 42.34200
C  -16.08900 40.03000 42.90900
C  -16.22000 38.52000 43.03800
C  -14.82300 38.05400 42.61100
C  -16.30700 40.95200 44.13400
C  -17.42500 37.96400 42.14100
C  -18.72200 37.43600 42.90300
N  -12.21900 36.86300 41.90500
C  -13.30900 36.10900 42.31400
C  -12.95300 34.75400 42.31600
C  -11.61500 34.70900 41.93000
C  -11.19600 36.00000 41.68600
C  -13.84200 33.66300 42.81500
C  -10.47800 33.87000 41.66600
O  -10.30500 32.64800 41.74100
C  -9.28400 34.83200 41.20200
C  -8.19300 34.65100 42.20800
O  -8.29000 34.80800 43.41800
O  -7.12200 34.05100 41.61000
C  -5.97300 33.99500 42.44900
H  -8.70500 41.65300 40.11400
H  -14.90600 42.31100 42.16400
H  -15.28400 36.06700 43.12600
H  -7.26600 37.17300 40.80900
H  -7.69500 39.32400 38.99700
H  -5.69900 39.09200 41.00300
H  -6.75700 40.24200 41.68600
H  -6.09300 40.61400 40.18500
H  -7.72700 37.36000 37.88600
H  -8.56200 36.06100 38.68400
H  -6.90300 34.72700 38.56200
H  -6.03000 35.76700 39.72400
H  -8.94500 43.84700 40.52900
H  -10.12900 45.15800 40.81800
H  -10.18800 44.22600 39.31700
H  -14.96000 43.87000 40.83800
H  -14.81000 45.66400 40.89900
H  -14.85500 44.82400 42.43600
H  -16.83200 40.31500 42.16400
H  -16.39700 38.37300 44.10300
H  -15.39700 41.43500 44.48800
H  -16.70400 40.33400 44.94000
H  -16.99300 41.79700 44.07600
H  -17.07500 37.10500 41.56900
H  -17.76100 38.60800 41.32800
H  -19.56500 37.94900 42.43800
H  -18.71600 37.65200 43.97100
H  -18.94800 36.38500 42.72600
H  -14.46300 33.97800 43.65400
H  -13.21700 32.78900 43.00200
H  -14.55000 33.45800 42.01300
H  -8.90200 34.46800 40.24800
H  -5.23000 34.63100 41.96700
H  -5.60000 32.97200 42.50600
H  -6.00200 34.24100 43.51000

