158

Mg 44.61200 4.75900 46.65900
C  42.84300 7.88300 46.75600
C  41.68700 3.28800 45.69300
C  46.32900 2.12200 45.64500
C  47.55400 6.61400 47.09800
N  42.50300 5.52200 46.27400
C  41.97600 6.76300 46.45500
C  40.47900 6.83800 46.12600
C  40.15300 5.31500 45.94100
C  41.55300 4.62600 46.02000
C  39.18700 4.77800 47.05900
C  40.28400 7.68100 44.78100
C  41.42500 7.47500 43.70200
H  40.88500 7.41300 42.23400
N  44.09700 2.94400 45.80500
C  42.80600 2.45400 45.54000
C  42.88600 1.06100 45.13000
C  44.24100 0.76900 45.09600
C  44.94900 1.94400 45.56000
C  41.70900 0.26100 44.73500
C  44.80900 -0.57700 44.69200
O  44.05300 -1.38700 44.24100
C  46.28000 -0.82100 44.55200
N  46.60100 4.51300 46.29400
C  47.03800 3.25900 46.07900
C  48.59600 3.08800 46.16100
C  49.06000 4.42900 46.65700
C  47.69000 5.29000 46.65200
C  49.13000 1.88500 46.97000
C  50.35200 5.02700 45.93600
C  51.70200 4.83600 46.68900
N  45.10100 6.82100 47.17200
C  46.35500 7.38200 47.22300
C  46.19200 8.82900 47.40100
C  44.81400 9.04500 47.35100
C  44.21700 7.76600 47.04500
C  47.31900 9.81600 47.59800
C  43.86200 10.07800 47.24400
O  43.92700 11.28800 47.33200
C  42.58100 9.37300 47.00800
C  41.86200 9.58900 48.30300
O  41.95500 8.87600 49.29200
O  41.02700 10.59900 48.18700
C  40.34700 10.89400 49.38500
H  40.76500 2.89000 45.26500
H  46.99400 1.26300 45.53300
H  48.52300 7.04100 47.36200
H  39.97500 7.32200 46.96200
H  39.72700 5.05100 44.97300
H  39.73600 4.33000 47.88700
H  38.48200 4.03300 46.69300
H  38.56900 5.59300 47.43600
H  40.54300 8.68800 45.10600
H  39.30800 7.59800 44.30400
H  42.04400 6.58600 43.82400
H  42.15800 8.28200 43.69200
H  41.70600 0.11500 43.65500
H  40.78500 0.73100 45.07300
H  41.64800 -0.68100 45.27900
H  46.28300 -1.78600 44.04600
H  46.86500 -0.84200 45.47200
H  46.62000 -0.02000 43.89500
H  49.00600 2.98100 45.15700
H  49.44300 4.32600 47.67300
H  48.31500 1.36500 47.47300
H  49.89500 2.06400 47.72500
H  49.65800 1.09600 46.43500
H  50.24000 6.10000 45.78100
H  50.48400 4.69600 44.90600
H  52.41200 4.51600 45.92600
H  51.66900 4.14700 47.53300
H  52.12000 5.81700 46.91700
H  46.79900 10.75800 47.42300
H  48.07000 9.61400 46.83300
H  47.70500 9.96000 48.60700
H  41.99800 9.83700 46.21300
H  39.49700 11.53600 49.15200
H  40.80300 11.51900 50.15300
H  39.92000 10.02400 49.88500
Mg -12.78800 16.61300 42.16500
C  -9.94600 14.68900 41.36100
C  -11.35600 19.23000 40.81600
C  -15.95100 18.02900 42.31300
C  -14.37300 13.45400 42.96400
N  -10.87900 16.88300 40.95900
C  -9.89400 15.95800 40.80700
C  -8.64900 16.58600 40.13100
C  -9.03700 18.02700 40.17300
C  -10.52800 18.14000 40.74400
C  -8.10700 18.95200 40.92300
C  -8.14700 15.95100 38.79600
C  -6.68600 15.30100 38.78800
H  -5.77700 15.68600 37.60400
N  -13.51600 18.39400 41.63200
C  -12.76500 19.40700 41.13800
C  -13.61100 20.60100 40.98100
C  -14.91600 20.27900 41.45300
C  -14.86300 18.84500 41.82300
C  -13.05300 21.88400 40.36700
C  -16.07200 21.21700 41.42200
O  -15.97500 22.37200 41.01000
C  -17.40000 20.91200 42.00300
N  -14.88000 15.84200 42.63300
C  -15.95600 16.68600 42.62100
C  -17.22100 15.95000 42.81200
C  -16.75100 14.45100 43.09000
C  -15.24500 14.54200 42.83900
C  -17.99600 16.62400 43.98900
C  -17.36800 13.28700 42.17900
C  -18.40200 12.33500 42.88000
N  -12.24600 14.53900 42.39700
C  -13.01100 13.40000 42.71200
C  -12.07900 12.26400 42.85900
C  -10.85500 12.73700 42.38200
C  -11.03100 14.09300 42.05600
C  -12.40900 10.89800 43.35300
C  -9.46700 12.39800 42.13500
O  -8.84900 11.34500 42.39900
C  -8.83300 13.58300 41.35200
C  -7.55200 14.00700 42.04700
O  -7.37200 14.48700 43.13800
O  -6.47600 13.34100 41.39800
C  -5.20600 13.34100 41.99800
H  -10.78700 20.09200 40.46100
H  -16.93000 18.51300 42.27700
H  -14.79900 12.46200 43.12600
H  -7.87800 16.47400 40.89400
H  -9.08300 18.37800 39.14200
H  -8.65600 19.12000 41.85000
H  -8.03900 19.93500 40.45600
H  -7.11000 18.52000 41.00300
H  -8.15400 16.73700 38.04100
H  -8.88300 15.20000 38.51000
H  -6.97100 14.24900 38.76400
H  -6.21400 15.50600 39.74900
H  -13.63000 22.37800 39.58600
H  -12.09200 21.61400 39.93000
H  -12.77500 22.56100 41.17500
H  -17.36500 20.55300 43.03200
H  -17.81600 20.15900 41.33500
H  -18.01900 21.80500 41.91500
H  -17.81400 16.06900 41.90500
H  -16.92100 14.13100 44.11800
H  -17.56700 17.56700 44.32700
H  -18.11900 15.92400 44.81600
H  -18.97500 17.01700 43.71500
H  -16.57900 12.75100 41.65200
H  -17.92000 13.77800 41.37700
H  -18.05500 11.30300 42.93000
H  -19.40000 12.46600 42.46100
H  -18.43100 12.61100 43.93400
H  -11.48200 10.33200 43.26400
H  -13.21500 10.46300 42.76100
H  -12.64500 10.86200 44.41600
H  -8.59400 13.22200 40.35200
H  -5.11000 13.89300 42.93300
H  -4.54100 13.70700 41.21600
H  -4.80200 12.34300 42.16800

