158

Mg 1.63600 -1.10200 43.72500
C  4.87100 -0.28600 43.13100
C  0.71600 1.89900 42.26400
C  -1.57000 -2.29100 43.45300
C  2.59900 -4.26400 44.69000
N  2.71900 0.66900 42.79700
C  4.04600 0.75400 42.63800
C  4.50200 2.03400 41.83200
C  3.12200 2.76500 41.61600
C  2.09600 1.74400 42.25000
C  3.01200 4.24200 42.12500
C  5.30300 1.79300 40.52200
C  6.54100 2.67600 40.22000
H  6.87800 3.28100 38.88300
N  -0.17900 -0.21700 43.15000
C  -0.35500 1.04700 42.59500
C  -1.75200 1.32900 42.47800
C  -2.39300 0.08000 42.79700
C  -1.40300 -0.87600 43.20600
C  -2.29400 2.72500 42.14900
C  -3.94900 -0.05200 42.74900
O  -4.65300 0.89400 42.55900
C  -4.56700 -1.42600 42.81200
N  0.65500 -3.09400 43.98100
C  -0.66000 -3.30200 43.83400
C  -1.10200 -4.78400 44.09600
C  0.19600 -5.23100 44.74100
C  1.21900 -4.18500 44.44100
C  -2.44200 -5.01900 44.85300
C  0.81300 -6.66600 44.45800
C  -0.19200 -7.78300 44.18100
N  3.37800 -2.10200 43.97500
C  3.64700 -3.32400 44.44900
C  4.99400 -3.54600 44.75600
C  5.58600 -2.28700 44.25600
C  4.49400 -1.54800 43.69300
C  5.69000 -4.68000 45.36600
C  6.80800 -1.49600 43.94400
O  7.98200 -1.78500 44.12500
C  6.37300 -0.12900 43.20500
C  6.81900 1.07300 43.99700
O  6.24400 1.51800 44.99800
O  7.89200 1.69300 43.37700
C  8.47300 2.96600 43.88500
H  0.49900 2.88400 41.84700
H  -2.56200 -2.74300 43.39500
H  2.89600 -5.21200 45.14500
H  5.03700 2.74600 42.46000
H  2.85600 2.83300 40.56100
H  2.74600 4.78900 41.22000
H  3.98900 4.58300 42.46800
H  2.28500 4.25900 42.93700
H  4.63300 1.97100 39.68100
H  5.51000 0.73100 40.39000
H  7.34100 1.99700 40.51500
H  6.41100 3.45400 40.97200
H  -1.47800 3.44500 42.21800
H  -3.13200 3.11600 42.72700
H  -2.71700 2.76500 41.14600
H  -5.60000 -1.56900 42.49500
H  -4.37100 -1.71100 43.84500
H  -4.06500 -2.10000 42.11900
H  -1.15100 -5.11400 43.05800
H  -0.01600 -5.21000 45.81000
H  -2.19100 -5.34600 45.86300
H  -2.99200 -5.70700 44.21100
H  -3.06500 -4.14400 45.03700
H  1.33600 -6.94300 45.37300
H  1.54500 -6.49900 43.66800
H  -0.30000 -7.79800 43.09700
H  -1.11500 -7.73700 44.76000
H  0.23000 -8.75200 44.44500
H  4.98000 -5.42400 45.72800
H  6.33200 -4.41000 46.20500
H  6.24900 -5.13100 44.54600
H  6.81300 0.04200 42.22300
H  7.71200 3.69700 44.16000
H  9.17300 3.53800 43.27600
H  9.00900 2.81300 44.82200
Mg -10.55500 39.11700 39.74600
C  -9.78100 35.73100 39.63700
C  -7.11500 39.70000 39.17900
C  -11.29700 42.28500 39.55800
C  -13.86700 38.24400 40.43900
N  -8.60900 37.87800 39.45800
C  -8.59200 36.50600 39.51500
C  -7.14100 35.95400 39.19700
C  -6.30700 37.26700 39.47200
C  -7.39100 38.35600 39.39000
C  -5.59900 37.36000 40.84700
C  -7.05800 35.23600 37.81500
C  -7.41400 35.99900 36.48800
H  -8.76400 35.86300 35.86000
N  -9.42100 40.80100 39.28800
C  -8.03700 40.83300 39.10900
C  -7.67100 42.20200 38.81400
C  -8.78900 43.05700 39.00500
C  -9.91900 42.08300 39.35500
C  -6.25200 42.66300 38.67400
C  -8.86800 44.57800 38.92400
O  -7.91800 45.18500 38.42500
C  -10.07300 45.39300 39.33400
N  -12.39700 40.06000 39.88200
C  -12.42700 41.39800 39.74200
C  -13.78900 41.99700 39.95700
C  -14.65600 40.68900 40.36800
C  -13.57000 39.56600 40.20100
C  -13.94800 43.22400 40.92700
C  -15.89400 40.52800 39.44500
C  -17.12700 40.25700 40.23600
N  -11.63700 37.31000 39.96300
C  -12.99100 37.14300 40.30500
C  -13.23500 35.79300 40.38000
C  -12.03700 35.13900 40.06000
C  -11.09700 36.13900 39.76300
C  -14.51600 35.17400 40.71900
C  -11.48100 33.88600 39.89700
O  -12.06700 32.82800 39.97000
C  -9.89700 34.15900 39.55700
C  -9.06000 33.35800 40.45300
O  -9.21500 33.16200 41.66200
O  -8.00400 32.91700 39.80300
C  -6.83800 32.40900 40.51000
H  -6.06800 39.90500 38.94200
H  -11.62400 43.32700 39.55000
H  -14.94600 38.14100 40.56700
H  -7.11200 35.25100 40.02900
H  -5.47900 37.32700 38.76600
H  -6.04600 38.12900 41.47700
H  -4.53600 37.56600 40.71900
H  -5.66100 36.40300 41.36600
H  -7.59100 34.28600 37.80800
H  -6.05600 34.83000 37.67200
H  -6.72500 35.70900 35.69600
H  -7.14900 37.05500 36.54900
H  -6.12900 43.48400 37.96700
H  -5.63700 41.81500 38.37200
H  -5.97700 43.07900 39.64300
H  -10.25400 45.15100 40.38100
H  -10.98100 45.23200 38.75300
H  -9.83700 46.44400 39.16200
H  -14.08200 42.27400 38.94400
H  -14.98700 40.63700 41.40500
H  -14.93100 43.17000 41.39400
H  -13.89300 44.11100 40.29500
H  -13.11000 43.35700 41.61100
H  -15.74600 39.67100 38.78700
H  -15.97400 41.33900 38.72000
H  -16.93100 40.60700 41.24900
H  -17.37800 39.19600 40.25200
H  -17.98100 40.87400 39.95600
H  -14.97400 34.89700 39.76900
H  -15.15200 35.84000 41.30100
H  -14.38300 34.25300 41.28700
H  -9.79100 33.92000 38.49900
H  -6.37100 31.51700 40.09200
H  -7.16000 32.11800 41.51000
H  -6.09700 33.20300 40.59900

