158

Mg -1.96900 17.24100 26.68900
C  -2.27000 15.08400 29.30400
C  -3.13000 19.78700 28.82500
C  -1.84000 19.35600 24.10200
C  -1.28600 14.64000 24.51300
N  -2.81200 17.40400 28.90400
C  -2.66900 16.35800 29.76300
C  -2.93400 16.92800 31.15900
C  -3.63000 18.34300 30.88700
C  -3.23600 18.53200 29.43900
C  -5.19800 18.32000 31.00100
C  -1.62200 16.99900 32.09300
C  -1.76900 16.80300 33.63900
H  -0.41100 16.69500 34.41500
N  -2.14500 19.30400 26.54000
C  -2.67100 20.13700 27.53500
C  -2.60200 21.52400 26.99000
C  -2.18900 21.49100 25.65500
C  -2.03900 20.01300 25.34600
C  -2.97300 22.69300 27.83400
C  -1.94300 22.49600 24.64000
O  -1.60700 22.26000 23.50900
C  -1.95100 23.86300 24.93900
N  -1.54400 17.08900 24.62400
C  -1.65100 18.08400 23.74900
C  -1.64500 17.61300 22.27600
C  -1.14700 16.12200 22.43900
C  -1.35700 15.87200 23.97100
C  -2.94800 17.84000 21.45600
C  0.31600 15.90900 21.98500
C  1.34300 16.55200 22.86200
N  -1.85100 15.23800 26.84300
C  -1.56100 14.28100 25.90800
C  -1.55800 13.01100 26.53600
C  -1.76100 13.22500 27.87100
C  -2.00500 14.60800 28.00000
C  -1.34900 11.73700 25.82200
C  -1.78600 12.73600 29.15900
O  -1.52500 11.61100 29.52000
C  -2.28000 13.81200 30.18000
C  -1.27800 13.73200 31.27500
O  -0.08900 13.88200 31.19300
O  -1.93800 13.40700 32.46600
C  -1.14100 13.09100 33.66300
H  -3.51500 20.64400 29.38100
H  -1.85900 20.07300 23.27900
H  -1.01300 13.78700 23.88800
H  -3.55800 16.16200 31.62000
H  -3.14400 19.19400 31.36500
H  -5.65700 19.21600 30.58100
H  -5.36800 18.25900 32.07600
H  -5.50000 17.44100 30.43200
H  -1.19600 17.98400 31.89900
H  -0.89800 16.31400 31.65100
H  -2.35900 15.90700 33.82900
H  -2.27700 17.61900 34.15200
H  -2.36900 23.56100 27.57200
H  -2.89100 22.46500 28.89600
H  -4.02300 22.90500 27.63300
H  -2.95200 24.29300 24.90200
H  -1.38800 24.40000 24.17600
H  -1.48600 24.11500 25.89200
H  -0.89700 18.17800 21.72000
H  -1.84200 15.45700 21.92500
H  -2.88700 18.07400 20.39400
H  -3.51400 18.67000 21.88100
H  -3.55200 16.95300 21.64700
H  0.48300 16.17200 20.94000
H  0.49500 14.83800 22.07500
H  1.37600 16.20600 23.89500
H  1.57400 17.59300 22.63500
H  2.29600 16.13500 22.53600
H  -0.56600 11.78300 25.06600
H  -2.30200 11.34900 25.46300
H  -0.99200 11.01500 26.55600
H  -3.20800 13.49400 30.65500
H  -1.47100 12.23800 34.25700
H  -1.22400 13.90600 34.38100
H  -0.07900 12.92800 33.48300
Mg 35.92800 1.24000 29.73000
C  33.79300 2.23700 32.37400
C  38.50400 0.96400 32.13200
C  38.11100 0.94400 27.26400
C  33.25800 1.72700 27.50700
N  36.11300 1.52500 32.02900
C  35.11400 1.96400 32.83700
C  35.61300 1.75800 34.32600
C  37.19800 1.75700 34.17400
C  37.27900 1.41000 32.67200
C  37.88400 3.14100 34.56800
C  34.93600 0.50100 35.05300
C  34.13200 0.76500 36.26600
H  34.47200 2.03700 37.01400
N  38.06100 0.82300 29.75700
C  38.86000 0.72200 30.80300
C  40.21400 0.45500 30.29500
C  40.08700 0.38700 28.86600
C  38.67000 0.71100 28.56700
C  41.36400 0.05100 31.29200
C  41.14400 0.27600 27.70200
O  40.87000 0.14700 26.49700
C  42.54600 0.11900 27.98800
N  35.73200 1.32300 27.68400
C  36.78200 1.25100 26.87300
C  36.36700 1.33200 25.40900
C  34.78100 1.44800 25.46100
C  34.53200 1.44800 26.96800
C  36.97600 2.56800 24.70800
C  34.12100 0.30200 24.71400
C  33.80400 -1.00000 25.47500
N  33.94000 1.76700 29.89800
C  33.00200 2.00200 28.91600
C  31.75100 2.53400 29.50600
C  31.99800 2.54400 30.88100
C  33.39400 2.11000 31.05600
C  30.47100 3.00200 28.75400
C  31.41300 2.89800 32.15800
O  30.29000 3.27600 32.48300
C  32.57000 2.65800 33.20700
C  32.74300 3.90500 33.99300
O  33.57700 4.75100 33.67100
O  31.85900 3.99300 35.04000
C  31.88800 5.22600 35.80500
H  39.34400 0.76900 32.80200
H  38.73800 0.74100 26.39300
H  32.47900 1.91700 26.76600
H  35.36500 2.71400 34.78800
H  37.55400 0.85900 34.67900
H  37.16000 3.89400 34.88000
H  38.38900 3.54000 33.68800
H  38.65100 3.12900 35.34200
H  35.73400 -0.21100 35.26200
H  34.40800 -0.02100 34.25500
H  34.12800 -0.05200 36.98800
H  33.06600 0.79700 36.04100
H  42.20200 -0.48100 30.84200
H  40.93800 -0.61000 32.04600
H  41.78000 0.94500 31.75700
H  42.59300 -0.82100 28.53800
H  42.76700 1.05300 28.50500
H  43.17200 0.06700 27.09800
H  36.71500 0.47300 24.83500
H  34.30900 2.35200 25.07600
H  36.16600 3.28200 24.56000
H  37.49300 2.36700 23.77000
H  37.63600 3.17300 25.32900
H  34.85000 -0.07200 23.99600
H  33.26700 0.66400 24.14100
H  34.39600 -1.86200 25.16400
H  32.82300 -1.43000 25.27100
H  33.80500 -0.91100 26.56100
H  30.67100 2.78100 27.70500
H  30.34900 4.05600 29.00400
H  29.73900 2.27300 29.10200
H  32.17700 1.90500 33.89000
H  31.59300 6.06000 35.16800
H  32.90000 5.44400 36.14500
H  31.24400 5.13800 36.67900

