158

Mg 41.70400 41.64800 26.98300
C  41.21700 43.96200 29.42900
C  43.17200 39.44500 29.45400
C  42.24900 39.31100 24.64100
C  41.03600 44.01900 24.51000
N  42.07100 41.67600 29.13400
C  41.69800 42.74200 29.94600
C  41.88500 42.39600 31.42700
C  42.78100 41.10800 31.39300
C  42.60500 40.66800 29.94200
C  44.32800 41.24100 31.78300
C  40.49900 42.30300 32.18000
C  40.32100 43.12800 33.45500
H  39.76800 42.36600 34.64900
N  42.59300 39.68400 26.98900
C  43.10900 38.95600 28.09400
C  43.57500 37.60600 27.62800
C  43.16900 37.49700 26.21200
C  42.61100 38.90100 25.89200
C  44.10000 36.47500 28.51800
C  43.28700 36.31900 25.26700
O  43.03000 36.44400 24.10600
C  43.89400 35.05000 25.66000
N  42.05100 41.79800 24.83500
C  42.07700 40.65200 24.09600
C  41.66500 40.93700 22.58700
C  41.42100 42.43900 22.54500
C  41.51400 42.81700 24.03600
C  42.82300 40.43900 21.61300
C  40.18700 42.87200 21.77200
C  40.21600 44.08400 20.88700
N  41.20700 43.67200 26.86900
C  40.77600 44.43900 25.86600
C  40.35200 45.70000 26.43100
C  40.45000 45.51900 27.81400
C  41.05700 44.30300 28.03800
C  39.87500 46.83100 25.59500
C  40.22900 46.16500 29.08800
O  39.64000 47.22900 29.36400
C  40.69100 45.16800 30.18200
C  41.72400 45.80000 31.01300
O  42.74400 46.23000 30.52600
O  41.37000 45.86200 32.33900
C  42.21800 46.70500 33.23500
H  43.61200 38.79300 30.21100
H  42.21100 38.51600 23.89400
H  40.82800 44.76600 23.74200
H  42.42800 43.17000 31.96900
H  42.26100 40.38500 32.02300
H  44.50800 42.24300 32.17100
H  44.93600 41.10100 30.88900
H  44.62400 40.62400 32.63200
H  40.27900 41.27300 32.46200
H  39.74500 42.62900 31.46300
H  39.65300 43.97100 33.27800
H  41.26100 43.59600 33.74700
H  45.11400 36.22000 28.20900
H  43.44400 35.61100 28.41300
H  44.16700 36.78500 29.56100
H  43.19900 34.54400 26.33000
H  44.79200 35.27700 26.23500
H  44.22400 34.37600 24.86900
H  40.72200 40.45500 22.33200
H  42.35500 42.89700 22.22100
H  43.61100 41.14500 21.35200
H  42.35000 40.22300 20.65500
H  43.18000 39.48100 21.99300
H  39.41800 42.96900 22.53800
H  39.73800 42.13000 21.11100
H  39.97200 43.85500 19.84900
H  41.24700 44.43400 20.84800
H  39.38500 44.72000 21.19200
H  40.27300 46.83000 24.58000
H  40.06600 47.76100 26.13000
H  38.79300 46.71200 25.53700
H  39.84600 44.97600 30.84300
H  43.20500 46.93400 32.83400
H  42.23500 46.16400 34.18100
H  41.70000 47.65800 33.35200
Mg -12.34500 16.99900 42.20300
C  -9.19700 15.33000 41.78100
C  -10.91400 19.74000 40.64400
C  -15.46400 18.27400 41.79000
C  -13.75800 13.76500 43.02900
N  -10.31400 17.42600 41.18700
C  -9.14300 16.65800 41.29100
C  -7.85400 17.45500 40.89200
C  -8.44700 18.86000 40.72200
C  -9.98400 18.65300 40.84200
C  -7.99300 20.04000 41.70600
C  -7.14300 16.76400 39.62500
C  -5.65400 16.26500 39.69200
H  -5.36400 15.08900 38.64500
N  -13.10200 18.83500 41.35300
C  -12.33800 19.83200 40.77000
C  -13.23200 20.91300 40.37200
C  -14.51900 20.47800 40.73100
C  -14.45400 19.14400 41.35100
C  -12.70800 22.11700 39.66300
C  -15.74700 21.33800 40.45900
O  -15.66700 22.43300 39.89000
C  -17.09400 20.88200 40.83500
N  -14.31800 16.06700 42.41500
C  -15.44300 16.90500 42.30400
C  -16.72300 16.02900 42.46600
C  -16.14400 14.62200 43.04100
C  -14.67000 14.76800 42.76700
C  -17.81200 16.59500 43.37200
C  -16.79200 13.40900 42.23300
C  -17.12700 12.09200 42.98100
N  -11.59400 14.96300 42.47200
C  -12.30400 13.83600 42.82200
C  -11.31400 12.75100 42.93600
C  -10.07500 13.31600 42.61300
C  -10.31000 14.68500 42.26800
C  -11.56900 11.42500 43.44500
C  -8.61300 13.01900 42.44600
O  -7.91300 12.04900 42.79000
C  -7.97600 14.32200 41.93600
C  -7.19100 14.79700 43.11000
O  -7.52400 15.59800 44.00400
O  -5.93300 14.27000 43.01600
C  -4.99300 14.70300 44.13700
H  -10.51200 20.66500 40.22600
H  -16.51600 18.50600 41.61100
H  -14.17200 12.78000 43.25500
H  -7.12200 17.40000 41.69800
H  -8.34700 19.21900 39.69800
H  -8.89300 20.39400 42.20900
H  -7.53200 20.86000 41.15500
H  -7.15700 19.84700 42.37800
H  -7.05000 17.57100 38.89800
H  -7.74700 15.96600 39.19500
H  -5.41700 16.10400 40.74300
H  -4.96900 17.08800 39.49000
H  -13.15300 23.05600 39.99200
H  -12.78600 22.04300 38.57800
H  -11.64300 22.29300 39.81600
H  -17.25600 19.95900 40.27800
H  -17.82000 21.67400 40.65100
H  -16.92600 20.65100 41.88700
H  -17.15400 15.92200 41.47100
H  -16.25200 14.48800 44.11700
H  -17.48600 17.56800 43.73900
H  -18.12600 15.94600 44.18900
H  -18.70600 16.84200 42.80000
H  -15.99500 13.19400 41.52100
H  -17.66400 13.75400 41.67800
H  -16.46800 11.30300 42.61900
H  -18.17700 12.04500 42.69500
H  -16.87000 12.26200 44.02700
H  -11.74200 10.73400 42.62000
H  -12.42000 11.46400 44.12500
H  -10.61600 11.18000 43.91300
H  -7.38500 14.11900 41.04300
H  -4.81900 15.77800 44.17700
H  -4.02700 14.20800 44.03600
H  -5.42500 14.46400 45.10900

