158

Mg 47.80500 25.74500 29.39500
C  48.66800 28.17000 31.75200
C  46.61400 23.82600 31.85800
C  47.12800 23.47700 27.03400
C  49.34900 27.75300 26.99400
N  47.54500 26.07700 31.53500
C  47.96300 27.07400 32.26900
C  47.59300 26.92100 33.72500
C  47.00300 25.51400 33.75200
C  47.11100 25.06500 32.26300
C  47.61900 24.47000 34.75000
C  46.55100 27.96400 34.15400
C  46.38400 28.14200 35.67500
H  47.34100 27.51200 36.65200
N  46.88400 23.91200 29.39800
C  46.49800 23.29500 30.56500
C  45.64700 22.10900 30.23600
C  45.73600 22.07000 28.76900
C  46.63000 23.16700 28.30100
C  44.97300 21.22600 31.29400
C  45.25900 21.01800 27.79900
O  45.34700 21.11400 26.57700
C  44.30200 19.95600 28.30000
N  48.42800 25.50800 27.40800
C  48.01000 24.52000 26.66500
C  48.58900 24.52100 25.22800
C  49.22000 25.88000 25.17400
C  48.92100 26.50300 26.57100
C  49.54100 23.32800 25.02900
C  48.53800 26.67400 24.04400
C  49.51700 27.36900 23.00300
N  48.73500 27.67300 29.33400
C  49.26500 28.31400 28.27600
C  49.94600 29.48300 28.73100
C  49.69500 29.51000 30.10800
C  48.94400 28.39900 30.43300
C  50.56800 30.56400 27.92300
C  49.87300 30.31100 31.32300
O  50.38700 31.41500 31.54900
C  49.34500 29.32900 32.49900
C  50.54900 28.90500 33.27400
O  51.08800 27.78000 33.24100
O  50.89400 29.83000 34.19100
C  52.04100 29.44600 35.04200
H  46.12000 23.22300 32.62300
H  47.03200 22.72900 26.24400
H  49.94400 28.19400 26.19100
H  48.48500 26.91700 34.35100
H  45.92600 25.53900 33.91500
H  48.49500 24.83600 35.28500
H  47.88500 23.53900 34.24800
H  46.83500 24.15800 35.44000
H  45.59800 27.68000 33.70900
H  46.82600 28.94300 33.76300
H  45.38700 27.96100 36.07600
H  46.49400 29.22600 35.69200
H  45.25300 20.17600 31.20900
H  43.89900 21.32800 31.13500
H  45.11300 21.47400 32.34600
H  43.46200 20.54000 28.67600
H  44.63500 19.26700 29.07700
H  43.85400 19.38800 27.48500
H  47.68800 24.40100 24.62800
H  50.30800 25.82500 25.19500
H  48.98800 22.38900 25.05700
H  50.15800 23.35300 25.92700
H  50.05700 23.46500 24.07900
H  47.84000 27.38200 24.49200
H  47.84200 26.11600 23.41800
H  49.18100 27.15600 21.98800
H  50.54500 27.05100 23.17600
H  49.51300 28.43200 23.24600
H  49.82100 30.71700 27.14400
H  51.50100 30.27800 27.43800
H  50.78800 31.38700 28.60300
H  48.59900 29.88800 33.06400
H  51.79300 28.50700 35.53600
H  52.07600 30.20800 35.82000
H  53.01000 29.41500 34.54400
Mg 27.07700 50.12300 26.74500
C  24.99800 51.06700 29.51200
C  29.34700 49.07100 29.15100
C  29.05400 49.49600 24.20800
C  24.74200 51.57500 24.65700
N  27.15800 50.12300 29.12200
C  26.19900 50.60800 30.00500
C  26.65900 50.41900 31.42600
C  28.11200 49.85800 31.33700
C  28.20400 49.62000 29.81500
C  29.28600 50.80500 31.83500
C  25.74200 49.54100 32.39100
C  25.54400 50.18100 33.87700
H  25.44100 49.14600 34.99200
N  28.91400 49.39400 26.69900
C  29.69700 49.03000 27.74400
C  30.84700 48.39800 27.19100
C  30.89700 48.57900 25.79600
C  29.56300 49.12900 25.53900
C  32.04900 47.82700 28.00800
C  32.00500 48.45100 24.81700
O  31.89200 48.63200 23.65100
C  33.34700 48.05300 25.11500
N  27.02700 50.63600 24.76000
C  27.90300 50.17400 23.88500
C  27.58900 50.47200 22.50400
C  26.09400 50.96000 22.56200
C  25.93000 51.09500 24.06600
C  28.53500 51.50800 21.86900
C  25.06100 49.92500 21.93100
C  23.83200 50.38900 21.11700
N  25.23000 51.13300 26.99800
C  24.43300 51.69500 25.99100
C  23.30100 52.34200 26.64500
C  23.47300 52.09300 28.00000
C  24.60200 51.31100 28.18800
C  22.26900 53.12300 25.86700
C  22.84200 52.32400 29.25800
O  21.75700 52.81700 29.45200
C  23.84700 51.67900 30.34100
C  24.20300 52.70200 31.33200
O  25.20400 53.31600 31.36600
O  23.21000 52.72000 32.33000
C  23.52900 53.55300 33.45400
H  30.10400 48.72800 29.85800
H  29.65300 49.15700 23.36000
H  23.88500 51.74700 24.00300
H  26.69300 51.42300 31.84900
H  28.22100 48.96000 31.94600
H  29.94500 51.08800 31.01500
H  29.90400 50.32300 32.59200
H  28.98900 51.72300 32.34100
H  26.21500 48.57300 32.56100
H  24.82100 49.31000 31.85600
H  24.57500 50.67300 33.79100
H  26.12400 51.05100 34.18600
H  31.97000 47.92600 29.09100
H  32.93400 48.45200 27.89000
H  32.14700 46.76200 27.79800
H  33.27700 47.04300 25.52000
H  33.63500 48.76600 25.88700
H  33.97000 47.97400 24.22400
H  27.59700 49.59200 21.86000
H  26.00800 51.85600 21.94700
H  29.50400 51.45700 22.36400
H  28.11500 52.51400 21.88600
H  28.79700 51.13400 20.88000
H  24.67800 49.21300 22.66200
H  25.66200 49.41800 21.17400
H  23.78500 50.02000 20.09200
H  23.72400 51.47300 21.07600
H  22.92000 50.01400 21.58100
H  22.83600 53.71300 25.14700
H  21.75300 53.77800 26.56800
H  21.46500 52.52700 25.43400
H  23.30500 50.86400 30.82000
H  23.63400 54.60100 33.17400
H  24.43100 53.18200 33.94100
H  22.68000 53.60700 34.13600

