158

Mg 50.18100 46.39500 43.03800
C  46.75600 46.73700 42.31400
C  50.09100 43.44800 41.37900
C  53.60500 46.39900 43.29300
C  50.13700 49.80500 44.10500
N  48.64800 45.23900 41.93200
C  47.29400 45.55300 41.85600
C  46.54000 44.53000 41.07400
C  47.52100 43.32500 41.18900
C  48.85700 43.97100 41.52000
C  47.22900 42.17600 42.32100
C  46.08700 44.89100 39.62200
C  44.55900 44.81900 39.36900
H  44.01200 43.85400 38.28300
N  51.64400 44.90800 42.52400
C  51.37800 43.79300 41.83000
C  52.57300 43.08600 41.78600
C  53.60300 43.85800 42.43600
C  52.99900 45.16100 42.79600
C  52.61900 41.65400 41.26700
C  55.10900 43.47500 42.53500
O  55.41900 42.34300 42.24200
C  56.28800 44.41900 42.88900
N  51.65100 47.94700 43.51900
C  52.97000 47.60100 43.68100
C  53.73400 48.72300 44.33500
C  52.61500 49.84500 44.56000
C  51.35900 49.11400 44.06800
C  54.51400 48.35300 45.65700
C  52.88500 51.16400 43.74500
C  52.90700 52.55900 44.54400
N  48.70700 48.11400 43.17100
C  48.84400 49.39700 43.65600
C  47.49800 49.92300 43.77200
C  46.61800 48.93900 43.22400
C  47.43000 47.86600 42.87600
C  47.15100 51.24800 44.31500
C  45.17500 48.60200 42.92900
O  44.11000 49.21000 43.14300
C  45.27300 47.21400 42.17100
C  44.21200 46.25800 42.76400
O  43.14700 46.03000 42.25600
O  44.63600 45.78600 43.93700
C  43.80700 44.72200 44.48300
H  50.11500 42.46100 40.91400
H  54.66700 46.48400 43.53100
H  50.18100 50.80100 44.54900
H  45.63600 44.11100 41.51600
H  47.66100 42.78400 40.25300
H  46.32300 42.27600 42.91900
H  47.97300 42.09400 43.11300
H  47.13500 41.25700 41.74200
H  46.50000 44.07300 39.03300
H  46.56600 45.86200 39.49700
H  44.33800 45.84700 39.08200
H  43.98900 44.42400 40.20900
H  52.51100 41.65300 40.18300
H  51.76200 41.18600 41.75200
H  53.44400 40.99800 41.54700
H  56.24400 44.66500 43.95000
H  56.20100 45.29900 42.25200
H  57.20800 43.90100 42.61600
H  54.51400 49.14200 43.69900
H  52.38200 50.04100 45.60600
H  54.10600 47.36400 45.86800
H  54.35800 49.10500 46.43000
H  55.59100 48.23000 45.53700
H  52.24300 51.34600 42.88400
H  53.83100 50.97400 43.23800
H  53.91500 52.95100 44.40700
H  52.79700 52.41500 45.61900
H  52.22500 53.33000 44.18700
H  47.70200 51.99200 43.74100
H  47.50600 51.31000 45.34300
H  46.06400 51.33300 44.34300
H  45.02100 47.39300 41.12600
H  42.75100 44.98900 44.53300
H  44.14200 44.38300 45.46300
H  43.99500 43.84600 43.86200
Mg 4.96700 54.84500 40.38900
C  4.47700 51.47200 41.05100
C  7.69200 54.21000 38.55500
C  4.76100 57.99600 39.24100
C  1.67600 55.34800 41.75200
N  5.85400 53.00800 39.70700
C  5.60800 51.73900 40.25100
C  6.58600 50.73100 39.70500
C  7.84100 51.69700 39.36600
C  7.09600 53.03700 39.19000
C  8.93100 51.70000 40.46900
C  6.13700 49.86400 38.49000
C  4.83000 50.20300 37.74100
H  4.94500 49.76500 36.25800
N  6.11700 56.04400 39.08000
C  7.21200 55.56100 38.45600
C  7.82100 56.68800 37.81300
C  7.03700 57.78000 38.00100
C  5.92100 57.34200 38.80100
C  9.16800 56.52700 37.07700
C  7.35400 59.15200 37.40700
O  8.21000 59.35500 36.50000
C  6.69700 60.35900 37.94800
N  3.32500 56.35100 40.36500
C  3.61300 57.56100 39.87500
C  2.49100 58.57500 40.21100
C  1.37600 57.73600 40.74800
C  2.14700 56.40700 40.94600
C  2.90400 59.75600 41.09900
C  0.12600 57.62200 39.74900
C  -1.27600 58.04300 40.40600
N  3.46600 53.73900 41.44400
C  2.26900 54.06500 41.99300
C  1.78000 52.95900 42.81000
C  2.73600 51.94600 42.52100
C  3.64100 52.42700 41.64200
C  0.47000 52.93900 43.74600
C  3.02100 50.52900 42.81900
O  2.59100 49.75400 43.56600
C  4.14900 50.19500 41.76800
C  3.58100 49.13100 40.89200
O  2.62100 49.34100 40.13200
O  4.32200 47.95400 41.03700
C  3.87400 46.72700 40.34400
H  8.70900 54.01800 38.20600
H  4.61000 59.01600 38.88300
H  0.71100 55.51700 42.23300
H  6.72900 50.10200 40.58400
H  8.25600 51.26400 38.45500
H  8.76700 50.86500 41.15000
H  8.93400 52.64800 41.00500
H  9.90300 51.64100 39.97900
H  5.92000 48.91400 38.97800
H  6.94000 49.63600 37.79000
H  4.68000 51.28000 37.80600
H  3.99900 49.61200 38.12800
H  9.80300 57.38700 36.86300
H  9.17300 55.94700 36.15500
H  9.74100 55.94100 37.79600
H  7.29700 61.24100 37.72100
H  6.46100 60.27500 39.00900
H  5.80600 60.40100 37.32200
H  2.20200 59.04200 39.27000
H  0.99500 58.13000 41.69000
H  2.30500 59.92300 41.99400
H  2.61000 60.69100 40.62100
H  3.98000 59.67200 41.25400
H  0.03700 56.61400 39.34200
H  0.20800 58.31100 38.90900
H  -1.15500 58.66700 41.29200
H  -1.74700 57.16500 40.84800
H  -1.90600 58.57500 39.69400
H  0.68800 52.69400 44.78500
H  -0.32100 52.30400 43.34800
H  -0.01800 53.91400 43.75900
H  5.00600 49.69600 42.22200
H  3.87500 45.86800 41.01500
H  4.55500 46.41200 39.55300
H  2.89500 46.77100 39.86600

