158

Mg 47.76400 25.39600 28.45300
C  48.96300 27.42000 31.17500
C  46.54300 23.18500 30.94100
C  46.88500 23.20300 26.10700
C  49.62300 27.27700 26.36800
N  47.71200 25.38900 30.81600
C  48.24400 26.34600 31.67200
C  47.94300 25.98900 33.12600
C  47.14400 24.66900 33.02800
C  47.09900 24.39600 31.51000
C  47.65400 23.50300 33.90100
C  47.34700 27.24100 33.88900
C  47.82900 27.46600 35.41200
H  46.74800 27.58200 36.48200
N  46.74600 23.47900 28.53700
C  46.39100 22.75200 29.62600
C  45.52700 21.57700 29.16300
C  45.53200 21.58900 27.73100
C  46.39100 22.82300 27.41400
C  44.80600 20.60100 30.08800
C  44.89100 20.72700 26.70400
O  45.09600 20.86800 25.53200
C  44.02700 19.48900 27.02700
N  48.12800 25.28700 26.45100
C  47.58600 24.30900 25.65900
C  48.15400 24.43500 24.24600
C  49.06600 25.64800 24.40000
C  48.85000 26.21700 25.79200
C  48.91800 23.15700 23.91600
C  48.89100 26.69200 23.25400
C  48.79200 26.09000 21.84800
N  48.91900 27.07800 28.62700
C  49.69100 27.69900 27.69800
C  50.38100 28.81000 28.33100
C  50.16100 28.69400 29.65400
C  49.18400 27.70900 29.81800
C  51.47600 29.70200 27.60000
C  50.55000 29.23500 30.93100
O  51.40900 30.04500 31.25700
C  49.67000 28.49500 32.01100
C  50.55500 27.86900 33.09900
O  51.06600 26.71200 33.12000
O  50.85900 28.84800 33.98300
C  51.90900 28.54700 34.96200
H  46.23000 22.45400 31.68900
H  46.56900 22.53400 25.30400
H  50.22500 27.83800 25.65000
H  48.91900 25.77100 33.55900
H  46.12300 24.93600 33.30300
H  46.78600 23.16400 34.46600
H  48.48300 23.77000 34.55500
H  47.88300 22.55100 33.42200
H  46.28000 27.01700 33.91000
H  47.31700 28.19600 33.36500
H  48.34700 28.40600 35.60400
H  48.53400 26.65000 35.57000
H  44.82200 20.89200 31.13800
H  45.31700 19.65300 29.92000
H  43.79900 20.41500 29.71600
H  43.17000 19.95100 27.51700
H  44.49700 18.84500 27.77000
H  43.71100 18.91100 26.15900
H  47.33500 24.60900 23.54800
H  50.08300 25.26000 24.46800
H  49.15000 22.72900 24.89100
H  49.78400 23.47400 23.33500
H  48.36500 22.45600 23.29100
H  49.70300 27.39500 23.43800
H  47.97400 27.24100 23.46600
H  49.67100 26.39100 21.27700
H  47.94500 26.54800 21.33800
H  48.76200 25.00300 21.91700
H  52.21200 28.99800 27.21300
H  51.86300 30.44300 28.29900
H  50.97100 30.26200 26.81300
H  48.98500 29.23900 32.41700
H  52.83100 28.25500 34.45900
H  51.63500 27.93900 35.82400
H  52.27400 29.43100 35.48500
Mg 17.87300 51.34900 25.87700
C  19.58000 49.94900 28.67700
C  15.26200 52.08400 28.12100
C  15.90400 52.15900 23.30400
C  20.00500 49.77200 23.79900
N  17.56300 51.22400 28.22000
C  18.33500 50.55600 29.04400
C  17.80400 50.65100 30.56200
C  16.34100 51.07700 30.22600
C  16.42000 51.55100 28.73900
C  15.22600 49.99300 30.53800
C  18.63000 51.56100 31.50000
C  18.61900 51.26400 33.01200
H  17.48800 50.30700 33.57900
N  15.96700 52.19700 25.74100
C  15.03900 52.30600 26.76800
C  13.77800 52.83800 26.25800
C  14.03200 53.06900 24.83900
C  15.38700 52.54000 24.60100
C  12.63600 53.25400 27.05800
C  13.14400 53.74200 23.79400
O  13.41500 53.73900 22.61300
C  11.73400 54.33400 24.23800
N  17.82000 50.81500 23.71000
C  17.04300 51.42900 22.88600
C  17.41300 51.21800 21.42300
C  18.80400 50.36100 21.53900
C  18.88500 50.27300 23.06300
C  16.35000 50.65000 20.52100
C  20.04900 51.08200 20.97900
C  20.90800 50.20100 20.07300
N  19.44600 50.23400 26.08900
C  20.28700 49.60800 25.16800
C  21.32800 48.82500 25.81200
C  21.12300 48.99000 27.21200
C  19.96500 49.88600 27.31100
C  22.36300 48.03000 25.18400
C  21.68100 48.64900 28.52000
O  22.63100 47.95100 28.85300
C  20.65400 49.32100 29.56400
C  20.11200 48.21300 30.33500
O  19.23600 47.45000 29.96300
O  20.72000 48.13800 31.57300
C  20.31800 47.06500 32.40600
H  14.48100 52.14500 28.88200
H  15.28200 52.32400 22.42100
H  20.73100 49.44900 23.05000
H  17.91200 49.63800 30.95000
H  16.15400 52.00600 30.76500
H  14.72200 49.55500 29.67600
H  14.50000 50.42400 31.22600
H  15.60200 49.16300 31.13600
H  18.23800 52.55800 31.29900
H  19.64700 51.36300 31.16200
H  18.58100 52.23000 33.51700
H  19.52100 50.74000 33.32700
H  12.79000 54.18300 27.60700
H  12.52500 52.42600 27.75800
H  11.73600 53.41400 26.46400
H  11.86700 55.07000 25.03100
H  11.02200 53.56700 24.54300
H  11.26000 54.83000 23.39100
H  17.63900 52.22300 21.06800
H  18.70700 49.40300 21.02800
H  15.38000 50.58300 21.01400
H  16.62200 49.65100 20.18100
H  16.13500 51.22100 19.61800
H  20.71600 51.40000 21.78000
H  19.62200 51.95100 20.47900
H  21.01000 49.17100 20.41400
H  21.91500 50.59700 19.94300
H  20.31600 50.20600 19.15800
H  22.84600 48.62600 24.40900
H  21.94400 47.10000 24.79900
H  22.99800 47.77400 26.03100
H  21.22100 50.03200 30.16500
H  20.52600 46.17400 31.81400
H  19.25400 47.11200 32.63800
H  20.87500 46.98600 33.34000

