158

Mg -2.20900 16.93400 26.88600
C  -2.91300 14.68100 29.57600
C  -2.59800 19.50600 29.20600
C  -1.97600 19.07500 24.35500
C  -2.46600 14.21400 24.72100
N  -2.91800 17.08900 29.13300
C  -3.00100 16.00000 30.09400
C  -3.07300 16.41300 31.59400
C  -3.00000 17.98900 31.36400
C  -2.85000 18.19400 29.79900
C  -4.14100 18.84700 32.00300
C  -1.79800 15.93300 32.39000
C  -1.31900 16.72500 33.63200
H  -1.16000 15.89800 34.94400
N  -2.30200 18.94200 26.73800
C  -2.39100 19.81700 27.80100
C  -2.21800 21.17100 27.35300
C  -2.13600 21.10000 25.92900
C  -2.16000 19.68700 25.63900
C  -2.15200 22.29500 28.33300
C  -2.04800 22.19500 24.88400
O  -2.12800 22.05200 23.64700
C  -1.86400 23.61000 25.36200
N  -2.20000 16.61900 24.82300
C  -2.03800 17.70100 23.99500
C  -1.98600 17.23400 22.55900
C  -2.06800 15.66000 22.67400
C  -2.26200 15.46000 24.16600
C  -3.07300 17.64800 21.54300
C  -0.90400 14.86200 22.03600
C  -1.22600 13.90100 20.90100
N  -2.49900 14.85100 27.05400
C  -2.59800 13.92900 26.05200
C  -2.91300 12.64600 26.58900
C  -3.00200 12.87600 27.98400
C  -2.75400 14.23600 28.19900
C  -2.89600 11.35300 25.85700
C  -3.29400 12.26700 29.26300
O  -3.64500 11.09800 29.51600
C  -3.06000 13.37900 30.32600
C  -1.90100 12.92300 31.13300
O  -0.73500 13.29300 31.10700
O  -2.46600 11.99300 32.00300
C  -1.60800 11.43800 33.02700
H  -2.62000 20.34300 29.90700
H  -1.75100 19.63900 23.44800
H  -2.71700 13.35600 24.09400
H  -4.00400 16.12600 32.08300
H  -2.04400 18.30900 31.77800
H  -4.83000 18.16600 32.50300
H  -4.45100 19.42100 31.13000
H  -3.64900 19.49700 32.72700
H  -0.94200 15.73700 31.74400
H  -1.98300 14.90200 32.69000
H  -1.95700 17.59000 33.81500
H  -0.31300 17.12300 33.49900
H  -1.53700 23.08500 27.90100
H  -1.57000 22.04100 29.21900
H  -3.11600 22.71900 28.61500
H  -1.78200 24.10800 24.39600
H  -1.00500 23.72200 26.02300
H  -2.73700 24.01900 25.87200
H  -1.04100 17.53400 22.10500
H  -2.99500 15.30800 22.22200
H  -3.12700 18.72000 21.35000
H  -4.01000 17.29900 21.97600
H  -3.00200 17.18600 20.55800
H  -0.42000 14.24700 22.79500
H  -0.22800 15.65300 21.70900
H  -0.99600 12.89700 21.25900
H  -0.53300 14.14300 20.09600
H  -2.20400 14.06400 20.44800
H  -2.73900 10.64600 26.67200
H  -1.99300 11.23000 25.25800
H  -3.73500 11.30000 25.16200
H  -3.99900 13.38100 30.88000
H  -1.67700 10.35300 32.95300
H  -2.14900 11.57600 33.96300
H  -0.56600 11.75800 32.99600
Mg 24.48300 -5.05400 46.32300
C  26.39900 -2.49900 44.61200
C  21.87000 -4.07500 44.36700
C  22.81600 -7.67600 47.44800
C  27.44600 -6.15500 47.76500
N  24.23600 -3.37000 44.76600
C  25.08100 -2.46600 44.23100
C  24.41200 -1.62400 43.14800
C  22.95400 -2.05200 43.26000
C  22.97200 -3.23400 44.24400
C  21.97100 -0.89400 43.70600
C  25.17100 -1.95600 41.77600
C  25.87800 -0.76300 41.06100
H  25.69900 -0.66000 39.54800
N  22.56300 -5.78200 46.00300
C  21.59400 -5.25400 45.11800
C  20.41000 -6.02700 45.17900
C  20.66300 -7.11200 46.09800
C  22.03900 -6.86500 46.63600
C  19.16800 -5.80500 44.27900
C  19.63100 -8.23900 46.43700
O  18.48800 -8.18600 45.96600
C  20.04100 -9.36200 47.41600
N  25.09600 -6.78600 47.38700
C  24.15900 -7.60500 47.91100
C  24.88900 -8.67400 48.82500
C  26.24000 -7.93200 49.09200
C  26.26200 -6.97100 47.93700
C  24.07200 -9.02700 50.07400
C  27.45700 -8.95400 49.21300
C  28.36400 -8.90300 50.39900
N  26.49200 -4.47300 46.28000
C  27.58100 -4.99600 46.95100
C  28.74500 -4.13100 46.71500
C  28.31700 -3.12300 45.82400
C  26.94400 -3.37600 45.58600
C  30.12600 -4.38900 47.20800
C  28.75900 -1.97000 45.06200
O  29.84900 -1.38200 44.92300
C  27.51700 -1.58800 44.17000
C  27.31100 -0.13300 44.35700
O  26.41500 0.38100 45.05200
O  28.23200 0.55900 43.62500
C  28.11000 2.09000 43.74400
H  21.10000 -3.73600 43.67000
H  22.40300 -8.56200 47.93400
H  28.29800 -6.34300 48.42100
H  24.56400 -0.55200 43.27900
H  22.59600 -2.49100 42.32900
H  21.22800 -1.30600 44.38800
H  21.60100 -0.61700 42.71800
H  22.41900 0.03200 44.06600
H  24.36100 -2.34400 41.15900
H  25.91800 -2.73200 41.94500
H  26.94300 -0.89300 41.25300
H  25.52300 0.16700 41.50400
H  19.08200 -6.57300 43.51000
H  19.04600 -4.89400 43.69200
H  18.34800 -5.76000 44.99600
H  19.30200 -10.12800 47.65000
H  20.47400 -9.03500 48.36100
H  20.82000 -9.84300 46.82400
H  24.99600 -9.58300 48.23300
H  26.15000 -7.45500 50.06800
H  24.82500 -9.19200 50.84400
H  23.63100 -9.97800 49.77500
H  23.28500 -8.39900 50.49100
H  28.03500 -8.86000 48.29300
H  27.08900 -9.96900 49.36600
H  29.32400 -8.50900 50.06400
H  28.41000 -9.96600 50.63700
H  28.04600 -8.29200 51.24300
H  30.17000 -4.19100 48.27900
H  30.95000 -4.02900 46.59100
H  30.19800 -5.47600 47.22500
H  27.76600 -1.68500 43.11300
H  27.92100 2.32400 44.79200
H  27.29100 2.53000 43.17600
H  29.02900 2.60900 43.47100

