158

Mg 24.46600 -4.75700 45.92100
C  26.89700 -2.68900 44.45200
C  22.26500 -3.73700 43.36100
C  22.54800 -7.56000 46.33700
C  27.06600 -6.31600 47.55700
N  24.61500 -3.37600 44.03600
C  25.66400 -2.57400 43.78500
C  25.25500 -1.52800 42.71100
C  23.77100 -1.82200 42.43600
C  23.48700 -3.04300 43.30600
C  22.86400 -0.68600 42.85200
C  26.08600 -1.60500 41.40000
C  25.94600 -0.73800 40.14600
H  25.50100 -1.23600 38.78500
N  22.66800 -5.45900 45.04800
C  21.89800 -4.90900 44.05600
C  20.65400 -5.67400 43.88300
C  20.65700 -6.70600 44.80500
C  21.99800 -6.57300 45.48000
C  19.65200 -5.31000 42.74400
C  19.62700 -7.81100 44.93700
O  18.75700 -7.81200 44.10700
C  19.60200 -8.72600 46.16900
N  24.71200 -6.61100 46.77000
C  23.76500 -7.69300 46.89800
C  24.33800 -8.87800 47.57300
C  25.70600 -8.40700 48.06000
C  25.86700 -6.98100 47.47100
C  23.45900 -9.47000 48.74300
C  26.87100 -9.41200 47.68500
C  27.92900 -9.75900 48.77000
N  26.44400 -4.42600 46.26300
C  27.39200 -5.11800 46.95900
C  28.64400 -4.46000 46.97700
C  28.47500 -3.45600 46.03000
C  27.18900 -3.51900 45.52000
C  29.87700 -4.88100 47.72100
C  29.18000 -2.36800 45.34100
O  30.32700 -1.93300 45.50300
C  28.17500 -1.85200 44.29000
C  27.86300 -0.38900 44.44100
O  27.22600 0.13400 45.36600
O  28.30800 0.17300 43.29100
C  28.09800 1.67800 43.18900
H  21.52300 -3.40300 42.63200
H  22.02900 -8.50800 46.49200
H  27.80000 -6.83000 48.18100
H  25.53300 -0.52100 43.02400
H  23.63800 -1.93000 41.36000
H  22.08700 -0.45500 42.12200
H  23.53800 0.14500 43.05800
H  22.39700 -1.03100 43.77400
H  25.70700 -2.51000 40.92700
H  27.14400 -1.72700 41.63200
H  26.86700 -0.16000 40.06800
H  25.14600 -0.09300 40.50700
H  19.96200 -5.92400 41.89900
H  19.55400 -4.24700 42.52500
H  18.68100 -5.57500 43.16200
H  18.60500 -9.15800 46.24900
H  19.78100 -8.14200 47.07200
H  20.35700 -9.49600 46.01200
H  24.44600 -9.59800 46.76200
H  25.68700 -8.28600 49.14300
H  23.83200 -9.54700 49.76500
H  23.51100 -10.53900 48.54000
H  22.43100 -9.11200 48.68900
H  27.46200 -8.92600 46.90900
H  26.43500 -10.31500 47.25600
H  27.83600 -10.81600 49.02000
H  27.66900 -9.07600 49.57900
H  28.95000 -9.58500 48.43300
H  30.57400 -5.38400 47.05000
H  29.65600 -5.43100 48.63600
H  30.42000 -3.96900 47.96500
H  28.70400 -2.04900 43.35800
H  28.47900 2.16900 44.08400
H  27.04400 1.88100 43.00000
H  28.62900 2.04800 42.31100
Mg -5.44900 25.81500 25.69000
C  -4.09500 27.00800 28.66600
C  -7.01900 23.32800 27.57000
C  -6.41800 24.36400 22.88200
C  -3.07600 27.71400 23.97300
N  -5.56200 25.26500 27.88800
C  -4.95000 25.93000 28.93600
C  -5.41200 25.39600 30.29400
C  -6.01100 23.94400 29.91300
C  -6.22800 24.15900 28.38000
C  -5.18400 22.74600 30.41200
C  -6.42300 26.23800 31.07000
C  -6.12300 26.59700 32.52300
H  -5.30600 25.54300 33.35500
N  -6.72000 24.17200 25.31200
C  -7.30400 23.32000 26.17500
C  -8.12300 22.34700 25.44500
C  -8.03600 22.69200 24.05900
C  -6.99300 23.79300 24.06300
C  -8.93600 21.20500 26.07200
C  -8.80900 22.16500 22.81000
O  -8.54700 22.50400 21.66500
C  -9.83200 21.18100 22.91600
N  -4.73200 25.87700 23.73500
C  -5.40300 25.27200 22.79600
C  -4.79000 25.63700 21.40300
C  -3.85700 26.81300 21.72600
C  -3.87100 26.87300 23.22000
C  -4.08600 24.40800 20.72100
C  -4.29700 28.23000 21.15800
C  -3.33400 28.98200 20.20700
N  -3.88800 27.15700 26.14300
C  -3.02400 27.82600 25.31400
C  -2.38900 28.82100 26.17600
C  -2.79400 28.56300 27.47200
C  -3.67300 27.52700 27.41400
C  -1.57000 29.98800 25.73300
C  -2.60100 28.92600 28.83800
O  -1.85100 29.75800 29.39000
C  -3.31400 27.85400 29.66100
C  -2.51700 27.09800 30.63300
O  -1.90500 26.05100 30.40300
O  -2.47900 27.82500 31.78700
C  -1.39200 27.52700 32.69100
H  -7.51300 22.53200 28.13000
H  -6.74600 23.85900 21.97100
H  -2.57000 28.43300 23.32600
H  -4.51900 25.19600 30.88700
H  -6.98700 23.77200 30.36700
H  -5.08500 21.97300 29.64900
H  -5.64300 22.27100 31.27900
H  -4.18200 23.05100 30.71400
H  -7.38900 25.73400 31.06300
H  -6.63200 27.17900 30.56200
H  -7.14800 26.67100 32.88600
H  -5.58300 27.53100 32.67600
H  -8.37600 20.72000 26.87200
H  -9.26800 20.38900 25.43100
H  -9.76100 21.74000 26.54300
H  -9.43600 20.18000 23.08900
H  -10.41200 21.16600 21.99300
H  -10.56100 21.35900 23.70700
H  -5.54500 25.92600 20.67200
H  -2.88000 26.54500 21.32300
H  -4.27400 23.51200 21.31300
H  -3.03700 24.47900 20.43200
H  -4.67300 24.23300 19.82000
H  -4.49200 28.88100 22.01100
H  -5.23700 28.07900 20.62800
H  -2.37900 28.47700 20.06100
H  -3.19900 30.00500 20.55700
H  -3.69500 28.90100 19.18200
H  -0.54300 29.63500 25.63900
H  -1.72000 30.85300 26.37900
H  -1.88900 30.21100 24.71500
H  -4.09400 28.37300 30.21900
H  -0.45500 27.43300 32.14200
H  -1.59100 26.65300 33.31100
H  -1.34100 28.39100 33.35300

