158

Mg 36.13600 48.83800 24.97000
C  36.40200 47.06600 28.06100
C  34.49200 51.31900 26.64500
C  35.53700 50.23400 21.99600
C  37.66600 46.13500 23.36500
N  35.20800 49.00900 27.16200
C  35.73500 48.27000 28.24000
C  35.39500 48.96500 29.53000
C  34.52500 50.21300 28.97500
C  34.78700 50.23200 27.51000
C  33.05300 50.20000 29.39700
C  36.66800 49.38400 30.33700
C  36.68400 49.80800 31.83800
H  35.43500 49.60300 32.65300
N  35.22900 50.52700 24.46100
C  34.62000 51.50400 25.25700
C  34.27000 52.61200 24.42500
C  34.59200 52.35300 23.10600
C  35.14100 50.98600 23.15000
C  33.59600 53.79000 25.03600
C  34.52200 53.21600 21.86600
O  34.97900 52.93200 20.77900
C  33.89900 54.65300 21.98300
N  36.34800 48.10400 22.99500
C  36.01100 48.90000 21.94000
C  36.49900 48.31900 20.63700
C  37.46900 47.22500 21.09800
C  37.26600 47.16900 22.59500
C  35.30400 47.72900 19.78600
C  38.97500 47.42300 20.70200
C  39.81400 48.40000 21.56600
N  36.90500 47.02200 25.54700
C  37.40300 45.97200 24.74700
C  37.92200 44.96200 25.55600
C  37.53300 45.33600 26.87900
C  36.78200 46.53400 26.77700
C  38.58700 43.78600 25.08300
C  37.62900 44.97100 28.26600
O  38.21600 44.10800 28.91200
C  36.84300 46.07500 29.10400
C  35.98500 45.50500 30.16100
O  34.80800 45.15900 30.03400
O  36.59400 45.50600 31.36400
C  35.80600 45.14700 32.51000
H  33.88900 52.02000 27.22600
H  35.43500 50.74300 21.03500
H  38.22200 45.39200 22.78800
H  34.78000 48.38300 30.21500
H  34.97700 51.14900 29.30200
H  32.90600 51.04000 30.07700
H  32.74300 49.28600 29.90400
H  32.41900 50.32500 28.52000
H  37.00600 50.25600 29.77700
H  37.39000 48.57500 30.22500
H  37.05400 50.83200 31.88200
H  37.45400 49.22600 32.34300
H  33.08600 53.52200 25.96200
H  32.91100 54.06600 24.23500
H  34.32400 54.56400 25.27700
H  33.91200 55.10100 20.99000
H  34.52900 55.29100 22.60300
H  32.84600 54.58600 22.25800
H  37.05500 49.08200 20.09200
H  37.16100 46.29000 20.63000
H  34.71400 48.59300 19.47800
H  34.70500 47.04400 20.38500
H  35.74200 47.21700 18.92900
H  38.99200 47.62100 19.63100
H  39.49700 46.47000 20.78500
H  40.30100 49.06200 20.85100
H  40.51800 47.98400 22.28700
H  39.05200 49.00500 22.05700
H  37.81000 43.20100 24.58900
H  39.09100 43.36500 25.95200
H  39.42500 44.05400 24.44000
H  37.68100 46.48800 29.66600
H  35.29400 44.20100 32.33800
H  35.15600 45.93600 32.88800
H  36.49000 44.88900 33.31800
Mg -12.84700 16.17000 41.38100
C  -9.88400 14.37800 40.70100
C  -11.45600 18.81800 39.70700
C  -15.79800 17.62700 41.74200
C  -14.17200 13.02600 42.36800
N  -10.96900 16.47000 40.14500
C  -9.94400 15.63800 40.16300
C  -8.66000 16.31400 39.53700
C  -9.09600 17.80900 39.20500
C  -10.57200 17.75300 39.72700
C  -8.31400 18.92000 39.90900
C  -8.10700 15.63500 38.23300
C  -6.55500 15.36900 38.23500
H  -5.62600 16.06200 37.26100
N  -13.55900 17.99000 40.86100
C  -12.78800 18.98800 40.30700
C  -13.55100 20.16100 40.27000
C  -14.82000 19.81900 40.86700
C  -14.76800 18.43100 41.25200
C  -13.10300 21.47800 39.69500
C  -15.95100 20.84500 40.95600
O  -15.83800 21.91400 40.36500
C  -17.24600 20.65200 41.75000
N  -14.75300 15.37600 41.62400
C  -15.81400 16.25200 41.91400
C  -17.03900 15.46400 42.33600
C  -16.43200 14.09100 42.73800
C  -15.01700 14.14800 42.16900
C  -17.73500 16.16600 43.55100
C  -17.33200 12.87700 42.33100
C  -17.61000 11.86800 43.42800
N  -12.18000 14.03200 41.55500
C  -12.79200 12.91200 42.06900
C  -11.86300 11.82200 42.23000
C  -10.71000 12.34300 41.59700
C  -10.96300 13.69000 41.27000
C  -12.12400 10.50600 42.89900
C  -9.32600 12.05400 41.33900
O  -8.68300 11.08300 41.66800
C  -8.66600 13.33700 40.61600
C  -7.44000 13.78700 41.40400
O  -7.42100 14.52200 42.39900
O  -6.35500 12.96800 41.04800
C  -4.98700 13.03300 41.62400
H  -10.99500 19.66200 39.19000
H  -16.75100 18.15900 41.76800
H  -14.60500 12.08800 42.72300
H  -7.86300 16.29000 40.28100
H  -9.10900 18.06900 38.14600
H  -8.81000 19.81700 40.28100
H  -7.52700 19.30200 39.26000
H  -7.79200 18.37700 40.69700
H  -8.16300 16.27300 37.35100
H  -8.53300 14.66400 37.97900
H  -6.42900 14.30100 38.05900
H  -6.17400 15.41400 39.25500
H  -13.53100 21.58900 38.69900
H  -12.02600 21.52500 39.53000
H  -13.34900 22.22800 40.44700
H  -16.87900 20.40700 42.74700
H  -17.91200 19.89100 41.34200
H  -17.68600 21.65000 41.76800
H  -17.69500 15.37300 41.47000
H  -16.29500 14.20000 43.81400
H  -17.97600 15.43500 44.32200
H  -18.67200 16.62200 43.23300
H  -17.09500 17.01300 43.79800
H  -16.78800 12.43700 41.49500
H  -18.23800 13.26400 41.86400
H  -16.97400 10.99600 43.27600
H  -18.60900 11.45000 43.31100
H  -17.67000 12.32300 44.41700
H  -11.26100 10.33200 43.54100
H  -12.26400 9.65300 42.23400
H  -12.97800 10.56500 43.57400
H  -8.45600 13.14400 39.56400
H  -4.67300 12.02000 41.87700
H  -5.01800 13.61800 42.54400
H  -4.28800 13.49400 40.92600

