158

Mg 36.50200 48.58100 24.78200
C  36.70400 46.63500 27.76100
C  34.93200 51.11600 26.55000
C  35.61500 49.96000 21.88300
C  37.33600 45.56900 22.97500
N  35.92900 48.80300 26.92800
C  36.19400 47.96700 27.96700
C  35.66500 48.61800 29.21000
C  35.23200 50.06500 28.87700
C  35.36100 50.01100 27.35800
C  33.78300 50.48000 29.32400
C  36.49200 48.40900 30.47600
C  36.37700 49.43700 31.69300
H  35.15400 49.36700 32.61100
N  35.67300 50.37700 24.31600
C  35.02800 51.25700 25.15500
C  34.49200 52.41300 24.39200
C  34.81800 52.06400 23.05300
C  35.38100 50.76100 23.05800
C  33.87200 53.59200 25.11300
C  34.56200 52.84100 21.79200
O  34.84000 52.42700 20.67000
C  33.89700 54.20600 21.78400
N  36.40000 47.89400 22.80800
C  36.14400 48.71700 21.76800
C  36.52000 48.11500 20.39200
C  37.48700 46.99900 20.88700
C  37.06600 46.79300 22.30800
C  35.31000 47.65700 19.59900
C  38.98700 47.34600 20.67000
C  39.58100 47.08100 19.30600
N  36.95800 46.51800 25.26600
C  37.21900 45.43400 24.39900
C  37.53900 44.28600 25.19400
C  37.36000 44.68800 26.48100
C  37.03500 46.09000 26.52400
C  37.79700 42.96100 24.63000
C  37.27600 44.14400 27.82500
O  37.42900 43.02900 28.27000
C  36.82700 45.43600 28.70700
C  35.45700 45.05400 29.26700
O  34.40400 45.19300 28.67800
O  35.61300 44.52800 30.50600
C  34.36200 44.35700 31.28900
H  34.40700 51.89900 27.10100
H  35.42700 50.38400 20.89400
H  37.86000 44.85200 22.34000
H  34.75600 48.07400 29.46700
H  35.99400 50.80200 29.12900
H  33.97300 51.44500 29.79300
H  33.47100 49.77500 30.09500
H  33.05100 50.46600 28.51700
H  37.53800 48.11700 30.38500
H  36.09500 47.53400 30.98900
H  36.49600 50.43500 31.27100
H  37.26300 49.29900 32.31400
H  33.14600 54.12100 24.49700
H  34.62300 54.36000 25.29600
H  33.42200 53.18600 26.01900
H  34.46000 54.86800 22.44200
H  32.89500 53.92000 22.10400
H  33.84800 54.69200 20.81000
H  37.03400 48.91100 19.85300
H  37.11400 46.13600 20.33600
H  34.43200 47.57000 20.23900
H  35.57000 46.73100 19.08600
H  35.08600 48.31600 18.76000
H  39.69500 46.94600 21.39600
H  39.02400 48.41200 20.89700
H  38.77100 46.81400 18.62700
H  40.38300 46.35600 19.43900
H  40.08200 47.89200 18.77700
H  38.60900 42.95700 23.90400
H  36.97800 42.49500 24.08200
H  38.09000 42.35000 25.48500
H  37.49000 45.68100 29.53700
H  34.48600 43.72100 32.16600
H  33.57700 43.83000 30.74600
H  33.97700 45.34100 31.55500
Mg 10.11500 47.79300 25.92500
C  8.29300 48.11300 29.07600
C  12.89000 49.07300 27.64600
C  11.71800 47.66300 23.08700
C  7.03500 47.05000 24.45600
N  10.51200 48.54300 28.10800
C  9.65700 48.45900 29.21800
C  10.46600 48.83400 30.47900
C  11.79900 49.49600 29.91700
C  11.75300 48.88700 28.50700
C  11.83600 51.04400 29.90400
C  10.69800 47.62700 31.50700
C  10.38100 48.00900 32.96400
H  10.26200 46.89600 34.06200
N  12.08800 48.34500 25.36700
C  13.07400 48.89600 26.19800
C  14.27500 49.03200 25.40000
C  13.92500 48.60900 24.07200
C  12.51100 48.23100 24.11600
C  15.57000 49.53700 25.98400
C  14.72900 48.51300 22.83400
O  14.25900 48.26900 21.74000
C  16.18700 48.74000 22.88300
N  9.47800 47.47100 24.08400
C  10.33500 47.34700 23.08400
C  9.66800 46.94100 21.78000
C  8.22100 46.55700 22.22500
C  8.22400 47.05300 23.61500
C  9.62100 48.03200 20.58800
C  7.93500 45.00700 22.19300
C  8.88100 44.13300 23.13500
N  8.04200 47.65100 26.53100
C  6.89200 47.41000 25.82800
C  5.68900 47.41800 26.64500
C  6.21200 47.56900 27.96100
C  7.63000 47.69900 27.84500
C  4.30900 47.37200 26.16600
C  5.91100 47.64900 29.35500
O  4.82900 47.65600 29.89400
C  7.20900 47.88300 30.18500
C  7.30100 46.68200 31.00900
O  7.76500 45.61200 30.62300
O  6.87900 46.88700 32.33800
C  6.85500 45.71400 33.13000
H  13.78400 49.22300 28.25500
H  12.09500 47.48400 22.07800
H  6.10500 46.73500 23.97700
H  9.87200 49.62300 30.94000
H  12.71700 49.25200 30.45200
H  11.97900 51.35600 28.86900
H  12.60900 51.36900 30.60000
H  10.86800 51.36400 30.29000
H  11.72100 47.26700 31.39500
H  9.97900 46.84700 31.25800
H  9.56700 48.73300 32.99900
H  11.22800 48.57100 33.35700
H  15.45300 49.79500 27.03700
H  15.96400 50.34700 25.37000
H  16.33500 48.76100 25.95400
H  16.50900 49.77100 22.74000
H  16.48900 48.11800 22.04100
H  16.71200 48.31900 23.74000
H  10.23400 46.08500 21.41200
H  7.43200 47.03200 21.64200
H  10.57600 48.03700 20.06300
H  9.39200 49.01200 21.00700
H  8.77700 47.75400 19.95600
H  8.04000 44.69800 21.15400
H  6.87100 44.93400 22.41800
H  8.29100 43.61500 23.89100
H  9.76900 44.71300 23.38400
H  9.20500 43.34500 22.45500
H  3.65600 47.32200 27.03700
H  4.19400 46.49200 25.53300
H  4.02100 48.33000 25.73200
H  6.96700 48.78900 30.74200
H  7.59800 45.90100 33.90600
H  7.10700 44.73600 32.72100
H  5.88700 45.70300 33.63100

