158

Mg 1.73400 -1.11600 43.19800
C  5.07600 -1.31300 42.28200
C  1.42000 1.61600 40.85100
C  -1.59900 -1.44000 43.21100
C  2.01500 -4.37000 44.50400
N  3.06400 0.02100 41.74500
C  4.39600 -0.22900 41.65900
C  5.06500 0.82700 40.85600
C  4.00500 1.96000 40.68500
C  2.74400 1.13100 41.04000
C  4.10600 3.34900 41.38500
C  5.47900 0.29000 39.48700
C  6.81900 0.84700 38.82500
H  6.57700 1.61500 37.60900
N  0.12700 0.05600 42.38100
C  0.21700 1.09900 41.49500
C  -1.09000 1.75700 41.34600
C  -2.01200 0.84900 41.97300
C  -1.21500 -0.25300 42.58300
C  -1.28200 3.00000 40.49200
C  -3.49200 1.06800 42.08700
O  -3.96800 2.13100 41.70100
C  -4.41100 0.05700 42.81900
N  0.36900 -2.60600 43.97000
C  -0.94000 -2.54200 43.81400
C  -1.71600 -3.90300 44.03700
C  -0.56300 -4.67900 44.60900
C  0.69900 -3.90300 44.32100
C  -3.03900 -3.95800 44.85400
C  -0.54900 -6.21700 44.11300
C  -0.72600 -7.20800 45.27900
N  3.29300 -2.57100 43.49700
C  3.28900 -3.82900 44.07900
C  4.65200 -4.34400 44.06100
C  5.39900 -3.32500 43.47500
C  4.47500 -2.33300 43.07800
C  5.05400 -5.63500 44.51800
C  6.71600 -2.98600 42.97900
O  7.70200 -3.69100 43.05500
C  6.60900 -1.62400 42.25100
C  7.30600 -0.56300 43.16100
O  6.93200 -0.23700 44.27100
O  8.36200 0.00500 42.47300
C  8.97300 1.20000 43.02900
H  1.42300 2.50700 40.22000
H  -2.65800 -1.70500 43.22900
H  2.12200 -5.39200 44.87300
H  5.88900 1.28600 41.40300
H  3.97500 2.20400 39.62300
H  3.19000 3.70600 41.85600
H  4.38800 4.01900 40.57400
H  4.90700 3.26700 42.12000
H  4.58500 0.38600 38.87100
H  5.75200 -0.74600 39.68800
H  7.46500 -0.01400 38.65200
H  7.29700 1.45600 39.59200
H  -0.65100 3.20700 39.62700
H  -1.12700 3.84500 41.16200
H  -2.29300 3.11600 40.10300
H  -5.40600 0.49400 42.73600
H  -3.93300 -0.04200 43.79300
H  -4.26100 -0.79200 42.15200
H  -1.88700 -4.23000 43.01100
H  -0.73500 -4.54900 45.67800
H  -2.87500 -4.35500 45.85500
H  -3.86300 -4.44000 44.32800
H  -3.37300 -2.92300 44.92800
H  0.38600 -6.54500 43.65900
H  -1.37700 -6.34500 43.41600
H  -0.70900 -6.58900 46.17600
H  -0.02100 -8.04000 45.27100
H  -1.70300 -7.68900 45.23400
H  5.15900 -6.30300 43.66400
H  4.30500 -5.92900 45.25400
H  6.02900 -5.52200 44.99100
H  7.09500 -1.72900 41.28100
H  8.69300 2.11300 42.50400
H  10.05400 1.07600 42.96300
H  8.71000 1.38400 44.07000
Mg 43.82900 4.34800 47.17700
C  41.65100 7.07600 46.64300
C  41.22400 2.28100 46.85100
C  46.01900 1.93200 46.89300
C  46.51100 6.74300 47.29800
N  41.69600 4.64400 46.53200
C  41.06800 5.84600 46.51600
C  39.61800 5.64700 46.14400
C  39.39200 4.16400 46.65000
C  40.85900 3.63000 46.72100
C  38.75300 4.12100 48.06100
C  39.32000 5.90100 44.69400
C  38.13300 6.84300 44.36600
H  37.68000 6.80200 42.88200
N  43.66200 2.27000 46.92000
C  42.48100 1.61800 46.82400
C  42.78700 0.22900 46.79200
C  44.16200 0.09100 46.62700
C  44.72200 1.43500 46.74100
C  41.73000 -0.87600 46.80900
C  44.94600 -1.18000 46.62500
O  44.35600 -2.27400 46.57000
C  46.43500 -1.23100 46.52400
N  46.01300 4.32600 47.02000
C  46.63400 3.14000 47.10400
C  48.16600 3.30700 47.22100
C  48.27400 4.89100 47.48900
C  46.86700 5.40500 47.29000
C  48.94000 2.32900 48.27500
C  49.37200 5.53900 46.55700
C  50.46200 6.34000 47.41900
N  44.09600 6.51800 46.91600
C  45.20900 7.33600 47.11200
C  44.87100 8.74600 46.91400
C  43.44800 8.72200 46.84900
C  43.03400 7.33000 46.82900
C  45.81900 9.95400 46.77700
C  42.21200 9.47900 46.61600
O  42.00900 10.72000 46.46200
C  41.08500 8.46600 46.55100
C  40.12000 8.76600 47.62000
O  40.31600 8.57400 48.79300
O  38.90800 9.21400 47.12900
C  38.04800 9.79100 48.13500
H  40.36600 1.63600 46.64900
H  46.79600 1.25700 46.52800
H  47.32300 7.46200 47.42300
H  38.98100 6.36800 46.65600
H  38.82900 3.56300 45.93500
H  38.27300 5.09000 48.20000
H  39.46800 4.03600 48.87900
H  38.02300 3.31500 48.13700
H  39.29000 4.93800 44.18200
H  40.19900 6.37600 44.25700
H  38.32000 7.89300 44.59100
H  37.27900 6.58700 44.99300
H  41.85800 -1.51700 45.93600
H  40.72500 -0.45200 46.82200
H  41.92100 -1.42300 47.73200
H  47.07600 -0.77300 47.27700
H  46.69800 -0.88500 45.52400
H  46.73900 -2.25500 46.74000
H  48.46800 3.11900 46.19100
H  48.42600 4.96400 48.56500
H  48.32200 2.05500 49.13000
H  49.80100 2.77700 48.77300
H  49.32600 1.55800 47.60900
H  48.88600 6.35700 46.02600
H  49.77500 4.84000 45.82400
H  51.46700 6.11200 47.06400
H  50.60400 6.08100 48.46900
H  50.32200 7.41500 47.30600
H  45.95600 10.45400 47.73600
H  45.49000 10.75900 46.12000
H  46.81100 9.57300 46.53600
H  40.61500 8.70900 45.59800
H  37.11500 10.15800 47.70500
H  38.50400 10.68100 48.56900
H  37.82300 9.07200 48.92300

