158

Mg 48.71400 35.49100 26.66400
C  46.95200 33.89400 29.18600
C  49.07700 38.22400 28.65200
C  49.94700 37.18500 23.97900
C  47.94400 32.80700 24.63400
N  48.01400 35.93100 28.72900
C  47.51300 35.10000 29.62500
C  47.57900 35.65600 31.04600
C  47.96600 37.11600 30.73300
C  48.43200 37.12700 29.25200
C  46.77800 38.10500 31.12800
C  48.71900 34.88000 31.82800
C  48.77400 34.92100 33.31700
H  47.65700 35.78600 34.01900
N  49.36500 37.42900 26.36100
C  49.54600 38.41600 27.33400
C  50.19300 39.61700 26.78000
C  50.35300 39.41600 25.41400
C  49.81100 37.98700 25.14400
C  50.46900 40.81500 27.67000
C  50.91700 40.30800 24.36600
O  50.95000 39.95500 23.19700
C  51.26300 41.65800 24.69100
N  49.08700 34.99400 24.67500
C  49.64300 35.86300 23.75200
C  49.93900 35.10100 22.47400
C  49.12000 33.75600 22.66200
C  48.74000 33.78900 24.09200
C  49.43500 35.82800 21.09500
C  49.88000 32.39400 22.23100
C  49.52900 31.71200 20.92300
N  47.78300 33.61200 26.85100
C  47.47300 32.66300 25.94000
C  46.69000 31.59000 26.49000
C  46.47000 32.02300 27.87000
C  47.11400 33.31100 27.94500
C  46.03400 30.40400 25.85700
C  45.76600 31.75800 29.08000
O  45.13100 30.77300 29.39700
C  46.01800 32.95200 30.01500
C  46.41700 32.39300 31.33600
O  47.30400 31.59200 31.50100
O  45.55000 32.75500 32.32900
C  45.73500 31.95100 33.52900
H  49.42800 38.93000 29.40800
H  50.31500 37.64000 23.05700
H  47.67600 32.03900 23.90500
H  46.59600 35.62100 31.51600
H  48.90900 37.43800 31.17500
H  45.98400 37.57900 31.65700
H  46.43700 38.61400 30.22600
H  47.34200 38.70000 31.84600
H  49.69400 35.26700 31.53200
H  48.60000 33.84400 31.51000
H  49.79000 35.09000 33.67500
H  48.60400 33.86800 33.54300
H  50.61900 40.52300 28.70900
H  49.61000 41.48500 27.69800
H  51.37800 41.38900 27.48700
H  51.49400 42.14400 23.74300
H  52.06100 41.48900 25.41500
H  50.33700 42.03300 25.12700
H  51.02300 34.98900 22.45900
H  48.14900 33.93200 22.20000
H  48.86800 35.12600 20.48500
H  50.40300 35.96800 20.61300
H  48.88800 36.76200 21.23100
H  49.79400 31.59500 22.96700
H  50.93700 32.64700 22.31000
H  50.27300 32.06900 20.21200
H  48.61800 32.14300 20.50700
H  49.22100 30.66800 20.97300
H  45.21200 30.73800 25.22300
H  45.72200 29.72300 26.64900
H  46.64300 29.84600 25.14600
H  45.08000 33.48100 30.18500
H  46.78500 31.91600 33.81800
H  45.33800 30.95600 33.32800
H  45.12100 32.29000 34.36400
Mg 42.60300 41.59600 26.76800
C  41.28900 43.61700 29.34100
C  43.28700 39.20700 29.18600
C  43.90800 39.69900 24.38100
C  42.05000 44.15400 24.44000
N  42.43300 41.50800 29.03400
C  41.76000 42.39000 29.86500
C  41.76400 41.98100 31.28800
C  42.36900 40.48600 31.20500
C  42.76500 40.41200 29.71100
C  43.55800 40.39300 32.24800
C  40.41100 41.97000 32.00100
C  40.19300 42.91500 33.22600
H  39.57800 42.19800 34.53800
N  43.48500 39.77900 26.77900
C  43.60400 38.89100 27.85300
C  44.28400 37.71300 27.34500
C  44.24300 37.74400 25.96800
C  43.85000 39.11300 25.65000
C  44.54200 36.56200 28.33100
C  44.61900 36.63700 24.96900
O  44.59600 36.76800 23.72200
C  44.94800 35.29200 25.44400
N  43.17500 41.98100 24.72300
C  43.60000 40.96000 23.92500
C  43.61600 41.25800 22.34600
C  42.96900 42.71300 22.55600
C  42.66000 42.94100 24.02800
C  45.07400 41.18000 21.81000
C  42.00400 43.16100 21.46300
C  40.52900 42.84100 21.69000
N  41.79900 43.47500 26.78400
C  41.64600 44.41500 25.78300
C  40.96000 45.59300 26.25700
C  40.82600 45.38800 27.66900
C  41.34500 44.02000 27.96900
C  40.70100 46.73200 25.45200
C  40.40700 45.99300 28.90600
O  39.97700 47.08300 29.20700
C  40.66500 44.84000 30.00900
C  41.56500 45.47000 30.98600
O  42.83100 45.52300 30.87800
O  40.91400 45.95200 32.08600
C  41.51400 46.92800 32.99300
H  43.44700 38.42800 29.93400
H  44.24900 39.09300 23.53900
H  41.89900 44.97200 23.73100
H  42.48700 42.68000 31.70800
H  41.62700 39.71200 31.40100
H  44.45100 40.94900 31.96500
H  43.76300 39.34300 32.45900
H  43.28400 40.81700 33.21400
H  40.05800 41.02900 32.42500
H  39.67000 42.31200 31.27900
H  39.59400 43.75000 32.86500
H  41.16900 43.26400 33.56100
H  43.57300 36.16200 28.62800
H  44.96200 36.90400 29.27700
H  45.30100 35.85100 28.00600
H  45.93900 35.30100 25.89800
H  45.06400 34.65500 24.56700
H  44.16400 34.85000 26.05900
H  42.91400 40.60500 21.82800
H  43.86300 43.33600 22.55200
H  45.38700 42.11200 21.34000
H  45.09300 40.47800 20.97700
H  45.86000 40.76600 22.44200
H  42.24800 42.74700 20.48400
H  42.12900 44.23900 21.36000
H  40.19300 42.55300 20.69400
H  40.07200 43.78300 21.99500
H  40.35700 42.09800 22.46900
H  40.06200 46.29200 24.68700
H  41.58900 47.09600 24.93500
H  40.25900 47.44500 26.14900
H  39.71200 44.55800 30.45600
H  42.35900 47.51000 32.62500
H  41.92900 46.39300 33.84700
H  40.77300 47.65600 33.32300

