158

Mg 0.68700 -1.79700 43.35600
C  4.09500 -1.99400 42.65000
C  0.63200 1.09000 41.37400
C  -2.70500 -1.83500 43.45600
C  0.88600 -4.93200 44.83300
N  2.13400 -0.64500 42.12200
C  3.49000 -0.86700 42.11500
C  4.26700 0.24600 41.32300
C  3.19800 1.37700 41.08600
C  1.91100 0.60500 41.62100
C  3.46600 2.76400 41.91300
C  4.97800 -0.20600 40.05600
C  6.31000 0.43600 39.90400
H  6.49500 1.59500 38.87600
N  -0.84500 -0.60800 42.47800
C  -0.69100 0.60900 41.74800
C  -1.98200 1.15700 41.33400
C  -2.97400 0.29700 41.96200
C  -2.23000 -0.81700 42.64500
C  -2.13300 2.35700 40.39600
C  -4.48800 0.56900 42.04400
O  -4.91000 1.56200 41.51900
C  -5.58500 -0.26200 42.70500
N  -0.71800 -3.29000 43.91800
C  -2.04300 -2.94400 44.13900
C  -2.78000 -3.91100 45.01700
C  -1.60300 -4.95900 45.25400
C  -0.36000 -4.38300 44.66300
C  -3.61700 -3.35100 46.19700
C  -1.94100 -6.37000 44.62700
C  -2.52300 -7.47300 45.63600
N  2.22600 -3.17200 43.86400
C  2.13000 -4.40300 44.46100
C  3.46600 -4.90800 44.62500
C  4.28800 -4.01600 43.89300
C  3.48100 -2.99500 43.46600
C  3.81300 -6.22800 45.16400
C  5.62200 -3.78000 43.40500
O  6.67500 -4.42400 43.50800
C  5.51900 -2.46100 42.48100
C  6.54100 -1.44500 42.93400
O  6.50200 -0.66800 43.89400
O  7.58800 -1.70400 42.13800
C  8.79700 -0.83800 42.34700
H  0.58300 2.01400 40.79400
H  -3.77900 -1.86700 43.65300
H  1.00700 -5.87400 45.37300
H  4.97400 0.65600 42.04500
H  3.05900 1.71000 40.05700
H  2.62700 2.82600 42.60500
H  3.39500 3.62500 41.24700
H  4.37900 2.76000 42.50800
H  4.29600 0.07300 39.25300
H  5.03400 -1.29400 40.01500
H  7.10000 -0.27500 39.66100
H  6.62700 0.89800 40.84000
H  -3.16600 2.70700 40.41300
H  -1.96400 2.03700 39.36800
H  -1.43200 3.13500 40.69800
H  -6.59900 0.02200 42.42300
H  -5.48200 -0.34800 43.78600
H  -5.36400 -1.26000 42.32500
H  -3.53800 -4.32400 44.35300
H  -1.47000 -5.06100 46.33100
H  -3.41500 -3.90700 47.11300
H  -4.69600 -3.31300 46.04700
H  -3.38900 -2.32000 46.46900
H  -1.02600 -6.85500 44.28600
H  -2.69900 -6.17600 43.86800
H  -3.56900 -7.56300 45.34300
H  -2.22200 -7.18700 46.64300
H  -2.05200 -8.45500 45.59000
H  3.48000 -6.23600 46.20200
H  4.87600 -6.42100 45.02000
H  3.15700 -6.96600 44.70200
H  5.85300 -2.78900 41.49700
H  9.24900 -1.07000 43.31100
H  8.47600 0.20300 42.35400
H  9.51400 -1.05600 41.55600
Mg 26.41200 50.91500 26.76700
C  24.49900 52.20100 29.44800
C  28.62100 49.81600 28.99100
C  28.48400 50.47900 24.09600
C  24.16700 52.73100 24.60300
N  26.50900 50.98600 28.96300
C  25.62600 51.49000 29.86200
C  25.90500 51.14300 31.31100
C  27.28900 50.53800 31.20600
C  27.48100 50.38700 29.66600
C  28.37100 51.44500 31.82500
C  24.83800 50.09200 31.91600
C  24.33500 50.35400 33.32500
H  25.18900 51.17800 34.35000
N  28.28300 50.17800 26.54600
C  29.02900 49.63200 27.53900
C  30.24300 48.97600 27.03100
C  30.29000 49.37500 25.66400
C  28.99000 49.99300 25.33500
C  31.35500 48.39300 27.90200
C  31.37800 49.13700 24.67100
O  31.34700 49.57900 23.56100
C  32.52200 48.38500 25.02000
N  26.40400 51.71400 24.68500
C  27.34400 51.25000 23.84600
C  27.12100 51.73100 22.40900
C  25.63600 52.24200 22.44000
C  25.38500 52.28400 24.04300
C  28.14400 52.85400 22.02900
C  24.66900 51.34100 21.65000
C  23.24800 51.69400 21.29200
N  24.63300 52.18000 26.93000
C  23.90800 52.80400 26.02400
C  22.77400 53.54500 26.64800
C  23.07300 53.34300 28.01400
C  24.12300 52.55800 28.11300
C  21.62800 54.31200 25.92700
C  22.49300 53.57400 29.35100
O  21.49000 54.16700 29.74700
C  23.48300 52.84100 30.30200
C  24.05300 53.83500 31.19300
O  24.99400 54.55800 30.85100
O  23.18300 54.01500 32.24300
C  23.53500 55.04900 33.27700
H  29.23200 49.25300 29.70000
H  29.13400 50.22200 23.25700
H  23.41600 53.17100 23.94300
H  25.89800 52.06900 31.88500
H  27.22400 49.57400 31.71200
H  28.01900 52.13600 32.59200
H  28.94800 52.01500 31.09700
H  28.94900 50.69000 32.35800
H  25.19400 49.06300 31.95300
H  23.98300 50.18400 31.24500
H  24.08400 49.44500 33.87200
H  23.39300 50.89200 33.21500
H  31.77000 47.44300 27.56700
H  30.99600 48.23800 28.92000
H  32.24700 49.01300 27.98300
H  32.34300 47.31100 25.05600
H  33.08300 48.78900 25.86300
H  33.27100 48.45200 24.23000
H  27.29400 50.85700 21.78200
H  25.52400 53.29300 22.17400
H  28.52900 53.40600 22.88600
H  27.74800 53.59600 21.33600
H  28.95700 52.32600 21.53100
H  24.49400 50.43300 22.22700
H  25.12700 51.00300 20.72100
H  22.46000 51.12400 21.78400
H  23.02200 51.41900 20.26200
H  22.98800 52.73100 21.50500
H  21.11100 54.87100 26.70800
H  20.89100 53.77300 25.33200
H  22.12000 54.97700 25.21700
H  22.91800 52.12800 30.90200
H  22.65300 55.37000 33.83100
H  23.88400 55.92800 32.73700
H  24.32100 54.66200 33.92500

