158

Mg 0.59700 43.30000 26.37700
C  2.97100 43.38600 29.04700
C  -1.75700 42.65300 28.77700
C  -1.55700 42.40500 23.98500
C  3.08100 43.57800 24.20600
N  0.62200 42.97700 28.70400
C  1.68300 43.09600 29.52400
C  1.14900 43.07700 31.04900
C  -0.27700 42.39400 30.86400
C  -0.50500 42.80400 29.39000
C  -0.41200 40.89600 31.14100
C  1.11000 44.54300 31.68800
C  1.22700 44.80100 33.23200
H  0.99400 43.52700 34.13500
N  -1.43100 42.60800 26.35500
C  -2.21900 42.42500 27.47900
C  -3.56400 42.10400 27.02200
C  -3.54900 42.02700 25.61200
C  -2.15500 42.25300 25.26700
C  -4.73500 41.88700 28.04200
C  -4.67800 41.81000 24.56800
O  -4.44500 41.89800 23.34500
C  -6.02400 41.55500 24.93600
N  0.68900 43.16100 24.41100
C  -0.26400 42.69200 23.60700
C  0.19800 42.69700 22.10800
C  1.59200 43.31200 22.17600
C  1.80700 43.38100 23.71700
C  0.05500 41.36000 21.31700
C  1.81400 44.58000 21.28900
C  1.61800 45.89600 22.10500
N  2.61500 43.56300 26.52500
C  3.53000 43.74600 25.51200
C  4.84400 43.82300 26.11600
C  4.69100 43.65600 27.43300
C  3.27900 43.57900 27.68100
C  6.20000 43.91400 25.51700
C  5.37800 43.50400 28.70400
O  6.58800 43.73200 28.97200
C  4.28500 43.30500 29.76400
C  4.56400 42.09900 30.60200
O  4.71200 40.97700 30.12200
O  4.67000 42.43900 31.86900
C  5.11200 41.43300 32.86300
H  -2.47700 42.49600 29.58200
H  -2.16900 42.15500 23.11600
H  3.93700 43.61600 23.52900
H  1.66700 42.41800 31.74500
H  -0.96000 42.99600 31.46400
H  0.56200 40.50000 31.43100
H  -0.75600 40.36500 30.25400
H  -1.14000 40.81000 31.94700
H  0.17500 44.98500 31.34400
H  1.78700 45.13500 31.07200
H  0.39900 45.46900 33.46700
H  2.11100 45.31300 33.61400
H  -5.17200 40.90200 27.88000
H  -5.62100 42.51800 27.97500
H  -4.40000 41.90300 29.07900
H  -6.65800 41.22700 24.11300
H  -6.47600 42.49500 25.25400
H  -5.95400 40.86900 25.78000
H  -0.37000 43.48000 21.60700
H  2.34200 42.56500 21.91600
H  0.95400 40.75300 21.43200
H  -0.06500 41.71000 20.29200
H  -0.80300 40.74100 21.57700
H  1.17700 44.60400 20.40400
H  2.84500 44.54600 20.93900
H  1.13300 46.58000 21.40800
H  2.58000 46.21600 22.50300
H  0.85700 45.73300 22.86800
H  6.05600 43.60900 24.48000
H  6.93700 43.28200 26.01200
H  6.63000 44.91500 25.51900
H  4.56700 44.11300 30.44000
H  5.01900 40.38300 32.58400
H  4.58200 41.46900 33.81500
H  6.15600 41.62600 33.10800
Mg -2.25200 34.73100 26.66700
C  -3.83100 32.94200 29.06100
C  -1.22800 36.92700 29.09800
C  -1.20200 36.81100 24.26600
C  -4.15300 33.07300 24.20000
N  -2.65300 34.96900 28.81400
C  -3.10800 33.97500 29.64200
C  -2.88700 34.27200 31.11900
C  -2.08400 35.62500 31.10500
C  -2.01000 35.91100 29.60900
C  -2.69400 36.77500 31.92300
C  -2.31900 33.04100 31.97500
C  -2.96200 32.67400 33.38100
H  -2.08800 32.75900 34.61600
N  -1.07100 36.46200 26.71700
C  -0.72600 37.13500 27.81800
C  0.10100 38.19800 27.39000
C  0.16600 38.15500 26.00000
C  -0.77500 37.14600 25.58000
C  0.76900 39.16700 28.34100
C  0.92600 39.04100 25.00900
O  0.82800 38.84600 23.79000
C  1.79700 40.14500 25.39000
N  -2.84700 35.01200 24.57100
C  -2.12100 35.89300 23.75700
C  -2.73200 35.91100 22.34400
C  -3.38500 34.45800 22.29400
C  -3.38500 34.03600 23.76000
C  -3.79000 36.97200 22.11900
C  -2.68400 33.45400 21.39800
C  -1.34200 32.79300 21.85300
N  -3.74900 33.32900 26.57800
C  -4.37000 32.69600 25.53900
C  -5.32800 31.70900 25.99500
C  -5.11300 31.69700 27.43500
C  -4.16300 32.71400 27.68200
C  -6.10200 30.73200 25.05400
C  -5.52300 31.14700 28.66200
O  -6.23600 30.24900 29.02900
C  -4.67600 31.91500 29.77600
C  -5.76600 32.56800 30.63100
O  -6.66300 33.37200 30.32400
O  -5.66600 32.02600 31.88000
C  -6.64600 32.49900 32.90000
H  -0.91000 37.67900 29.82300
H  -0.91300 37.46100 23.43700
H  -4.66600 32.46100 23.45500
H  -3.81800 34.56200 31.60500
H  -1.10000 35.35000 31.48500
H  -3.23500 36.41600 32.79900
H  -3.36000 37.37900 31.30700
H  -1.88000 37.44300 32.20300
H  -1.25100 33.11200 32.18100
H  -2.37800 32.13200 31.37600
H  -3.22700 31.61700 33.35700
H  -3.83700 33.31700 33.48000
H  1.83800 38.96400 28.28200
H  0.62200 38.86700 29.37800
H  0.53400 40.22200 28.19900
H  2.52300 39.62600 26.01600
H  1.09900 40.67800 26.03500
H  2.27600 40.76500 24.63100
H  -1.94300 36.11600 21.62000
H  -4.42200 34.47100 21.95700
H  -3.62700 37.80900 22.79900
H  -4.79000 36.54200 22.16600
H  -3.58100 37.39800 21.13800
H  -2.47300 33.89100 20.42200
H  -3.36400 32.61700 21.24300
H  -0.54300 33.11100 21.18400
H  -1.42200 31.71800 21.69300
H  -1.03900 32.93100 22.89100
H  -5.37300 30.03400 24.64200
H  -6.57800 31.23200 24.21100
H  -6.91200 30.21600 25.57000
H  -4.13300 31.16200 30.34700
H  -7.57000 32.83700 32.43000
H  -6.11400 33.17300 33.57200
H  -6.89900 31.70300 33.60000

