158

Mg 34.29500 49.36600 25.46100
C  34.83700 47.76000 28.53300
C  32.56400 51.86800 27.19500
C  33.76300 50.93100 22.48400
C  35.86700 46.62600 23.84600
N  33.72700 49.73100 27.58700
C  34.11200 48.95900 28.69400
C  33.72300 49.67400 29.98300
C  32.79400 50.87400 29.53100
C  33.04700 50.82600 28.00300
C  31.33300 50.76700 29.94000
C  34.93000 50.15200 30.85300
C  34.57100 51.19700 31.90100
H  33.29000 50.99800 32.71400
N  33.29500 51.15000 24.89200
C  32.80500 52.09300 25.82000
C  32.24200 53.21300 25.02700
C  32.47400 52.92500 23.66500
C  33.24600 51.65200 23.62900
C  31.54100 54.32600 25.65600
C  31.99600 53.77100 22.50500
O  32.36600 53.51000 21.39400
C  31.15500 54.97200 22.65800
N  34.69300 48.82400 23.42500
C  34.40400 49.69400 22.38800
C  34.89700 49.04400 21.01000
C  35.69300 47.74500 21.51100
C  35.36800 47.66600 22.97500
C  33.78300 48.75000 19.87200
C  37.19900 47.67800 21.11800
C  38.20100 48.56400 21.92900
N  35.18800 47.54500 26.00600
C  35.75200 46.51800 25.19500
C  36.18300 45.48700 26.01800
C  35.83600 45.91200 27.36600
C  35.24100 47.18000 27.29600
C  36.76700 44.20100 25.66400
C  35.77100 45.47000 28.73800
O  36.13100 44.39900 29.25600
C  35.26200 46.72400 29.51600
C  34.18600 46.42600 30.42500
O  32.95300 46.48200 30.20300
O  34.65300 45.81200 31.56700
C  33.71400 45.42300 32.66500
H  32.04600 52.66600 27.73000
H  33.62100 51.36000 21.49000
H  36.39800 45.81400 23.34500
H  33.26100 48.85900 30.54100
H  33.10900 51.83200 29.94500
H  31.09400 49.91200 30.57200
H  30.66500 50.81700 29.08000
H  31.04800 51.62500 30.54900
H  35.79500 50.48000 30.27500
H  35.23500 49.24900 31.38200
H  34.59800 52.20900 31.49900
H  35.41600 51.11200 32.58400
H  32.02100 55.27800 25.42800
H  31.46100 54.30800 26.74300
H  30.48900 54.28400 25.37100
H  31.68300 55.76100 23.19300
H  30.26200 54.82300 23.26500
H  31.03700 55.39800 21.66200
H  35.53200 49.73600 20.45600
H  35.20100 46.86500 21.09700
H  32.88300 48.94600 20.45500
H  33.81600 47.73000 19.49100
H  33.90700 49.51000 19.10100
H  37.39600 48.02100 20.10300
H  37.52000 46.63600 21.10800
H  38.91100 47.88700 22.40400
H  37.54000 49.09000 22.61800
H  38.74700 49.34800 21.40500
H  37.42800 43.79700 26.43000
H  37.33900 44.23600 24.73600
H  35.95500 43.49100 25.50600
H  36.15300 46.90400 30.11800
H  33.60400 44.34200 32.74100
H  32.65800 45.60700 32.46800
H  34.09900 45.88300 33.57600
Mg 25.37400 50.36500 26.73400
C  23.19800 51.49700 29.23100
C  27.66000 49.65400 29.23400
C  27.61600 49.88900 24.27000
C  23.30400 52.00900 24.44300
N  25.36000 50.47600 28.97300
C  24.33100 50.93200 29.80200
C  24.68100 50.73100 31.28800
C  26.15700 50.43300 31.21900
C  26.47200 50.24000 29.72900
C  27.12700 51.48500 31.89900
C  23.74600 49.64200 31.95200
C  23.06500 50.03200 33.24900
H  23.83800 50.95900 34.18700
N  27.31700 49.87800 26.78900
C  28.07600 49.48300 27.90100
C  29.26600 48.81900 27.44700
C  29.30000 48.87700 26.01700
C  28.04700 49.57000 25.61300
C  30.30200 48.14800 28.29700
C  30.30400 48.31700 25.05100
O  30.11900 48.44400 23.80800
C  31.55900 47.64500 25.56900
N  25.54800 50.99400 24.58400
C  26.56800 50.55500 23.78200
C  26.25800 50.94400 22.33300
C  24.83300 51.56800 22.43500
C  24.50300 51.48300 23.89700
C  27.25400 51.99900 21.68700
C  23.78300 50.96400 21.43900
C  23.26800 49.53400 21.70500
N  23.54600 51.33100 26.73700
C  22.80500 51.89700 25.73000
C  21.53900 52.41500 26.22400
C  21.70200 52.28800 27.60300
C  22.95400 51.64200 27.88700
C  20.44900 53.02400 25.36100
C  21.06800 52.58700 28.87100
O  19.94800 53.00800 29.11600
C  22.06800 52.10800 30.00200
C  22.40800 53.25400 30.84100
O  23.42900 53.94100 30.76500
O  21.35000 53.35700 31.74500
C  21.38000 54.49200 32.62900
H  28.39400 49.42200 30.00800
H  28.31100 49.58300 23.48600
H  22.76000 52.58500 23.69100
H  24.59300 51.70200 31.77500
H  26.26500 49.42800 31.62700
H  27.28200 51.10700 32.90900
H  26.65900 52.46600 31.98700
H  28.04600 51.54400 31.31600
H  24.15400 48.63400 32.01700
H  22.96000 49.52300 31.20600
H  22.79800 49.05000 33.64200
H  22.09000 50.42100 32.95700
H  29.99800 48.25300 29.33900
H  31.22200 48.73000 28.25600
H  30.33600 47.06600 28.16900
H  32.22000 47.27200 24.78700
H  31.25200 46.76200 26.12900
H  32.06300 48.38900 26.18600
H  26.38700 50.02700 21.75700
H  24.81900 52.64600 22.27800
H  26.86200 53.00700 21.82400
H  27.42500 51.73500 20.64300
H  28.23300 51.94900 22.16300
H  24.26400 51.12300 20.47400
H  22.90900 51.61100 21.51900
H  23.26000 48.88300 20.83100
H  22.30700 49.55500 22.21800
H  23.94800 49.07700 22.42500
H  20.68100 52.81800 24.31600
H  20.27000 54.08200 25.54900
H  19.52700 52.47900 25.56300
H  21.61300 51.34900 30.63900
H  21.63200 55.26100 31.89800
H  22.03700 54.34800 33.48700
H  20.39000 54.75100 33.00300

