158

Mg 0.65900 42.94600 26.03200
C  2.75200 42.90400 28.97000
C  -1.85200 41.74600 28.30900
C  -1.27200 42.28200 23.41400
C  3.42000 43.42100 24.21600
N  0.47900 42.45400 28.43500
C  1.49900 42.50200 29.36600
C  0.94000 42.34100 30.81800
C  -0.45000 41.76500 30.49300
C  -0.69000 42.10100 28.99400
C  -0.65200 40.22400 30.83200
C  0.94400 43.78200 31.53600
C  1.00400 43.67500 33.07100
H  0.99200 42.28300 33.76200
N  -1.36300 42.26400 25.81600
C  -2.20700 41.93700 26.87600
C  -3.54600 41.66600 26.30100
C  -3.43500 41.82200 24.87300
C  -1.98800 42.08300 24.59600
C  -4.76400 41.47700 27.16500
C  -4.45800 41.63200 23.81600
O  -4.18600 41.57200 22.62000
C  -5.92600 41.34900 24.15500
N  1.17700 42.54600 24.09900
C  0.12600 42.58500 23.21500
C  0.72700 42.75300 21.76600
C  2.04600 43.51400 22.00000
C  2.22700 43.20300 23.55300
C  0.86000 41.48600 20.94200
C  1.96900 45.03100 21.66600
C  3.34800 45.59900 21.21700
N  2.72400 43.26200 26.44100
C  3.72400 43.46100 25.59100
C  4.99700 43.68000 26.26400
C  4.62900 43.57600 27.61800
C  3.23300 43.18800 27.69700
C  6.31600 44.04800 25.76100
C  5.19300 43.49000 28.95400
O  6.31600 43.58800 29.31400
C  3.96600 43.24300 29.86700
C  4.33100 42.16400 30.80000
O  4.38600 40.99200 30.51000
O  4.48500 42.70700 32.07100
C  5.17700 41.87100 33.07000
H  -2.62100 41.27400 28.92400
H  -1.80300 42.16100 22.46800
H  4.35400 43.60700 23.68200
H  1.65300 41.70300 31.33900
H  -1.21800 42.31600 31.03600
H  -1.35600 40.11200 31.65700
H  0.32100 39.87800 31.18100
H  -1.02800 39.70100 29.95200
H  0.12000 44.43400 31.24500
H  1.76700 44.39900 31.17400
H  0.42000 44.48100 33.51600
H  1.98600 44.02200 33.39500
H  -4.95200 40.40400 27.19100
H  -5.63900 41.88000 26.65500
H  -4.77600 41.85000 28.18900
H  -6.58800 41.15800 23.31000
H  -6.33000 42.12000 24.81100
H  -6.03100 40.43800 24.74400
H  0.02400 43.45200 21.31200
H  2.92500 43.05100 21.55300
H  0.28300 40.64600 21.32800
H  1.87100 41.13300 20.73800
H  0.39200 41.64200 19.97000
H  1.63400 45.51400 22.58400
H  1.19500 45.17800 20.91300
H  3.19000 45.84700 20.16700
H  4.10100 44.81300 21.28300
H  3.68500 46.47500 21.77100
H  6.28800 44.86900 25.04500
H  6.70600 43.13700 25.30700
H  7.04500 44.29600 26.53200
H  3.72200 44.15100 30.41900
H  6.24600 41.94300 32.86500
H  4.85600 40.83500 32.96800
H  5.01000 42.18200 34.10100
Mg -1.29100 34.40900 26.62300
C  -3.54100 32.78500 28.96600
C  -0.32000 36.53800 29.19400
C  0.61300 36.01200 24.46700
C  -2.61700 32.34900 24.06700
N  -1.89700 34.65200 28.81500
C  -2.69700 33.77700 29.51800
C  -2.72400 34.14400 31.01400
C  -1.76900 35.44800 31.08400
C  -1.33900 35.61100 29.61300
C  -2.46700 36.69000 31.68500
C  -2.36800 32.96200 31.95200
C  -1.62500 33.25300 33.26500
H  -2.20500 32.80700 34.62500
N  0.12900 36.00300 26.80400
C  0.39700 36.71300 27.93500
C  1.25900 37.85000 27.58200
C  1.40300 37.80000 26.19800
C  0.76500 36.54300 25.75500
C  1.58300 38.91500 28.60400
C  2.04200 38.79000 25.34100
O  2.14500 38.60400 24.11200
C  2.64200 40.02700 25.89000
N  -1.01600 34.20000 24.61300
C  -0.12200 34.96000 23.95000
C  -0.13400 34.49600 22.44200
C  -0.96000 33.12900 22.47900
C  -1.58100 33.23800 23.80600
C  -0.77800 35.61400 21.45100
C  -0.14600 31.84900 22.30100
C  -0.85800 30.63300 21.80900
N  -2.82100 32.90100 26.46300
C  -3.28800 32.22500 25.35000
C  -4.29700 31.27500 25.73200
C  -4.45700 31.51600 27.09700
C  -3.54000 32.49200 27.50400
C  -5.10900 30.27800 24.80500
C  -5.23100 31.15300 28.21000
O  -6.22400 30.46900 28.33100
C  -4.65600 31.89200 29.48400
C  -5.67800 32.75600 30.19400
O  -6.32000 33.74700 29.76200
O  -6.00100 32.27000 31.42300
C  -7.21100 32.65300 32.17200
H  -0.08200 37.32200 29.91600
H  1.09100 36.42100 23.57400
H  -2.91400 31.61900 23.31100
H  -3.77000 34.38600 31.20400
H  -0.80900 35.23300 31.55400
H  -3.55000 36.58200 31.75000
H  -2.38500 37.47000 30.92800
H  -2.15900 37.01700 32.67800
H  -1.91700 32.12500 31.41900
H  -3.35100 32.64200 32.29800
H  -1.60300 34.33900 33.35600
H  -0.62400 32.82900 33.19600
H  1.53600 38.55900 29.63300
H  0.92400 39.76900 28.45100
H  2.65600 39.09400 28.52700
H  1.96300 40.58500 26.53500
H  2.90500 40.68200 25.05900
H  3.57200 39.80800 26.41400
H  0.86500 34.33200 22.03800
H  -1.69100 33.11600 21.67000
H  -1.33100 36.46200 21.85500
H  -1.37800 35.20700 20.63700
H  0.11500 36.09400 21.05200
H  0.44500 31.69700 23.20400
H  0.66200 32.07100 21.60400
H  -0.20300 30.36900 20.97800
H  -1.78300 30.87800 21.28800
H  -0.98400 29.88500 22.59100
H  -4.57400 30.09100 23.87400
H  -6.14200 30.58800 24.64600
H  -5.16800 29.36200 25.39200
H  -4.26700 31.15400 30.18500
H  -7.98900 33.05700 31.52400
H  -6.89400 33.33000 32.96600
H  -7.55800 31.72600 32.62800

