158

Mg 45.14400 4.29000 47.74800
C  43.31300 7.27400 46.95300
C  42.27400 2.56500 46.94100
C  46.93700 1.60300 47.23500
C  48.04300 6.42700 47.88000
N  43.04600 4.84200 46.87600
C  42.58300 6.10300 46.67000
C  41.16900 6.03000 46.13900
C  40.69900 4.57500 46.40600
C  42.03800 3.97800 46.88200
C  39.47900 4.42000 47.33900
C  41.15700 6.42600 44.64100
C  40.66000 7.85900 44.33200
H  39.59100 7.88200 43.18600
N  44.62400 2.21600 47.44100
C  43.40200 1.70000 47.20000
C  43.47700 0.27900 47.11900
C  44.89500 -0.08200 47.30000
C  45.56600 1.21800 47.40100
C  42.19400 -0.59200 46.85000
C  45.48400 -1.48900 47.17800
O  44.81000 -2.48200 46.91800
C  46.97600 -1.74400 47.35700
N  47.22900 4.10700 47.56300
C  47.66500 2.81100 47.33600
C  49.23200 2.84900 47.31400
C  49.57700 4.41000 47.54000
C  48.20200 5.03500 47.71900
C  49.79500 1.92900 48.41000
C  50.41000 4.98700 46.36200
C  51.80100 5.66700 46.63200
N  45.60500 6.46400 47.61100
C  46.79600 7.09600 47.69700
C  46.56600 8.54800 47.53700
C  45.21300 8.69100 47.36200
C  44.64800 7.38500 47.29600
C  47.56400 9.59300 47.60300
C  44.04800 9.60800 47.14600
O  43.98800 10.83100 47.15700
C  42.83600 8.73400 46.79200
C  41.87900 9.09000 47.90200
O  41.71500 8.48800 48.96000
O  40.98900 10.02400 47.39000
C  39.84000 10.35200 48.25200
H  41.33300 2.05700 46.71800
H  47.69400 0.81900 47.16800
H  48.89000 7.10600 47.99900
H  40.59300 6.76300 46.70600
H  40.40300 4.03200 45.50900
H  39.06900 5.40900 47.54100
H  39.85000 3.99900 48.27400
H  38.73600 3.72300 46.95100
H  40.63500 5.76200 43.95100
H  42.18900 6.37200 44.29600
H  41.49600 8.47400 43.99700
H  40.14300 8.26500 45.20100
H  42.51700 -1.40100 46.19300
H  41.37400 -0.14400 46.28900
H  41.73300 -1.02800 47.73600
H  47.10600 -2.80700 47.56100
H  47.21400 -1.21600 48.28000
H  47.59500 -1.45700 46.50700
H  49.50500 2.58100 46.29300
H  49.97200 4.65100 48.52700
H  50.57000 2.48900 48.93300
H  50.28400 1.07200 47.94700
H  49.06800 1.47900 49.08700
H  49.79200 5.73600 45.86700
H  50.71200 4.21100 45.65900
H  52.22600 5.42000 47.60500
H  51.72600 6.73300 46.41500
H  52.58600 5.32200 45.95900
H  48.14700 9.73600 48.51300
H  47.11300 10.53400 47.28700
H  48.26200 9.27200 46.83000
H  42.52300 8.89500 45.76100
H  40.01100 10.21200 49.31900
H  38.99200 9.72000 47.98700
H  39.66900 11.41900 48.10800
Mg 9.54600 48.52000 25.37900
C  7.65100 48.69200 28.45600
C  12.13300 49.64900 27.12100
C  11.45700 48.19000 22.52800
C  6.62700 48.13700 23.61700
N  9.86800 48.95700 27.60400
C  8.97100 48.94000 28.66900
C  9.70000 49.33100 29.99200
C  10.99700 50.04300 29.47100
C  11.01900 49.59800 27.97400
C  11.03800 51.57400 29.50400
C  10.07700 48.04600 30.75600
C  9.99300 48.13400 32.30000
H  9.92600 46.78900 33.02400
N  11.54800 48.79300 24.88500
C  12.49900 49.13400 25.78400
C  13.83700 49.17500 25.17700
C  13.63400 48.65700 23.83900
C  12.15300 48.60300 23.68100
C  15.17700 49.41400 25.96200
C  14.65200 48.25200 22.79400
O  14.41300 47.83000 21.68500
C  16.05000 48.42500 23.04900
N  9.12700 48.54700 23.34300
C  10.04400 48.18700 22.38400
C  9.37100 47.83000 21.04400
C  7.84200 47.63700 21.44500
C  7.86200 48.22400 22.92000
C  9.73900 48.68400 19.84400
C  7.25400 46.23900 21.35500
C  7.51100 45.24600 22.49000
N  7.50900 48.48100 25.90600
C  6.46300 48.31700 25.02600
C  5.19400 48.24500 25.85200
C  5.66000 48.35800 27.18900
C  7.05100 48.47700 27.14800
C  3.86200 47.95200 25.30700
C  5.17300 48.35400 28.51700
O  4.04000 48.30100 28.91800
C  6.47800 48.59200 29.44900
C  6.70600 47.34300 30.24100
O  7.06100 46.25800 29.80400
O  6.39700 47.64000 31.57400
C  6.67700 46.64200 32.57900
H  12.95800 50.09000 27.68400
H  12.13500 47.89700 21.72400
H  5.74700 47.82100 23.05300
H  9.17600 50.04200 30.63000
H  11.96100 49.74800 29.88500
H  10.62200 52.02000 28.60000
H  12.01300 52.03000 29.68000
H  10.34800 51.95800 30.25500
H  11.13400 47.86600 30.55700
H  9.47400 47.20400 30.41700
H  9.15100 48.75700 32.60100
H  10.83900 48.68600 32.71000
H  15.04300 49.67700 27.01200
H  15.78900 50.18300 25.49100
H  15.78300 48.50900 25.98800
H  16.36900 49.45600 23.20000
H  16.64100 47.99100 22.24200
H  16.21200 47.87600 23.97600
H  9.82100 46.83800 21.02000
H  7.06600 48.18600 20.91100
H  10.48400 49.40500 20.18200
H  8.94700 49.31200 19.43800
H  10.09100 48.06200 19.02200
H  7.65000 45.81800 20.43100
H  6.18800 46.25300 21.12600
H  8.05900 45.56800 23.37600
H  7.94600 44.30200 22.15900
H  6.49000 45.02700 22.80100
H  3.58100 48.57600 24.45800
H  3.09200 48.13200 26.05800
H  3.84800 46.90200 25.01500
H  6.46200 49.46000 30.10800
H  7.15300 47.15900 33.41200
H  7.21100 45.76000 32.22400
H  5.68000 46.34700 32.90500

