158

Mg 54.71700 23.58900 45.30400
C  52.22500 25.77500 44.20900
C  52.90700 21.00100 44.03300
C  57.58000 21.71200 45.34800
C  56.73300 26.50500 46.11000
N  52.71400 23.46200 44.30100
C  51.88400 24.37400 43.93000
C  50.60600 23.90800 43.23700
C  50.74300 22.37400 43.56800
C  52.19300 22.22600 44.05900
C  49.69800 21.92300 44.70500
C  50.44100 24.22300 41.71900
C  49.11000 24.82600 41.26000
H  48.51200 24.17800 40.05100
N  55.14500 21.54000 44.92100
C  54.25600 20.64900 44.40300
C  54.96800 19.39000 44.21300
C  56.31800 19.54200 44.62100
C  56.40400 20.97900 44.99300
C  54.32300 18.24100 43.60500
C  57.29100 18.45700 44.50900
O  56.93800 17.27300 44.25600
C  58.72100 18.76100 44.80000
N  56.82000 23.96700 45.76900
C  57.78600 23.08400 45.67400
C  59.13400 23.66500 46.08600
C  58.86100 25.15400 46.47900
C  57.36200 25.22900 46.12200
C  59.89500 22.91900 47.26000
C  59.84000 26.09900 45.86900
C  60.56900 27.02000 46.92200
N  54.55200 25.72400 45.30800
C  55.39000 26.72700 45.80000
C  54.65000 27.98600 45.80800
C  53.40400 27.69000 45.15100
C  53.44800 26.28600 44.79500
C  55.10800 29.35300 46.27200
C  52.07100 28.22800 44.79100
O  51.57000 29.29800 45.05300
C  51.30300 27.04200 44.04300
C  51.10500 27.52700 42.71500
O  52.00400 27.58100 41.92100
O  49.85900 27.99800 42.49300
C  49.76700 28.56000 41.11700
H  52.37300 20.15500 43.59500
H  58.51300 21.14900 45.41600
H  57.32300 27.41100 46.26200
H  49.75800 24.38400 43.73100
H  50.69300 21.80200 42.64100
H  50.18800 21.36200 45.50200
H  48.97900 21.33200 44.13700
H  49.24400 22.81800 45.13100
H  50.76400 23.40500 41.07500
H  51.09300 25.06800 41.49800
H  49.20300 25.88500 41.01800
H  48.45000 24.63900 42.10700
H  54.91800 17.84000 42.78500
H  53.36900 18.56700 43.18900
H  54.01100 17.52900 44.36900
H  58.97600 19.46800 44.01100
H  59.27200 17.82400 44.71800
H  59.04300 18.98900 45.81600
H  59.72300 23.50500 45.18300
H  59.05600 25.26100 47.54600
H  60.86600 22.55800 46.92200
H  59.34200 21.99100 47.40900
H  60.04000 23.49800 48.17200
H  59.35800 26.81900 45.20800
H  60.67700 25.64400 45.34000
H  61.63100 26.79500 46.82300
H  60.05600 26.96000 47.88100
H  60.56800 28.08700 46.70100
H  54.81000 29.45000 47.31600
H  54.66700 30.12400 45.63800
H  56.17600 29.57200 46.27600
H  50.33600 26.96800 44.54100
H  48.82700 29.06600 40.89500
H  49.86400 27.72100 40.42800
H  50.54500 29.30900 40.96900
Mg 41.31900 40.72000 26.47000
C  40.80100 43.14100 29.14000
C  42.75800 38.79100 28.95600
C  42.15800 38.69400 24.15400
C  40.57500 43.35000 24.24200
N  41.69600 41.00600 28.79900
C  41.27100 41.97000 29.65600
C  41.42900 41.59300 31.13000
C  42.30900 40.28700 30.93900
C  42.30400 39.97600 29.43900
C  43.73300 40.47000 31.42800
C  40.09300 41.63000 31.89500
C  40.19500 40.90700 33.28000
H  39.51000 41.51600 34.51300
N  42.05600 38.92400 26.58700
C  42.66000 38.26300 27.71500
C  43.13200 36.94300 27.33800
C  42.97700 36.85900 25.91600
C  42.39200 38.18200 25.45500
C  43.69400 35.94100 28.29700
C  43.41700 35.74300 24.98900
O  43.30100 35.87000 23.75200
C  44.04200 34.47100 25.52400
N  41.52500 41.02500 24.48500
C  41.78800 39.96600 23.65500
C  41.41200 40.31600 22.16400
C  40.87000 41.80300 22.25100
C  41.00600 42.08000 23.74600
C  42.61100 40.18500 21.19200
C  39.37600 41.85400 21.84900
C  38.37400 41.17400 22.86500
N  40.72500 42.81100 26.54200
C  40.60200 43.74200 25.57700
C  40.28400 45.05900 26.13700
C  40.36600 44.87300 27.51100
C  40.61000 43.42800 27.73400
C  39.98400 46.30000 25.31200
C  40.21900 45.52400 28.78400
O  39.78800 46.62200 29.01400
C  40.58500 44.49500 29.83600
C  41.78000 44.93500 30.57100
O  42.90800 44.96700 30.05100
O  41.53500 45.30600 31.83900
C  42.73800 45.59700 32.65400
H  43.22800 38.14100 29.69800
H  42.11600 37.82600 23.49300
H  40.21000 44.10900 23.54600
H  42.01600 42.38500 31.59400
H  41.82800 39.46000 31.46100
H  44.45500 40.31400 30.62600
H  43.81100 39.68900 32.18400
H  43.82900 41.45700 31.88000
H  39.41800 41.03100 31.28500
H  39.75700 42.66600 31.95200
H  41.25600 40.76800 33.48800
H  39.86900 39.88200 33.10100
H  43.29300 34.95300 28.07100
H  43.28600 36.11400 29.29300
H  44.77600 35.99500 28.18000
H  44.81800 34.59400 26.28000
H  44.42400 33.83500 24.72500
H  43.17800 33.89400 25.85400
H  40.68800 39.56100 21.85800
H  41.56500 42.38800 21.64800
H  43.45000 39.93000 21.83900
H  42.97400 41.08100 20.68900
H  42.49300 39.40400 20.44100
H  39.31600 41.60100 20.79100
H  39.09400 42.90700 21.83400
H  37.71800 41.96100 23.23600
H  38.77800 40.76900 23.79200
H  37.72500 40.41200 22.43200
H  40.37700 47.20700 25.77000
H  38.90400 46.44400 25.27100
H  40.38000 46.10300 24.31500
H  39.73100 44.49100 30.51400
H  43.19500 46.46300 32.17400
H  43.42600 44.75400 32.59300
H  42.44600 45.81200 33.68200

