158

Mg 47.10600 16.92800 27.60100
C  45.20700 16.84200 30.47300
C  49.40000 18.90800 29.23200
C  48.66700 17.45400 24.72800
C  44.33500 15.60700 25.81700
N  47.22700 17.79900 29.70100
C  46.45200 17.43400 30.72400
C  47.06700 17.95400 32.03200
C  48.40800 18.71800 31.61300
C  48.34800 18.46200 30.07100
C  48.43800 20.13100 32.12600
C  47.31800 16.87600 33.04900
C  47.66700 17.36900 34.45800
H  46.88600 18.58400 34.96400
N  48.84700 17.88000 27.04900
C  49.67300 18.60700 27.88000
C  50.88000 18.97800 27.17100
C  50.73000 18.55200 25.80500
C  49.40100 17.86100 25.79100
C  51.98600 19.76400 27.78100
C  51.61500 18.78300 24.58200
O  51.32000 18.41700 23.47300
C  52.90100 19.63400 24.71600
N  46.60500 16.50800 25.55900
C  47.42900 16.81600 24.56100
C  46.75700 16.50400 23.19700
C  45.65100 15.54600 23.56900
C  45.52200 15.86000 25.06300
C  46.42400 17.76500 22.39300
C  46.02800 14.11800 23.36000
C  45.34000 13.51000 22.11900
N  45.14300 16.42600 27.98600
C  44.16100 15.84300 27.15600
C  42.97900 15.57800 27.98000
C  43.37200 15.90800 29.31500
C  44.70200 16.45300 29.23500
C  41.60900 15.10500 27.56600
C  42.90300 15.98100 30.70800
O  41.83800 15.65000 31.20700
C  44.14500 16.47900 31.54900
C  43.66600 17.63000 32.37600
O  44.02900 18.78700 32.17400
O  42.84000 17.23200 33.38100
C  42.18700 18.20600 34.28000
H  50.07100 19.60900 29.73300
H  49.18400 17.62100 23.78100
H  43.45700 15.23500 25.28300
H  46.42600 18.76000 32.38900
H  49.28900 18.20300 31.99500
H  49.40700 20.26300 32.60800
H  47.67300 20.38300 32.86000
H  48.29900 20.82100 31.29400
H  48.12300 16.27300 32.63000
H  46.43700 16.23900 33.11700
H  48.74600 17.51400 34.51600
H  47.58000 16.48100 35.08400
H  52.94100 19.33900 27.47200
H  51.96300 19.68200 28.86800
H  51.81300 20.82400 27.59700
H  53.70000 19.12400 25.25400
H  52.62600 20.60500 25.12800
H  53.28000 19.70800 23.69700
H  47.42500 16.00300 22.49700
H  44.66700 15.72000 23.13400
H  46.79400 18.68000 22.85600
H  45.34800 17.79100 22.22000
H  47.03500 17.69500 21.49300
H  45.72900 13.51100 24.21500
H  47.10600 13.95800 23.36000
H  45.27000 14.04000 21.16900
H  44.37400 13.09300 22.40400
H  45.98400 12.69000 21.80300
H  41.50900 14.07700 27.91400
H  41.49100 15.21200 26.48800
H  40.82300 15.74100 27.97300
H  44.38400 15.63700 32.19800
H  41.11900 18.06100 34.12000
H  42.49600 19.23500 34.09300
H  42.31300 18.02400 35.34700
Mg -0.78000 34.23600 26.77100
C  -2.77900 32.59300 29.30600
C  0.83200 35.97600 29.27300
C  0.29200 36.31600 24.37900
C  -2.63900 32.52000 24.37400
N  -1.08700 34.31500 29.04000
C  -1.87600 33.53000 29.85900
C  -1.59500 33.83300 31.35100
C  -0.52600 35.05900 31.28800
C  -0.19600 35.10700 29.77000
C  -0.98600 36.42500 31.98000
C  -1.16800 32.54300 32.26800
C  -1.80100 32.37300 33.65200
H  -0.82900 32.62600 34.90800
N  0.40400 35.87100 26.84200
C  1.12500 36.38000 27.92600
C  2.10400 37.39200 27.44400
C  1.86300 37.51400 26.07300
C  0.76200 36.59000 25.72500
C  3.02100 38.09900 28.41600
C  2.54600 38.50000 25.11400
O  2.19500 38.65800 23.94000
C  3.71600 39.25800 25.56400
N  -1.04700 34.42400 24.62000
C  -0.56000 35.38000 23.90900
C  -0.87700 35.12200 22.44000
C  -1.64800 33.72700 22.37900
C  -1.77400 33.51700 23.87800
C  -1.61200 36.30800 21.89200
C  -0.94000 32.66700 21.61800
C  0.18200 31.80600 22.20700
N  -2.29100 32.75500 26.75900
C  -2.88300 32.15100 25.74100
C  -3.78900 31.11400 26.23000
C  -3.76700 31.31800 27.59700
C  -2.85800 32.35500 27.88500
C  -4.61700 30.14200 25.47900
C  -4.37100 30.86600 28.80900
O  -5.24300 30.02100 28.97700
C  -3.76700 31.63900 30.01800
C  -4.83700 32.25500 30.78400
O  -5.49500 33.20700 30.41700
O  -4.99300 31.61200 32.01000
C  -6.01100 32.06300 32.93200
H  1.26800 36.60600 30.05000
H  0.77100 36.91700 23.60400
H  -3.13900 31.97100 23.57400
H  -2.51200 34.15100 31.84700
H  0.35900 34.70400 31.81800
H  -0.82300 36.37600 33.05700
H  -2.04800 36.49200 31.74300
H  -0.51500 37.30900 31.55200
H  -0.08800 32.65600 32.36700
H  -1.23300 31.62200 31.68800
H  -2.28600 31.39900 33.71100
H  -2.62100 33.09100 33.66000
H  2.80200 37.71700 29.41300
H  2.94500 39.18000 28.30100
H  4.06900 37.97000 28.14900
H  4.25800 39.79100 24.78400
H  4.37100 38.67800 26.21400
H  3.37500 40.12100 26.13600
H  0.13300 35.19100 22.03500
H  -2.60400 33.92500 21.89600
H  -0.85400 36.94300 21.43400
H  -2.35600 36.79700 22.52100
H  -2.14800 35.84900 21.06000
H  -0.50400 33.25800 20.81300
H  -1.69600 32.03400 21.15200
H  -0.05400 30.77700 22.48000
H  0.78100 32.27000 22.99000
H  0.96700 31.66700 21.46300
H  -4.38100 29.15000 25.86200
H  -4.39400 30.11600 24.41200
H  -5.63100 30.43400 25.75000
H  -3.22000 31.03800 30.74500
H  -5.46500 32.21800 33.86300
H  -6.85300 31.38200 33.05200
H  -6.48300 32.93800 32.48600

