158

Mg 45.62700 3.34000 47.30700
C  43.33800 5.98500 46.58400
C  43.10600 1.16000 46.85100
C  48.02100 1.01800 47.19300
C  48.20100 5.85200 47.02000
N  43.54200 3.60700 46.60000
C  42.80600 4.72200 46.61100
C  41.30700 4.39400 46.36800
C  41.23400 2.83200 46.56800
C  42.75000 2.50000 46.66800
C  40.36000 2.40000 47.74900
C  40.84900 4.88900 44.99100
C  39.64200 5.82100 44.91200
H  39.66200 7.02800 43.93600
N  45.59200 1.28700 47.06100
C  44.43900 0.55700 47.08300
C  44.77900 -0.79300 47.41500
C  46.23600 -0.88100 47.42800
C  46.69400 0.48800 47.22000
C  43.85700 -1.90700 47.57000
C  47.12600 -2.19400 47.68300
O  46.64000 -3.30900 47.98000
C  48.62800 -2.15300 47.59500
N  47.82600 3.46600 46.90300
C  48.53600 2.30700 47.09100
C  49.99200 2.60900 47.20600
C  50.08800 4.12700 47.24000
C  48.63200 4.52700 46.95100
C  50.84400 1.99400 48.38900
C  51.16700 4.63800 46.28500
C  52.54000 5.04900 46.77900
N  45.80500 5.47300 46.75800
C  46.87000 6.27900 46.87600
C  46.50100 7.66200 46.85400
C  45.05800 7.59700 46.77900
C  44.74800 6.22300 46.65800
C  47.37100 8.90800 46.85100
C  43.84700 8.38600 46.71800
O  43.67600 9.59500 46.79600
C  42.72400 7.32500 46.56100
C  41.88400 7.56200 47.75600
O  41.94100 6.89500 48.78700
O  40.80000 8.36500 47.43000
C  39.70400 8.39000 48.34300
H  42.29400 0.43800 46.95500
H  48.78400 0.24600 47.31200
H  48.97100 6.62400 46.95600
H  40.55600 4.80100 47.04500
H  40.95500 2.32300 45.64600
H  39.43300 2.97300 47.78200
H  40.80100 2.59100 48.72700
H  40.10500 1.34300 47.67400
H  40.44200 4.04100 44.43900
H  41.61500 5.27400 44.31800
H  39.32400 6.22800 45.87200
H  38.77500 5.22600 44.62500
H  43.56000 -2.06300 48.60800
H  44.24800 -2.82600 47.13400
H  42.94400 -1.74500 46.99700
H  49.09700 -3.13600 47.54900
H  49.17300 -1.55700 48.32700
H  48.99800 -1.69600 46.67700
H  50.48300 2.16700 46.33900
H  50.42600 4.44000 48.22800
H  50.10200 1.69400 49.13000
H  51.48300 2.75600 48.83700
H  51.36400 1.06300 48.16500
H  50.72900 5.44700 45.70100
H  51.26100 3.90300 45.48500
H  52.77100 6.10900 46.66500
H  53.20700 4.44500 46.16400
H  52.67000 4.71700 47.80900
H  48.42100 8.62000 46.78700
H  47.27800 9.58800 47.69800
H  47.03700 9.43200 45.95600
H  42.15100 7.46800 45.64400
H  39.29500 9.33200 48.70900
H  39.97600 7.92600 49.29100
H  38.89800 7.83500 47.86300
Mg 16.75900 52.74500 26.56000
C  18.56400 51.48700 29.27200
C  14.11000 53.31600 28.69800
C  15.01000 53.96000 23.98000
C  19.25800 51.60300 24.44000
N  16.40700 52.52200 28.76800
C  17.30900 52.09100 29.64900
C  16.71200 52.38200 31.10100
C  15.22800 52.66700 30.83200
C  15.25700 52.82100 29.33800
C  14.23000 51.61600 31.41500
C  17.51300 53.57600 31.73100
C  18.27800 53.28900 33.01000
H  17.48500 52.60200 34.14800
N  14.84000 53.50300 26.38200
C  13.91600 53.74600 27.40000
C  12.80000 54.45100 26.86200
C  13.01400 54.69500 25.50800
C  14.33900 54.09400 25.23300
C  11.55400 54.66900 27.69600
C  12.15600 55.31000 24.47200
O  12.49600 55.44700 23.31900
C  10.90800 55.97600 24.92800
N  17.10600 52.74600 24.54900
C  16.20400 53.27500 23.73200
C  16.79600 53.49400 22.35200
C  18.21900 52.78100 22.35200
C  18.20900 52.33100 23.86200
C  15.96300 52.97300 21.14000
C  19.39500 53.62300 21.98200
C  20.50000 53.02700 21.03300
N  18.62100 51.71100 26.73800
C  19.50300 51.28900 25.77500
C  20.63600 50.61600 26.35500
C  20.31200 50.67000 27.77900
C  19.08900 51.29600 27.90700
C  21.79500 49.99400 25.59900
C  20.76300 50.30900 29.08400
O  21.76800 49.70400 29.41400
C  19.70500 50.85500 30.08200
C  19.25000 49.70100 30.94100
O  18.63400 48.69400 30.54500
O  19.59100 49.95900 32.23300
C  19.00400 48.96900 33.18200
H  13.28700 53.55100 29.37600
H  14.41600 54.26900 23.11700
H  20.05600 51.38900 23.72600
H  16.85800 51.43000 31.61100
H  14.96600 53.64800 31.22800
H  14.75300 50.89900 32.04700
H  13.67800 51.05400 30.66200
H  13.53700 52.02900 32.14900
H  16.85800 54.44700 31.74500
H  18.29400 53.84000 31.01800
H  18.47500 54.25200 33.48100
H  19.22700 52.82100 32.74900
H  10.91800 53.78700 27.62700
H  10.96900 55.56600 27.49700
H  11.80700 54.89000 28.73300
H  10.34900 56.35100 24.07100
H  11.24800 56.74800 25.61800
H  10.34300 55.10400 25.26100
H  16.88900 54.55900 22.13700
H  18.28100 51.84700 21.79300
H  16.61200 52.33200 20.54200
H  15.74300 53.84900 20.53000
H  14.98800 52.55100 21.38400
H  19.85400 54.04000 22.87800
H  19.08100 54.52000 21.44800
H  20.53700 53.47800 20.04200
H  20.46200 51.93800 21.03300
H  21.46300 53.17100 21.52300
H  21.72200 48.93300 25.83800
H  22.71000 50.43100 25.99900
H  21.77600 50.16100 24.52300
H  20.14500 51.60600 30.73700
H  17.91500 49.01500 33.15600
H  19.38400 49.03900 34.20200
H  19.34700 47.95300 32.98800

