158

Mg 1.74700 -1.78400 43.42700
C  5.21300 -0.90000 42.99000
C  1.07400 1.12300 41.39500
C  -1.29400 -2.99300 42.72300
C  2.81900 -4.92800 44.61700
N  2.99000 -0.06900 42.39300
C  4.40000 0.04200 42.40800
C  4.81700 1.32500 41.64400
C  3.48800 1.91900 41.12300
C  2.42600 0.96600 41.71700
C  3.27600 3.37200 41.67900
C  5.89300 1.33700 40.58500
C  6.00300 0.14700 39.56000
H  5.46800 0.48400 38.12300
N  0.03600 -0.85600 42.53100
C  -0.04400 0.32700 41.79000
C  -1.40700 0.53800 41.41200
C  -2.16300 -0.66400 41.85800
C  -1.14400 -1.58900 42.41800
C  -1.87800 1.77700 40.62800
C  -3.75200 -0.82700 41.64600
O  -4.37200 0.09600 41.05600
C  -4.49400 -1.97000 42.17200
N  0.93000 -3.73400 43.50200
C  -0.40900 -3.90800 43.28700
C  -0.92600 -5.32600 43.81900
C  0.38400 -5.86100 44.48700
C  1.46800 -4.79500 44.15300
C  -2.18600 -5.21200 44.78800
C  0.67700 -7.25500 43.77700
C  0.07300 -8.45700 44.54900
N  3.67100 -2.83600 43.83000
C  3.87300 -4.02000 44.41400
C  5.32400 -4.17900 44.69800
C  5.89300 -2.93300 44.14400
C  4.81700 -2.17400 43.59700
C  5.87100 -5.43000 45.25500
C  7.07900 -2.18900 43.85200
O  8.29800 -2.47400 43.97100
C  6.68200 -0.84500 43.19900
C  7.10300 0.26900 44.08200
O  8.21500 0.82100 43.98300
O  6.16200 0.64000 45.05400
C  6.49200 1.79900 45.81300
H  0.82800 1.91400 40.68400
H  -2.25500 -3.46800 42.51700
H  3.11200 -5.93900 44.90700
H  5.30200 1.85400 42.46400
H  3.25300 1.84500 40.06100
H  3.96400 3.63100 42.48400
H  2.31100 3.35400 42.18600
H  3.26300 4.11100 40.87900
H  6.89000 1.24300 41.01600
H  5.93300 2.29400 40.06600
H  5.47200 -0.67900 40.03300
H  7.02900 -0.21400 39.50000
H  -2.42200 1.59100 39.70200
H  -1.12200 2.52600 40.39200
H  -2.57700 2.29300 41.28700
H  -5.52900 -1.63700 42.25000
H  -4.10600 -2.18000 43.16900
H  -4.30300 -2.79100 41.48100
H  -1.29500 -5.85900 42.94300
H  0.27100 -5.93200 45.56900
H  -2.33300 -4.17400 45.08700
H  -2.04200 -5.85500 45.65500
H  -3.08800 -5.49200 44.24300
H  1.74000 -7.29700 43.54100
H  0.33600 -7.28500 42.74200
H  -0.29100 -9.26900 43.92000
H  -0.71700 -8.21900 45.26200
H  0.86700 -8.91400 45.13900
H  5.77300 -6.23200 44.52300
H  5.18600 -5.68600 46.06300
H  6.85700 -5.34700 45.71300
H  7.09700 -0.79400 42.19200
H  7.13400 1.53400 46.65300
H  5.56500 2.16300 46.25600
H  6.96500 2.58100 45.22000
Mg -4.75400 25.45100 26.33600
C  -3.48700 26.96900 29.23000
C  -6.68500 23.45300 28.26600
C  -5.48300 23.82200 23.59600
C  -2.34900 27.47700 24.58400
N  -4.95800 25.29300 28.51900
C  -4.40900 25.99400 29.47500
C  -5.01700 25.61600 30.86500
C  -5.73700 24.31900 30.48700
C  -5.80600 24.33900 28.95900
C  -5.03600 23.00300 30.98900
C  -5.84700 26.81700 31.46500
C  -5.63300 27.00100 32.98900
H  -5.35700 25.65400 33.71600
N  -6.06100 23.89100 25.95800
C  -6.82700 23.25800 26.83300
C  -7.87000 22.37800 26.13900
C  -7.43900 22.36000 24.71700
C  -6.31100 23.38700 24.67400
C  -9.00600 21.57600 26.82700
C  -7.97900 21.64700 23.54600
O  -7.42500 21.70200 22.45600
C  -9.21000 20.70800 23.72900
N  -4.22500 25.81100 24.39700
C  -4.56600 24.91400 23.43300
C  -3.90700 25.19400 22.04500
C  -2.96100 26.37800 22.39100
C  -3.20300 26.64000 23.86700
C  -3.08700 24.01800 21.49300
C  -3.19400 27.68400 21.56100
C  -1.87500 28.36100 21.05000
N  -3.22900 26.92400 26.75100
C  -2.41500 27.69100 25.94300
C  -1.68000 28.66600 26.75500
C  -2.06500 28.39800 28.09600
C  -2.96500 27.34200 28.02000
C  -0.61000 29.64100 26.35100
C  -1.85800 28.81200 29.45600
O  -1.11900 29.67500 29.96500
C  -2.67100 27.74800 30.30700
C  -1.80900 26.97900 31.16100
O  -0.99000 26.19900 30.75300
O  -2.12100 27.19500 32.40800
C  -1.26100 26.52300 33.36500
H  -7.44100 22.92900 28.85500
H  -5.71100 23.24400 22.69800
H  -1.54900 28.01700 24.07400
H  -4.11800 25.38200 31.43600
H  -6.73000 24.16700 30.90900
H  -4.21700 23.13500 31.69600
H  -4.60500 22.48800 30.13000
H  -5.81900 22.34500 31.36400
H  -6.88300 26.51700 31.31000
H  -5.74100 27.77000 30.94800
H  -6.54000 27.35000 33.48300
H  -4.79900 27.69300 33.10700
H  -9.87700 22.07600 26.40200
H  -9.07900 21.65700 27.91200
H  -9.11900 20.53400 26.52900
H  -9.90700 21.37100 24.24200
H  -8.88600 19.97000 24.46300
H  -9.42500 20.09400 22.85400
H  -4.64600 25.42700 21.27800
H  -1.92100 26.13300 22.17500
H  -2.01400 24.09000 21.66500
H  -3.25300 23.85000 20.42900
H  -3.39600 23.10200 21.99800
H  -3.81800 28.32800 22.18000
H  -3.71800 27.41900 20.64300
H  -1.90000 29.43900 21.20700
H  -1.94700 28.21600 19.97200
H  -0.94200 27.90600 21.38000
H  -0.93700 30.68000 26.33100
H  -0.27400 29.43000 25.33600
H  0.16200 29.57000 27.11700
H  -3.39500 28.37100 30.83200
H  -0.28800 26.99500 33.49600
H  -0.95900 25.51000 33.09900
H  -1.79800 26.42000 34.30800

