158

Mg -1.25700 16.82700 26.37400
C  -1.92400 14.49400 28.96500
C  -1.79700 19.37500 28.68400
C  -1.25400 19.15600 23.92000
C  -1.58000 14.27600 24.04900
N  -1.81500 16.89400 28.54000
C  -1.86800 15.82900 29.42000
C  -1.83200 16.37900 30.86000
C  -1.97600 17.94200 30.71600
C  -1.78800 18.12200 29.20200
C  -3.50100 18.48600 31.17400
C  -0.47500 15.94900 31.61100
C  -0.28900 16.62600 32.98600
H  -0.37600 15.74200 34.28800
N  -1.34300 18.96000 26.31600
C  -1.63100 19.83200 27.39100
C  -1.65700 21.23500 26.91000
C  -1.53900 21.16900 25.50800
C  -1.32200 19.76500 25.18000
C  -1.87900 22.41800 27.85100
C  -1.67600 22.30000 24.54300
O  -1.74100 22.16300 23.31100
C  -1.87700 23.70500 25.06800
N  -1.45400 16.70500 24.29800
C  -1.30000 17.80800 23.51200
C  -1.24500 17.35400 21.95800
C  -1.02400 15.78200 22.08500
C  -1.42700 15.55800 23.52700
C  -2.48800 17.85500 21.15500
C  0.37100 15.19100 21.57000
C  1.52300 15.69600 22.41200
N  -1.65400 14.79400 26.43300
C  -1.76700 13.86200 25.37000
C  -1.88500 12.54300 25.94700
C  -2.01100 12.73300 27.31000
C  -1.81200 14.12500 27.54200
C  -1.95300 11.23900 25.22700
C  -2.14100 12.07000 28.58900
O  -2.13800 10.86700 28.83000
C  -2.44400 13.14700 29.63900
C  -1.69200 12.71500 30.85900
O  -0.51000 12.51800 30.78900
O  -2.47400 12.53800 31.93800
C  -1.84200 12.30100 33.22700
H  -1.85400 20.16200 29.43900
H  -1.18200 19.76300 23.01500
H  -1.41700 13.37100 23.45900
H  -2.75500 15.96900 31.26800
H  -1.18100 18.42800 31.28200
H  -3.35300 19.35500 31.81400
H  -4.06900 17.70100 31.67300
H  -4.01300 18.88200 30.29700
H  0.33600 16.29000 30.96700
H  -0.47600 14.85900 31.64600
H  -1.09300 17.33300 33.18800
H  0.56600 17.30100 32.93900
H  -2.76800 22.93000 27.48300
H  -0.99500 23.05400 27.89700
H  -1.98100 22.10700 28.89000
H  -2.85900 23.73700 25.53900
H  -1.97400 24.32400 24.17600
H  -1.05800 24.10800 25.66400
H  -0.36200 17.82800 21.53100
H  -1.83700 15.43000 21.44900
H  -3.08800 18.38000 21.89900
H  -3.14000 17.06800 20.77500
H  -2.25400 18.58900 20.38400
H  0.66500 15.62800 20.61600
H  0.41800 14.10300 21.62400
H  1.25700 16.01100 23.42000
H  1.92700 16.63500 22.03500
H  2.33800 14.97200 22.40200
H  -2.20200 11.36400 24.17400
H  -2.80700 10.76100 25.70600
H  -1.08000 10.59900 25.36100
H  -3.49100 13.18000 29.94200
H  -0.76400 12.14600 33.19800
H  -2.29600 11.48900 33.79400
H  -1.99100 13.13500 33.91300
Mg 48.04300 34.31800 27.22300
C  46.19100 32.93000 29.86900
C  48.40900 37.19400 29.14900
C  48.94800 36.07900 24.48300
C  47.13700 31.66500 25.15300
N  47.35200 35.01100 29.19800
C  46.75000 34.17700 30.17500
C  46.94500 34.74800 31.59200
C  47.33000 36.20300 31.25000
C  47.79400 36.13600 29.78100
C  46.21100 37.23200 31.41400
C  48.13000 33.89500 32.25300
C  48.05000 33.70900 33.74700
H  47.17000 34.75800 34.53300
N  48.68800 36.28900 26.95200
C  48.78400 37.34100 27.81600
C  49.31200 38.56300 27.17300
C  49.52100 38.21000 25.77700
C  49.03500 36.78100 25.72000
C  49.59400 39.89300 27.92400
C  50.00800 39.12600 24.59000
O  50.16000 38.71900 23.45800
C  50.51900 40.50500 24.82700
N  47.88900 33.98700 25.09800
C  48.43700 34.81600 24.19800
C  48.64300 34.25800 22.78500
C  47.99800 32.82900 22.96900
C  47.64300 32.80500 24.49300
C  48.13600 35.10500 21.56700
C  48.96700 31.72300 22.59100
C  50.26200 31.64200 23.40900
N  46.98500 32.57600 27.41600
C  46.75500 31.56600 26.51700
C  46.03500 30.52400 27.22500
C  45.63800 31.07400 28.50800
C  46.33800 32.33200 28.61900
C  45.85100 29.17500 26.70800
C  44.91400 30.82000 29.67100
O  44.23300 29.86900 29.99400
C  45.08000 32.13700 30.52000
C  45.29500 31.72300 31.90600
O  46.08800 30.86600 32.30600
O  44.46300 32.40400 32.73700
C  44.35700 31.95300 34.14400
H  48.62200 38.12400 29.68200
H  49.22500 36.66100 23.60200
H  46.70000 30.92300 24.48100
H  46.00600 34.66400 32.13900
H  48.25200 36.53200 31.72900
H  46.75800 38.16900 31.51600
H  45.50700 37.01700 32.21800
H  45.64600 37.36500 30.49200
H  49.01400 34.50000 32.05300
H  48.26200 32.94400 31.73700
H  49.06500 33.86700 34.11000
H  47.75900 32.67000 33.90300
H  50.34700 40.54300 27.47800
H  49.90400 39.60500 28.92900
H  48.59900 40.32000 28.05200
H  51.49400 40.41200 25.30500
H  49.74100 41.09500 25.31200
H  50.79700 40.88800 23.84500
H  49.72800 34.24800 22.67500
H  47.12700 32.59400 22.35900
H  47.38500 35.86800 21.77500
H  47.68900 34.45200 20.81700
H  49.00200 35.61500 21.14600
H  49.27000 31.99400 21.57900
H  48.47700 30.76900 22.39600
H  50.37500 32.45900 24.12200
H  51.11500 31.63800 22.73000
H  50.26700 30.70700 23.97000
H  45.45100 28.54800 27.50500
H  46.81800 28.80000 26.37100
H  45.09400 29.09900 25.92700
H  44.13600 32.66900 30.40000
H  44.06100 30.90400 34.14400
H  43.61500 32.59600 34.61800
H  45.34900 32.07000 34.58000

