158

Mg 1.14000 7.78900 28.16800
C  1.66500 9.93100 30.91300
C  1.52000 5.19000 30.36900
C  1.30100 5.76200 25.54000
C  1.30300 10.54900 26.00100
N  1.54400 7.58400 30.41700
C  1.54400 8.59500 31.28400
C  1.24200 8.06800 32.69600
C  1.54500 6.51600 32.56500
C  1.53800 6.43500 31.02900
C  2.89700 6.07400 33.09100
C  -0.21800 8.25000 33.17400
C  -0.57100 8.84100 34.62500
H  0.47400 8.59000 35.74000
N  1.12200 5.80000 27.95200
C  1.29100 4.85500 29.02000
C  1.18900 3.51500 28.47300
C  1.05100 3.65000 27.04400
C  1.19300 5.07300 26.80800
C  1.27300 2.39500 29.34900
C  0.84500 2.57200 25.97200
O  0.83200 2.85200 24.76300
C  0.58800 1.17100 26.42800
N  1.24000 8.12400 26.05900
C  1.30400 7.13000 25.19200
C  1.28000 7.62900 23.69000
C  0.99000 9.18400 23.87300
C  1.14100 9.26900 25.39000
C  2.59400 7.36200 22.95100
C  -0.30600 9.83000 23.20200
C  -1.41700 10.46600 24.00300
N  1.44700 9.82300 28.30300
C  1.44300 10.83700 27.41000
C  1.69300 12.12300 28.10300
C  1.74300 11.75700 29.41200
C  1.62900 10.41000 29.54200
C  1.79800 13.35800 27.43100
C  1.95000 12.29500 30.70200
O  2.20400 13.45200 31.03600
C  1.79200 11.16300 31.71400
C  2.81600 11.23100 32.74100
O  3.96700 10.85100 32.52300
O  2.39800 11.85800 33.84600
C  3.51800 12.14800 34.86100
H  1.79600 4.36900 31.03500
H  1.23800 5.12100 24.65900
H  1.33700 11.35500 25.26500
H  2.04300 8.48800 33.30400
H  0.77700 5.87900 33.00400
H  3.60600 5.87800 32.28700
H  2.58300 5.15000 33.57700
H  3.40700 6.74900 33.77800
H  -0.78100 7.32200 33.27200
H  -0.73800 8.83600 32.41600
H  -1.53500 8.45100 34.95300
H  -0.78400 9.88900 34.41600
H  1.80700 1.63800 28.77500
H  0.28600 2.02800 29.63100
H  1.92100 2.50400 30.21800
H  1.40800 0.63300 26.90300
H  0.26700 0.46200 25.66500
H  -0.29300 1.23900 27.06700
H  0.50200 7.09700 23.14200
H  1.86400 9.75900 23.56800
H  3.28200 6.90900 23.66400
H  3.00800 8.27100 22.51400
H  2.43600 6.60300 22.18500
H  -0.67800 9.02400 22.57000
H  -0.01700 10.65800 22.55500
H  -1.09900 10.31500 25.03400
H  -2.33400 9.88000 23.94700
H  -1.59800 11.51300 23.76000
H  0.78700 13.76100 27.36400
H  2.24800 13.18900 26.45400
H  2.39700 14.00100 28.07600
H  0.86800 11.41500 32.23400
H  4.43100 12.56000 34.43300
H  3.79400 11.23200 35.38300
H  3.26800 12.82000 35.68100
Mg 50.07700 45.19600 41.67900
C  46.86500 45.95000 40.61700
C  49.68100 41.99900 40.60300
C  53.41600 44.71500 41.94700
C  50.72300 48.76000 42.04100
N  48.42700 44.11800 40.70700
C  47.21000 44.63000 40.30000
C  46.34500 43.59900 39.58000
C  47.23400 42.33000 39.63100
C  48.53700 42.80300 40.36700
C  46.57000 41.17500 40.40200
C  46.11700 44.08900 38.04500
C  44.74900 44.06600 37.51300
H  44.57000 43.43000 36.10400
N  51.36600 43.50600 41.43100
C  51.00600 42.30000 40.99600
C  52.09800 41.44100 41.10800
C  53.18200 42.18900 41.57800
C  52.72200 43.50200 41.57400
C  51.91400 40.03000 40.67400
C  54.63800 41.73500 41.82700
O  54.88800 40.54700 41.77000
C  55.82700 42.60600 42.12200
N  51.74000 46.52300 41.97600
C  53.01900 46.00900 42.05000
C  54.03800 47.01900 42.64100
C  53.29300 48.38000 42.20600
C  51.82200 47.87900 42.19700
C  54.30600 46.90600 44.19100
C  53.84800 48.84900 40.86500
C  55.04700 49.81400 40.90200
N  49.01100 47.03400 41.53000
C  49.37400 48.33500 41.75100
C  48.15900 49.11800 41.69600
C  47.18600 48.21100 41.26700
C  47.77800 46.94800 41.13000
C  48.02400 50.62000 41.93300
C  45.80600 48.14900 40.83000
O  44.95900 48.99800 40.79200
C  45.58200 46.75300 40.34900
C  44.35000 46.13400 40.91300
O  44.22600 45.74900 42.04700
O  43.36700 46.03900 39.92200
C  42.18000 45.23700 40.34800
H  49.39400 40.97600 40.35100
H  54.41800 44.58600 42.36300
H  50.90800 49.83600 42.02400
H  45.41200 43.56500 40.14300
H  47.42200 41.90000 38.64800
H  45.54400 41.34000 40.73200
H  47.12900 40.94000 41.30800
H  46.58400 40.24700 39.83100
H  46.73700 43.41500 37.45400
H  46.50000 45.10600 37.96100
H  44.39900 45.09100 37.38500
H  44.04100 43.64900 38.22800
H  50.93500 39.65100 40.96500
H  52.65700 39.39600 41.15800
H  52.14200 39.87000 39.62000
H  55.66300 43.14000 43.05800
H  55.81600 43.37100 41.34600
H  56.74600 42.01900 42.11300
H  54.97700 47.03700 42.08800
H  53.47000 49.14100 42.96500
H  55.30100 47.22200 44.50200
H  54.35700 45.91700 44.64500
H  53.52200 47.47100 44.69600
H  53.09600 49.17000 40.14300
H  54.12400 47.97700 40.27200
H  54.97000 50.51100 40.06700
H  55.93500 49.18200 40.89100
H  55.08400 50.37400 41.83600
H  48.48200 51.34100 41.25500
H  48.31600 50.88900 42.94800
H  46.95000 50.80100 41.89600
H  45.42700 46.91900 39.28300
H  41.29800 45.59900 39.81900
H  41.94400 45.23100 41.41200
H  42.36000 44.18400 40.13200

