158

Mg 40.39600 9.24500 29.76400
C  41.96700 10.85400 32.21000
C  38.17700 7.89900 31.93500
C  38.78200 7.99600 27.10800
C  42.94000 10.22400 27.49100
N  40.22700 9.29900 31.90400
C  40.87700 10.15700 32.70800
C  40.39700 9.98600 34.13300
C  39.26700 8.91600 34.05400
C  39.19000 8.65300 32.54300
C  39.43400 7.58200 34.74600
C  40.04200 11.39500 34.71200
C  39.23200 11.50800 35.96400
H  39.67800 12.41900 37.06100
N  38.66500 8.15300 29.51800
C  37.86700 7.66300 30.61100
C  36.72000 6.96700 30.02000
C  36.84900 7.06200 28.58900
C  38.14400 7.71400 28.38300
C  35.50200 6.46500 30.88300
C  35.82600 6.71600 27.46900
O  36.07700 6.63000 26.27800
C  34.41100 6.41700 27.91600
N  40.91200 9.00500 27.66200
C  40.00700 8.47900 26.78900
C  40.49100 8.52100 25.29000
C  41.97200 9.12300 25.42500
C  41.90800 9.49800 26.92800
C  40.37900 7.27300 24.41100
C  42.28200 10.29000 24.40600
C  41.85200 11.74900 24.62800
N  42.13000 10.25900 29.74000
C  43.05800 10.67300 28.81200
C  44.07500 11.44000 29.42200
C  43.74500 11.50200 30.74400
C  42.51800 10.85200 30.86000
C  45.39200 11.92700 28.73800
C  44.12500 12.05900 32.02800
O  45.10700 12.68300 32.39000
C  42.92600 11.69400 33.09600
C  43.58400 10.95300 34.19300
O  43.99000 9.82100 34.17200
O  43.65500 11.79800 35.24900
C  44.03400 11.14500 36.54400
H  37.58800 7.49800 32.76200
H  38.21200 7.70300 26.22400
H  43.65200 10.64900 26.78100
H  41.24400 9.61100 34.70700
H  38.31600 9.40700 34.26100
H  38.45700 7.39700 35.19100
H  40.24600 7.63300 35.47100
H  39.76800 6.74800 34.12800
H  39.50100 11.90900 33.91700
H  40.95200 11.99300 34.75700
H  39.16000 10.55300 36.48500
H  38.25000 11.89100 35.68800
H  35.69600 6.51100 31.95500
H  35.31000 5.47600 30.46800
H  34.67500 7.13400 30.64700
H  33.96600 7.15900 28.58000
H  34.24300 5.47400 28.43700
H  33.82500 6.44300 26.99700
H  39.84100 9.22500 24.77000
H  42.67000 8.28900 25.49000
H  41.34500 6.77400 24.48600
H  40.18100 7.58500 23.38500
H  39.55600 6.60400 24.66000
H  41.72800 10.08000 23.49100
H  43.35300 10.40000 24.23300
H  41.24700 12.07700 23.78300
H  42.73200 12.39100 24.65200
H  41.22600 11.76900 25.52100
H  46.24000 11.92300 29.42300
H  45.37800 12.94900 28.35900
H  45.64300 11.31700 27.87000
H  42.59200 12.70400 33.33300
H  43.24000 11.34900 37.26300
H  44.98600 11.54100 36.89700
H  44.16400 10.06400 36.58400
Mg 46.28800 25.56100 28.08000
C  47.64800 27.39600 30.72600
C  45.48300 23.20900 30.55700
C  45.60600 23.35100 25.72600
C  48.00400 27.52200 25.85300
N  46.37300 25.43700 30.35400
C  46.83800 26.39300 31.21200
C  46.43800 26.18100 32.65200
C  45.90000 24.71200 32.68300
C  45.91000 24.38700 31.10900
C  46.48400 23.61600 33.53400
C  45.35500 27.19100 33.10800
C  44.62500 26.94000 34.45600
H  45.00200 27.83500 35.66900
N  45.57400 23.59100 28.12600
C  45.33200 22.76000 29.20300
C  44.78400 21.48800 28.79400
C  44.71000 21.55100 27.41000
C  45.29700 22.86900 27.03100
C  44.45500 20.27200 29.72800
C  44.29300 20.44900 26.47600
O  44.32600 20.48300 25.26500
C  43.75000 19.15600 27.06200
N  46.73500 25.47800 26.00800
C  46.15900 24.50100 25.23200
C  46.30400 24.97000 23.73800
C  47.00200 26.37200 23.79000
C  47.21100 26.51600 25.30300
C  46.83800 23.88700 22.73000
C  46.40400 27.62900 23.06800
C  46.13700 27.62500 21.61900
N  47.63400 27.11500 28.13500
C  48.30500 27.85800 27.17900
C  49.17500 28.83600 27.83100
C  48.85100 28.72900 29.19700
C  47.96400 27.62300 29.39100
C  49.98700 29.83900 27.16300
C  49.09100 29.30700 30.47400
O  49.80000 30.21100 30.84200
C  48.24200 28.57100 31.50900
C  49.08700 28.08700 32.63600
O  50.02700 27.30200 32.51100
O  48.71900 28.67300 33.79600
C  49.34100 28.17400 35.01100
H  45.10100 22.58400 31.36600
H  45.17400 22.63800 25.02000
H  48.53200 28.11400 25.10200
H  47.31400 26.19700 33.30000
H  44.83600 24.80100 32.90300
H  45.73700 23.25200 34.24000
H  47.19900 24.17900 34.13500
H  46.89300 22.74500 33.02100
H  44.60200 27.34800 32.33600
H  45.92600 28.11900 33.13200
H  44.95000 25.94400 34.75500
H  43.55300 26.87900 34.27000
H  43.49100 19.76400 29.75900
H  44.53900 20.62700 30.75500
H  45.19000 19.49900 29.50300
H  42.85300 19.47100 27.59500
H  44.49100 18.68900 27.71100
H  43.44200 18.39700 26.34300
H  45.30800 25.28800 23.42800
H  48.01600 26.21900 23.41800
H  46.73200 22.90900 23.20000
H  47.90100 24.07400 22.57900
H  46.31300 23.83900 21.77500
H  47.09100 28.45100 23.27100
H  45.43800 27.87000 23.51000
H  46.64100 26.67900 21.42300
H  46.65100 28.43000 21.09300
H  45.08300 27.56100 21.34900
H  50.11000 29.68200 26.09100
H  51.00900 29.81800 27.53900
H  49.56900 30.83900 27.28200
H  47.45900 29.24300 31.86000
H  49.65000 29.09600 35.50500
H  50.24500 27.58200 34.87300
H  48.58400 27.72400 35.65300

