158

Mg 35.65600 2.18900 30.10400
C  32.95000 3.09600 32.24000
C  37.81800 2.59200 32.84700
C  38.15500 1.73400 28.01200
C  33.31800 2.22500 27.54400
N  35.42100 2.91100 32.34900
C  34.18500 2.95000 32.97800
C  34.44300 3.08200 34.51800
C  36.01400 3.42100 34.59700
C  36.46400 2.94600 33.22600
C  36.39100 4.90100 34.85000
C  34.07200 1.88600 35.32400
C  33.46700 2.09200 36.68600
H  34.17500 3.06400 37.62900
N  37.65300 1.99800 30.45500
C  38.38500 2.10800 31.58700
C  39.80200 1.86300 31.34600
C  39.93900 1.49900 29.94100
C  38.55900 1.74000 29.42900
C  40.85700 1.87400 32.46400
C  41.11700 1.07200 29.06800
O  41.13300 0.95200 27.88000
C  42.42400 0.76600 29.74300
N  35.68000 1.94200 28.06100
C  36.89900 1.80700 27.43500
C  36.71000 1.52200 25.93600
C  35.10900 1.26700 25.86400
C  34.61100 1.81900 27.22900
C  37.07600 2.75700 25.04200
C  34.63000 -0.19100 25.69500
C  33.60300 -0.39800 24.59500
N  33.62300 2.87000 29.82200
C  32.76300 2.77200 28.71000
C  31.31700 3.04400 29.07700
C  31.43500 3.27200 30.46300
C  32.81300 3.04900 30.82300
C  30.12600 3.01200 28.14800
C  30.62300 3.61600 31.64800
O  29.48700 3.83400 31.79900
C  31.57300 3.49200 32.85100
C  31.49200 4.78700 33.50700
O  31.93400 5.81900 33.07900
O  31.09500 4.56700 34.79200
C  31.35200 5.67700 35.69300
H  38.42300 2.70700 33.74900
H  38.95300 1.45900 27.32000
H  32.61100 1.97700 26.74900
H  33.83500 3.82900 35.02900
H  36.32100 2.84800 35.47200
H  35.47100 5.31500 35.26300
H  36.62800 5.52400 33.98700
H  37.10600 5.01300 35.66500
H  34.87100 1.14400 35.34700
H  33.34500 1.36100 34.70500
H  33.47300 1.12800 37.19300
H  32.48500 2.48300 36.41800
H  41.58100 1.06300 32.38900
H  40.41200 1.72900 33.44800
H  41.35300 2.84500 32.47000
H  42.24700 -0.18400 30.24800
H  42.60200 1.69000 30.29400
H  43.14200 0.73000 28.92400
H  37.15600 0.58000 25.61900
H  34.55300 1.92400 25.19500
H  37.20700 3.68000 25.60600
H  36.25100 2.91200 24.34700
H  38.02100 2.66300 24.50700
H  34.30600 -0.69000 26.60800
H  35.51400 -0.70700 25.32000
H  33.24400 0.52400 24.13900
H  32.64100 -0.79100 24.92100
H  33.98500 -1.04200 23.80200
H  29.41600 2.26800 28.51200
H  30.38800 2.63000 27.16200
H  29.78300 4.04500 28.10100
H  31.19800 2.73200 33.53600
H  32.22200 6.27700 35.42700
H  31.52900 5.30100 36.70000
H  30.47700 6.32300 35.61700
Mg 47.12900 24.27700 28.21700
C  48.20400 26.67300 30.54300
C  46.71000 22.14000 30.71200
C  46.54200 22.05800 25.81400
C  48.52300 26.54600 25.72700
N  47.09200 24.53600 30.39000
C  47.56200 25.56500 31.09800
C  47.59400 25.25400 32.60400
C  47.30200 23.67500 32.63200
C  46.92900 23.43500 31.15000
C  48.41100 22.67300 33.15700
C  46.66300 26.23800 33.38900
C  47.30800 26.86800 34.66000
H  46.49500 26.85400 36.03100
N  46.50300 22.47700 28.23400
C  46.39600 21.68800 29.37700
C  45.96300 20.36100 29.00800
C  45.87000 20.33800 27.56300
C  46.23900 21.67700 27.10200
C  45.74100 19.23900 30.03400
C  45.45200 19.22800 26.68800
O  45.29200 19.35600 25.49900
C  45.10800 17.86800 27.20100
N  47.46300 24.34600 26.06900
C  47.12800 23.24400 25.36000
C  47.22800 23.49300 23.88000
C  47.86100 24.91100 23.80100
C  47.94100 25.33300 25.28300
C  47.86600 22.40200 23.02200
C  47.15700 25.99400 22.90700
C  48.07800 26.36300 21.65800
N  48.10700 26.30200 28.11100
C  48.67500 27.01000 27.05600
C  49.16800 28.29400 27.54600
C  49.17800 28.14700 28.89700
C  48.45900 26.93500 29.17500
C  49.60000 29.49200 26.76500
C  49.57200 28.69300 30.14600
O  50.24100 29.70000 30.36000
C  49.01900 27.71700 31.23900
C  50.22800 27.14900 32.02000
O  51.00400 26.32200 31.55500
O  50.24100 27.64600 33.21800
C  51.55500 27.38500 33.92900
H  46.58100 21.38600 31.49200
H  46.34900 21.30300 25.05000
H  48.84200 27.29200 24.99600
H  48.63800 25.25600 32.91900
H  46.47100 23.49000 33.31300
H  48.82600 22.03300 32.38000
H  47.94900 22.06200 33.93300
H  49.22900 23.23400 33.60900
H  45.73000 25.71800 33.60600
H  46.35500 27.07800 32.76600
H  47.48100 27.92100 34.44000
H  48.24700 26.35700 34.87300
H  45.22900 18.35300 29.66000
H  45.07900 19.66500 30.78800
H  46.68000 19.02000 30.54200
H  44.25300 17.85700 27.87800
H  45.96800 17.39600 27.67600
H  44.87700 17.35400 26.26800
H  46.18700 23.65300 23.59700
H  48.89000 24.89800 23.44100
H  47.68400 21.34200 23.19600
H  48.93400 22.54600 23.18700
H  47.47200 22.47500 22.00900
H  47.10700 26.89900 23.51200
H  46.17500 25.58900 22.66200
H  48.61800 27.29000 21.84800
H  47.36500 26.61000 20.87200
H  48.82600 25.65400 21.30400
H  49.15800 30.42400 27.11600
H  49.33600 29.41300 25.71100
H  50.68900 29.51700 26.81600
H  48.51000 28.35100 31.96400
H  51.74500 26.31200 33.94400
H  51.69000 27.76600 34.94100
H  52.33200 27.84600 33.32100

