158

Mg 8.23900 2.52100 28.43300
C  9.96700 1.32700 31.38800
C  6.16500 4.16500 30.54000
C  6.77000 3.63700 25.78000
C  9.91000 -0.00000 26.68600
N  8.05300 2.62900 30.66200
C  8.93100 2.19200 31.57700
C  8.63600 2.77700 32.92800
C  7.22200 3.37400 32.76300
C  7.07600 3.39300 31.19700
C  6.13200 2.55400 33.46000
C  9.72400 3.82300 33.33400
C  9.63900 4.49700 34.64500
H  10.53200 3.94100 35.77800
N  6.63900 3.79600 28.18200
C  5.90700 4.43800 29.18800
C  5.02300 5.42600 28.62100
C  5.21100 5.26500 27.22000
C  6.17900 4.22200 26.94800
C  4.11600 6.26200 29.38200
C  4.43500 6.08100 26.09800
O  4.62200 5.88300 24.90500
C  3.42200 7.08000 26.44100
N  8.28000 1.89300 26.48100
C  7.62400 2.56800 25.51300
C  7.87800 1.99400 24.12400
C  8.81000 0.72200 24.51400
C  9.11000 0.94400 25.94600
C  6.53500 1.69500 23.26100
C  9.99600 0.53100 23.41700
C  10.94900 1.70500 23.41300
N  9.63000 1.00200 28.88500
C  10.29200 0.10000 28.05200
C  11.34900 -0.65100 28.71500
C  11.25000 -0.16400 30.00000
C  10.14500 0.77100 30.09800
C  12.33800 -1.61400 28.00900
C  11.77600 -0.33800 31.37800
O  12.64000 -1.11400 31.80300
C  11.03600 0.67900 32.29600
C  10.32000 -0.04600 33.38600
O  9.31100 -0.67800 33.28200
O  11.02500 0.07100 34.53200
C  10.51300 -0.37700 35.80000
H  5.54100 4.71700 31.24600
H  6.35800 4.00600 24.83900
H  10.38000 -0.70400 25.99500
H  8.70100 1.91000 33.58500
H  7.19800 4.37700 33.19100
H  5.99400 1.54300 33.07800
H  5.17500 3.06700 33.36100
H  6.30100 2.42700 34.52900
H  9.64600 4.56600 32.54000
H  10.73900 3.42800 33.34800
H  8.63700 4.31000 35.03200
H  9.85600 5.56300 34.57500
H  4.32700 6.09800 30.43900
H  3.06800 5.96800 29.33300
H  4.22900 7.33700 29.23800
H  2.95600 7.36600 25.49800
H  4.03900 7.84200 26.91500
H  2.68800 6.68900 27.14600
H  8.44400 2.73000 23.55200
H  8.28000 -0.23100 24.52200
H  5.64800 1.84700 23.87500
H  6.43400 0.64600 22.98400
H  6.51200 2.27100 22.33500
H  9.51900 0.63500 22.44200
H  10.52900 -0.42000 23.40300
H  11.96300 1.33300 23.55900
H  10.60300 2.47100 24.10600
H  10.91500 2.36400 22.54500
H  13.22200 -1.72900 28.63700
H  12.62900 -1.40500 26.98000
H  11.88700 -2.60700 28.02500
H  11.81500 1.31600 32.71400
H  9.84000 0.35600 36.24400
H  11.39700 -0.48500 36.42800
H  9.91600 -1.27800 35.65900
Mg -1.16900 33.98600 26.55800
C  -3.11800 32.16500 28.86200
C  0.12500 35.80100 29.16000
C  0.27000 36.05700 24.38500
C  -2.86900 32.41000 23.94000
N  -1.67500 34.08900 28.83800
C  -2.28300 33.10200 29.59500
C  -2.08500 33.29100 31.08500
C  -1.05500 34.46000 31.02900
C  -0.87600 34.86900 29.58200
C  -1.40900 35.67300 31.87300
C  -1.63700 32.02600 31.85500
C  -2.63300 31.59700 33.05300
H  -1.97600 30.95600 34.30000
N  0.26100 35.51800 26.76100
C  0.62700 36.12200 27.89900
C  1.66900 37.08000 27.56300
C  1.58900 37.26100 26.15600
C  0.68800 36.24800 25.68800
C  2.44500 37.96500 28.53800
C  2.36200 38.24700 25.33100
O  2.21700 38.33200 24.13500
C  3.39400 39.14600 25.87800
N  -1.46400 34.32500 24.41700
C  -0.64700 35.18500 23.75800
C  -0.87700 35.10300 22.25300
C  -1.79800 33.86900 22.11500
C  -2.00600 33.45200 23.56400
C  -1.40800 36.37400 21.54500
C  -1.25500 32.80900 21.16800
C  0.09800 32.20000 21.45100
N  -2.73600 32.57300 26.42200
C  -3.30400 32.02800 25.27700
C  -4.23600 30.95300 25.64500
C  -4.18200 30.90500 27.07200
C  -3.25200 31.91500 27.46800
C  -5.04800 30.16700 24.53600
C  -4.71800 30.23100 28.32800
O  -5.44600 29.29000 28.42300
C  -4.09500 31.14600 29.51000
C  -5.28000 31.69200 30.21700
O  -6.02600 32.56800 29.78100
O  -5.40700 31.01600 31.42100
C  -6.45500 31.54400 32.34200
H  0.72100 36.09500 30.02700
H  0.82700 36.62200 23.63400
H  -3.21500 31.86400 23.06000
H  -2.99000 33.73800 31.49800
H  -0.08200 34.09600 31.35900
H  -1.80600 35.48100 32.86900
H  -2.12700 36.24100 31.28200
H  -0.60200 36.40300 31.94300
H  -0.67200 32.29600 32.28300
H  -1.50200 31.19100 31.16700
H  -3.09600 30.72300 32.59600
H  -3.33400 32.37000 33.36900
H  2.39500 37.59500 29.56200
H  2.09800 38.99500 28.46300
H  3.50900 37.90000 28.31200
H  3.94000 39.60400 25.05300
H  4.07900 38.48700 26.41100
H  3.07400 39.94800 26.54200
H  0.02700 34.70800 21.78800
H  -2.82600 34.15600 21.89600
H  -1.37200 36.40500 20.45600
H  -0.79100 37.21300 21.86600
H  -2.38100 36.64900 21.95400
H  -1.20100 33.30200 20.19600
H  -2.01900 32.04700 21.01700
H  -0.03600 31.12400 21.33600
H  0.35000 32.46300 22.47800
H  0.92300 32.57600 20.84500
H  -4.42300 29.51500 23.92600
H  -5.54000 30.86300 23.85600
H  -5.77700 29.47700 24.96100
H  -3.63900 30.50400 30.26300
H  -6.22100 32.58400 32.57000
H  -6.51800 30.94700 33.25200
H  -7.40900 31.58200 31.81700

