158

Mg -2.16900 17.06000 26.83300
C  -2.90500 14.87100 29.57700
C  -2.68200 19.66000 29.03000
C  -1.76800 19.09600 24.33200
C  -2.35700 14.26300 24.74000
N  -2.79300 17.21000 29.06200
C  -2.86000 16.21100 30.03500
C  -2.83200 16.81800 31.41500
C  -3.01200 18.37500 31.21800
C  -2.80500 18.42300 29.64300
C  -4.38100 19.06000 31.64800
C  -1.61800 16.28300 32.20500
C  -1.13800 17.08100 33.33200
H  -0.57600 16.30700 34.51000
N  -2.17500 19.04400 26.74300
C  -2.37700 19.96200 27.69500
C  -2.13600 21.35900 27.18800
C  -1.81800 21.19100 25.82500
C  -1.90700 19.77500 25.58500
C  -2.44000 22.55800 27.98100
C  -1.56500 22.20700 24.75300
O  -1.55400 22.02400 23.51200
C  -1.32400 23.59700 25.26500
N  -2.43700 16.74000 24.75100
C  -2.01300 17.77000 23.92100
C  -1.71700 17.26700 22.47800
C  -1.87800 15.74200 22.64300
C  -2.20500 15.55200 24.16900
C  -2.76300 17.87400 21.45700
C  -0.73500 14.85700 22.13400
C  -0.71200 14.87400 20.57500
N  -2.53900 15.00000 27.01600
C  -2.50500 13.95700 26.09200
C  -2.73400 12.68100 26.74500
C  -2.92700 13.03500 28.06000
C  -2.80700 14.44600 28.23400
C  -2.77400 11.39600 25.99100
C  -3.13000 12.41300 29.34200
O  -3.25600 11.27200 29.69300
C  -3.16400 13.59800 30.42300
C  -2.04100 13.29400 31.35300
O  -0.86900 13.59800 31.14700
O  -2.43200 12.60400 32.49900
C  -1.28900 12.25200 33.38100
H  -2.73500 20.47900 29.75000
H  -1.54400 19.71200 23.45800
H  -2.33500 13.41900 24.04800
H  -3.69800 16.34500 31.87800
H  -2.20400 18.86200 31.76500
H  -5.05500 18.20600 31.58100
H  -4.80400 19.79700 30.96500
H  -4.37400 19.54400 32.62500
H  -0.79000 16.12300 31.51400
H  -1.89700 15.34500 32.68600
H  -1.79200 17.84200 33.75700
H  -0.24500 17.60500 32.99000
H  -3.38800 22.46900 28.51100
H  -2.53400 23.54500 27.52900
H  -1.60300 22.57400 28.67900
H  -0.67000 23.88400 24.44200
H  -0.83100 23.65100 26.23600
H  -2.24200 24.17900 25.18400
H  -0.71300 17.54900 22.16200
H  -2.69500 15.28800 22.08200
H  -3.29300 18.76900 21.78500
H  -3.46200 17.06600 21.24500
H  -2.27100 18.12200 20.51700
H  -0.86600 13.85900 22.55100
H  0.24400 15.13000 22.53100
H  -0.95100 13.88300 20.19000
H  0.30100 14.99000 20.19100
H  -1.28700 15.59500 19.99400
H  -1.79900 11.35200 25.50600
H  -3.57300 11.28300 25.25900
H  -2.63400 10.69900 26.81800
H  -4.09200 13.77500 30.96500
H  -0.61900 13.11100 33.43900
H  -0.72500 11.44200 32.91900
H  -1.68300 12.01300 34.36900
Mg 0.00800 7.64600 26.62800
C  0.84600 9.63600 29.39500
C  -0.00500 4.95400 28.88800
C  -0.57100 5.42800 24.13600
C  0.36600 10.29400 24.52200
N  0.61300 7.28000 28.77600
C  0.70700 8.30500 29.69000
C  0.57400 7.81000 31.11400
C  0.74600 6.28700 30.94800
C  0.40900 6.09800 29.43900
C  2.12400 5.64500 31.22400
C  -0.79100 8.12100 31.69800
C  -0.92100 8.27300 33.22800
H  0.12100 7.63900 34.06000
N  -0.14300 5.54900 26.49000
C  -0.13900 4.63000 27.52000
C  -0.29700 3.33000 26.96600
C  -0.56300 3.38500 25.60600
C  -0.43900 4.86900 25.38300
C  -0.17100 2.09400 27.82300
C  -0.67600 2.34300 24.59700
O  -0.82000 2.53200 23.39800
C  -0.73000 0.89300 25.02100
N  0.20700 7.81900 24.60500
C  -0.25400 6.79400 23.79600
C  -0.60700 7.37900 22.38600
C  -0.33200 8.92100 22.55400
C  0.09500 9.00200 23.99900
C  0.23700 6.74300 21.18700
C  -1.53100 9.86900 22.22200
C  -1.45800 10.65300 20.85700
N  0.45500 9.58800 26.89500
C  0.57100 10.58100 25.97700
C  0.77600 11.82700 26.65600
C  0.93000 11.47700 28.01500
C  0.71000 10.14900 28.08700
C  0.89100 13.25100 26.02900
C  1.30000 12.00800 29.26700
O  1.77000 13.09600 29.55200
C  1.11200 10.89700 30.29000
C  2.19200 11.03500 31.26300
O  3.35100 10.80000 31.00600
O  1.75100 11.26400 32.48300
C  2.72200 11.23900 33.57200
H  -0.29600 4.22500 29.64700
H  -1.10300 4.94800 23.31200
H  0.63700 11.03600 23.76700
H  1.42000 8.23500 31.65300
H  0.03000 5.77100 31.58900
H  2.70600 6.09900 32.02600
H  2.72400 5.67100 30.31400
H  2.00100 4.59800 31.50300
H  -1.57100 7.42000 31.40200
H  -0.96000 9.13000 31.32200
H  -1.85100 7.82200 33.57300
H  -0.94800 9.34700 33.41300
H  -1.11000 1.55500 27.69600
H  -0.00800 2.21400 28.89400
H  0.69300 1.53200 27.46600
H  0.15500 0.45300 25.48000
H  -0.92900 0.31100 24.12100
H  -1.65100 0.83300 25.60100
H  -1.66300 7.14200 22.26000
H  0.52000 9.29300 21.98600
H  -0.55300 6.43200 20.50300
H  0.77200 5.85700 21.52700
H  0.77000 7.47800 20.58400
H  -1.53000 10.60000 23.03100
H  -2.51600 9.41600 22.33300
H  -2.49300 10.89400 20.61600
H  -1.03400 10.12100 20.00500
H  -0.85200 11.53100 21.08000
H  0.90500 13.25900 24.93900
H  1.78400 13.58000 26.56100
H  0.09300 13.90800 26.37500
H  0.21700 11.19800 30.83500
H  3.41300 10.41500 33.39300
H  2.12500 11.10900 34.47400
H  3.10500 12.25800 33.53100

