158

Mg 44.84200 3.72400 46.84400
C  42.90100 6.60500 46.41300
C  42.17300 1.82300 46.00900
C  47.01500 0.99400 46.45400
C  47.71400 5.88000 46.83300
N  42.76700 4.20700 46.34700
C  42.17400 5.46400 46.25100
C  40.70800 5.37900 45.84500
C  40.42100 3.78400 46.02100
C  41.85900 3.21500 46.22200
C  39.44700 3.43200 47.24600
C  40.51000 5.82100 44.35300
C  39.47200 6.87700 44.27600
H  39.63700 7.95200 43.16700
N  44.59300 1.59800 46.35400
C  43.35800 1.03600 46.07500
C  43.60600 -0.36600 45.87400
C  44.98200 -0.63700 46.20600
C  45.60700 0.68400 46.33800
C  42.55200 -1.27600 45.35900
C  45.58400 -2.03300 46.35100
O  44.83700 -3.00700 46.25500
C  46.94900 -2.24300 46.78800
N  47.01400 3.43200 46.66300
C  47.59200 2.21200 46.61600
C  49.12400 2.31200 46.81500
C  49.33700 3.89100 46.81000
C  47.91800 4.47400 46.69200
C  49.68600 1.48900 48.02900
C  50.32600 4.28100 45.69700
C  51.55500 5.15800 46.04100
N  45.23900 5.78900 46.78300
C  46.44000 6.49600 46.80400
C  46.18100 7.94800 46.79300
C  44.76200 8.04800 46.78000
C  44.28400 6.70300 46.72400
C  47.12400 9.00200 46.46900
C  43.62200 8.90500 46.65700
O  43.59500 10.09600 46.69900
C  42.38000 8.02000 46.37000
C  41.39300 8.28700 47.45200
O  41.44600 7.85000 48.60800
O  40.31400 8.94500 46.93500
C  39.17900 9.19300 47.79200
H  41.26700 1.24000 45.83100
H  47.72500 0.16500 46.44400
H  48.46000 6.66500 46.97300
H  39.99400 5.82900 46.53500
H  39.96400 3.30100 45.15700
H  39.86300 2.77900 48.01400
H  38.59900 2.94300 46.76700
H  39.04000 4.35300 47.66200
H  40.07700 4.96200 43.84000
H  41.46100 6.15000 43.93500
H  39.47900 7.38500 45.24100
H  38.50200 6.40600 44.11300
H  42.68500 -1.73300 44.37900
H  41.55700 -0.83700 45.42300
H  42.50800 -2.03900 46.13700
H  46.97700 -3.27300 47.14400
H  47.17100 -1.56000 47.60700
H  47.51100 -2.11700 45.86200
H  49.61500 1.97800 45.90100
H  49.76700 4.21500 47.75800
H  50.09000 0.55400 47.64200
H  48.73200 1.42600 48.55200
H  50.43700 2.13100 48.49100
H  49.74200 4.82000 44.95100
H  50.86300 3.42800 45.28100
H  51.99700 4.95500 47.01700
H  51.39300 6.22000 45.86100
H  52.34400 4.79200 45.38400
H  46.87600 9.89000 47.05100
H  46.91400 9.20400 45.41900
H  48.14000 8.67500 46.69100
H  41.92600 8.40700 45.45700
H  39.13500 10.28100 47.73600
H  39.32000 8.92600 48.83900
H  38.30700 8.66500 47.40500
Mg 47.52500 16.15700 28.90600
C  45.67100 15.59400 31.82400
C  49.60100 18.25200 30.74700
C  49.35000 16.80100 26.12300
C  45.13800 14.60300 27.07200
N  47.50700 16.88300 31.05200
C  46.75300 16.46000 32.05700
C  47.33600 16.82000 33.45400
C  48.37100 17.89500 32.99100
C  48.54300 17.60800 31.49400
C  48.15400 19.41100 33.18500
C  47.86900 15.51000 34.18800
C  47.78500 15.53700 35.71400
H  47.39700 16.91100 36.40400
N  49.32200 17.30800 28.50100
C  50.00600 18.05300 29.40500
C  51.19800 18.47800 28.72900
C  51.09800 18.23000 27.35600
C  49.90700 17.45100 27.24800
C  52.28400 19.20300 29.54200
C  52.13100 18.55400 26.14400
O  51.98700 18.22100 24.99500
C  53.44500 19.22600 26.54500
N  47.30400 15.75900 26.93100
C  48.19600 16.08500 26.00100
C  47.65000 15.74400 24.57500
C  46.43400 14.87000 24.94300
C  46.22300 15.17200 26.38200
C  47.27000 16.98000 23.67200
C  46.51800 13.37400 24.48100
C  45.73900 13.09600 23.11600
N  45.79700 15.19000 29.29900
C  44.89000 14.62100 28.47300
C  43.88800 13.97600 29.22500
C  44.18200 14.27300 30.57600
C  45.33300 15.06300 30.59300
C  42.65000 13.13300 28.74700
C  43.68000 14.08600 31.93000
O  42.66500 13.56000 32.37400
C  44.66400 15.02500 32.80500
C  43.96800 16.15800 33.49100
O  43.75200 17.30800 33.13900
O  43.67000 15.70300 34.76300
C  43.23800 16.73000 35.77200
H  50.29200 18.86000 31.33400
H  49.81700 16.80000 25.13600
H  44.48100 13.95600 26.48700
H  46.41900 17.20500 33.89800
H  49.31400 17.69700 33.50100
H  49.00300 19.92200 33.63900
H  47.28400 19.60300 33.81300
H  47.96400 19.84000 32.20100
H  48.86600 15.30200 33.80000
H  47.19000 14.70400 33.91200
H  48.75600 15.19300 36.06800
H  47.01200 14.85500 36.07000
H  52.99600 19.72200 28.90000
H  52.93100 18.47800 30.03700
H  51.89900 19.96200 30.22300
H  53.94700 18.70500 27.36100
H  53.25500 20.25900 26.83700
H  54.05400 19.35100 25.65000
H  48.41700 15.11700 24.12100
H  45.52900 15.28400 24.49800
H  47.55600 17.85200 24.26100
H  46.22100 16.99400 23.37500
H  47.84900 16.87500 22.75500
H  46.25500 12.72800 25.31900
H  47.54700 13.14300 24.20800
H  45.26100 12.14300 23.34200
H  46.39000 12.90800 22.26200
H  44.88600 13.71100 22.82900
H  42.83800 12.72700 27.75300
H  41.69300 13.65400 28.77200
H  42.57700 12.34900 29.50100
H  45.10500 14.49100 33.64600
H  43.54600 16.41200 36.76800
H  42.15300 16.80900 35.83800
H  43.72100 17.69900 35.64500

