158

Mg 48.45800 15.56800 28.74900
C  46.35000 15.30800 31.70300
C  50.38300 17.63300 30.72100
C  49.94900 16.48200 25.90000
C  45.89200 14.05900 26.97600
N  48.32600 16.39100 31.05000
C  47.51400 15.99400 32.05200
C  48.08300 16.48400 33.48100
C  49.35200 17.28000 33.07700
C  49.34300 17.16000 31.53400
C  49.51100 18.76900 33.48400
C  48.22700 15.31100 34.56100
C  49.01500 15.65400 35.74800
H  48.61400 16.80700 36.77200
N  50.03600 16.74600 28.36400
C  50.71700 17.53400 29.31500
C  51.79300 18.22900 28.59300
C  51.67500 17.95300 27.22500
C  50.57200 16.99800 27.08600
C  52.82800 19.07800 29.30900
C  52.50200 18.41700 26.03100
O  52.33900 17.99700 24.88400
C  53.69500 19.38800 26.30600
N  48.09000 15.13600 26.71800
C  48.77300 15.72300 25.66400
C  48.12200 15.44700 24.28500
C  47.05600 14.33300 24.76600
C  46.95500 14.53300 26.27400
C  47.60700 16.72100 23.68700
C  47.54300 12.90400 24.35000
C  48.04100 11.91800 25.40400
N  46.52700 14.89500 29.15800
C  45.67100 14.10600 28.39100
C  44.50900 13.63000 29.13600
C  44.82400 14.03700 30.41700
C  45.98800 14.83400 30.40500
C  43.38300 12.84300 28.60300
C  44.29200 13.93100 31.75800
O  43.36000 13.34300 32.28400
C  45.18300 14.82700 32.60000
C  44.31100 15.83100 33.35800
O  43.44300 16.46400 32.79900
O  44.53600 15.77800 34.69500
C  43.58100 16.60000 35.42500
H  50.98600 18.29200 31.34900
H  50.34500 16.91200 24.97700
H  45.13800 13.54100 26.38000
H  47.31000 17.12400 33.90800
H  50.27000 16.85500 33.48200
H  48.86100 18.88800 34.35100
H  49.28400 19.50400 32.71200
H  50.57000 18.87800 33.71500
H  48.58400 14.39100 34.09900
H  47.22600 15.09500 34.93500
H  50.06000 15.77300 35.46000
H  48.95500 14.83400 36.46400
H  52.81200 20.14300 29.07700
H  53.77800 18.59300 29.08400
H  52.73700 18.87400 30.37600
H  53.46900 20.35300 26.76000
H  54.16800 19.42500 25.32500
H  54.28400 18.69900 26.91000
H  48.95900 15.09300 23.68200
H  46.10700 14.58200 24.29300
H  46.67000 17.14000 24.05300
H  47.45400 16.34100 22.67600
H  48.31500 17.55000 23.67700
H  48.35300 12.79000 23.62900
H  46.70700 12.25800 24.08200
H  48.70900 11.28700 24.81800
H  47.30200 11.24700 25.84200
H  48.44300 12.35800 26.31600
H  42.40300 13.25300 28.84700
H  43.64600 11.84600 28.95800
H  43.43000 12.88400 27.51500
H  45.49300 14.22700 33.45500
H  43.83500 16.35000 36.45500
H  42.56000 16.24000 35.29600
H  43.63700 17.67100 35.22700
Mg 48.41500 34.33500 27.34500
C  46.92000 33.03600 30.11300
C  49.01100 37.24200 29.14500
C  49.31700 35.78700 24.42000
C  47.53700 31.50700 25.55300
N  48.14500 35.00600 29.51800
C  47.52500 34.28300 30.46800
C  47.64000 35.01700 31.83800
C  47.91200 36.52800 31.29200
C  48.47600 36.24400 29.95200
C  46.65800 37.52300 31.30800
C  48.75100 34.47200 32.67500
C  48.58000 34.52000 34.21100
H  47.51600 35.37400 34.87400
N  49.02300 36.20900 26.82700
C  49.26900 37.25100 27.70900
C  49.98000 38.30700 27.09100
C  49.94800 38.03500 25.67800
C  49.41000 36.63000 25.59300
C  50.41000 39.54100 27.83100
C  50.47600 38.82200 24.49300
O  50.30200 38.43700 23.34400
C  51.06300 40.20800 24.65500
N  48.42300 33.72000 25.28100
C  48.87700 34.48800 24.28800
C  48.76200 33.77300 22.92300
C  48.18400 32.44200 23.31700
C  48.12600 32.51600 24.78300
C  47.96400 34.52200 21.77700
C  48.96900 31.24500 22.76300
C  50.16500 30.58200 23.47600
N  47.41700 32.62500 27.65100
C  47.11700 31.53300 26.89800
C  46.44100 30.56400 27.70300
C  46.21700 31.12300 28.92800
C  46.84500 32.38300 28.85600
C  45.95800 29.19000 27.28400
C  45.58600 30.86400 30.14800
O  44.90000 29.89300 30.60600
C  45.90000 32.18900 30.99600
C  46.20100 31.80300 32.40000
O  47.23300 31.23600 32.85300
O  45.06500 32.21900 33.09200
C  44.80900 31.75500 34.44100
H  49.26100 38.15600 29.68900
H  49.66900 36.26400 23.50300
H  47.43900 30.52100 25.09400
H  46.73000 34.78600 32.39100
H  48.71800 36.99100 31.86100
H  46.45000 37.78700 30.27100
H  47.03300 38.43000 31.78300
H  45.79500 37.14900 31.85900
H  49.67100 34.99700 32.41600
H  48.83300 33.41400 32.42700
H  49.63600 34.66100 34.43900
H  48.39700 33.47200 34.44700
H  50.72000 39.25100 28.83500
H  49.61700 40.27100 27.99800
H  51.28300 40.05900 27.43400
H  50.33200 40.92200 25.03500
H  51.61900 40.60200 23.80500
H  51.80300 40.15600 25.45400
H  49.77100 33.57800 22.56000
H  47.15800 32.40300 22.95200
H  48.65100 34.57500 20.93300
H  47.55700 35.50900 21.99600
H  47.08200 33.94500 21.49900
H  49.27700 31.47100 21.74300
H  48.20600 30.46700 22.73000
H  50.43400 31.14700 24.36800
H  50.98700 30.49800 22.76400
H  49.91500 29.54700 23.70800
H  46.35300 28.91000 26.30700
H  44.87900 29.13200 27.14100
H  46.27500 28.40900 27.97500
H  44.96700 32.74500 30.90600
H  44.70600 32.66700 35.02900
H  45.50800 31.04800 34.88900
H  43.87300 31.24700 34.20800

