158

Mg 30.56600 58.21000 39.52000
C  27.64700 56.44100 38.54000
C  32.30000 55.52600 38.68200
C  33.10900 60.25900 39.56000
C  28.39700 61.09200 39.99600
N  29.96900 56.20800 38.77000
C  28.77900 55.71100 38.35800
C  28.88500 54.35800 37.61500
C  30.29900 53.89900 38.14600
C  30.93600 55.27200 38.64900
C  30.36700 52.77700 39.16700
C  28.76600 54.63000 36.12500
C  27.49900 54.08500 35.45400
H  26.68000 54.99200 34.52900
N  32.46500 57.94000 39.10000
C  33.03500 56.72400 38.86100
C  34.44500 56.91100 38.74700
C  34.71000 58.27100 39.00700
C  33.44100 58.90300 39.21100
C  35.43600 55.76200 38.37800
C  36.11600 59.04000 39.11100
O  37.16400 58.39600 38.89900
C  36.27700 60.49200 39.30600
N  30.70700 60.33900 39.85200
C  31.90500 60.91900 39.81400
C  31.90900 62.39000 40.42000
C  30.34400 62.70400 40.38800
C  29.77500 61.30200 40.16100
C  32.54000 62.56500 41.80700
C  29.88400 63.79000 39.35600
C  29.70500 65.26400 39.89300
N  28.43400 58.66900 39.41000
C  27.74400 59.89500 39.68000
C  26.31600 59.66200 39.58700
C  26.22600 58.31000 39.10800
C  27.55700 57.77300 39.08400
C  25.24700 60.69400 39.71400
C  25.27400 57.24400 38.74200
O  24.05000 57.26400 38.60600
C  26.16800 56.03600 38.43600
C  25.84600 54.89600 39.33100
O  26.44800 54.59300 40.30900
O  24.71100 54.29300 38.79000
C  24.04900 53.32300 39.69400
H  32.96800 54.69200 38.45500
H  33.91600 60.99300 39.58500
H  27.76800 61.97900 40.08800
H  28.13800 53.66500 38.00200
H  30.77500 53.52900 37.23800
H  29.37500 52.38800 39.39300
H  30.64500 53.14900 40.15400
H  31.07100 52.03300 38.79400
H  29.55700 54.22000 35.49700
H  28.85200 55.70500 35.96300
H  26.88000 53.60800 36.21300
H  27.80800 53.27100 34.79800
H  36.47000 56.10700 38.39100
H  35.08600 55.49200 37.38200
H  35.24800 54.87600 38.98500
H  35.90200 60.93500 40.22900
H  35.87500 61.06400 38.47000
H  37.35200 60.66200 39.23700
H  32.50100 63.01900 39.75600
H  30.04900 63.00600 41.39300
H  32.75300 61.51300 41.99600
H  31.95400 63.12600 42.53400
H  33.40700 63.22500 41.81100
H  29.02300 63.47100 38.76700
H  30.76300 63.93000 38.72700
H  30.59800 65.86600 39.72500
H  29.46300 65.18300 40.95300
H  28.90800 65.71100 39.29900
H  25.01800 60.80900 40.77400
H  24.34500 60.56800 39.11400
H  25.70200 61.62300 39.37200
H  25.88600 55.83200 37.40300
H  22.98700 53.55900 39.76600
H  24.38400 53.33700 40.73100
H  24.06200 52.30100 39.31400
Mg -1.38800 34.62600 26.04400
C  -3.08700 32.84200 28.54800
C  -0.11000 36.79800 28.39400
C  -0.34000 36.74200 23.63100
C  -2.97100 32.59000 23.61700
N  -1.51500 34.69000 28.22200
C  -2.16800 33.77800 29.06300
C  -1.71300 34.07800 30.56300
C  -0.89600 35.44200 30.43500
C  -0.82300 35.68200 28.92900
C  -1.43200 36.57100 31.32000
C  -0.99000 32.91100 31.30400
C  -1.65000 32.48000 32.64500
H  -0.77000 32.60700 33.95900
N  -0.26100 36.52000 25.98500
C  0.06200 37.19100 27.09600
C  0.72200 38.45700 26.66000
C  0.63600 38.50100 25.26500
C  -0.01200 37.24200 24.88200
C  1.24300 39.55200 27.65600
C  1.33700 39.47200 24.32800
O  1.46100 39.23000 23.09900
C  1.94700 40.72400 24.87300
N  -1.56300 34.62400 23.93200
C  -1.03100 35.57200 23.18700
C  -1.18700 35.28400 21.66300
C  -1.87600 33.85600 21.64600
C  -2.14800 33.66700 23.16700
C  -2.00000 36.30200 20.85600
C  -0.94700 32.76300 21.11300
C  0.30800 32.44900 21.86200
N  -2.85000 33.17600 25.98600
C  -3.36400 32.38200 24.93000
C  -4.23500 31.43900 25.44700
C  -4.12600 31.51000 26.88700
C  -3.30000 32.61700 27.12600
C  -5.13500 30.49000 24.61300
C  -4.71200 31.01700 28.07600
O  -5.35600 30.00900 28.25700
C  -3.90700 31.75300 29.15700
C  -4.92000 32.16700 30.23400
O  -6.05500 32.68300 30.09300
O  -4.49200 31.66500 31.40500
C  -5.45400 31.61000 32.53700
H  0.28500 37.43900 29.18500
H  -0.10800 37.50100 22.88000
H  -3.35100 31.95900 22.81100
H  -2.54000 34.33500 31.22400
H  0.07700 35.09100 30.77800
H  -2.23400 36.19600 31.95700
H  -1.80500 37.38900 30.70500
H  -0.65800 37.04100 31.92700
H  0.02000 33.26000 31.52100
H  -1.00400 32.08700 30.59000
H  -2.20000 31.53900 32.63700
H  -2.39900 33.21200 32.94700
H  2.30800 39.52700 27.42700
H  1.10800 39.24600 28.69400
H  0.65900 40.44400 27.42900
H  2.77200 40.44800 25.53100
H  1.07600 41.22900 25.29000
H  2.32400 41.22400 23.98100
H  -0.20600 35.28600 21.18800
H  -2.75800 33.89700 21.00600
H  -3.03800 36.07400 20.61300
H  -1.55700 36.47000 19.87400
H  -2.00800 37.21700 21.44800
H  -0.58000 33.03600 20.12300
H  -1.52500 31.84600 21.00000
H  0.43600 33.04800 22.76400
H  1.19100 32.74700 21.29700
H  0.34000 31.38400 22.09400
H  -5.29600 30.93900 23.63300
H  -6.08700 30.37300 25.13000
H  -4.76100 29.46900 24.54100
H  -3.18200 31.03200 29.53600
H  -4.91300 31.95200 33.41900
H  -5.90300 30.64300 32.76200
H  -6.16400 32.42200 32.38400

