158

Mg 1.61000 -0.95100 44.32000
C  4.99900 -0.46000 43.52600
C  0.85400 1.72800 42.45900
C  -1.48500 -2.13100 44.24600
C  2.64500 -3.89400 46.04900
N  2.75900 0.42500 43.07900
C  4.09400 0.36900 42.87200
C  4.58300 1.55400 41.99400
C  3.25700 2.35900 41.74200
C  2.22100 1.51300 42.58600
C  3.25300 3.94800 42.00900
C  5.35400 1.24400 40.69500
C  6.50700 2.29600 40.39400
H  6.38000 3.15600 39.16400
N  -0.09000 -0.21000 43.55300
C  -0.22400 0.95600 42.81500
C  -1.61200 1.25000 42.57500
C  -2.34200 0.16100 43.16600
C  -1.28700 -0.82100 43.69700
C  -2.04900 2.53500 41.97700
C  -3.82700 0.05800 43.30400
O  -4.55600 0.94000 42.87100
C  -4.44700 -0.96600 44.19500
N  0.72000 -2.82000 44.97100
C  -0.58400 -3.02600 44.78400
C  -0.92700 -4.47400 45.26100
C  0.21400 -4.73800 46.22200
C  1.28100 -3.81400 45.72800
C  -2.39400 -4.66900 45.96700
C  0.61700 -6.27300 46.42000
C  0.73200 -6.63100 47.94800
N  3.40400 -1.98400 44.79600
C  3.65600 -3.19100 45.46100
C  5.08400 -3.26300 45.62900
C  5.68500 -2.19000 44.96200
C  4.59600 -1.48600 44.43100
C  5.73800 -4.36200 46.41200
C  6.94200 -1.54800 44.53000
O  8.11200 -1.82700 44.76300
C  6.50500 -0.46400 43.53900
C  7.02600 0.72400 44.08800
O  6.60400 1.36700 45.03400
O  8.16400 1.13500 43.31000
C  8.52700 2.57600 43.70800
H  0.60700 2.60900 41.86300
H  -2.53800 -2.40700 44.33700
H  2.89100 -4.72400 46.71600
H  5.14200 2.26400 42.60300
H  2.89500 2.08800 40.75100
H  2.67600 4.55800 41.31400
H  4.27300 4.31600 42.12000
H  2.72800 4.05000 42.95800
H  4.80800 1.20300 39.75200
H  5.82200 0.27800 40.88000
H  7.39000 1.66400 40.29800
H  6.55700 3.09300 41.13600
H  -3.10100 2.62700 41.70800
H  -1.57300 2.83800 41.04400
H  -1.80200 3.25800 42.75300
H  -5.47100 -0.68400 44.43900
H  -3.87900 -0.99800 45.12500
H  -4.44100 -1.90200 43.63600
H  -0.90300 -5.12800 44.38900
H  -0.13900 -4.32100 47.16500
H  -3.20000 -4.35200 45.30400
H  -2.38400 -4.24500 46.97200
H  -2.69900 -5.70300 46.12600
H  1.58500 -6.61400 46.05300
H  -0.13500 -6.87500 45.91100
H  -0.16600 -7.13500 48.30500
H  0.99700 -5.71600 48.47700
H  1.61800 -7.26200 48.01000
H  6.76300 -4.65200 46.18400
H  5.16400 -5.26100 46.18800
H  5.63300 -4.11800 47.46900
H  6.97300 -0.52100 42.55500
H  9.09500 3.08800 42.93100
H  9.08300 2.46000 44.63800
H  7.71000 3.29200 43.80200
Mg -10.69600 17.22100 41.01500
C  -7.15200 16.68600 40.88500
C  -10.12100 20.55500 40.32100
C  -13.94500 17.56400 40.40900
C  -11.10200 13.74000 41.13000
N  -8.85400 18.42200 40.51700
C  -7.57000 17.98400 40.60100
C  -6.65800 19.18800 40.35500
C  -7.49300 20.38100 40.80300
C  -8.90200 19.82400 40.53600
C  -7.24900 20.70000 42.31000
C  -6.26500 19.22200 38.83600
C  -4.82400 18.96700 38.42700
H  -4.55200 17.84500 37.38500
N  -11.90400 18.85300 40.49600
C  -11.45100 20.08600 40.13200
C  -12.49800 20.92500 39.80500
C  -13.71900 20.14700 40.02300
C  -13.24400 18.79600 40.33800
C  -12.28800 22.37500 39.51900
C  -15.11800 20.72800 40.00400
O  -15.34500 21.89900 39.77700
C  -16.29800 19.80600 40.25100
N  -12.26700 15.86200 40.61800
C  -13.56500 16.27100 40.62100
C  -14.54100 15.12000 40.75200
C  -13.58500 13.92800 40.72000
C  -12.20800 14.54000 40.79500
C  -15.31900 15.06200 42.13300
C  -13.80100 12.86300 39.61900
C  -12.98200 12.94800 38.31500
N  -9.44800 15.54200 41.09000
C  -9.72600 14.15100 41.11500
C  -8.46700 13.41600 41.33500
C  -7.46400 14.32900 41.14500
C  -8.09000 15.58100 40.96200
C  -8.33100 11.99800 41.65100
C  -6.06100 14.50200 41.09500
O  -5.14600 13.68600 41.20700
C  -5.77800 16.01200 40.82700
C  -4.92500 16.45300 41.89200
O  -3.76200 16.74500 41.71400
O  -5.60200 16.58500 43.07000
C  -4.79600 17.07700 44.23300
H  -9.96300 21.63300 40.24800
H  -15.02800 17.70100 40.45500
H  -11.35100 12.67900 41.18000
H  -5.81100 18.96500 41.00400
H  -7.35600 21.30800 40.24700
H  -6.85800 19.86200 42.88700
H  -8.15700 20.91600 42.87400
H  -6.57300 21.53900 42.47400
H  -6.59000 20.23100 38.58300
H  -6.94900 18.56800 38.29500
H  -4.13900 18.61100 39.19600
H  -4.34700 19.86100 38.02600
H  -11.45200 22.59700 38.85600
H  -12.10400 22.86900 40.47300
H  -13.18300 22.77400 39.04200
H  -16.21800 19.05800 39.46300
H  -17.26900 20.28700 40.12800
H  -16.14100 19.35300 41.23000
H  -15.29800 15.12000 39.96700
H  -13.57700 13.37400 41.65900
H  -15.18100 14.09500 42.61700
H  -16.34700 15.25200 41.82600
H  -14.95000 15.80300 42.84300
H  -14.85100 12.91700 39.33100
H  -13.72800 11.85100 40.01700
H  -12.56500 11.97200 38.06700
H  -12.13500 13.63400 38.28400
H  -13.65800 13.12800 37.47900
H  -8.05600 11.47000 40.73800
H  -9.24700 11.54700 42.03200
H  -7.58600 11.92500 42.44300
H  -5.39900 16.19400 39.82200
H  -5.34800 16.78900 45.12800
H  -4.66900 18.15900 44.28100
H  -3.78900 16.66300 44.29100

