158

Mg 16.40600 52.71500 26.52700
C  18.28600 50.80200 28.85200
C  14.19400 53.41100 29.10700
C  14.75000 54.52100 24.31800
C  18.76300 51.60300 24.00300
N  16.14300 51.89500 28.64700
C  17.12300 51.27500 29.42300
C  16.80900 51.42400 30.89100
C  15.37700 51.88800 30.84400
C  15.19400 52.42900 29.47700
C  14.33800 50.75900 31.13700
C  17.78700 52.38300 31.65800
C  18.13800 51.82100 33.05300
H  17.15500 52.30000 34.18100
N  14.65900 53.73300 26.66000
C  13.96500 53.99300 27.81000
C  12.93100 54.96700 27.52600
C  13.06000 55.27500 26.07700
C  14.23300 54.51500 25.62300
C  12.00700 55.39500 28.62200
C  12.19600 56.31200 25.31900
O  12.50200 56.58600 24.17000
C  11.09800 57.02400 25.93100
N  16.63000 52.95500 24.46700
C  15.79700 53.74700 23.73200
C  16.13000 53.89800 22.20900
C  17.54600 53.08700 22.22800
C  17.68800 52.44400 23.65400
C  15.02900 53.21800 21.33300
C  18.74500 53.87100 21.73000
C  19.09600 55.24100 22.29200
N  18.10200 51.49300 26.41000
C  18.90100 51.08200 25.33200
C  19.96900 50.22000 25.78100
C  19.70100 50.11800 27.15100
C  18.52900 50.85200 27.44100
C  21.01100 49.58400 24.96800
C  20.20100 49.45800 28.28700
O  21.13900 48.63900 28.38800
C  19.44100 50.06500 29.48600
C  19.05500 48.98800 30.47100
O  18.12900 48.17600 30.44800
O  19.91300 49.04400 31.53600
C  19.66200 48.12700 32.63900
H  13.53500 53.63400 29.94900
H  14.16900 55.02100 23.54000
H  19.46000 51.30500 23.21700
H  16.71400 50.41500 31.29200
H  15.24300 52.73700 31.51400
H  13.80500 51.13000 32.01200
H  14.77700 49.78000 31.33100
H  13.74300 50.61300 30.23500
H  17.37800 53.37900 31.82600
H  18.69200 52.49800 31.06100
H  19.19400 51.99100 33.26400
H  17.95500 50.74900 32.99100
H  11.86300 56.44400 28.36300
H  12.25200 55.30900 29.68100
H  11.10700 54.83900 28.36000
H  11.50000 57.70900 26.67700
H  10.32600 56.37400 26.34300
H  10.62800 57.77900 25.30100
H  16.35300 54.91800 21.89500
H  17.48700 52.17000 21.64200
H  14.73300 54.00100 20.63500
H  14.09300 52.91200 21.80000
H  15.50800 52.33000 20.92100
H  18.47600 54.03300 20.68600
H  19.59200 53.18500 21.74300
H  18.82400 56.03800 21.60000
H  20.17100 55.40800 22.36200
H  18.73600 55.54700 23.27500
H  21.74300 50.32800 24.65400
H  20.64700 49.10000 24.06200
H  21.61000 48.90100 25.57000
H  20.14200 50.75500 29.95500
H  19.97000 47.13100 32.32100
H  18.62600 48.16900 32.97300
H  20.24900 48.46900 33.49200
Mg -12.34000 16.06500 41.72200
C  -9.19900 14.04500 41.56400
C  -10.58400 18.56600 40.13700
C  -15.08100 17.34200 41.11100
C  -13.89000 12.91600 42.59300
N  -10.11300 16.24800 40.82200
C  -9.08200 15.31100 40.95500
C  -7.72800 15.93900 40.45200
C  -8.14200 17.48100 40.30300
C  -9.68500 17.44900 40.32600
C  -7.64000 18.40800 41.45800
C  -7.17700 15.26500 39.16800
C  -5.63600 15.52800 39.00200
H  -5.34900 16.24400 37.64200
N  -12.71200 17.78700 40.91700
C  -11.94100 18.73100 40.30800
C  -12.69700 19.89700 39.93900
C  -14.05300 19.62800 40.32400
C  -13.97900 18.17700 40.76300
C  -12.11100 21.14800 39.32900
C  -15.22100 20.54000 40.14800
O  -15.06900 21.62600 39.65300
C  -16.71100 20.15900 40.50900
N  -14.27900 15.13400 41.58300
C  -15.26300 16.05700 41.41500
C  -16.67600 15.34900 41.57800
C  -16.20600 14.03200 42.34200
C  -14.74200 13.95600 42.11600
C  -17.77000 16.14700 42.39100
C  -16.98900 12.76100 41.82900
C  -17.78400 11.91300 42.90000
N  -11.71300 13.94900 42.12600
C  -12.48500 12.83000 42.48100
C  -11.55900 11.73800 42.67900
C  -10.25200 12.19100 42.34300
C  -10.37600 13.51700 42.00400
C  -11.91800 10.43300 43.39200
C  -8.87100 11.73200 42.23600
O  -8.33400 10.63700 42.50300
C  -8.09900 13.02000 41.71800
C  -7.05300 13.52700 42.68800
O  -7.16700 13.52300 43.90400
O  -5.89000 13.82700 42.02300
C  -4.69000 13.89800 42.85800
H  -10.06600 19.39500 39.65000
H  -16.05500 17.82600 41.01500
H  -14.44800 12.02700 42.89200
H  -6.94500 15.85400 41.20600
H  -7.74200 17.94100 39.40000
H  -6.55900 18.55000 41.47000
H  -7.90500 17.89300 42.38100
H  -8.16600 19.36200 41.41400
H  -7.84000 15.64300 38.39000
H  -7.37600 14.19900 39.27800
H  -5.11900 14.57500 39.11000
H  -5.24900 16.22400 39.74600
H  -12.38300 21.32400 38.28800
H  -11.03000 21.10700 39.45600
H  -12.40700 22.00500 39.93300
H  -16.75400 19.84200 41.55100
H  -17.13400 19.36200 39.89700
H  -17.41200 20.96900 40.30500
H  -17.08900 15.18200 40.58300
H  -16.35300 14.00900 43.42100
H  -18.65500 16.41700 41.81400
H  -17.22400 17.03900 42.69900
H  -18.14600 15.61000 43.26100
H  -16.32700 12.16600 41.19800
H  -17.73800 13.08100 41.10400
H  -18.86700 11.91100 42.78000
H  -17.46900 12.21900 43.89700
H  -17.54700 10.84900 42.88200
H  -10.99300 9.86200 43.31600
H  -12.70200 9.97100 42.79100
H  -12.41300 10.59900 44.34800
H  -7.54000 12.82100 40.80300
H  -4.60000 12.97700 43.43500
H  -4.75200 14.68700 43.60700
H  -3.87100 14.00900 42.14800

