158

Mg 24.19600 -4.50700 45.79700
C  26.43400 -2.15500 44.24900
C  21.67100 -3.07500 43.90400
C  22.31100 -7.30100 46.27500
C  27.03600 -6.03600 47.07800
N  24.14200 -2.89500 44.28800
C  25.09700 -2.01000 43.88100
C  24.57200 -0.93600 42.93200
C  23.06600 -1.07300 43.25100
C  22.92000 -2.43000 43.88700
C  22.48700 0.18900 44.08300
C  25.03400 -1.14900 41.46500
C  25.96700 -0.22600 40.61500
H  25.65600 -0.30700 39.17200
N  22.16100 -5.02400 45.35500
C  21.32100 -4.30300 44.55800
C  20.06700 -4.97900 44.48800
C  20.15700 -6.19200 45.21200
C  21.61800 -6.23700 45.65400
C  18.95800 -4.40500 43.75200
C  18.96900 -7.19300 45.39600
O  17.82700 -6.89100 45.04200
C  19.13100 -8.47700 46.17200
N  24.59800 -6.38600 46.53400
C  23.67000 -7.38500 46.74800
C  24.35400 -8.61500 47.42400
C  25.77500 -8.12800 47.75500
C  25.80900 -6.74900 47.10200
C  23.68900 -9.39500 48.69100
C  26.89000 -9.19600 47.43000
C  27.57900 -9.88200 48.61100
N  26.31700 -4.04000 45.93300
C  27.28400 -4.81200 46.47700
C  28.55400 -4.06300 46.34100
C  28.24900 -3.00100 45.48900
C  26.88800 -3.10200 45.25100
C  29.92200 -4.52500 46.87800
C  28.88100 -1.91700 44.72400
O  30.02300 -1.49600 44.65200
C  27.60200 -1.32800 43.96300
C  27.39500 0.13600 44.34400
O  27.00900 0.61300 45.42100
O  27.57900 0.83600 43.19200
C  27.10600 2.23100 43.15300
H  20.87200 -2.51700 43.41000
H  21.81100 -8.26300 46.40700
H  27.94000 -6.49900 47.47900
H  25.05300 -0.01600 43.26300
H  22.51900 -1.09500 42.30900
H  23.29000 0.75200 44.55900
H  21.89500 -0.15900 44.92900
H  21.91100 0.76600 43.36000
H  24.19600 -1.37600 40.80700
H  25.53000 -2.12000 41.44800
H  26.97400 -0.61800 40.76200
H  25.95700 0.82100 40.91800
H  19.29500 -3.92300 42.83400
H  18.34600 -3.79100 44.41300
H  18.47600 -5.32700 43.42700
H  19.80600 -9.11700 45.60300
H  18.23400 -9.07000 46.35000
H  19.62200 -8.22800 47.11200
H  24.34900 -9.37100 46.63800
H  25.89500 -7.85000 48.80200
H  23.71100 -10.47000 48.51100
H  22.64700 -9.10500 48.82800
H  24.30500 -9.20600 49.57100
H  27.56500 -8.75800 46.69400
H  26.35100 -9.96000 46.87000
H  27.49800 -9.39000 49.58000
H  28.64100 -9.99100 48.39200
H  27.11500 -10.86800 48.63200
H  30.15900 -5.51000 46.47600
H  29.88500 -4.39000 47.95900
H  30.64100 -3.80000 46.49500
H  27.96200 -1.43900 42.94000
H  26.30400 2.43500 43.86300
H  26.92400 2.47800 42.10700
H  27.98900 2.82000 43.40300
Mg 15.96400 -1.92700 28.29000
C  15.21000 0.33300 30.77000
C  18.21000 -3.36100 30.48300
C  17.09700 -3.75100 25.76600
C  13.97400 -0.09400 26.06900
N  16.55100 -1.54200 30.44000
C  16.09400 -0.59000 31.27000
C  16.61600 -0.76600 32.69000
C  17.74700 -1.82500 32.53900
C  17.55500 -2.20300 31.03200
C  19.14300 -1.29500 33.00600
C  15.43800 -1.24200 33.64000
C  15.57500 -1.08400 35.19700
H  16.82100 -0.43100 35.75100
N  17.48300 -3.40500 28.17400
C  18.16700 -3.88300 29.16800
C  18.90500 -5.04300 28.63500
C  18.66200 -5.21400 27.23600
C  17.71400 -4.09400 26.98800
C  19.76500 -5.85100 29.54400
C  19.21700 -6.16400 26.27800
O  18.93400 -6.12300 25.09500
C  20.09700 -7.33400 26.74500
N  15.67000 -1.87800 26.21200
C  16.11100 -2.86300 25.38000
C  15.61400 -2.57100 23.88500
C  14.45000 -1.54300 24.06800
C  14.71600 -1.14400 25.51800
C  16.78700 -2.09200 22.97300
C  13.05900 -2.14500 23.76500
C  12.17800 -1.60000 22.64100
N  14.82300 -0.28100 28.33700
C  14.06500 0.38300 27.41700
C  13.52600 1.63400 27.93500
C  13.94600 1.56700 29.30200
C  14.68300 0.39900 29.49700
C  12.80100 2.71900 27.13600
C  13.81100 2.34300 30.55000
O  13.26400 3.38700 30.81600
C  14.60300 1.48200 31.60300
C  15.53900 2.34700 32.32100
O  16.67900 2.58800 31.97500
O  14.91000 2.92200 33.36900
C  15.63400 3.88900 34.12000
H  18.88500 -3.85500 31.18500
H  17.46700 -4.29600 24.89500
H  13.18100 0.36600 25.47500
H  16.88300 0.21700 33.07800
H  17.45400 -2.74100 33.05100
H  19.42200 -1.78800 33.93800
H  19.11900 -0.21600 33.15700
H  19.84200 -1.53400 32.20500
H  15.20600 -2.29600 33.49000
H  14.51100 -0.69200 33.47800
H  15.30400 -2.00600 35.71100
H  14.80400 -0.47900 35.67500
H  19.56800 -5.62500 30.59100
H  20.82800 -5.73700 29.32900
H  19.52600 -6.91300 29.48700
H  20.18400 -8.12400 25.99900
H  19.63000 -7.70200 27.65800
H  21.08600 -7.01800 27.07800
H  15.39700 -3.50900 23.37400
H  14.70700 -0.67900 23.45500
H  16.89400 -1.01900 23.13000
H  16.54900 -2.28800 21.92700
H  17.65700 -2.63000 23.35100
H  12.41100 -2.16300 24.64000
H  13.22700 -3.19100 23.50500
H  11.39300 -2.30800 22.37700
H  12.83300 -1.26600 21.83600
H  11.66100 -0.68400 22.92600
H  11.73900 2.47900 27.19700
H  13.09100 2.62400 26.08900
H  13.01600 3.70300 27.55200
H  13.81600 1.10700 32.25700
H  16.57600 3.58900 34.57900
H  15.00000 4.22500 34.94100
H  15.70200 4.84600 33.60300

