158

Mg 47.32900 16.53100 28.28600
C  45.47300 15.44700 31.01000
C  48.92900 18.71300 30.36500
C  49.01500 17.59800 25.52800
C  45.24800 14.58600 26.22600
N  47.39600 16.84500 30.47100
C  46.57400 16.27600 31.35900
C  46.98300 16.64400 32.81300
C  47.85300 17.89900 32.54300
C  48.12100 17.80700 31.04300
C  47.35400 19.32500 33.17600
C  47.53200 15.40400 33.63800
C  47.21500 15.28800 35.09700
H  48.29600 15.08600 36.15100
N  48.77000 17.92900 28.03100
C  49.25200 18.80900 29.02900
C  50.07900 19.81200 28.38100
C  50.13900 19.48800 26.99800
C  49.32200 18.26500 26.77600
C  50.73700 20.88100 29.23200
C  50.83000 20.22500 25.86600
O  50.59200 19.94600 24.72300
C  51.88400 21.26200 26.11400
N  47.12300 16.21200 26.15400
C  48.14700 16.58600 25.25600
C  48.08400 15.63300 23.98300
C  46.81700 14.72800 24.22100
C  46.38700 15.17600 25.63400
C  48.10300 16.24700 22.60200
C  47.10600 13.16000 24.09700
C  46.27900 12.36700 23.18600
N  45.62900 15.33500 28.52500
C  44.90500 14.61300 27.60200
C  43.81500 13.95400 28.28300
C  43.95400 14.27000 29.61000
C  45.10300 15.06800 29.72100
C  42.86300 13.14900 27.59900
C  43.46200 14.16100 31.01300
O  42.43800 13.54100 31.38600
C  44.44800 14.88100 31.89300
C  43.66500 15.96900 32.59700
O  43.26000 17.02100 32.19000
O  43.41100 15.49500 33.87000
C  42.86300 16.44200 34.81900
H  49.45300 19.43800 30.99000
H  49.53000 17.83400 24.59500
H  44.74000 13.88300 25.56200
H  46.08500 16.96500 33.34000
H  48.75000 17.63700 33.10300
H  46.67000 19.00600 33.96200
H  46.90200 19.87600 32.35100
H  48.29700 19.81400 33.42000
H  48.62100 15.43200 33.66700
H  47.20800 14.45400 33.21200
H  46.56000 14.42800 35.23700
H  46.57200 16.14100 35.31200
H  51.53400 20.44100 29.83300
H  49.92500 21.27300 29.84400
H  51.10100 21.67200 28.57700
H  52.52900 21.50800 25.27100
H  52.54000 20.83800 26.87400
H  51.46100 22.21100 26.44500
H  48.97700 15.02800 24.13300
H  46.02200 14.87200 23.48900
H  48.83900 15.74700 21.97100
H  48.53500 17.24700 22.56900
H  47.18000 16.08200 22.04600
H  47.18700 12.68500 25.07500
H  48.13500 13.12800 23.73900
H  46.76300 12.12800 22.23900
H  45.34000 12.84500 22.90400
H  45.99000 11.38700 23.56400
H  42.50400 12.34400 28.24000
H  43.46700 12.76800 26.77600
H  41.96400 13.69500 27.31400
H  44.65300 14.13700 32.66300
H  41.90200 16.76400 34.41900
H  43.48400 17.31700 35.01500
H  42.57200 15.89900 35.71800
Mg -9.52000 18.41900 42.39600
C  -6.06400 18.17600 42.65600
C  -9.20200 21.81000 41.77300
C  -12.80700 18.61400 41.75100
C  -9.68700 14.95400 42.77400
N  -7.87000 19.72400 42.08700
C  -6.50400 19.45000 42.25500
C  -5.67800 20.68900 41.96700
C  -6.68400 21.90500 41.98900
C  -8.00500 21.12400 42.01800
C  -6.47800 22.89600 43.22400
C  -4.85500 20.54500 40.64300
C  -5.57900 19.82700 39.46800
H  -5.34300 20.30800 38.00900
N  -10.82500 20.03100 41.83500
C  -10.54100 21.34500 41.67600
C  -11.76700 22.14000 41.40800
C  -12.82400 21.17700 41.46800
C  -12.17500 19.84700 41.70900
C  -11.84000 23.54800 41.04800
C  -14.27700 21.42800 41.44600
O  -14.62600 22.60200 41.23900
C  -15.36200 20.47600 41.63000
N  -10.97900 17.06500 42.07400
C  -12.25500 17.38500 41.98900
C  -13.16500 16.24600 42.31700
C  -12.20600 14.98100 42.30100
C  -10.83600 15.67400 42.41200
C  -14.03200 16.33700 43.59600
C  -12.26500 14.04300 41.02000
C  -13.17600 12.79400 41.05100
N  -8.16000 16.83600 42.73500
C  -8.38400 15.47400 42.96700
C  -7.13800 14.84300 43.34700
C  -6.16700 15.89000 43.20300
C  -6.88200 17.07300 42.88300
C  -6.99000 13.40300 43.66700
C  -4.74400 16.16600 43.26800
O  -3.73300 15.48100 43.49600
C  -4.62200 17.65300 42.94400
C  -3.92000 18.33300 44.05100
O  -2.94500 19.06600 43.89300
O  -4.38300 17.98400 45.26600
C  -3.45800 18.22000 46.39400
H  -9.10800 22.89400 41.67800
H  -13.89900 18.60100 41.76000
H  -9.95000 13.90100 42.89400
H  -4.93800 20.73500 42.76600
H  -6.70400 22.54700 41.10900
H  -7.21800 22.66000 43.98900
H  -6.60700 23.95700 43.00900
H  -5.50600 22.90200 43.71800
H  -3.93200 20.02100 40.89200
H  -4.57300 21.51900 40.24400
H  -6.65900 19.75600 39.59600
H  -5.11600 18.84100 39.43000
H  -10.87900 24.04700 41.18000
H  -12.43900 24.13300 41.74600
H  -12.13200 23.85900 40.04500
H  -15.27800 19.85600 42.52300
H  -15.38600 19.93400 40.68500
H  -16.31800 20.97700 41.78000
H  -13.86300 16.02800 41.50900
H  -12.39100 14.34700 43.16800
H  -14.92300 16.87000 43.26400
H  -13.55900 17.00500 44.31500
H  -14.40000 15.37700 43.96100
H  -11.27400 13.66900 40.76200
H  -12.52100 14.62800 40.13600
H  -13.44100 12.54000 42.07800
H  -12.52200 11.96500 40.77800
H  -14.06600 12.91600 40.43500
H  -6.00700 13.14300 43.27400
H  -7.72700 12.78100 43.15900
H  -7.01500 13.14600 44.72600
H  -4.01700 17.70000 42.03900
H  -3.35500 17.18300 46.71600
H  -3.92200 18.82800 47.17100
H  -2.47900 18.62700 46.14200

