158

Mg 54.29800 24.84900 45.38100
C  51.56200 26.94200 44.36000
C  52.70200 22.24300 43.63500
C  57.05600 23.20200 45.65400
C  55.79100 27.84700 46.75300
N  52.39700 24.76200 43.92200
C  51.39100 25.69600 43.80400
C  50.31000 25.09700 42.83000
C  50.52600 23.55000 43.00600
C  51.99700 23.45300 43.57400
C  49.48000 22.89600 43.95800
C  50.13100 25.58600 41.32600
C  51.44800 26.09700 40.65500
H  52.24700 25.09100 39.74700
N  54.80000 22.90400 44.78900
C  54.01900 22.02300 44.14200
C  54.88700 20.72800 43.89900
C  56.15300 21.03700 44.47500
C  56.02600 22.42500 45.03000
C  54.39800 19.51800 43.20400
C  57.32000 19.95000 44.37600
O  57.22100 18.98700 43.57900
C  58.63600 20.12200 45.09800
N  56.14400 25.49700 45.94000
C  57.12200 24.54500 46.04000
C  58.32000 25.12400 46.91400
C  58.03800 26.59800 47.03900
C  56.55000 26.66800 46.60800
C  58.48600 24.44400 48.29300
C  58.86400 27.58400 46.12500
C  58.26400 28.10600 44.75600
N  53.76500 26.89800 45.69700
C  54.40300 27.98800 46.30200
C  53.53700 29.16200 46.31600
C  52.46600 28.79700 45.51800
C  52.61700 27.42900 45.15800
C  53.73900 30.44600 46.99900
C  51.26600 29.30400 44.96100
O  50.80200 30.40100 44.99400
C  50.68000 28.14400 44.08700
C  50.65800 28.57700 42.65900
O  51.65100 28.93000 42.06800
O  49.40400 28.72400 42.16700
C  49.25900 29.19300 40.74500
H  52.28000 21.35200 43.16600
H  57.97600 22.69100 45.94900
H  56.22800 28.74200 47.20000
H  49.33700 25.33600 43.26100
H  50.65200 22.99300 42.07800
H  48.74800 23.52500 44.46500
H  50.00900 22.30100 44.70100
H  49.03100 22.07400 43.40000
H  49.27300 26.24500 41.19200
H  49.78700 24.67700 40.83300
H  52.23300 26.24300 41.39800
H  51.38500 27.11200 40.26400
H  55.00800 19.45400 42.30300
H  53.35200 19.52900 42.89800
H  54.45200 18.57100 43.74200
H  59.28500 19.31000 44.76900
H  58.52700 20.12300 46.18200
H  59.03200 21.08100 44.76500
H  59.25600 24.94500 46.38600
H  58.13600 26.90500 48.08000
H  59.56200 24.26900 48.26100
H  58.09900 23.42700 48.35000
H  58.16000 25.05600 49.13400
H  59.83100 27.12200 45.92800
H  59.07100 28.44600 46.76000
H  57.60800 27.38300 44.27100
H  59.13200 28.29800 44.12500
H  57.78600 29.05800 44.98900
H  53.57200 31.25900 46.29300
H  54.65800 30.69500 47.52900
H  52.92800 30.53100 47.72200
H  49.66000 27.93900 44.41000
H  50.08700 29.87000 40.53600
H  48.30200 29.71500 40.74800
H  49.06900 28.35100 40.07900
Mg 7.54300 54.49800 41.36200
C  6.92700 51.10500 40.43800
C  10.78800 54.19200 40.35000
C  7.74700 57.83800 41.54300
C  4.00900 54.69700 41.98300
N  8.60500 52.87800 40.31400
C  8.21400 51.60700 40.10700
C  9.30400 50.89400 39.28000
C  10.63800 51.61300 39.68200
C  10.01200 52.98300 40.22800
C  11.50400 50.93300 40.74300
C  9.00500 51.06300 37.74500
C  9.29900 49.78600 36.86800
H  8.77400 49.76400 35.43200
N  9.12200 55.83200 41.18100
C  10.38700 55.53000 40.72100
C  11.16600 56.71300 40.76400
C  10.36000 57.78200 41.18600
C  9.00500 57.20300 41.38300
C  12.66100 56.67400 40.35300
C  10.79200 59.13000 41.41300
O  11.99200 59.36200 41.29400
C  10.00400 60.26900 41.94400
N  6.03200 56.00100 41.71700
C  6.45700 57.33100 41.68400
C  5.18500 58.21400 41.77300
C  4.00600 57.21900 41.85700
C  4.68700 55.95000 41.83500
C  5.28000 59.41700 42.79500
C  2.99500 57.29800 40.66400
C  1.48600 57.35400 40.97900
N  5.81200 53.15200 41.46000
C  4.53600 53.39900 41.74100
C  3.84300 52.18400 41.71200
C  4.72300 51.23800 41.31500
C  5.93900 51.90900 40.98900
C  2.48000 51.98000 42.29800
C  4.96200 49.82400 41.02900
O  4.28100 48.80200 41.18100
C  6.35800 49.72100 40.28600
C  6.24800 49.32800 38.92300
O  5.68200 49.98600 38.07300
O  6.72200 48.02700 38.81100
C  6.41300 47.46600 37.45300
H  11.86200 54.19600 40.15500
H  7.81800 58.92700 41.58700
H  2.93400 54.60400 42.15100
H  9.16600 49.89200 39.68700
H  11.26000 51.77600 38.80100
H  11.71500 51.63000 41.55300
H  12.41300 50.46200 40.36800
H  10.81800 50.20700 41.17900
H  9.52300 51.92900 37.33300
H  7.94700 51.22500 37.53600
H  8.88100 48.94400 37.42000
H  10.37800 49.64300 36.81200
H  12.99800 57.61400 39.91600
H  12.94100 55.88400 39.65500
H  13.22300 56.44800 41.25900
H  9.61600 59.96200 42.91600
H  9.14000 60.59700 41.36700
H  10.60500 61.16200 42.11800
H  5.03000 58.74400 40.83300
H  3.46100 57.26500 42.79900
H  4.96900 60.29100 42.22400
H  6.27900 59.40600 43.23200
H  4.48300 59.38800 43.53800
H  3.18600 56.37200 40.12200
H  3.26700 58.09100 39.96800
H  1.06900 56.40500 40.64300
H  0.90800 58.09000 40.42000
H  1.34200 57.61200 42.02800
H  2.27600 50.91100 42.34600
H  1.77000 52.49100 41.64600
H  2.32000 52.48700 43.25000
H  6.95200 48.95600 40.78500
H  6.26900 46.44200 37.79800
H  7.25600 47.60200 36.77500
H  5.50600 47.83600 36.97500

