158

Mg 53.78700 23.90600 44.75700
C  51.50500 26.39400 43.78600
C  51.79000 21.59100 43.28500
C  56.34100 21.74400 45.34300
C  55.91200 26.52000 45.61300
N  51.93000 24.00400 43.65300
C  51.21800 25.12400 43.28100
C  49.92200 24.81500 42.46400
C  49.89700 23.25300 42.69300
C  51.27000 22.87700 43.16700
C  48.66600 22.70700 43.50400
C  50.00800 25.18300 40.91500
C  51.45200 25.67500 40.43200
H  51.55500 26.18300 38.96800
N  54.07800 21.95400 44.34700
C  53.08700 21.13100 43.87700
C  53.53200 19.71200 44.02400
C  54.83500 19.69400 44.56500
C  55.13900 21.14700 44.78200
C  52.64200 18.51200 43.62100
C  55.62600 18.42100 44.93600
O  55.29300 17.26000 44.68400
C  56.89100 18.52200 45.78100
N  55.87500 24.15900 45.19500
C  56.67700 23.07800 45.51300
C  58.16500 23.46800 45.77100
C  57.97100 25.05200 45.80800
C  56.51800 25.26200 45.49100
C  58.96200 22.74100 46.91300
C  58.96500 25.88200 44.91500
C  60.43800 26.16800 45.35700
N  53.63700 26.00900 44.95800
C  54.56600 26.95300 45.31200
C  53.95500 28.27700 45.45400
C  52.69400 28.06200 44.90000
C  52.55700 26.72100 44.55000
C  54.48300 29.55600 45.98400
C  51.46500 28.73600 44.47300
O  51.10900 29.89200 44.68300
C  50.56700 27.63600 43.85000
C  50.04100 28.12500 42.52500
O  50.74100 28.58400 41.64900
O  48.70400 27.92500 42.44100
C  48.00800 28.53700 41.28400
H  51.27000 20.76800 42.78900
H  57.17300 21.09900 45.63300
H  56.54800 27.29500 46.04500
H  48.95900 25.22300 42.77100
H  49.82400 22.65500 41.78500
H  48.12500 21.90000 43.00900
H  47.98300 23.49800 43.81200
H  48.99800 22.22800 44.42500
H  49.25000 25.92300 40.65900
H  49.73900 24.31000 40.31900
H  52.15500 24.85000 40.54800
H  51.81800 26.47200 41.08000
H  51.57300 18.72200 43.59200
H  52.62900 17.66100 44.30200
H  52.86300 18.12000 42.62800
H  56.62500 19.06600 46.68700
H  57.68500 19.02500 45.22900
H  57.20900 17.54300 46.13900
H  58.79400 23.34700 44.88900
H  58.06100 25.24900 46.87600
H  58.50500 21.77400 47.12800
H  59.04900 23.43700 47.74800
H  59.95400 22.51900 46.51900
H  58.53000 26.86900 44.75800
H  59.08300 25.32500 43.98500
H  60.48100 27.17500 45.77200
H  61.21100 25.99100 44.60900
H  60.58500 25.46900 46.18000
H  53.62800 30.18400 45.73200
H  55.42200 29.80400 45.48900
H  54.55700 29.40000 47.06000
H  49.76200 27.38300 44.54000
H  48.52600 29.43600 40.95100
H  46.99800 28.78700 41.61000
H  47.96300 27.84500 40.44300
Mg -6.38700 25.92500 25.69600
C  -4.37700 26.98100 28.31200
C  -7.76800 23.59300 27.85500
C  -7.87700 24.25500 22.96900
C  -4.73100 28.01300 23.62500
N  -6.03600 25.30000 27.81500
C  -5.29200 26.02800 28.74800
C  -5.45400 25.41900 30.12800
C  -6.31300 24.16200 29.80200
C  -6.82500 24.48900 28.41900
C  -5.48100 22.91600 29.85500
C  -6.15000 26.51000 30.98400
C  -5.63200 26.59000 32.43300
H  -4.91600 25.41900 33.12800
N  -7.81900 24.26000 25.49800
C  -8.27800 23.49400 26.53700
C  -9.29900 22.52000 26.06000
C  -9.30500 22.65200 24.60700
C  -8.26400 23.76300 24.29700
C  -10.02500 21.67900 27.02700
C  -10.18400 21.98300 23.50900
O  -10.05500 22.09700 22.31100
C  -11.31700 21.07500 24.02800
N  -6.35900 26.05300 23.64400
C  -6.97200 25.25700 22.70200
C  -6.89800 25.82300 21.27800
C  -5.78200 26.92000 21.51200
C  -5.64300 27.05000 23.01500
C  -6.40100 24.68500 20.20100
C  -6.11100 28.35600 20.87200
C  -5.18100 28.90300 19.76200
N  -4.86000 27.33300 25.86900
C  -4.36900 28.15000 24.94200
C  -3.49900 29.08300 25.61300
C  -3.42000 28.65900 26.92300
C  -4.29300 27.57900 27.04100
C  -2.84500 30.24700 24.93700
C  -2.83400 28.84300 28.22700
O  -1.97900 29.62700 28.66700
C  -3.46400 27.81200 29.18400
C  -2.32400 27.05200 29.73100
O  -1.67700 26.21200 29.13900
O  -2.13700 27.47400 31.03500
C  -1.11800 26.77100 31.81000
H  -8.31600 23.04900 28.62700
H  -8.38000 23.84400 22.09100
H  -4.06700 28.52800 22.92800
H  -4.51000 25.08100 30.55400
H  -7.23600 24.05400 30.37100
H  -5.37500 22.36300 28.92200
H  -5.81600 22.12900 30.53000
H  -4.46300 23.11700 30.19100
H  -7.20700 26.24900 31.03300
H  -6.11200 27.53600 30.61800
H  -6.49300 26.88900 33.03100
H  -4.93400 27.42100 32.53200
H  -9.56200 20.70400 27.17500
H  -11.06200 21.45700 26.77600
H  -10.04900 22.07500 28.04300
H  -11.75600 20.60500 23.14800
H  -11.96700 21.78100 24.54400
H  -10.98800 20.25300 24.66400
H  -7.84900 26.29000 21.01900
H  -4.90200 26.52400 21.00500
H  -5.48600 24.25500 20.60800
H  -6.18200 25.14500 19.23800
H  -7.15000 23.89400 20.14300
H  -6.03200 29.04100 21.71600
H  -7.13900 28.31400 20.51300
H  -4.76900 29.87700 20.02300
H  -5.73700 29.09300 18.84400
H  -4.33100 28.26300 19.52700
H  -2.29200 30.70400 25.75800
H  -3.47700 31.04400 24.54600
H  -2.10500 29.87400 24.22800
H  -4.09600 28.38800 29.86000
H  -0.34700 27.45000 32.17400
H  -0.68000 25.94900 31.24400
H  -1.61800 26.41000 32.70800

