158

Mg -1.62400 16.66700 26.13000
C  -1.83800 14.50200 28.93000
C  -2.20100 19.31400 28.28500
C  -1.20400 18.75100 23.54700
C  -1.84400 13.97100 24.14400
N  -2.16500 16.87700 28.31700
C  -2.09200 15.89500 29.27100
C  -2.28400 16.55900 30.60100
C  -2.77500 17.93400 30.39700
C  -2.40600 18.05500 28.87500
C  -4.28200 18.11900 30.61700
C  -1.10300 16.44200 31.56800
C  -1.48300 15.76300 32.90000
H  -2.13000 16.53700 34.06000
N  -1.51400 18.82400 25.92100
C  -1.83800 19.64100 26.95500
C  -1.64300 20.98100 26.44000
C  -1.26900 20.87600 25.06200
C  -1.33000 19.45100 24.75100
C  -1.81400 22.25400 27.20600
C  -0.82200 21.97000 24.15800
O  -0.40800 21.64400 23.04200
C  -0.86200 23.44500 24.57500
N  -1.91000 16.40700 24.08600
C  -1.54700 17.36200 23.19500
C  -1.57600 16.86100 21.75900
C  -1.65400 15.33000 22.07400
C  -1.70700 15.19100 23.55800
C  -2.82600 17.23000 20.88800
C  -0.35800 14.58500 21.48400
C  0.74400 14.17800 22.35600
N  -1.83100 14.69300 26.39800
C  -1.87500 13.66700 25.45800
C  -1.93800 12.44000 26.09100
C  -1.88600 12.69800 27.44900
C  -1.77400 14.08600 27.55900
C  -2.00900 11.17400 25.45800
C  -1.82500 12.04400 28.78200
O  -1.71500 10.86200 29.15100
C  -1.95000 13.27400 29.80700
C  -0.99400 13.17800 31.00300
O  0.20000 13.42400 30.91300
O  -1.59700 12.49000 31.99800
C  -0.73000 12.14900 33.09000
H  -2.47500 20.23300 28.80700
H  -1.07100 19.43800 22.70800
H  -1.95200 13.04900 23.56900
H  -3.09900 15.94500 30.98500
H  -2.38200 18.75000 31.00400
H  -4.46000 19.17200 30.83500
H  -4.64900 17.36500 31.31400
H  -4.77200 17.92000 29.66400
H  -0.80600 17.45900 31.82500
H  -0.23200 16.00500 31.07900
H  -0.56400 15.32200 33.28700
H  -2.15100 14.91300 32.76100
H  -2.60600 22.78600 26.67900
H  -0.88300 22.81700 27.26700
H  -2.22800 22.04900 28.19300
H  -1.89900 23.65800 24.83400
H  -0.61600 23.91200 23.62200
H  -0.09300 23.40600 25.34700
H  -0.61900 17.12900 21.31100
H  -2.46500 14.84100 21.53500
H  -2.65200 17.02500 19.83100
H  -3.07200 18.28700 20.98700
H  -3.71700 16.75300 21.29500
H  0.01000 15.24600 20.70000
H  -0.78200 13.77800 20.88500
H  0.60000 14.62400 23.34100
H  1.64100 14.68100 21.99600
H  0.81100 13.09800 22.48900
H  -0.98200 10.83200 25.33500
H  -2.46500 11.07300 24.47300
H  -2.50600 10.43000 26.08100
H  -2.94100 13.20000 30.25500
H  0.24800 11.75200 32.81800
H  -1.17000 11.42000 33.77000
H  -0.57900 13.04200 33.69800
Mg 25.57200 -7.59900 47.40000
C  27.84800 -5.27900 46.39000
C  23.19200 -6.34900 45.12500
C  23.57100 -10.14500 48.05600
C  28.20600 -9.13700 49.18300
N  25.61400 -6.04300 45.80200
C  26.64600 -5.14500 45.60700
C  26.37800 -4.25800 44.43300
C  24.83600 -4.48400 44.18000
C  24.47500 -5.69200 45.10500
C  23.82700 -3.31700 44.39100
C  27.22700 -4.47200 43.20200
C  28.00100 -3.25700 42.62400
H  27.62300 -2.80800 41.20100
N  23.54600 -8.17300 46.72000
C  22.75800 -7.51300 45.81400
C  21.51600 -8.17900 45.60600
C  21.58000 -9.36000 46.49300
C  22.89600 -9.20600 47.18600
C  20.37400 -7.69400 44.67600
C  20.47600 -10.41200 46.65400
O  19.47400 -10.39100 46.02000
C  20.69100 -11.54700 47.56500
N  25.92800 -9.36600 48.25300
C  24.88500 -10.26000 48.49500
C  25.28900 -11.34100 49.44000
C  26.84700 -11.21700 49.55500
C  27.01000 -9.79100 48.97500
C  24.53800 -11.26900 50.80800
C  27.59400 -12.24100 48.78800
C  28.48800 -13.25700 49.57500
N  27.61700 -7.25500 47.89500
C  28.53200 -7.90300 48.69500
C  29.75800 -7.12600 48.74600
C  29.52000 -6.10600 47.91200
C  28.24100 -6.22200 47.39800
C  31.06200 -7.46400 49.44400
C  30.08800 -4.85300 47.40600
O  31.15200 -4.26400 47.66900
C  29.02500 -4.23800 46.32200
C  28.56200 -2.87500 46.60800
O  27.75900 -2.58700 47.49700
O  28.92100 -1.99200 45.60600
C  28.18400 -0.68400 45.72500
H  22.53200 -5.88300 44.39000
H  22.92900 -10.93200 48.45900
H  28.95800 -9.58500 49.83600
H  26.52700 -3.25800 44.84100
H  24.71600 -4.78400 43.13900
H  23.25300 -3.40500 45.31300
H  23.17200 -3.31500 43.51900
H  24.22900 -2.30700 44.30800
H  26.63400 -4.84100 42.36500
H  27.85000 -5.34700 43.38800
H  29.06900 -3.42300 42.76400
H  27.93000 -2.41600 43.31300
H  20.31900 -6.60600 44.70700
H  19.46800 -8.01300 45.19100
H  20.41600 -8.08800 43.66100
H  20.73300 -11.31600 48.63000
H  21.60100 -12.05900 47.25400
H  19.92200 -12.31200 47.45600
H  24.88800 -12.15300 48.83300
H  27.21800 -11.05900 50.56700
H  23.80900 -10.45900 50.82500
H  25.23800 -11.04300 51.61200
H  24.11200 -12.19600 51.19200
H  28.09200 -11.75300 47.95000
H  26.90700 -12.88300 48.23600
H  29.54200 -13.10000 49.34500
H  28.41100 -14.30100 49.27000
H  28.41900 -13.02600 50.63800
H  31.74700 -7.89700 48.71500
H  30.78400 -8.26300 50.13200
H  31.54400 -6.61200 49.92400
H  29.63000 -4.21300 45.41600
H  27.12500 -0.93600 45.78300
H  28.42200 -0.17600 44.79000
H  28.53000 -0.10800 46.58300

