158

Mg 29.97500 57.68000 38.77100
C  27.15300 55.68800 38.35200
C  31.88900 54.80100 38.26600
C  32.76300 59.73900 38.83600
C  27.92800 60.61400 39.01800
N  29.59800 55.44000 38.35500
C  28.33800 54.93200 38.09900
C  28.42100 53.38700 37.80000
C  29.90600 53.15300 37.86200
C  30.52700 54.51300 38.31000
C  30.40000 51.99100 38.72600
C  27.71300 52.86000 36.57600
C  28.31900 53.36100 35.20300
H  27.49000 53.85600 34.08000
N  32.02100 57.35400 38.54400
C  32.63500 56.08100 38.32900
C  34.04400 56.22800 38.21100
C  34.34100 57.60300 38.37000
C  33.00600 58.29200 38.64600
C  34.99700 55.10700 37.99200
C  35.77200 58.24700 38.26800
O  36.78600 57.53000 38.10700
C  36.01900 59.69900 38.28200
N  30.30900 59.90900 38.76500
C  31.51500 60.41400 38.93600
C  31.41500 61.89000 39.28800
C  29.86200 62.16600 39.29900
C  29.31500 60.78500 39.07800
C  32.12500 62.58900 40.56300
C  29.47400 63.28000 38.16400
C  29.55800 64.77400 38.54400
N  28.00300 58.14100 38.67100
C  27.35200 59.36800 38.70100
C  25.95700 59.03300 38.58300
C  25.84600 57.63500 38.48900
C  27.10800 57.09100 38.46600
C  24.83400 60.04000 38.63000
C  24.86100 56.55000 38.52800
O  23.62100 56.44100 38.69400
C  25.63500 55.24400 38.28900
C  25.12700 54.12900 39.18200
O  25.28900 54.03900 40.39900
O  24.29700 53.22400 38.49000
C  23.55100 52.25300 39.31700
H  32.45900 53.91900 37.96600
H  33.62100 60.39800 38.98500
H  27.21000 61.42000 39.18200
H  27.89000 52.99900 38.66900
H  30.44800 52.99800 36.92900
H  29.56800 51.48200 39.21400
H  31.14200 52.32700 39.45000
H  30.81700 51.17000 38.14300
H  26.67900 53.19200 36.66800
H  27.73300 51.77000 36.58300
H  28.90600 52.53200 34.80600
H  29.00200 54.17200 35.45500
H  35.85500 55.44400 37.41000
H  34.57900 54.24900 37.46400
H  35.31300 54.74000 38.96800
H  35.76400 60.07700 39.27300
H  35.48300 60.19700 37.47400
H  37.05100 59.97400 38.06400
H  31.86000 62.47500 38.48300
H  29.57000 62.62700 40.24300
H  31.45700 62.71200 41.41500
H  32.25500 63.57600 40.11900
H  33.07500 62.11000 40.79900
H  28.48400 63.11200 37.74000
H  30.18600 63.02600 37.37800
H  29.62500 64.97400 39.61300
H  28.72900 65.38300 38.18400
H  30.54700 65.18000 38.33000
H  24.92800 60.70900 39.48500
H  23.93700 59.43300 38.75200
H  24.77100 60.71500 37.77700
H  25.35800 54.98200 37.26800
H  24.32900 51.61200 39.73300
H  22.86300 51.65200 38.72200
H  22.95400 52.73800 40.09000
Mg 17.32900 51.13400 25.96000
C  19.23800 50.27500 28.75100
C  14.80000 52.10900 28.20600
C  15.59100 52.16800 23.38700
C  19.66500 49.72200 23.84500
N  17.22300 51.32900 28.27600
C  18.07600 50.88800 29.17500
C  17.54000 51.14700 30.64800
C  16.02100 51.42500 30.46700
C  15.98300 51.64800 28.84200
C  15.09400 50.28900 30.82600
C  18.27400 52.20800 31.41300
C  17.72400 52.57200 32.83700
H  16.77900 51.65800 33.61700
N  15.41500 51.91400 25.84800
C  14.62800 52.36000 26.83200
C  13.67500 53.25000 26.32900
C  13.79700 53.28900 24.87800
C  14.99100 52.43100 24.63800
C  12.60600 53.98100 27.16200
C  13.05000 54.05500 23.78100
O  13.31700 53.87800 22.60200
C  11.78400 54.84500 24.07600
N  17.48600 50.68800 23.87900
C  16.73200 51.49500 23.06000
C  17.28500 51.35400 21.60200
C  18.79800 50.81900 21.83000
C  18.64500 50.34200 23.29100
C  16.46300 50.59600 20.55600
C  19.97300 51.86000 21.62200
C  21.18300 51.35300 20.87600
N  19.13600 50.12500 26.18100
C  19.94400 49.54000 25.27700
C  21.12000 48.97500 25.97100
C  20.88600 49.12700 27.33200
C  19.65100 49.95800 27.40600
C  22.26200 48.41700 25.29000
C  21.37000 48.92900 28.66300
O  22.37800 48.37600 29.10000
C  20.27200 49.60000 29.65600
C  19.62100 48.60400 30.57600
O  18.73600 47.84400 30.30100
O  20.06300 48.83200 31.88700
C  19.31900 48.14500 32.92500
H  13.97000 52.29300 28.89100
H  15.19500 52.66100 22.49700
H  20.44700 49.43600 23.13900
H  17.73400 50.21100 31.17200
H  15.75400 52.36700 30.94500
H  14.17100 50.64800 31.28100
H  15.63600 49.60500 31.47900
H  14.68400 49.75700 29.96800
H  18.37200 53.12800 30.83700
H  19.29100 51.81800 31.46100
H  17.24200 53.52300 32.60900
H  18.55800 52.76300 33.51200
H  12.92600 55.01200 27.30900
H  12.39800 53.48400 28.10900
H  11.62900 53.97400 26.67900
H  11.94900 55.66600 24.77400
H  11.21400 54.11600 24.65200
H  11.06100 54.92900 23.26500
H  17.37200 52.39000 21.27700
H  18.86700 49.92600 21.20900
H  16.55600 51.00900 19.55200
H  15.40200 50.64500 20.80100
H  16.83400 49.57100 20.52800
H  20.17100 52.32900 22.58600
H  19.58000 52.68300 21.02500
H  21.32500 52.01900 20.02500
H  21.24200 50.31600 20.54400
H  22.07500 51.60100 21.45100
H  22.12800 48.38600 24.20900
H  22.32200 47.38900 25.64500
H  23.21000 48.88600 25.55500
H  20.69900 50.36700 30.30200
H  19.14200 48.90700 33.68400
H  20.11800 47.52800 33.33800
H  18.42100 47.56000 32.72900

