158

Mg 7.86600 2.06400 28.25300
C  9.34400 0.66800 31.06000
C  5.64100 3.80100 30.29600
C  6.45000 3.37600 25.54700
C  9.56500 -0.23600 26.30800
N  7.67200 2.27200 30.40900
C  8.34200 1.58800 31.37800
C  8.14700 2.27500 32.75800
C  6.81400 3.05100 32.53900
C  6.69900 3.09700 30.99600
C  5.54100 2.35200 33.16500
C  9.38900 3.10700 33.26100
C  9.91000 2.90500 34.69300
H  9.09400 2.20400 35.75400
N  6.33900 3.46200 27.95600
C  5.53900 4.02800 28.95100
C  4.50100 4.86100 28.30000
C  4.75100 4.80700 26.88900
C  5.87300 3.87500 26.76600
C  3.40800 5.59600 29.04700
C  4.00200 5.50000 25.80700
O  4.13300 5.24600 24.59100
C  2.91100 6.54000 26.16900
N  7.84400 1.54600 26.19800
C  7.36400 2.36700 25.31100
C  7.88800 2.03600 23.87800
C  8.87100 0.87000 24.16800
C  8.72600 0.66600 25.66100
C  6.65800 1.75400 22.95000
C  10.31300 0.99100 23.62500
C  11.42000 1.70500 24.48900
N  9.16900 0.43400 28.55500
C  9.81900 -0.34000 27.65300
C  10.77700 -1.14600 28.41300
C  10.65100 -0.77000 29.76600
C  9.63900 0.22000 29.80000
C  11.66300 -2.17400 27.83100
C  11.22700 -0.93100 31.09100
O  12.10200 -1.63300 31.50900
C  10.41900 -0.01900 31.98200
C  9.89600 -0.93500 33.05800
O  9.17400 -1.87500 32.82400
O  10.50500 -0.62300 34.23000
C  10.36400 -1.70600 35.17600
H  4.92800 4.27000 30.97800
H  5.98600 3.89100 24.70300
H  10.16100 -0.91700 25.69800
H  7.89900 1.39200 33.34800
H  6.96400 4.02000 33.01500
H  5.23700 2.95300 34.02200
H  5.75000 1.33700 33.50300
H  4.65200 2.28900 32.53700
H  9.23600 4.18400 33.19700
H  10.22200 3.03800 32.56100
H  10.02600 3.88700 35.15300
H  10.91200 2.48000 34.74300
H  3.48500 6.66600 29.23900
H  3.34400 5.10700 30.01800
H  2.43200 5.35100 28.62700
H  2.09300 6.17900 26.79200
H  2.46000 6.74000 25.19700
H  3.19800 7.54300 26.48600
H  8.45400 2.94400 23.67100
H  8.35200 -0.05900 23.93300
H  6.65000 2.57500 22.23400
H  5.67600 1.77500 23.42200
H  6.73300 0.80200 22.42400
H  10.22600 1.54500 22.69100
H  10.79400 0.05000 23.35700
H  11.12000 2.06400 25.47300
H  11.80100 2.50700 23.85600
H  12.25400 1.00800 24.57400
H  11.84200 -2.95300 28.57200
H  12.58300 -1.62400 27.63000
H  11.21700 -2.56900 26.91800
H  11.14400 0.75000 32.24600
H  9.73600 -2.52600 34.82800
H  9.94100 -1.38000 36.12600
H  11.31000 -2.06000 35.58700
Mg 41.48300 41.83500 26.79900
C  40.84200 44.23100 29.57400
C  42.48100 39.73100 29.24900
C  42.51500 39.81300 24.46600
C  41.18600 44.59000 24.59200
N  41.75700 42.05500 29.19700
C  41.30300 43.01400 30.08400
C  41.24600 42.46600 31.51600
C  41.80500 41.00100 31.34200
C  42.02700 40.90300 29.82100
C  43.14300 40.76600 32.06700
C  39.80600 42.52100 32.05500
C  39.59700 43.24600 33.38800
H  38.75600 42.50600 34.45400
N  42.29300 39.93800 26.78400
C  42.61100 39.26100 27.93800
C  43.13600 37.97300 27.57400
C  42.99900 37.84500 26.13500
C  42.60400 39.21700 25.72400
C  43.56700 36.96700 28.53900
C  43.23500 36.77800 25.13100
O  43.28500 36.94100 23.91500
C  43.53600 35.35900 25.69600
N  41.94700 42.23300 24.85600
C  42.22300 41.12700 24.02600
C  42.23700 41.56300 22.51300
C  41.72400 43.04900 22.63900
C  41.57800 43.31200 24.13600
C  43.57900 41.29900 21.75000
C  40.50600 43.43000 21.87700
C  39.23500 42.97200 22.49900
N  41.04600 43.94100 26.94900
C  40.97000 44.91000 25.99600
C  40.69400 46.15900 26.72800
C  40.51400 45.86700 28.07400
C  40.82500 44.53500 28.18700
C  40.36700 47.37300 25.93500
C  40.08300 46.54800 29.29000
O  39.70100 47.71000 29.48000
C  40.23600 45.43100 30.39300
C  41.11000 46.03200 31.33700
O  42.31800 46.06000 31.25500
O  40.41600 46.60500 32.36800
C  41.20200 47.06500 33.51500
H  42.68400 38.98300 30.01800
H  42.71700 39.18600 23.59600
H  40.96900 45.40500 23.89800
H  41.89200 43.10900 32.11400
H  41.09200 40.30000 31.77600
H  43.93900 40.34900 31.45100
H  42.89600 40.16800 32.94500
H  43.57700 41.72600 32.34700
H  39.40000 41.53900 32.29600
H  39.14400 42.92600 31.29000
H  38.97600 44.12900 33.23600
H  40.51800 43.65200 33.80600
H  44.17800 37.46000 29.29500
H  44.25600 36.24700 28.09800
H  42.69300 36.51900 29.01300
H  42.76800 35.32500 26.46800
H  44.52100 35.33600 26.16200
H  43.45500 34.67900 24.84800
H  41.35600 41.04400 22.13600
H  42.52500 43.60400 22.15000
H  43.34300 40.48300 21.06700
H  44.35900 41.01400 22.45600
H  43.69900 42.21700 21.17500
H  40.68100 42.90500 20.93800
H  40.37100 44.45300 21.52400
H  38.68200 42.46800 21.70500
H  38.54900 43.78700 22.73100
H  39.34600 42.19900 23.26000
H  40.64700 48.27800 26.47500
H  39.36400 47.48900 25.52500
H  41.03400 47.24700 25.08300
H  39.26700 45.18400 30.82800
H  42.09300 47.67900 33.37700
H  41.41100 46.13400 34.04100
H  40.44500 47.59600 34.09100

