158

Mg 48.13900 34.74200 27.26200
C  46.35900 33.19100 29.80200
C  48.40500 37.58100 29.21000
C  49.53700 36.40500 24.55600
C  47.52700 32.05900 25.08200
N  47.57800 35.23200 29.26400
C  46.92500 34.38400 30.16500
C  47.02500 34.95200 31.57100
C  47.24500 36.53100 31.33600
C  47.74100 36.48700 29.82100
C  45.98100 37.37800 31.50200
C  48.21400 34.24000 32.34200
C  48.07400 34.06800 33.91100
H  48.82000 35.09700 34.76300
N  48.75600 36.77500 26.87600
C  48.77400 37.76500 27.83200
C  49.39800 39.02700 27.24600
C  49.92600 38.57100 25.99300
C  49.41100 37.20000 25.73100
C  49.52000 40.26900 28.12000
C  50.81300 39.35700 25.01400
O  51.30500 38.91300 23.96700
C  51.06300 40.84300 25.30700
N  48.58800 34.19000 25.09900
C  49.11200 35.09400 24.23200
C  49.16900 34.51600 22.83600
C  48.58800 33.08400 23.13800
C  48.15000 33.09100 24.50500
C  48.28200 35.40200 21.85400
C  49.41500 31.91900 22.63300
C  49.68700 31.87300 21.10500
N  47.10000 32.91300 27.36500
C  46.98100 31.96500 26.39500
C  46.17800 30.91200 26.94200
C  45.85700 31.30800 28.27400
C  46.50800 32.52600 28.50500
C  45.73100 29.69900 26.22500
C  45.14400 31.01500 29.56500
O  44.61500 29.95900 29.92700
C  45.29800 32.28500 30.48100
C  45.43100 31.95900 31.90100
O  46.32100 31.29900 32.44400
O  44.35900 32.48900 32.53100
C  44.31600 32.32900 33.99800
H  48.51600 38.40500 29.91800
H  49.98700 36.88300 23.68400
H  47.27200 31.22300 24.42700
H  46.06300 34.79700 32.05900
H  48.00600 36.73600 32.08900
H  46.12700 37.99800 32.38700
H  45.08500 36.75900 31.51400
H  45.90000 38.02600 30.62900
H  49.09200 34.81100 32.04100
H  48.38300 33.23500 31.95700
H  48.49000 33.14500 34.31300
H  47.01100 34.15600 34.13600
H  49.52000 41.16700 27.50200
H  50.48000 40.23300 28.63500
H  48.66000 40.34900 28.78500
H  51.57900 41.23400 24.43000
H  51.64900 40.87600 26.22500
H  50.13700 41.37600 25.52100
H  50.18000 34.53300 22.42900
H  47.67100 33.09600 22.54800
H  47.38400 34.83200 21.61700
H  48.82400 35.55000 20.92000
H  48.06700 36.33100 22.38300
H  48.94500 30.99800 22.97800
H  50.35900 31.96200 23.17600
H  49.29100 32.75600 20.60300
H  49.38900 30.93400 20.63700
H  50.77100 31.94600 21.01700
H  45.38100 29.00500 26.98900
H  46.54500 29.16400 25.73600
H  44.95400 29.91000 25.49100
H  44.32000 32.76300 30.41700
H  43.38700 32.74600 34.38500
H  45.05000 32.91700 34.54900
H  44.42700 31.27400 34.25000
Mg 0.64800 42.63400 25.75500
C  1.87500 42.68600 29.03400
C  -2.31300 41.46700 27.01500
C  -0.48100 42.18900 22.64600
C  3.85000 43.40700 24.58400
N  -0.17500 42.35500 27.78700
C  0.53500 42.58800 28.97400
C  -0.38600 42.27200 30.16600
C  -1.77600 41.81500 29.50400
C  -1.42500 41.88900 27.98900
C  -2.33500 40.39400 29.90100
C  -0.54900 43.63500 31.02900
C  -0.97900 43.49000 32.47200
H  -1.41000 42.07100 33.05600
N  -1.21800 42.01500 24.94400
C  -2.28700 41.57600 25.62900
C  -3.37100 41.36600 24.66000
C  -2.84200 41.41100 23.32100
C  -1.42400 41.81200 23.54900
C  -4.67400 40.71800 25.03200
C  -3.43100 41.08900 22.05300
O  -2.92300 41.15700 20.95600
C  -4.79900 40.49300 22.00400
N  1.60000 42.63200 23.91500
C  0.84500 42.61900 22.77900
C  1.64500 43.03000 21.52400
C  3.00300 43.45500 22.19000
C  2.78700 43.23300 23.67300
C  1.72300 41.89900 20.45900
C  3.65500 44.78900 21.73900
C  2.89300 46.14700 21.59000
N  2.52900 42.96600 26.62300
C  3.76300 43.21800 26.02200
C  4.74500 43.15900 27.06700
C  4.09800 43.01600 28.27600
C  2.72000 42.91000 27.94600
C  6.18300 43.40600 26.89100
C  4.25900 42.99800 29.75600
O  5.25300 43.26500 30.35500
C  2.84400 42.59200 30.30000
C  2.91900 41.24100 30.74400
O  3.42600 40.31500 30.10800
O  2.33700 41.10200 31.96200
C  1.98700 39.76600 32.47400
H  -3.23700 41.03400 27.40500
H  -0.83100 42.05800 21.62000
H  4.87600 43.65900 24.30600
H  -0.15500 41.40600 30.78700
H  -2.59600 42.48900 29.75300
H  -1.61600 39.91300 30.56500
H  -2.51300 39.79200 29.01000
H  -3.18700 40.53000 30.56800
H  -1.29400 44.32100 30.62900
H  0.37500 44.21300 31.06200
H  -1.81700 44.10500 32.80000
H  -0.11500 43.72100 33.09500
H  -5.02900 39.94700 24.34900
H  -5.46300 41.47100 25.02700
H  -4.59800 40.09200 25.92100
H  -5.55600 41.08000 22.52400
H  -4.88600 39.44400 22.28800
H  -5.12100 40.48700 20.96300
H  1.15100 43.93000 21.16000
H  3.76500 42.71100 21.95500
H  1.13100 42.25200 19.61400
H  1.28600 41.00100 20.89400
H  2.77000 41.69600 20.23200
H  4.08900 44.49600 20.78300
H  4.47500 44.95100 22.43900
H  2.92600 46.42800 20.53800
H  3.44500 46.95800 22.06600
H  1.86300 46.05000 21.93200
H  6.33900 44.48000 26.98300
H  6.63200 43.11400 25.94200
H  6.65200 42.81400 27.67800
H  2.50700 43.24500 31.10500
H  2.26800 39.57100 33.50900
H  2.47500 38.95900 31.92800
H  0.89900 39.72000 32.45100

