158

Mg 45.62000 3.70600 46.97800
C  43.26300 6.25900 46.55000
C  43.09500 1.47600 46.91500
C  47.86200 1.30400 47.17500
C  48.09400 6.08800 46.46300
N  43.47400 3.90400 46.67100
C  42.67800 4.99500 46.69700
C  41.23000 4.58800 46.63000
C  41.26500 3.09000 47.15600
C  42.71200 2.80000 46.85700
C  40.78200 2.91900 48.59200
C  40.64900 4.64100 45.18300
C  39.51700 5.63600 44.81700
H  39.82500 6.52500 43.60500
N  45.47600 1.67300 47.01300
C  44.37400 0.91700 47.02600
C  44.69400 -0.48700 47.16300
C  46.11500 -0.56800 47.26600
C  46.54800 0.83500 47.08700
C  43.63300 -1.57700 46.99200
C  46.98700 -1.91500 47.32800
O  46.39200 -3.00600 47.27600
C  48.52700 -1.88200 47.45100
N  47.61200 3.68300 46.68100
C  48.33400 2.65200 47.02800
C  49.83600 2.85800 47.30300
C  49.88900 4.29800 46.68000
C  48.48600 4.77800 46.53600
C  50.15400 2.69100 48.80600
C  50.77000 4.58900 45.40600
C  49.95900 4.74300 44.10200
N  45.71700 5.77400 46.62500
C  46.76200 6.62600 46.44400
C  46.33900 8.02400 46.36700
C  44.96000 7.91600 46.35200
C  44.65000 6.52100 46.52400
C  47.32100 9.20200 46.26000
C  43.64000 8.63600 46.41700
O  43.47200 9.81900 46.33600
C  42.56800 7.67300 46.53500
C  41.75000 7.91300 47.84900
O  42.03200 7.44500 48.94500
O  40.61500 8.52900 47.49600
C  39.61800 8.89200 48.48600
H  42.26600 0.79300 47.11300
H  48.65700 0.61600 47.47100
H  48.84200 6.87400 46.58400
H  40.74800 5.17200 47.41300
H  40.59400 2.46700 46.56400
H  39.89100 2.29600 48.50700
H  40.46100 3.85000 49.06000
H  41.49100 2.45000 49.27400
H  40.33400 3.64800 44.86200
H  41.54300 4.96300 44.64900
H  39.38000 6.25000 45.70700
H  38.67500 4.94800 44.74500
H  43.65700 -1.87300 45.94400
H  42.69600 -1.16400 47.36700
H  44.00600 -2.39300 47.61100
H  48.72800 -1.40400 48.40900
H  49.02800 -1.37100 46.62800
H  48.84800 -2.92300 47.41400
H  50.42000 2.14500 46.72100
H  50.30000 4.86700 47.51400
H  50.81300 1.82300 48.83100
H  49.21000 2.55700 49.33400
H  50.80700 3.54200 48.99900
H  51.50500 3.80600 45.22000
H  51.25900 5.55000 45.57000
H  50.61900 4.68900 43.23600
H  49.52000 5.74000 44.14400
H  49.21000 3.96000 43.98900
H  47.44500 9.51100 47.29800
H  46.71800 9.91200 45.69500
H  48.17800 9.30200 45.59400
H  41.79500 7.73400 45.76900
H  39.67800 9.96600 48.65900
H  39.64900 8.35900 49.43600
H  38.67600 8.67900 47.98000
Mg -10.27800 17.63500 40.61300
C  -6.71400 17.21800 40.88000
C  -9.82600 20.93800 39.79300
C  -13.38400 17.72700 39.56200
C  -10.47600 14.08100 40.70300
N  -8.45600 18.83600 40.31300
C  -7.13800 18.49900 40.44100
C  -6.22400 19.59600 39.87500
C  -7.20000 20.81800 40.16300
C  -8.61700 20.16200 40.03800
C  -7.12000 21.40700 41.60800
C  -5.89000 19.36200 38.38600
C  -4.48700 18.85300 38.04000
H  -4.30200 17.45500 37.32000
N  -11.50000 19.13300 39.98500
C  -11.10900 20.45800 39.77400
C  -12.27800 21.27000 39.51500
C  -13.32700 20.30900 39.58300
C  -12.80000 18.98700 39.79000
C  -12.04900 22.77200 39.30100
C  -14.75100 20.74500 39.31700
O  -15.09000 21.88400 39.04800
C  -15.80200 19.84200 39.50500
N  -11.64800 16.06200 39.83900
C  -12.88000 16.43200 39.58900
C  -13.77200 15.18700 39.39800
C  -12.76400 14.01500 39.68800
C  -11.52500 14.75000 40.11200
C  -15.06700 15.11800 40.32900
C  -12.59400 13.14400 38.29900
C  -12.70600 11.61800 38.44900
N  -8.96200 15.99400 40.96300
C  -9.22600 14.61600 41.03500
C  -7.96400 13.93100 41.19300
C  -6.96700 14.89200 41.17200
C  -7.60700 16.20900 40.99300
C  -7.67100 12.43700 41.30400
C  -5.52400 15.07500 41.23600
O  -4.60000 14.20100 41.23400
C  -5.27400 16.61900 41.09500
C  -4.60000 17.03700 42.33500
O  -4.77200 16.63400 43.46000
O  -3.82600 18.18900 42.01400
C  -3.31300 19.02700 43.09000
H  -9.58400 21.98600 39.60300
H  -14.41900 17.74700 39.21600
H  -10.47600 12.99300 40.61400
H  -5.31600 19.63400 40.47800
H  -6.97000 21.62800 39.47000
H  -6.45100 22.25700 41.47700
H  -6.52200 20.77000 42.26000
H  -8.10100 21.55000 42.06300
H  -5.98100 20.31800 37.87100
H  -6.68600 18.74300 37.97200
H  -3.93000 18.82900 38.97700
H  -3.98200 19.64300 37.48500
H  -11.22300 22.91500 38.60300
H  -11.68400 23.11000 40.27100
H  -12.95700 23.28700 38.98600
H  -16.79700 20.27400 39.61400
H  -15.52000 19.35000 40.43600
H  -15.65200 19.21000 38.63000
H  -14.15400 15.16600 38.37800
H  -13.18000 13.40500 40.48900
H  -15.89800 14.86300 39.67200
H  -15.45100 16.07500 40.68100
H  -15.06400 14.35000 41.10300
H  -11.59100 13.37900 37.94300
H  -13.36300 13.41500 37.57600
H  -11.75600 11.14200 38.20700
H  -13.48900 11.25300 37.78500
H  -12.82900 11.32300 39.49100
H  -8.11300 11.82900 40.51400
H  -8.35400 12.08800 42.07800
H  -6.64200 12.21500 41.58500
H  -4.72400 16.94100 40.21000
H  -2.86000 19.90500 42.62900
H  -2.44800 18.51400 43.51200
H  -4.13900 19.32700 43.73500

