158

Mg 8.63000 4.39700 27.40500
C  9.88000 2.97800 30.33300
C  6.71800 6.51700 29.46200
C  7.14200 5.76400 24.65700
C  10.40900 2.26200 25.41100
N  8.25000 4.64300 29.66300
C  8.99700 4.02700 30.62400
C  8.61800 4.63000 31.98200
C  7.62000 5.80200 31.70100
C  7.43700 5.63500 30.15600
C  6.39900 5.77200 32.57900
C  9.82300 4.97700 32.84800
C  9.56300 5.81100 34.10100
H  10.22500 5.22300 35.37700
N  7.12000 5.83000 27.11800
C  6.49300 6.61100 28.05900
C  5.64400 7.58900 27.42700
C  5.70100 7.43200 26.05300
C  6.67700 6.32200 25.84800
C  4.86300 8.62400 28.19400
C  5.06400 8.11400 24.93200
O  5.08100 7.76600 23.78500
C  4.27500 9.32200 25.10300
N  8.64700 3.97200 25.33400
C  7.97900 4.67400 24.38300
C  8.32000 4.25400 22.98800
C  9.41200 3.10900 23.25100
C  9.58200 3.11400 24.76500
C  7.09900 3.85400 22.22600
C  10.78200 3.41700 22.49800
C  11.46900 2.18500 21.86900
N  9.86500 2.89000 27.70200
C  10.55300 2.10700 26.79900
C  11.26100 1.10800 27.54500
C  11.00300 1.35700 28.94100
C  10.22700 2.49400 28.99700
C  12.15800 0.02600 27.13300
C  11.32900 0.99300 30.30300
O  12.05800 0.08500 30.67700
C  10.50000 2.00700 31.31300
C  9.59100 1.20300 32.25200
O  8.91000 0.21700 31.98800
O  9.94100 1.63500 33.53400
C  9.49000 0.64000 34.61700
H  6.24500 7.34700 29.99100
H  6.85400 6.30500 23.75300
H  10.91300 1.49000 24.82600
H  8.02200 3.84000 32.44000
H  8.12600 6.75700 31.84300
H  5.64000 5.27500 31.97500
H  6.06800 6.80000 32.72600
H  6.46800 5.39500 33.59900
H  10.24100 5.66700 32.11500
H  10.47800 4.14500 33.10800
H  8.50800 5.75300 34.37000
H  9.88200 6.82900 33.87400
H  5.31100 9.58800 27.95400
H  4.73300 8.54300 29.27300
H  3.86700 8.71900 27.76300
H  3.20400 9.19500 25.25800
H  4.43400 9.77700 24.12500
H  4.67600 10.01900 25.83800
H  8.93900 5.06800 22.61100
H  9.08000 2.09700 23.01700
H  7.07100 2.81100 21.91000
H  6.91600 4.56400 21.42000
H  6.20600 3.96400 22.84200
H  11.47200 3.91000 23.18300
H  10.54700 4.09900 21.68100
H  11.73000 2.43800 20.84200
H  10.84400 1.29200 21.89800
H  12.49700 2.08900 22.21900
H  11.49500 -0.80700 26.90100
H  12.90600 -0.22000 27.88700
H  12.63100 0.39400 26.22300
H  11.27700 2.43900 31.94500
H  8.48800 0.22900 34.50000
H  9.39900 1.19400 35.55100
H  10.18000 -0.19100 34.76700
Mg 28.24300 56.46900 40.40200
C  25.85900 53.85900 39.53200
C  30.79400 54.38000 39.32300
C  30.28900 59.03500 40.41800
C  25.54300 58.73000 40.41800
N  28.27300 54.42500 39.25600
C  27.22300 53.52100 39.17600
C  27.67600 52.17600 38.59800
C  29.24600 52.28900 38.91400
C  29.50400 53.79400 39.18400
C  29.73800 51.39700 40.18600
C  27.32100 52.01100 37.15000
C  26.72400 53.20500 36.35500
H  26.93100 53.19900 34.87800
N  30.29300 56.61600 40.19100
C  31.12300 55.67100 39.70100
C  32.47900 56.16600 39.77300
C  32.37200 57.48900 40.24100
C  30.96300 57.76900 40.36800
C  33.66600 55.38500 39.38900
C  33.45200 58.50900 40.53600
O  34.59200 58.17200 40.26700
C  33.34300 59.80600 41.18000
N  27.95200 58.60900 40.42800
C  28.94200 59.47300 40.42300
C  28.49400 60.91100 40.61300
C  26.95600 60.81300 40.54100
C  26.78000 59.31000 40.47700
C  29.14400 61.66600 41.92400
C  26.42500 61.55000 39.22300
C  26.28800 63.04300 39.29600
N  26.25200 56.30200 40.27400
C  25.25600 57.32300 40.32000
C  23.93500 56.71300 40.27300
C  24.17100 55.35800 40.08800
C  25.56100 55.14500 40.04600
C  22.65500 57.45500 40.46200
C  23.48700 54.07100 40.09100
O  22.36700 53.72300 40.36200
C  24.58300 53.07400 39.61900
C  24.67300 52.01400 40.67000
O  24.02700 50.95500 40.67400
O  25.37100 52.49700 41.82200
C  25.63400 51.44700 42.85600
H  31.65300 53.70700 39.28400
H  30.88400 59.94200 40.28800
H  24.70400 59.42900 40.42300
H  27.21400 51.34100 39.12400
H  29.81600 52.01700 38.02600
H  30.04000 51.99000 41.05000
H  30.64600 50.84800 39.93500
H  28.97700 50.74500 40.61300
H  26.59900 51.19700 37.08100
H  28.21900 51.73200 36.59800
H  26.88600 54.17100 36.83300
H  25.64800 53.13900 36.51400
H  33.49500 54.66900 38.58600
H  34.02700 54.75400 40.20100
H  34.43500 56.10000 39.09800
H  32.42800 59.76800 41.77300
H  33.18100 60.53200 40.38300
H  34.23200 60.09500 41.74000
H  28.94600 61.47200 39.79500
H  26.44500 61.27200 41.38700
H  29.87600 62.43300 41.67000
H  29.69600 60.95300 42.53600
H  28.45500 62.05000 42.67700
H  25.47100 61.11000 38.93100
H  27.14500 61.34300 38.43200
H  26.86800 63.40200 40.14600
H  25.23500 63.31000 39.38200
H  26.77800 63.39400 38.38800
H  22.51700 57.73800 39.41800
H  22.58800 58.32800 41.11100
H  21.84800 56.78400 40.75700
H  24.18600 52.58400 38.73000
H  24.80800 50.73800 42.90600
H  25.65800 51.97600 43.80900
H  26.62000 50.99100 42.76900

