158

Mg -1.50400 17.72300 26.93300
C  -1.88400 15.28300 29.47000
C  -2.09800 20.13000 29.31900
C  -1.53300 19.90200 24.45700
C  -1.62000 15.04900 24.57300
N  -1.97900 17.69400 29.07700
C  -1.94300 16.61500 29.93600
C  -2.24400 17.06900 31.40600
C  -2.52700 18.58900 31.24700
C  -2.19200 18.82100 29.77700
C  -3.98200 18.97100 31.71200
C  -1.18900 16.65100 32.43300
C  -1.23300 17.31100 33.84800
H  -0.68300 16.60700 35.06700
N  -1.62100 19.74700 26.87400
C  -1.81500 20.60100 27.98200
C  -1.73600 22.00400 27.46900
C  -1.43200 21.92900 26.07000
C  -1.53700 20.50000 25.74300
C  -1.98800 23.15600 28.38700
C  -1.11900 22.99400 25.16200
O  -0.74400 22.73900 24.03300
C  -1.28100 24.44500 25.54500
N  -1.60800 17.41500 24.84200
C  -1.61300 18.55800 24.01500
C  -1.52500 18.21500 22.55500
C  -1.37400 16.61800 22.58200
C  -1.54800 16.32700 24.04900
C  -2.80800 18.67600 21.75400
C  -0.04300 16.17600 21.93300
C  1.15000 15.57700 22.82500
N  -1.67000 15.57900 26.91500
C  -1.67100 14.63900 25.88200
C  -1.80500 13.26500 26.48700
C  -1.90800 13.51000 27.87100
C  -1.79700 14.88300 28.09400
C  -1.77100 11.96000 25.66700
C  -2.02600 12.83300 29.12100
O  -2.03400 11.59800 29.29900
C  -2.04300 13.89700 30.28100
C  -1.02000 13.46500 31.16000
O  0.16900 13.72300 31.10100
O  -1.56700 12.63100 32.06900
C  -0.56000 11.97800 32.98900
H  -2.22400 20.90900 30.07400
H  -1.58100 20.61100 23.62800
H  -1.57900 14.41900 23.68200
H  -3.16500 16.56000 31.69400
H  -1.78800 19.19900 31.76600
H  -4.37300 19.69500 30.99800
H  -3.92700 19.55300 32.63200
H  -4.67500 18.14900 31.89100
H  -0.21900 16.76400 31.94900
H  -1.40800 15.60800 32.66300
H  -2.24300 17.71000 33.94400
H  -0.56600 18.16800 33.75500
H  -1.06500 23.66200 28.66800
H  -2.46500 22.81800 29.30800
H  -2.65700 23.80400 27.82100
H  -2.27600 24.72700 25.89100
H  -0.90000 25.15600 24.81200
H  -0.60000 24.58500 26.38400
H  -0.64700 18.66500 22.09300
H  -2.21500 16.17400 22.04900
H  -3.62600 18.92500 22.42900
H  -3.14300 18.01200 20.95700
H  -2.45500 19.56300 21.22800
H  0.33700 16.93300 21.24700
H  -0.32900 15.37200 21.25500
H  0.78600 15.26000 23.80200
H  1.82600 16.39500 23.07700
H  1.73500 14.84700 22.26600
H  -1.92100 11.02800 26.21100
H  -0.90600 11.87200 25.00900
H  -2.67600 12.02000 25.06200
H  -3.04500 13.85300 30.70600
H  -0.20100 11.21500 32.29800
H  -1.05100 11.60900 33.89000
H  0.27600 12.61100 33.28500
Mg 35.91300 2.04100 30.52900
C  33.24900 3.11000 32.59400
C  38.04800 2.73000 33.10900
C  38.40500 1.02100 28.44900
C  33.61000 2.05100 27.78800
N  35.65400 2.80200 32.60600
C  34.46600 3.15800 33.28000
C  34.70300 3.26700 34.84000
C  36.25100 3.31300 34.89400
C  36.71400 2.92000 33.46400
C  36.89600 4.69100 35.35800
C  34.09000 2.10300 35.63200
C  33.80700 2.24900 37.11300
H  34.21000 3.57800 37.76000
N  37.91100 1.86800 30.72100
C  38.59300 2.09200 31.91400
C  39.90400 1.57100 31.76400
C  40.08700 1.20500 30.36300
C  38.77300 1.39900 29.76500
C  40.96900 1.50400 32.85900
C  41.29400 0.70900 29.65200
O  41.29700 0.66200 28.43700
C  42.71700 0.41200 30.32900
N  36.02200 1.60500 28.48300
C  37.16600 1.11900 27.86900
C  36.81200 0.74500 26.39900
C  35.34500 1.10900 26.21100
C  34.91800 1.60900 27.60600
C  37.76300 1.24800 25.30800
C  34.42600 -0.14100 25.76600
C  33.21400 0.11200 24.89400
N  33.75900 2.43000 30.20500
C  33.02300 2.43600 29.03400
C  31.56300 2.77200 29.37500
C  31.68100 3.02700 30.73300
C  33.01200 2.90800 31.18800
C  30.30000 2.78900 28.47000
C  30.88500 3.33900 31.94500
O  29.68800 3.51900 32.11400
C  31.89400 3.42300 33.08300
C  31.74400 4.75600 33.72200
O  32.19600 5.86000 33.34400
O  31.17900 4.49200 34.95200
C  30.88900 5.69700 35.71400
H  38.77200 2.74000 33.92600
H  39.19000 0.74300 27.74300
H  33.14900 2.18900 26.80800
H  34.39200 4.23500 35.23200
H  36.56300 2.45300 35.48600
H  36.13500 5.44100 35.57500
H  37.50000 5.12700 34.56100
H  37.66000 4.59400 36.12900
H  34.71500 1.22500 35.46700
H  33.10500 2.04300 35.16800
H  34.27500 1.46100 37.70400
H  32.74600 2.00700 37.17500
H  41.54300 0.57900 32.90800
H  40.50600 1.90000 33.76300
H  41.71100 2.25700 32.59300
H  43.39400 0.46800 29.47600
H  42.66000 -0.53600 30.86300
H  43.04500 1.19700 31.01100
H  36.84800 -0.33500 26.53900
H  35.21100 1.97600 25.56500
H  38.73900 1.68100 25.52500
H  37.17900 1.96100 24.72600
H  38.02800 0.39900 24.67800
H  34.06000 -0.67700 26.64100
H  35.09100 -0.77100 25.17600
H  33.39800 -0.37400 23.93500
H  32.95200 1.15500 24.71600
H  32.36800 -0.38900 25.36500
H  30.11500 1.84300 27.96100
H  30.36500 3.59300 27.73700
H  29.45500 2.99000 29.12900
H  31.61100 2.64600 33.79400
H  31.71200 6.41100 35.73300
H  30.63400 5.53300 36.76100
H  29.96700 6.11000 35.30500

