158

Mg 0.68200 -0.57500 44.02100
C  4.12100 -0.44500 43.24300
C  0.23600 2.45800 42.31800
C  -2.50400 -1.25200 43.75800
C  1.33400 -3.84800 45.15500
N  1.96700 0.80000 43.02700
C  3.31900 0.70400 42.86000
C  3.87600 1.91100 42.02800
C  2.70000 2.94400 42.32000
C  1.55900 2.04500 42.62400
C  2.95300 4.10600 43.38600
C  4.10900 1.53400 40.50700
C  5.51900 1.85200 40.02500
H  5.59500 1.95200 38.46200
N  -0.92500 0.53600 43.31600
C  -0.93000 1.70900 42.58000
C  -2.27600 2.08400 42.29100
C  -3.12800 0.95500 42.59700
C  -2.11700 -0.00100 43.24100
C  -2.69700 3.33400 41.68600
C  -4.58900 0.86200 42.22100
O  -5.04200 1.68900 41.49300
C  -5.46800 -0.28600 42.55900
N  -0.48300 -2.43700 44.26000
C  -1.80500 -2.35700 44.21800
C  -2.37500 -3.67600 44.63200
C  -1.15300 -4.41500 45.39900
C  0.01900 -3.57200 44.84100
C  -3.66600 -3.57100 45.45000
C  -1.08300 -6.00100 44.93600
C  -0.75200 -6.92800 46.10300
N  2.37000 -1.89100 44.25800
C  2.47900 -3.11400 44.81300
C  3.83300 -3.54600 44.79200
C  4.54800 -2.51800 44.20600
C  3.61100 -1.54900 43.90200
C  4.42900 -4.95200 45.14000
C  5.86100 -2.10000 43.78900
O  7.00700 -2.55000 43.98500
C  5.60000 -0.64500 43.16100
C  6.36400 0.41500 43.80300
O  6.05200 1.03600 44.80400
O  7.53900 0.56700 43.21100
C  8.44400 1.64100 43.66900
H  0.09300 3.50800 42.05200
H  -3.56400 -1.47900 43.89100
H  1.52900 -4.81600 45.62200
H  4.73500 2.43900 42.44200
H  2.48200 3.47900 41.39600
H  3.22100 5.08000 42.97600
H  3.90100 3.85500 43.86100
H  2.18900 4.22900 44.15400
H  3.49600 2.10400 39.80900
H  3.91900 0.48300 40.28700
H  6.32000 1.21100 40.39400
H  5.83000 2.85800 40.30700
H  -2.87300 3.29900 40.61100
H  -1.97300 4.11700 41.91000
H  -3.57600 3.72700 42.19700
H  -6.47900 -0.05600 42.22300
H  -5.54800 -0.35400 43.64400
H  -5.13700 -1.23100 42.13000
H  -2.57600 -4.11500 43.65500
H  -1.17600 -4.28300 46.48100
H  -3.68300 -2.71000 46.11900
H  -3.81400 -4.44600 46.08400
H  -4.54500 -3.53000 44.80700
H  -0.18300 -6.14600 44.33900
H  -1.99800 -6.35100 44.45700
H  -1.64700 -7.40900 46.49700
H  -0.43800 -6.42400 47.01700
H  -0.05000 -7.71900 45.84000
H  3.52900 -5.56500 45.08700
H  4.77600 -5.03000 46.17000
H  5.33500 -5.17800 44.57800
H  5.84200 -0.67500 42.09900
H  7.87400 2.48400 44.06000
H  9.14400 1.89400 42.87300
H  9.02900 1.34800 44.54100
Mg 26.64700 50.40500 26.90700
C  24.51800 51.56000 29.51700
C  28.79100 49.21300 29.48000
C  28.85400 49.48600 24.63200
C  24.52400 51.78400 24.57100
N  26.71100 50.50700 29.20800
C  25.66800 50.91700 30.04200
C  25.93300 50.55300 31.50400
C  27.34000 50.00300 31.47500
C  27.62400 49.90900 29.95900
C  28.40700 50.80300 32.27300
C  24.87400 49.58600 32.14600
C  24.18500 50.21700 33.36200
H  24.20500 49.43800 34.68300
N  28.51600 49.58100 27.02700
C  29.17900 49.09100 28.12500
C  30.37900 48.45400 27.69600
C  30.49100 48.51700 26.29200
C  29.30900 49.27000 25.93700
C  31.40600 47.80800 28.67700
C  31.63200 48.01900 25.35800
O  31.61400 48.21100 24.19200
C  32.86600 47.22900 25.85900
N  26.69800 50.72700 24.89700
C  27.67400 50.15800 24.15600
C  27.28500 50.23900 22.64800
C  25.92600 51.07400 22.67700
C  25.69100 51.22100 24.11100
C  28.45200 50.99800 21.79100
C  24.77400 50.42600 21.84200
C  23.67900 49.51100 22.54100
N  24.85000 51.41700 26.95000
C  24.09500 52.00000 25.93800
C  22.83500 52.49400 26.49100
C  23.02700 52.47100 27.87300
C  24.26500 51.74800 28.07800
C  21.66000 52.98700 25.68400
C  22.47700 52.82400 29.12900
O  21.55400 53.55500 29.45500
C  23.38800 52.17500 30.22600
C  23.98400 53.25300 31.04400
O  24.91200 54.04900 30.85100
O  23.28100 53.30000 32.20900
C  23.66900 54.25300 33.25400
H  29.39400 48.75900 30.27000
H  29.37000 48.93300 23.84400
H  23.73700 52.14400 23.90600
H  25.95500 51.51400 32.01700
H  27.32800 49.01500 31.93600
H  29.33500 50.23100 32.30000
H  28.07500 50.98200 33.29600
H  28.49900 51.76400 31.76600
H  25.24800 48.60600 32.44200
H  24.11100 49.40500 31.38900
H  23.12000 50.35400 33.17500
H  24.53900 51.22300 33.58400
H  32.39600 48.26300 28.65000
H  31.61900 46.78900 28.35200
H  31.08700 47.77600 29.71900
H  32.73900 46.15000 25.95600
H  33.05900 47.72300 26.81100
H  33.70000 47.44300 25.19100
H  27.12000 49.26300 22.19300
H  26.12400 52.01500 22.16300
H  28.11100 51.72700 21.05600
H  28.95700 50.27100 21.15500
H  29.16900 51.42800 22.49000
H  25.28200 49.70400 21.20300
H  24.33700 51.13900 21.14200
H  22.82100 50.17700 22.44800
H  23.84800 49.21100 23.57500
H  23.67700 48.55000 22.02700
H  20.90600 52.26500 25.37000
H  22.06900 53.58700 24.87000
H  21.16700 53.69300 26.35100
H  22.86500 51.46900 30.87100
H  24.71800 54.03700 33.46100
H  23.12100 54.14300 34.18900
H  23.36400 55.26600 32.99200

