158

Mg 54.31800 24.95700 46.07300
C  51.73800 26.92500 44.90900
C  52.86400 22.25500 44.24400
C  57.31000 23.14700 46.29700
C  55.84700 27.59800 47.49700
N  52.57100 24.68900 44.66200
C  51.62100 25.61900 44.32000
C  50.51600 24.98900 43.49900
C  50.68600 23.52800 43.72000
C  52.11700 23.41900 44.37400
C  49.66900 22.86200 44.66100
C  50.76900 25.28500 41.96300
C  52.18000 25.78900 41.49500
H  53.30400 24.75900 41.39900
N  55.01100 23.04000 45.42200
C  54.23200 22.13900 44.64400
C  54.98900 20.90300 44.41500
C  56.24300 21.10400 45.12200
C  56.27600 22.44800 45.59000
C  54.45800 19.67500 43.74600
C  57.35400 20.03900 45.09500
O  57.15600 18.98900 44.55600
C  58.78900 20.28200 45.55400
N  56.37200 25.24600 46.82900
C  57.39600 24.39300 46.85300
C  58.69000 25.05000 47.38700
C  58.24100 26.54400 47.70800
C  56.68500 26.42500 47.40600
C  59.32500 24.29300 48.60200
C  58.89700 27.65300 46.83700
C  58.73600 27.52000 45.35200
N  53.94100 26.82800 46.29400
C  54.59000 27.74700 46.99300
C  53.75300 28.93000 46.96000
C  52.56700 28.66800 46.15300
C  52.78900 27.31400 45.71300
C  54.05800 30.24100 47.61400
C  51.35200 29.19000 45.64400
O  50.85100 30.29800 45.74300
C  50.69900 28.04600 44.75800
C  50.68100 28.64400 43.42700
O  51.61900 29.12500 42.76900
O  49.39600 28.31700 42.84200
C  49.24000 28.49800 41.38000
H  52.22900 21.45600 43.85700
H  58.24400 22.61700 46.49700
H  56.32600 28.53200 47.79600
H  49.54900 25.41900 43.75900
H  50.63200 22.92900 42.81000
H  48.75700 23.42400 44.46000
H  49.83700 22.82300 45.73700
H  49.55900 21.85100 44.27100
H  50.09400 26.08500 41.65700
H  50.45700 24.48500 41.29200
H  52.42900 26.67100 42.08500
H  52.17300 26.10400 40.45200
H  55.16100 19.31100 42.99700
H  53.48100 19.82000 43.28500
H  54.32500 18.87300 44.47300
H  59.42000 19.46100 45.21400
H  58.87600 20.39800 46.63400
H  59.23000 21.12800 45.02600
H  59.40700 24.98100 46.56800
H  58.50400 26.76700 48.74200
H  59.22500 24.92300 49.48600
H  60.34200 24.09700 48.26100
H  58.76600 23.38300 48.81900
H  59.93500 27.34500 46.96300
H  58.82200 28.68000 47.19300
H  57.79800 26.99700 45.16600
H  59.52000 27.03300 44.77200
H  58.51700 28.47800 44.88000
H  54.87200 30.21200 48.33900
H  53.17100 30.72600 48.02200
H  54.41200 31.01200 46.92900
H  49.69000 27.68300 44.95500
H  50.19100 28.35900 40.86500
H  48.75000 29.45600 41.20800
H  48.50300 27.76200 41.06000
Mg 37.52300 50.22400 25.24700
C  38.03500 48.22400 28.18400
C  35.94400 52.52700 27.32200
C  37.08500 51.97100 22.62300
C  38.65100 47.43700 23.33000
N  37.05900 50.33400 27.51500
C  37.58700 49.51400 28.48400
C  37.29000 49.99500 29.88200
C  36.57400 51.35700 29.57600
C  36.51300 51.39400 28.05800
C  35.26000 51.56700 30.37300
C  38.53300 50.19700 30.77900
C  38.43700 49.54500 32.21500
H  37.15700 50.00000 33.02000
N  36.60700 51.97100 24.89700
C  36.01400 52.78800 25.87100
C  35.46800 53.94000 25.22500
C  35.68500 53.74900 23.82800
C  36.43500 52.49700 23.71600
C  34.78000 55.02900 26.03000
C  35.10100 54.61200 22.73600
O  35.32100 54.36900 21.56000
C  34.11000 55.76400 22.96600
N  37.77000 49.71300 23.32500
C  37.63500 50.69700 22.35700
C  38.16400 50.25700 20.93600
C  38.98400 48.99800 21.30000
C  38.35300 48.68300 22.73800
C  36.92500 50.04000 19.92700
C  40.55700 49.19500 21.32300
C  41.25900 48.30300 20.25400
N  38.17400 48.26200 25.62800
C  38.55200 47.24700 24.73800
C  38.83500 46.02500 25.49500
C  38.70500 46.39800 26.85600
C  38.29900 47.77500 26.84800
C  39.27500 44.76400 24.90800
C  38.80700 45.95700 28.22400
O  39.17300 44.87700 28.60300
C  38.40300 47.15100 29.08400
C  37.22600 46.54500 29.62300
O  36.19800 46.29200 28.99100
O  37.43300 46.32700 30.93800
C  36.38300 45.74800 31.65000
H  35.58800 53.27300 28.03500
H  36.98400 52.63100 21.75900
H  39.13600 46.70400 22.68300
H  36.71400 49.29200 30.48400
H  37.17900 52.21600 29.86700
H  34.80800 50.66500 30.78700
H  34.53900 52.14600 29.79600
H  35.64000 52.11700 31.23300
H  38.89800 51.21700 30.89600
H  39.39900 49.77700 30.26700
H  39.31900 49.85600 32.77400
H  38.57300 48.46600 32.14300
H  34.64900 54.85100 27.09800
H  33.76200 55.03000 25.64100
H  35.31300 55.97700 25.95000
H  33.16700 55.38000 23.35600
H  33.80800 56.26500 22.04600
H  34.48600 56.48000 23.69600
H  38.74900 51.07200 20.51100
H  38.75000 48.11700 20.70300
H  36.03200 50.41000 20.43200
H  36.82500 48.97400 19.71800
H  36.98600 50.50200 18.94200
H  40.94500 49.05400 22.33200
H  40.80200 50.23100 21.08900
H  41.95700 49.00400 19.79900
H  40.68500 47.78700 19.48400
H  41.85900 47.53300 20.74000
H  40.04100 44.19200 25.43100
H  39.48300 44.85000 23.84100
H  38.46400 44.06800 25.12200
H  39.09700 47.45700 29.86700
H  35.69900 45.20600 30.99700
H  35.74900 46.50800 32.10800
H  36.78100 44.97900 32.31200

