158

Mg -0.77800 7.81900 27.04500
C  0.74500 9.85100 29.54200
C  -0.92300 5.28800 29.33600
C  -1.70800 5.71000 24.56900
C  0.12600 10.16400 24.67000
N  0.19500 7.47000 29.20100
C  0.43800 8.58600 30.04400
C  0.26600 8.16100 31.55000
C  -0.03700 6.59700 31.42500
C  -0.34200 6.43500 29.90400
C  1.26400 5.69900 31.85500
C  -1.01300 8.91000 32.10000
C  -1.14700 8.89900 33.60900
H  -0.00400 8.50400 34.53900
N  -1.32000 5.79800 26.95800
C  -1.38200 4.95600 28.05700
C  -1.95400 3.66600 27.67100
C  -2.19000 3.79700 26.22600
C  -1.72300 5.11400 25.84800
C  -2.27500 2.61000 28.67000
C  -2.69000 2.72000 25.27000
O  -2.75700 2.89000 24.05700
C  -3.11200 1.45600 25.97300
N  -0.76200 7.94100 24.90300
C  -1.29000 6.96700 24.12800
C  -1.47500 7.44600 22.61500
C  -0.90000 8.88400 22.68500
C  -0.50500 9.00200 24.18900
C  -0.76700 6.50800 21.62200
C  -1.87300 9.88500 22.03500
C  -1.27200 11.01100 21.22900
N  0.11200 9.65500 27.09100
C  0.50200 10.46600 26.02100
C  1.21700 11.63500 26.52800
C  1.16300 11.44900 27.90600
C  0.60900 10.22700 28.18200
C  1.57000 12.95000 25.80300
C  1.47900 12.06300 29.09400
O  2.02900 13.13000 29.23100
C  1.21800 11.07100 30.28300
C  2.43100 10.93800 31.09400
O  3.52900 10.34300 30.86600
O  2.28400 11.82400 32.14400
C  3.17500 11.62900 33.29400
H  -1.11800 4.58800 30.15100
H  -2.07200 5.04200 23.78600
H  0.33200 10.98800 23.98300
H  1.14200 8.31400 32.17900
H  -0.96100 6.26000 31.89500
H  1.07700 5.00400 32.67300
H  2.12700 6.32100 32.09400
H  1.54500 5.15600 30.95300
H  -1.91100 8.36600 31.80800
H  -1.18000 9.91800 31.72000
H  -2.05800 8.39100 33.92500
H  -1.31100 9.89300 34.02600
H  -1.79700 1.64600 28.49400
H  -3.33100 2.38500 28.52100
H  -2.16200 2.80600 29.73600
H  -2.31700 0.86000 26.42000
H  -3.52600 0.78500 25.22000
H  -3.86100 1.85600 26.65600
H  -2.54900 7.35100 22.45400
H  0.09200 8.97400 22.24200
H  0.04500 7.00000 21.08600
H  -1.54800 6.30400 20.88900
H  -0.31900 5.65900 22.13800
H  -2.57300 10.17800 22.81800
H  -2.52800 9.34100 21.35400
H  -1.89600 11.84800 21.54000
H  -1.42500 10.77200 20.17700
H  -0.22200 11.21800 21.43500
H  0.71600 13.51200 25.42300
H  2.18600 12.79400 24.91700
H  2.07000 13.64000 26.48200
H  0.35100 11.58400 30.70000
H  2.69800 11.46800 34.26100
H  3.68400 12.59200 33.32900
H  3.85500 10.80900 33.06200
Mg -1.86300 35.01000 27.31900
C  -3.48600 33.17900 29.94800
C  -0.43100 36.97200 29.64400
C  -0.52500 36.59700 24.89500
C  -3.57700 32.69300 24.98800
N  -2.01800 35.07700 29.56000
C  -2.73900 34.28600 30.43200
C  -2.54400 34.71100 31.90600
C  -1.76500 36.10700 31.70700
C  -1.33900 36.02500 30.19800
C  -2.63200 37.43100 31.99800
C  -1.70600 33.56200 32.64900
C  -2.28000 32.92300 33.86800
H  -1.35600 32.86200 35.10600
N  -0.70900 36.57500 27.31400
C  -0.11200 37.32200 28.31200
C  0.76600 38.25500 27.82300
C  0.63900 38.20100 26.44000
C  -0.27300 37.13200 26.11600
C  1.58300 39.16000 28.73300
C  1.30200 39.10100 25.32600
O  0.96000 39.08900 24.17400
C  2.32100 40.19400 25.80300
N  -2.23500 34.82700 25.27200
C  -1.37100 35.56900 24.48000
C  -1.40800 35.14900 22.98600
C  -2.31000 33.96300 23.00800
C  -2.76700 33.81300 24.53600
C  -1.83300 36.30400 22.10700
C  -1.64700 32.66000 22.37900
C  -0.37700 32.00700 22.96200
N  -3.23600 33.23300 27.39600
C  -3.84800 32.50700 26.40400
C  -4.64200 31.42800 27.00900
C  -4.61600 31.66600 28.40400
C  -3.72800 32.79600 28.57400
C  -5.42300 30.43500 26.22900
C  -5.05800 31.29100 29.70800
O  -5.76400 30.38900 29.96200
C  -4.43800 32.28100 30.75000
C  -5.44900 33.03800 31.58300
O  -6.00300 34.05700 31.22200
O  -5.51600 32.44300 32.84600
C  -6.44700 33.11700 33.73300
H  0.06100 37.64400 30.35100
H  -0.01500 36.91200 23.98200
H  -3.85100 31.98300 24.20500
H  -3.53700 34.84500 32.33400
H  -0.92800 36.15700 32.40400
H  -3.69000 37.34800 31.74800
H  -2.11900 38.24400 31.48500
H  -2.59200 37.68600 33.05700
H  -0.78200 33.99100 33.03500
H  -1.40900 32.80600 31.92200
H  -2.52600 31.87300 33.71000
H  -3.11500 33.55700 34.16600
H  2.61400 39.19900 28.38200
H  1.55600 38.95100 29.80300
H  1.23600 40.18800 28.62700
H  1.69600 40.86300 26.39400
H  2.74300 40.85400 25.04600
H  3.15800 39.67700 26.27200
H  -0.41400 34.84900 22.65400
H  -3.12800 34.22700 22.33800
H  -0.98100 36.86800 21.72800
H  -2.52200 36.89400 22.71000
H  -2.35300 36.00600 21.19700
H  -1.51900 32.74500 21.30000
H  -2.45500 31.93600 22.48800
H  -0.29800 32.45600 23.95300
H  0.43100 32.25200 22.27300
H  -0.43700 30.92400 23.07000
H  -5.03600 29.42500 26.36400
H  -5.24400 30.62200 25.17000
H  -6.49700 30.50900 26.39900
H  -3.95100 31.66300 31.50500
H  -7.11300 33.77700 33.17700
H  -5.98800 33.58300 34.60500
H  -7.14700 32.36700 34.09900

