158

Mg 26.77500 51.02400 26.49200
C  24.76400 51.93100 29.18500
C  29.19700 50.00500 28.72900
C  28.38800 49.88400 23.91400
C  24.15700 52.11600 24.27400
N  26.91800 50.97400 28.76400
C  25.97200 51.36100 29.68200
C  26.41400 51.24700 31.09500
C  27.86800 50.68600 30.90900
C  28.06600 50.54100 29.35800
C  28.89600 51.61200 31.51100
C  25.43800 50.25500 31.87300
C  26.01100 49.41500 32.96300
H  25.31000 49.37300 34.27600
N  28.61300 50.19100 26.36400
C  29.43700 49.78000 27.32800
C  30.64900 49.15000 26.70100
C  30.45200 49.13400 25.27800
C  29.09900 49.76600 25.13400
C  31.73900 48.50400 27.48100
C  31.41700 48.60800 24.23900
O  31.21500 48.83700 23.01800
C  32.81900 48.01900 24.58400
N  26.26600 51.07700 24.33100
C  27.16000 50.40800 23.51900
C  26.64500 50.40200 22.10000
C  25.30100 51.09700 22.23600
C  25.15000 51.43800 23.67500
C  27.66700 51.06500 21.16600
C  24.04900 50.25900 21.83200
C  23.29800 50.77200 20.51000
N  24.94300 51.98400 26.60100
C  24.04000 52.41600 25.67000
C  22.90800 53.05300 26.33300
C  23.18600 52.90600 27.67200
C  24.39100 52.19400 27.81300
C  21.82400 53.71800 25.70800
C  22.56600 53.15600 28.94500
O  21.48900 53.69300 29.20400
C  23.56500 52.43500 30.02500
C  23.89900 53.36900 31.18600
O  24.90300 54.12300 31.27400
O  23.00800 53.26700 32.17200
C  23.37500 54.02700 33.42000
H  29.98100 49.69900 29.42500
H  28.89400 49.40200 23.07500
H  23.46600 52.57500 23.56400
H  26.36400 52.27400 31.45600
H  28.00300 49.66900 31.27600
H  29.02800 52.53800 30.95200
H  29.80400 51.04900 31.29500
H  28.85800 51.64300 32.59900
H  24.93200 49.62100 31.14500
H  24.69200 50.92800 32.29600
H  26.90600 49.98000 33.22500
H  26.28600 48.45500 32.52700
H  31.54600 48.53200 28.55400
H  32.66300 48.96300 27.13000
H  31.70600 47.46200 27.16600
H  33.17300 47.66200 23.61700
H  32.87400 47.22500 25.32900
H  33.44200 48.88500 24.80700
H  26.60200 49.32500 21.93800
H  25.34200 52.07700 21.76100
H  28.30400 51.81700 21.63200
H  27.07700 51.58600 20.41200
H  28.27200 50.27400 20.72200
H  23.28700 50.19800 22.60800
H  24.46900 49.30100 21.52500
H  22.92500 49.94000 19.91200
H  24.03900 51.31600 19.92400
H  22.54400 51.49300 20.82800
H  21.47600 53.15700 24.84100
H  22.10500 54.64700 25.21100
H  21.00300 53.99100 26.37100
H  22.99100 51.61900 30.46400
H  23.53600 55.09400 33.26700
H  24.23000 53.56900 33.91700
H  22.45000 53.76400 33.93300
Mg 17.03600 52.81600 27.10400
C  18.86500 50.85800 29.46000
C  14.63800 53.34900 29.58900
C  14.85800 53.74100 24.70100
C  19.19800 51.49100 24.64000
N  16.70200 52.04200 29.20200
C  17.68900 51.45300 29.96100
C  17.48700 51.68600 31.46300
C  15.93900 52.18700 31.51800
C  15.65200 52.51100 29.99400
C  14.88100 51.16600 31.92900
C  18.53200 52.81700 31.98000
C  19.33000 52.38200 33.22600
H  18.51900 51.56200 34.23500
N  15.12400 53.66600 27.16900
C  14.29200 53.75900 28.30100
C  13.06600 54.46900 27.87500
C  13.11500 54.61700 26.45900
C  14.38400 53.93400 26.06400
C  11.95100 54.78100 28.85900
C  12.07600 55.26600 25.53700
O  12.20800 55.14700 24.32800
C  10.97500 55.99000 26.10700
N  16.94400 52.44300 24.97700
C  15.97600 53.10000 24.18200
C  16.33400 53.15700 22.71400
C  17.81700 52.61200 22.73900
C  18.07900 52.25200 24.21900
C  15.16100 52.30400 22.05000
C  18.82800 53.68300 22.32100
C  19.66300 53.34200 21.11900
N  18.78000 51.54900 27.05300
C  19.50600 51.09600 25.97900
C  20.56300 50.26600 26.36400
C  20.45500 50.20800 27.73900
C  19.25800 50.92300 28.06900
C  21.68400 49.56000 25.61400
C  21.04200 49.64800 28.98900
O  22.01300 48.92600 29.18800
C  20.10400 50.22300 30.12100
C  19.79900 49.10800 31.09300
O  18.86300 48.30600 31.00300
O  20.71400 49.21400 32.11900
C  20.56600 48.22500 33.20600
H  13.87100 53.51700 30.34800
H  14.30600 54.09700 23.82900
H  19.92700 51.01900 23.97700
H  17.72300 50.78700 32.03200
H  15.86100 53.07500 32.14500
H  14.30300 51.42900 32.81500
H  15.20900 50.14200 32.10800
H  14.08800 51.01700 31.19600
H  18.04700 53.76200 32.22500
H  19.22300 52.84700 31.13700
H  19.77200 53.12200 33.89300
H  20.13000 51.71700 32.90200
H  11.78700 55.83000 28.61100
H  12.17000 54.68000 29.92200
H  10.97800 54.32600 28.67300
H  10.42300 55.41000 26.84700
H  10.28100 56.19100 25.29200
H  11.40700 56.86200 26.59800
H  16.18900 54.20100 22.43400
H  17.97700 51.67700 22.20300
H  14.79000 51.56100 22.75600
H  15.48400 51.81800 21.13000
H  14.27900 52.91700 21.86400
H  19.66300 53.77600 23.01600
H  18.40800 54.67300 22.14700
H  20.71400 53.25100 21.39200
H  19.65800 54.02300 20.26700
H  19.33700 52.40800 20.66000
H  21.48800 49.41300 24.55200
H  22.03300 48.75600 26.26100
H  22.46400 50.31400 25.72100
H  20.68800 51.00600 30.60500
H  19.55900 48.28100 33.61800
H  21.30700 48.50100 33.95600
H  20.60600 47.19200 32.86000

