158

Mg 44.23700 4.88500 47.59000
C  42.21600 7.68100 46.88400
C  41.44000 2.90500 46.74400
C  46.22800 2.19300 47.51200
C  46.96700 7.02600 47.77900
N  41.97500 5.25800 46.86100
C  41.44400 6.49200 46.78700
C  39.99200 6.38500 46.39100
C  39.65900 4.84100 46.74500
C  41.06000 4.28800 46.76200
C  38.87800 4.68000 48.00000
C  39.65000 6.82800 44.90200
C  38.84800 8.17200 44.62100
H  39.42600 8.96300 43.42400
N  43.87300 2.88900 47.20800
C  42.70100 2.25100 46.85800
C  42.89300 0.84400 46.63100
C  44.27400 0.63900 46.99100
C  44.87200 1.95400 47.20100
C  41.87800 -0.08100 46.13500
C  44.92600 -0.73600 46.95400
O  44.29900 -1.77400 46.73000
C  46.34400 -0.91500 47.36900
N  46.25900 4.67400 47.72600
C  46.87100 3.42500 47.80500
C  48.36300 3.50400 47.99900
C  48.57900 5.01300 48.08700
C  47.15500 5.64900 47.89600
C  48.84700 2.75600 49.26800
C  49.65900 5.57700 47.10800
C  50.86800 6.24700 47.82200
N  44.58700 6.88200 47.39900
C  45.75900 7.62800 47.53000
C  45.51200 9.03500 47.44200
C  44.13300 9.13800 47.18800
C  43.61400 7.74600 47.13900
C  46.55400 10.19400 47.59500
C  42.97300 9.99800 47.01300
O  42.98800 11.19800 46.90900
C  41.64800 9.11400 46.88000
C  40.71900 9.34300 48.04500
O  40.72400 8.67600 49.09800
O  39.81900 10.34100 47.71800
C  38.49600 10.29800 48.43500
H  40.59700 2.22400 46.60900
H  47.03600 1.47500 47.35600
H  47.80800 7.70000 47.95600
H  39.46800 7.12800 46.99200
H  39.12300 4.35000 45.93300
H  39.38500 4.35200 48.90700
H  38.19800 3.84900 47.81400
H  38.37500 5.60400 48.28300
H  39.04600 6.06000 44.42000
H  40.64000 6.93300 44.45700
H  38.63200 8.70600 45.54600
H  37.89800 7.74600 44.29600
H  42.23700 -0.31800 45.13400
H  40.88400 0.29900 45.90000
H  41.89400 -0.93000 46.81900
H  46.92200 -0.40100 46.60100
H  46.75500 -1.92100 47.28700
H  46.48600 -0.56600 48.39200
H  48.74200 3.10300 47.05900
H  48.83700 5.26500 49.11600
H  48.95900 1.72800 48.92400
H  48.10000 2.81400 50.05900
H  49.74300 3.23900 49.66100
H  49.20500 6.34800 46.48500
H  50.05400 4.82900 46.42100
H  51.72900 5.58800 47.71400
H  50.68000 6.30900 48.89400
H  51.08700 7.24700 47.44600
H  47.36100 10.19600 46.86300
H  46.98300 10.09600 48.59200
H  45.97400 11.11800 47.59900
H  41.24300 9.49500 45.94300
H  38.14300 11.30100 48.67400
H  38.58300 9.75300 49.37500
H  37.71800 9.86800 47.80400
Mg 48.26900 35.03900 26.72200
C  46.40000 34.00700 29.48600
C  49.08100 37.95500 28.49300
C  49.68600 36.06600 23.83700
C  46.90900 32.32100 24.95300
N  47.94500 35.80600 28.85100
C  47.11400 35.21300 29.80500
C  47.27300 35.97700 31.16400
C  47.88200 37.37200 30.65900
C  48.36900 37.05300 29.27700
C  46.85100 38.53500 30.61000
C  48.38600 35.16400 32.00700
C  48.10500 34.71400 33.40300
H  47.15200 35.59600 34.16500
N  49.28600 36.73300 26.24800
C  49.50200 37.84700 27.12200
C  50.43000 38.64700 26.49200
C  50.86200 37.96000 25.29700
C  49.90600 36.85800 25.07200
C  50.97600 39.96400 27.18600
C  51.99800 38.30500 24.23800
O  52.16700 37.58500 23.25700
C  52.88400 39.46500 24.41700
N  48.27700 34.40000 24.70300
C  48.86000 34.96200 23.57800
C  48.87100 34.13900 22.34400
C  48.15000 32.87800 22.83000
C  47.76800 33.20900 24.26800
C  48.38500 34.72300 21.05900
C  48.97500 31.56800 22.71600
C  48.44100 30.36100 21.90800
N  47.04100 33.39900 27.12500
C  46.53000 32.39700 26.24700
C  45.54200 31.63000 26.95700
C  45.47100 32.23500 28.23500
C  46.46200 33.26000 28.31500
C  45.04100 30.33300 26.53900
C  44.79500 32.13200 29.47600
O  43.90200 31.34400 29.85100
C  45.31800 33.29000 30.35100
C  45.83000 32.78400 31.58700
O  46.84800 32.17000 31.68500
O  44.99600 33.13600 32.54700
C  45.02100 32.38400 33.79800
H  49.17700 38.91000 29.01300
H  50.36200 36.05100 22.98000
H  46.55500 31.42100 24.44600
H  46.31200 36.15100 31.64800
H  48.74900 37.66900 31.24900
H  45.85200 38.12000 30.74200
H  46.85400 38.99200 29.62000
H  46.95500 39.35800 31.31800
H  49.30500 35.74900 31.97900
H  48.56300 34.25500 31.43100
H  49.01900 34.73500 33.99600
H  47.76100 33.68100 33.44800
H  50.59500 40.20600 28.17800
H  50.54000 40.71200 26.52400
H  52.06600 39.98400 27.20400
H  52.33700 40.40500 24.34800
H  53.76500 39.44700 23.77600
H  53.32300 39.35700 25.40900
H  49.93400 33.95600 22.18500
H  47.18100 32.72100 22.35600
H  47.64700 33.99900 20.71300
H  49.16100 34.64400 20.29700
H  47.96500 35.72200 21.17600
H  49.18200 31.01100 23.63000
H  49.97200 31.84200 22.37100
H  49.29400 29.90200 21.40900
H  47.64700 30.62200 21.20800
H  48.12800 29.48900 22.48100
H  44.67300 30.36000 25.51400
H  44.11300 30.11200 27.06700
H  45.70100 29.46800 26.60800
H  44.63100 34.09300 30.61700
H  44.39000 31.49600 33.82200
H  44.54100 32.91300 34.62200
H  46.01700 32.05400 34.09000

