158

Mg 30.34600 57.94200 40.83500
C  27.24100 56.52300 39.84600
C  31.97700 55.24100 39.21600
C  33.20000 59.60000 40.85000
C  28.58500 60.72600 41.82000
N  29.66600 56.20800 39.55600
C  28.34400 55.78700 39.35800
C  28.31700 54.49100 38.54900
C  29.81100 54.06100 38.61300
C  30.57000 55.24300 39.22200
C  30.03700 52.75300 39.42000
C  27.82200 54.62700 37.07300
C  26.51900 53.82800 36.68300
H  26.25700 53.72900 35.16300
N  32.38900 57.38200 40.25500
C  32.82600 56.24800 39.70800
C  34.29600 56.33600 39.50300
C  34.68300 57.68900 39.88700
C  33.40200 58.26500 40.35700
C  35.16200 55.24900 38.98100
C  36.09900 58.29200 39.75900
O  37.01300 57.59700 39.37600
C  36.42900 59.66800 40.21200
N  30.83500 59.92000 41.17300
C  32.07000 60.37100 41.21200
C  32.14100 61.85600 41.61400
C  30.66300 62.19800 41.95200
C  29.94700 60.84300 41.58700
C  33.17100 62.22800 42.72700
C  30.12200 63.37200 41.13800
C  29.38600 64.47100 41.81100
N  28.28400 58.55600 40.94800
C  27.75600 59.64300 41.51700
C  26.30100 59.53100 41.53700
C  26.09900 58.34400 40.85900
C  27.30800 57.73200 40.52100
C  25.38400 60.62600 42.06100
C  25.05500 57.49500 40.29100
O  23.82200 57.68000 40.31100
C  25.79000 56.30700 39.64400
C  25.26000 55.09900 40.22000
O  25.81300 54.44400 41.09300
O  24.04100 54.79700 39.65800
C  23.38100 53.54200 39.96700
H  32.45400 54.31800 38.88200
H  34.13700 60.15300 40.94300
H  28.16700 61.69200 42.11300
H  27.75800 53.72300 39.08300
H  30.23900 53.88400 37.62600
H  30.86600 52.35400 38.83500
H  29.13000 52.14800 39.43600
H  30.39700 53.03800 40.40900
H  28.55000 54.25500 36.35300
H  27.60700 55.64700 36.75600
H  25.69100 54.13600 37.32000
H  26.54600 52.78100 36.98600
H  34.57000 54.52700 38.41900
H  35.44700 54.71200 39.88600
H  35.98900 55.64800 38.39400
H  37.44600 59.99400 39.99300
H  36.37700 59.55000 41.29400
H  35.75400 60.37700 39.73300
H  32.44100 62.35100 40.69000
H  30.72800 62.33700 43.03100
H  33.70400 61.32100 43.01100
H  32.62400 62.61300 43.58800
H  33.91800 62.97400 42.45500
H  29.41600 62.86800 40.47900
H  30.91300 63.78000 40.50900
H  29.37000 64.18400 42.86300
H  28.41600 64.55000 41.31900
H  29.98300 65.33800 41.53100
H  25.96400 61.44600 42.48500
H  24.67000 60.12100 42.71100
H  24.81500 61.13900 41.28500
H  25.65000 56.30600 38.56300
H  23.60100 52.77400 39.22600
H  22.30500 53.71300 40.00000
H  23.66200 53.23200 40.97300
Mg 16.39900 52.45800 25.21800
C  18.09700 51.00100 27.98100
C  13.67100 52.94900 27.29700
C  14.55200 53.27800 22.54000
C  19.02600 51.21700 23.20600
N  15.96500 52.09000 27.33400
C  16.85900 51.53100 28.30400
C  16.24500 51.71200 29.77400
C  14.79900 52.23400 29.52300
C  14.80700 52.45300 27.96600
C  13.59000 51.33900 29.90200
C  17.14100 52.69400 30.66000
C  17.32800 52.27600 32.09600
H  16.25000 51.30600 32.61400
N  14.36600 53.12600 24.95600
C  13.39400 53.21800 25.95000
C  12.18600 53.81800 25.26300
C  12.44800 53.83900 23.85400
C  13.82800 53.40800 23.74500
C  10.94200 54.12500 26.01900
C  11.53400 54.29900 22.71900
O  11.87000 54.33700 21.55900
C  10.13400 54.79300 22.97500
N  16.70400 52.17400 23.24100
C  15.82800 52.67000 22.33200
C  16.37400 52.76600 20.95800
C  17.79100 52.06200 21.03600
C  17.90500 51.85800 22.58100
C  15.49900 52.39100 19.71700
C  18.98200 52.89500 20.34900
C  19.86300 52.12100 19.37200
N  18.19800 51.37100 25.45200
C  19.16700 50.92400 24.57900
C  20.15400 50.15000 25.21800
C  19.75900 50.14300 26.55900
C  18.57100 50.87300 26.65400
C  21.28200 49.29300 24.57400
C  20.11700 49.70400 27.89400
O  21.04000 49.02300 28.36600
C  19.11500 50.32100 28.81200
C  18.45000 49.16800 29.58700
O  17.50200 48.45200 29.17500
O  18.99400 49.05500 30.90200
C  18.65400 47.93600 31.69600
H  12.79200 53.20000 27.89400
H  14.06600 53.64000 21.63200
H  19.89800 50.96000 22.60100
H  16.26100 50.72300 30.23200
H  14.60500 53.22000 29.94700
H  13.96300 50.37300 30.24200
H  12.95700 51.23800 29.02000
H  13.03300 51.77500 30.73200
H  16.62300 53.64300 30.79300
H  18.07100 52.84000 30.11000
H  17.38800 53.17000 32.71800
H  18.26600 51.72300 32.14400
H  10.17500 53.49000 25.57600
H  10.78900 55.17100 25.75400
H  11.04800 54.09500 27.10300
H  10.16200 55.69900 23.58200
H  9.50500 53.96700 23.30300
H  9.68700 55.12200 22.03700
H  16.74400 53.78900 20.88600
H  17.87600 51.03800 20.67300
H  14.57300 51.90800 20.03000
H  15.99800 51.79500 18.95300
H  15.13000 53.27000 19.18900
H  19.57400 53.32300 21.15800
H  18.63400 53.78200 19.81900
H  19.77800 51.03900 19.46800
H  20.88700 52.43500 19.57300
H  19.67100 52.38700 18.33300
H  22.11700 49.94100 24.30600
H  21.10000 48.84900 23.59500
H  21.62600 48.65700 25.38900
H  19.70700 50.90800 29.51300
H  17.57000 47.84300 31.75800
H  19.00500 48.08100 32.71800
H  19.13300 47.05100 31.27800

