158

Mg 26.13100 1.02000 29.01700
C  28.08500 0.45500 31.85100
C  23.31000 0.94700 30.95000
C  24.25900 1.28900 26.25600
C  28.88000 0.16700 27.00600
N  25.79800 0.67600 31.15800
C  26.71800 0.64500 32.17300
C  26.05400 0.98900 33.51100
C  24.54800 0.84100 33.20200
C  24.53100 0.88200 31.64900
C  23.67200 -0.33100 33.73900
C  26.54200 2.39400 33.88200
C  27.50900 2.42200 35.10600
H  27.46800 3.31200 36.31400
N  24.00600 1.10400 28.63100
C  23.07200 1.00500 29.58600
C  21.80300 1.08000 28.87300
C  21.98000 1.23700 27.50900
C  23.43700 1.27100 27.42100
C  20.51200 0.99800 29.56300
C  20.95500 1.29000 26.29600
O  21.39700 1.56400 25.12700
C  19.50600 0.98200 26.45100
N  26.50400 0.71900 26.92400
C  25.60000 1.15100 26.00700
C  26.26900 1.15500 24.60900
C  27.76700 0.93500 24.90400
C  27.71200 0.59800 26.38300
C  25.68700 0.09100 23.67100
C  28.65300 2.24800 24.60400
C  28.32700 3.46400 25.37000
N  28.02900 0.41100 29.25300
C  29.05100 0.09700 28.38300
C  30.26800 -0.24800 29.03600
C  29.90600 -0.06500 30.39900
C  28.57200 0.32000 30.50100
C  31.45400 -0.83700 28.36800
C  30.44800 -0.10400 31.73300
O  31.61100 -0.30100 32.10600
C  29.31800 0.25900 32.69200
C  29.20800 -0.71600 33.83100
O  28.73100 -1.84500 33.76600
O  29.49000 -0.10700 35.00800
C  29.39200 -0.84600 36.28800
H  22.48800 1.07300 31.65900
H  23.71000 1.48500 25.33200
H  29.80400 -0.04500 26.46500
H  26.30600 0.15200 34.16200
H  23.99000 1.69100 33.59300
H  22.98600 0.11100 34.46100
H  24.27600 -0.95900 34.39400
H  23.25600 -0.87900 32.89300
H  25.73300 3.10300 34.05900
H  27.16600 2.83100 33.10100
H  28.49800 2.62500 34.69600
H  27.52500 1.39200 35.46200
H  19.89200 0.17200 29.21400
H  20.02300 1.94500 29.33800
H  20.57800 0.93100 30.64900
H  19.38200 0.19300 27.19300
H  18.98300 0.89400 25.49800
H  18.94300 1.82900 26.84200
H  26.02800 2.13800 24.20500
H  28.11000 0.03800 24.38800
H  24.78700 -0.39600 24.04700
H  26.31300 -0.71200 23.28200
H  25.27600 0.70900 22.87200
H  28.42100 2.43000 23.55400
H  29.72800 2.07100 24.61100
H  27.63800 3.15500 26.15600
H  27.82700 4.16900 24.70600
H  29.25800 3.93100 25.69100
H  31.94300 -0.01600 27.84400
H  31.14900 -1.68800 27.75800
H  32.09600 -1.15600 29.18800
H  29.60700 1.26300 33.00200
H  29.31100 -1.93100 36.20900
H  28.48300 -0.39000 36.67900
H  30.21900 -0.67600 36.97700
Mg 41.39500 41.92900 26.14300
C  40.73800 44.22900 28.63700
C  42.44800 39.65700 28.56100
C  42.63700 39.98500 23.69400
C  40.60200 44.46500 23.80200
N  41.41600 41.86300 28.32800
C  41.13900 42.97400 29.10600
C  41.28100 42.69100 30.61600
C  41.84700 41.21100 30.53500
C  41.88100 40.83800 29.07500
C  43.14400 40.93300 31.34800
C  39.97400 42.73800 31.53100
C  40.24400 43.27000 32.99300
H  40.20500 42.29800 34.10500
N  42.33100 40.00300 26.14800
C  42.70200 39.23400 27.25300
C  43.29100 38.02700 26.76500
C  43.39700 38.11400 25.33100
C  42.81200 39.41800 24.98000
C  43.88700 36.95800 27.63200
C  44.16800 37.17400 24.35000
O  44.36200 37.42900 23.15500
C  44.80300 35.87400 24.83600
N  41.67900 42.20600 24.09800
C  42.17200 41.24700 23.24400
C  42.01200 41.59100 21.76300
C  41.24100 42.99700 21.84000
C  41.12700 43.27200 23.34300
C  43.27100 41.58200 20.89000
C  39.82000 43.12100 21.23500
C  39.42900 44.41600 20.50400
N  40.71900 43.90700 26.14300
C  40.42800 44.76600 25.16700
C  40.09200 46.06700 25.72600
C  40.07200 45.89000 27.10100
C  40.53000 44.57800 27.32600
C  39.87000 47.39800 25.02500
C  39.89400 46.56100 28.44400
O  39.56700 47.69200 28.72300
C  40.29500 45.48100 29.50500
C  41.27300 45.99800 30.34200
O  42.43000 46.03100 30.07000
O  40.70000 46.25500 31.59200
C  41.64200 46.85000 32.54700
H  42.69100 38.95600 29.36200
H  42.94600 39.33700 22.87100
H  40.23000 45.20500 23.09100
H  42.05200 43.39500 30.92900
H  41.05900 40.50400 30.79600
H  43.32500 41.69900 32.10200
H  44.09700 40.84300 30.82600
H  43.14200 40.05800 31.99800
H  39.56500 41.73300 31.63800
H  39.12600 43.21100 31.03600
H  39.51300 44.06500 33.14100
H  41.20600 43.76200 32.84700
H  44.93900 37.21400 27.76000
H  43.78900 36.01700 27.09100
H  43.34600 36.99500 28.57800
H  45.45200 35.98800 25.70500
H  45.49200 35.49800 24.08000
H  44.07400 35.13600 25.17100
H  41.42100 40.80900 21.28500
H  41.86600 43.80700 21.46500
H  44.12600 41.39600 21.54100
H  43.40300 42.48700 20.29600
H  43.23100 40.70800 20.24000
H  39.08700 43.12600 22.04200
H  39.69600 42.37800 20.44700
H  38.44900 44.71100 20.87800
H  39.29900 44.25900 19.43300
H  40.19800 45.17800 20.62800
H  38.89200 47.35800 24.54500
H  40.71900 47.52200 24.35300
H  39.81500 48.21600 25.74300
H  39.44600 45.19100 30.12500
H  42.15700 46.03100 33.04900
H  41.08300 47.39400 33.30800
H  42.39000 47.58400 32.24500

