158

Mg 48.90000 45.14800 42.91600
C  45.45200 45.49000 41.91400
C  48.62300 41.82800 42.07600
C  52.12000 45.11400 42.81900
C  48.71300 48.59200 43.56500
N  47.31300 43.95500 41.83300
C  46.00900 44.25400 41.62500
C  45.20900 43.07500 41.21000
C  46.06300 41.95800 41.83400
C  47.43900 42.58100 41.93300
C  45.51000 41.41000 43.13100
C  44.93500 42.95300 39.68400
C  45.60500 43.97800 38.74600
H  45.21300 43.91400 37.29800
N  50.24600 43.59900 42.58700
C  49.94200 42.29500 42.29000
C  51.11800 41.56000 42.53900
C  52.16900 42.46100 42.63700
C  51.55700 43.79400 42.67000
C  51.22900 40.06900 42.45200
C  53.63500 42.03000 42.85400
O  54.01300 40.90200 42.65600
C  54.71200 43.07200 43.22400
N  50.21500 46.68100 42.95600
C  51.56000 46.39200 43.04800
C  52.36900 47.77000 43.22800
C  51.23600 48.73200 43.63900
C  49.96500 47.96900 43.41500
C  53.45200 47.59000 44.31600
C  51.22800 50.18400 42.99400
C  51.45700 51.30800 43.92100
N  47.35700 46.71300 42.98200
C  47.51300 48.08100 43.25000
C  46.19500 48.72800 43.15600
C  45.40300 47.73500 42.61100
C  46.11900 46.55300 42.49400
C  45.92400 50.22400 43.21800
C  44.06500 47.49500 42.07700
O  43.13700 48.25200 41.93500
C  44.11800 46.03800 41.51800
C  42.94100 45.33400 42.12600
O  42.13000 44.78100 41.38300
O  42.74400 45.50300 43.46300
C  41.46300 44.88700 43.88500
H  48.41500 40.76300 41.95400
H  53.20600 45.21800 42.87500
H  48.66600 49.59900 43.98400
H  44.22700 43.01200 41.68000
H  46.13300 41.09800 41.16800
H  45.22900 40.36700 42.98700
H  44.66200 41.93900 43.56700
H  46.29300 41.47600 43.88700
H  43.87900 43.17500 39.53400
H  45.14000 41.92900 39.37000
H  46.69400 44.01600 38.74800
H  45.33100 44.95600 39.14200
H  51.80100 39.81300 41.56000
H  50.26900 39.60000 42.23700
H  51.68200 39.77200 43.39900
H  55.58500 42.49900 43.53700
H  54.17300 43.60700 44.00600
H  54.94700 43.73200 42.38900
H  52.68500 47.99700 42.21000
H  51.30400 48.88500 44.71600
H  53.73400 48.51200 44.82500
H  54.40300 47.26300 43.89500
H  53.15600 46.81400 45.02100
H  50.21700 50.26700 42.59700
H  51.81900 50.17700 42.07900
H  51.70700 52.19500 43.34000
H  52.28200 51.08000 44.59700
H  50.63700 51.54500 44.59800
H  46.54900 50.85500 42.58500
H  45.91800 50.53800 44.26200
H  44.90300 50.40900 42.88400
H  43.98400 45.96200 40.43900
H  40.66800 45.20600 43.21100
H  41.17300 45.22600 44.87900
H  41.63500 43.81100 43.90300
Mg 29.97500 57.68000 38.77100
C  27.15300 55.68800 38.35200
C  31.88900 54.80100 38.26600
C  32.76300 59.73900 38.83600
C  27.92800 60.61400 39.01800
N  29.59800 55.44000 38.35500
C  28.33800 54.93200 38.09900
C  28.42100 53.38700 37.80000
C  29.90600 53.15300 37.86200
C  30.52700 54.51300 38.31000
C  30.40000 51.99100 38.72600
C  27.71300 52.86000 36.57600
C  28.31900 53.36100 35.20300
H  27.49000 53.85600 34.08000
N  32.02100 57.35400 38.54400
C  32.63500 56.08100 38.32900
C  34.04400 56.22800 38.21100
C  34.34100 57.60300 38.37000
C  33.00600 58.29200 38.64600
C  34.99700 55.10700 37.99200
C  35.77200 58.24700 38.26800
O  36.78600 57.53000 38.10700
C  36.01900 59.69900 38.28200
N  30.30900 59.90900 38.76500
C  31.51500 60.41400 38.93600
C  31.41500 61.89000 39.28800
C  29.86200 62.16600 39.29900
C  29.31500 60.78500 39.07800
C  32.12500 62.58900 40.56300
C  29.47400 63.28000 38.16400
C  29.55800 64.77400 38.54400
N  28.00300 58.14100 38.67100
C  27.35200 59.36800 38.70100
C  25.95700 59.03300 38.58300
C  25.84600 57.63500 38.48900
C  27.10800 57.09100 38.46600
C  24.83400 60.04000 38.63000
C  24.86100 56.55000 38.52800
O  23.62100 56.44100 38.69400
C  25.63500 55.24400 38.28900
C  25.12700 54.12900 39.18200
O  25.28900 54.03900 40.39900
O  24.29700 53.22400 38.49000
C  23.55100 52.25300 39.31700
H  32.45900 53.91900 37.96600
H  33.62100 60.39800 38.98500
H  27.21000 61.42000 39.18200
H  27.89000 52.99900 38.66900
H  30.44800 52.99800 36.92900
H  29.56800 51.48200 39.21400
H  31.14200 52.32700 39.45000
H  30.81700 51.17000 38.14300
H  26.67900 53.19200 36.66800
H  27.73300 51.77000 36.58300
H  28.90600 52.53200 34.80600
H  29.00200 54.17200 35.45500
H  35.85500 55.44400 37.41000
H  34.57900 54.24900 37.46400
H  35.31300 54.74000 38.96800
H  35.76400 60.07700 39.27300
H  35.48300 60.19700 37.47400
H  37.05100 59.97400 38.06400
H  31.86000 62.47500 38.48300
H  29.57000 62.62700 40.24300
H  31.45700 62.71200 41.41500
H  32.25500 63.57600 40.11900
H  33.07500 62.11000 40.79900
H  28.48400 63.11200 37.74000
H  30.18600 63.02600 37.37800
H  29.62500 64.97400 39.61300
H  28.72900 65.38300 38.18400
H  30.54700 65.18000 38.33000
H  24.92800 60.70900 39.48500
H  23.93700 59.43300 38.75200
H  24.77100 60.71500 37.77700
H  25.35800 54.98200 37.26800
H  24.32900 51.61200 39.73300
H  22.86300 51.65200 38.72200
H  22.95400 52.73800 40.09000

