158

Mg 29.72300 57.95500 40.78400
C  27.01700 56.28000 39.36100
C  31.75300 55.65900 39.20200
C  32.41300 60.03300 41.20100
C  27.53200 60.64300 41.49900
N  29.37400 56.10400 39.55700
C  28.23200 55.63800 38.98800
C  28.42100 54.44700 38.14700
C  29.91200 54.03500 38.52700
C  30.40100 55.32300 39.14600
C  30.32200 52.76400 39.35700
C  28.21300 54.70400 36.61900
C  27.18400 53.82000 35.84200
H  26.30300 54.55600 34.89800
N  31.83600 57.79000 40.39100
C  32.40800 56.71500 39.74700
C  33.80100 56.91800 39.85400
C  34.08000 58.20000 40.46900
C  32.78500 58.75900 40.71700
C  34.79300 55.91700 39.27100
C  35.46400 58.74900 40.61400
O  36.48000 58.08400 40.31600
C  35.71500 60.03700 41.35000
N  29.95600 59.99700 41.26000
C  31.19600 60.58400 41.41500
C  31.00200 62.02700 41.81600
C  29.50000 62.21600 42.04600
C  28.93200 60.87300 41.57900
C  31.98600 62.52200 42.88200
C  28.75600 63.43300 41.38200
C  27.63400 64.08200 42.29000
N  27.72400 58.37900 40.63700
C  26.96300 59.44700 41.07900
C  25.54100 59.18800 40.77000
C  25.46800 57.88600 40.22900
C  26.85300 57.48100 40.09800
C  24.38700 60.16900 40.98400
C  24.58400 56.90400 39.67700
O  23.37500 56.89700 39.53200
C  25.58700 55.74700 39.13200
C  25.19100 54.52200 39.89800
O  24.99200 54.44500 41.07200
O  24.83400 53.47000 39.03400
C  24.22800 52.26700 39.74000
H  32.43600 54.94600 38.73400
H  33.24300 60.72200 41.37600
H  26.88800 61.48500 41.76100
H  27.75400 53.75500 38.66200
H  30.44100 53.94900 37.57800
H  30.82500 51.95200 38.83300
H  29.38700 52.33700 39.72000
H  30.97500 53.04000 40.18500
H  29.19000 54.69100 36.13600
H  28.00700 55.77300 36.56600
H  26.46500 53.36600 36.52400
H  27.76200 53.02800 35.36600
H  35.60700 55.87100 39.99500
H  35.12800 56.44700 38.37900
H  34.46800 54.90200 39.04300
H  35.37700 60.92800 40.82100
H  36.79400 60.01900 41.19600
H  35.40100 60.07000 42.39300
H  31.28500 62.63600 40.95700
H  29.26100 62.13300 43.10600
H  32.60000 63.26100 42.36900
H  32.65500 61.73200 43.22100
H  31.41800 62.98100 43.69200
H  28.35100 63.11700 40.42100
H  29.49900 64.18600 41.12000
H  27.95900 65.06800 42.62400
H  27.51300 63.59800 43.25900
H  26.63900 64.12900 41.84800
H  23.58100 59.74700 41.58300
H  23.97100 60.41200 40.00600
H  24.85200 60.98700 41.53400
H  25.34500 55.58200 38.08200
H  24.72000 51.46300 39.19200
H  23.18600 52.22900 39.42100
H  24.26300 52.22600 40.82900
Mg 35.58100 48.01800 26.88400
C  36.12200 45.70200 29.61700
C  34.06200 50.12800 29.07400
C  34.75500 49.90600 24.26600
C  36.54900 45.40700 24.73500
N  34.97500 47.82200 29.11100
C  35.42600 46.89400 30.05600
C  35.33100 47.45800 31.49200
C  34.36200 48.72900 31.25300
C  34.41200 48.90100 29.69400
C  32.92700 48.65200 31.85200
C  36.69400 47.83500 32.18400
C  36.71300 47.47900 33.69000
H  36.38600 48.64900 34.64000
N  34.64400 49.83600 26.67700
C  34.13200 50.57500 27.68400
C  33.81300 51.89300 27.26200
C  33.86000 51.81000 25.81700
C  34.37000 50.46900 25.48100
C  33.35500 53.12700 28.09400
C  33.62300 52.93900 24.74100
O  33.64000 52.74700 23.51600
C  33.32400 54.28900 25.24100
N  35.66300 47.67800 24.86300
C  35.36400 48.65700 23.91100
C  35.53600 48.20300 22.45300
C  36.51300 47.02000 22.67600
C  36.15000 46.58600 24.14900
C  34.26600 47.85300 21.62200
C  38.02500 47.31600 22.51700
C  38.68400 46.51700 21.38600
N  36.22400 46.00600 27.07500
C  36.53600 45.10100 26.11900
C  36.91800 43.84600 26.72000
C  36.84800 44.07100 28.10200
C  36.37300 45.39700 28.27400
C  37.33700 42.57000 25.96000
C  37.03400 43.46300 29.41400
O  37.37200 42.34600 29.77200
C  36.68100 44.57200 30.45000
C  35.65400 44.02700 31.39600
O  34.49100 43.64000 31.12600
O  36.19300 44.03700 32.66200
C  35.27500 43.56200 33.70000
H  33.72600 50.90400 29.76500
H  34.70400 50.52900 23.37100
H  36.64100 44.58300 24.02500
H  34.91800 46.69900 32.15600
H  34.77100 49.63700 31.69700
H  32.72600 49.41400 32.60600
H  32.62600 47.66800 32.21200
H  32.23000 48.84800 31.03800
H  36.90600 48.90100 32.10000
H  37.50400 47.28300 31.70900
H  37.74700 47.24600 33.94400
H  36.20900 46.54000 33.92200
H  32.36900 53.31600 27.67100
H  34.01400 53.98900 27.98600
H  33.30300 52.85800 29.14900
H  33.06800 54.88000 24.36200
H  34.08400 54.72000 25.89400
H  32.36400 54.05000 25.69900
H  36.06300 48.94500 21.85300
H  36.29500 46.16700 22.03400
H  34.16100 46.81600 21.30200
H  34.18700 48.49900 20.74800
H  33.35900 48.08800 22.17700
H  38.68600 47.15600 23.36900
H  38.26200 48.37000 22.37700
H  38.75300 45.48900 21.74200
H  39.69500 46.91200 21.28500
H  38.10800 46.56900 20.46200
H  36.85200 42.41200 24.99600
H  37.09800 41.65000 26.49200
H  38.42600 42.53900 25.91500
H  37.54900 44.91600 31.01300
H  35.85500 43.42000 34.61200
H  34.95200 42.55700 33.42800
H  34.48400 44.28900 33.88400

