158

Mg 42.25400 41.11100 26.41600
C  41.63800 43.50500 28.95100
C  42.96000 38.73900 28.58800
C  43.49400 39.29400 23.76300
C  41.76400 43.82600 24.02600
N  42.52100 41.23400 28.58600
C  41.99300 42.19600 29.46100
C  41.89300 41.68000 30.94700
C  42.30400 40.18100 30.67500
C  42.54500 40.00800 29.18600
C  43.42100 39.69100 31.66400
C  40.47300 41.89100 31.58000
C  40.21900 41.18800 32.93800
H  39.48400 42.02300 34.02400
N  43.03800 39.25100 26.23400
C  43.34800 38.38100 27.27600
C  43.84200 37.15100 26.77500
C  44.04500 37.30200 25.36200
C  43.53200 38.69600 25.05400
C  44.02200 35.90100 27.62700
C  44.57200 36.33700 24.28900
O  44.77800 36.56700 23.11800
C  44.72500 34.83500 24.64200
N  42.47800 41.48600 24.24100
C  43.03100 40.55000 23.34600
C  43.00600 40.95300 21.86100
C  42.15700 42.24900 21.94300
C  42.18800 42.62300 23.49700
C  44.41900 41.13800 21.16000
C  40.70700 42.11500 21.47700
C  39.70200 40.97800 21.96300
N  41.90300 43.29600 26.39200
C  41.61500 44.19800 25.41300
C  41.15600 45.43600 25.97800
C  41.18100 45.24700 27.33900
C  41.64700 43.91100 27.56100
C  40.77300 46.72000 25.36600
C  40.95500 45.84200 28.66800
O  40.55500 46.93800 28.93500
C  41.10600 44.73700 29.70400
C  42.04000 45.18400 30.79900
O  43.28300 45.26900 30.74200
O  41.29200 45.41700 31.85100
C  41.96100 45.52700 33.13300
H  43.21200 37.90700 29.24800
H  43.68700 38.64300 22.90800
H  41.53900 44.59600 23.28500
H  42.69000 42.19800 31.48200
H  41.42400 39.57100 30.88300
H  44.35200 39.70100 31.09600
H  43.08800 38.75400 32.11100
H  43.53900 40.41100 32.47400
H  39.81000 41.48500 30.81600
H  40.18200 42.91300 31.82200
H  41.20300 40.85100 33.26500
H  39.53500 40.34900 32.80900
H  43.40600 35.13700 27.15300
H  43.84300 36.01400 28.69600
H  45.01300 35.45300 27.55500
H  45.07500 34.32300 23.74600
H  43.82400 34.50200 25.15700
H  45.44700 34.81100 25.45800
H  42.43900 40.19200 21.32400
H  42.54800 43.07700 21.35300
H  44.51300 40.39300 20.37000
H  45.03600 40.75500 21.97400
H  44.80600 42.10200 20.83000
H  40.84200 41.98900 20.40300
H  40.37700 43.11100 21.77200
H  39.96100 40.42900 22.86900
H  39.42800 40.46700 21.04100
H  38.78600 41.47800 22.27800
H  39.84700 47.07600 25.81800
H  40.50900 46.48100 24.33500
H  41.56700 47.46100 25.45600
H  40.13300 44.63400 30.18300
H  42.35100 44.52500 33.31400
H  41.43100 45.87800 34.01800
H  42.76800 46.25800 33.18500
Mg 0.54700 43.28400 25.89900
C  2.56300 43.73200 28.71700
C  -1.92500 42.06200 27.95300
C  -1.15100 42.38100 23.19600
C  3.26000 44.29600 23.92800
N  0.41600 43.03800 28.07400
C  1.26700 43.37800 29.03900
C  0.62600 43.32600 30.42800
C  -0.85200 42.79000 30.10900
C  -0.82200 42.63600 28.59200
C  -1.37700 41.57000 30.84800
C  0.67900 44.65100 31.16900
C  0.95100 44.52700 32.69400
H  0.84400 43.21500 33.34900
N  -1.30100 42.39300 25.63000
C  -2.14500 42.00800 26.59200
C  -3.26100 41.23100 26.00500
C  -3.02900 41.31400 24.59200
C  -1.78700 42.09100 24.42400
C  -4.38100 40.58600 26.84500
C  -3.86500 40.78000 23.50600
O  -3.47100 40.96400 22.35000
C  -5.16600 40.03000 23.76000
N  0.92100 43.42000 23.83300
C  0.10500 42.91100 22.89300
C  0.75100 43.09100 21.48300
C  2.05400 43.86900 21.70000
C  2.11800 43.89100 23.24200
C  1.03200 41.71800 20.75300
C  2.13700 45.25000 20.97900
C  1.86800 46.52500 21.86700
N  2.50700 43.92000 26.23800
C  3.50800 44.23500 25.30900
C  4.77200 44.31100 26.03000
C  4.39700 44.11800 27.38600
C  3.00600 43.93400 27.45200
C  6.13400 44.62800 25.43000
C  4.96300 43.98100 28.63900
O  6.15300 43.88900 28.88200
C  3.80900 43.82200 29.58300
C  3.93700 42.57000 30.38800
O  3.50800 41.48200 29.95400
O  4.34100 42.80100 31.70800
C  4.58000 41.58300 32.53700
H  -2.73600 41.86500 28.65600
H  -1.56700 42.15700 22.21100
H  4.17200 44.47200 23.35300
H  1.24400 42.62300 30.98700
H  -1.56800 43.60000 30.24700
H  -0.59200 41.05900 31.40500
H  -1.67100 40.85200 30.08200
H  -2.26800 41.81800 31.42500
H  -0.25200 45.19600 31.00800
H  1.48400 45.24600 30.73900
H  0.23700 45.22100 33.13700
H  1.93500 44.97600 32.83300
H  -4.77400 41.12100 27.71000
H  -4.17700 39.52800 27.00800
H  -5.28100 40.59500 26.23000
H  -5.45000 39.52000 22.84000
H  -5.91800 40.72000 24.14400
H  -5.25200 39.24400 24.51000
H  0.00700 43.59200 20.86500
H  2.94700 43.30400 21.43500
H  1.06300 40.92500 21.50100
H  2.01600 41.73200 20.28500
H  0.33100 41.33200 20.01300
H  1.37000 45.14200 20.21100
H  3.10000 45.41100 20.49500
H  1.67400 47.30000 21.12600
H  2.71900 46.79200 22.49300
H  0.95900 46.43500 22.46200
H  6.09300 44.62700 24.34100
H  6.75100 43.78600 25.74400
H  6.59200 45.52800 25.84100
H  3.82000 44.69600 30.23400
H  5.65700 41.41700 32.51000
H  4.08600 40.63400 32.33100
H  4.37900 41.82000 33.58200

