158

Mg 10.23900 46.74400 25.54500
C  7.96800 46.90000 28.18200
C  12.66800 48.08200 27.59200
C  12.28600 46.68500 22.94600
C  7.53300 46.22600 23.40000
N  10.33200 47.45700 27.62400
C  9.28300 47.21200 28.54600
C  9.79400 47.55200 29.95100
C  11.17800 48.24800 29.74400
C  11.46300 47.87200 28.28800
C  11.15600 49.87800 29.84200
C  9.73500 46.28200 30.92500
C  9.35300 46.55500 32.39200
H  9.65900 45.55800 33.42200
N  12.18900 47.21400 25.31200
C  13.00500 47.71800 26.30400
C  14.35800 47.96300 25.75500
C  14.33200 47.43000 24.38400
C  12.87900 47.14500 24.16800
C  15.50700 48.58600 26.57100
C  15.54900 47.20500 23.44100
O  15.45200 46.68700 22.36700
C  16.97100 47.53200 23.84600
N  10.00500 46.49100 23.38100
C  10.98200 46.43500 22.52000
C  10.41900 46.09500 21.06100
C  8.86500 45.79900 21.40200
C  8.81500 46.19700 22.85900
C  10.76700 47.22300 20.05100
C  8.40600 44.31100 20.98100
C  7.50400 44.34400 19.75000
N  8.19000 46.61200 25.64300
C  7.20900 46.47300 24.71400
C  5.89500 46.54100 25.33600
C  6.18100 46.65100 26.72900
C  7.53000 46.70600 26.85900
C  4.64200 46.43600 24.62600
C  5.57000 46.72900 28.04000
O  4.38100 46.77900 28.31800
C  6.73200 46.79400 29.01900
C  6.53600 45.50900 29.80200
O  6.89200 44.38800 29.49200
O  5.89300 45.73800 30.93600
C  5.55000 44.58300 31.77000
H  13.49000 48.43700 28.21700
H  13.04500 46.51200 22.18000
H  6.71700 46.10800 22.68400
H  9.02800 48.24700 30.29500
H  11.99200 47.78800 30.30400
H  11.58700 50.29500 28.93200
H  11.84800 50.15500 30.63700
H  10.15000 50.23900 30.05400
H  10.75700 45.91100 30.83600
H  9.04700 45.56600 30.47600
H  8.26500 46.60500 32.41200
H  9.78200 47.50500 32.71200
H  15.27900 48.91700 27.58400
H  15.81400 49.52900 26.11800
H  16.36200 47.91100 26.62100
H  17.74800 47.58400 23.08300
H  17.11800 46.78100 24.62300
H  16.95600 48.45700 24.42300
H  10.92100 45.17800 20.75300
H  8.17700 46.44400 20.85500
H  11.51700 46.86700 19.34500
H  11.13100 48.20200 20.36000
H  9.86300 47.34900 19.45500
H  7.87400 43.86800 21.82400
H  9.32500 43.72900 20.91100
H  8.13600 43.86100 19.00500
H  7.08700 45.31700 19.48800
H  6.62100 43.76000 20.01100
H  4.45800 45.41100 24.30300
H  4.60300 47.11500 23.77400
H  3.84800 46.76200 25.29700
H  6.69400 47.64200 29.70300
H  6.53200 44.37500 32.19300
H  5.25200 43.65600 31.28100
H  4.84000 44.91200 32.52900
Mg -5.98700 25.02300 25.52200
C  -4.04700 26.23600 28.45100
C  -7.49200 22.75100 27.56600
C  -7.01400 23.33900 22.72800
C  -3.53700 26.63700 23.60300
N  -5.70300 24.55000 27.74900
C  -5.11600 25.33400 28.73500
C  -5.55900 24.89200 30.18800
C  -6.43200 23.61700 29.77700
C  -6.59600 23.63400 28.24900
C  -5.85000 22.25900 30.23500
C  -6.44400 25.90100 31.01600
C  -6.44000 25.72500 32.59300
H  -5.71700 24.58300 33.27000
N  -7.23700 23.38500 25.17100
C  -7.86900 22.62600 26.16900
C  -8.80100 21.76800 25.57200
C  -8.47700 21.70000 24.20600
C  -7.55800 22.84800 23.92700
C  -9.66500 20.75100 26.35100
C  -8.94900 20.73600 23.04500
O  -8.69700 20.96500 21.91000
C  -9.75900 19.57000 23.44400
N  -5.38500 25.05100 23.45700
C  -6.02800 24.27100 22.50200
C  -5.61500 24.74200 21.08500
C  -4.60700 25.88100 21.39100
C  -4.47700 25.88200 22.87900
C  -5.12300 23.61800 20.21500
C  -4.79900 27.36200 20.79100
C  -3.59400 28.09600 20.13800
N  -4.28200 26.30900 25.86400
C  -3.38000 26.81800 24.96400
C  -2.38000 27.54900 25.64500
C  -2.55900 27.37900 27.00100
C  -3.76100 26.62700 27.13000
C  -1.37700 28.45500 25.04600
C  -2.05300 27.77700 28.35500
O  -1.08300 28.42300 28.70200
C  -3.09400 27.09300 29.34600
C  -2.28700 26.16500 30.23700
O  -1.80900 25.06500 30.02000
O  -2.25400 26.80000 31.49200
C  -1.47400 26.08700 32.51300
H  -8.09200 22.09400 28.20000
H  -7.19100 22.66100 21.89000
H  -2.76800 27.06700 22.95900
H  -4.68200 24.67100 30.79600
H  -7.43500 23.75900 30.17900
H  -4.77400 22.38600 30.35700
H  -5.93600 21.56700 29.39700
H  -6.30000 21.90700 31.16300
H  -7.42900 25.79600 30.56100
H  -6.12300 26.92100 30.80500
H  -7.47900 25.96900 32.81500
H  -5.83400 26.56200 32.94100
H  -9.23700 19.77100 26.14000
H  -10.65000 20.96500 25.93400
H  -9.71500 20.93200 27.42400
H  -10.15600 18.94500 22.64400
H  -10.58900 19.90400 24.06600
H  -9.03900 18.86000 23.85100
H  -6.52200 25.25200 20.76200
H  -3.61000 25.67000 21.00400
H  -4.08400 23.76100 19.91600
H  -5.79200 23.57900 19.35600
H  -5.14300 22.70700 20.81400
H  -5.06500 27.96300 21.66100
H  -5.62200 27.32700 20.07800
H  -3.34200 28.93300 20.79000
H  -3.90400 28.44700 19.15400
H  -2.66400 27.52800 20.17000
H  -1.38700 28.50100 23.95700
H  -0.34500 28.25700 25.33500
H  -1.59400 29.44200 25.45500
H  -3.67000 27.90000 29.79900
H  -0.50000 25.93100 32.04800
H  -1.87300 25.20300 33.01000
H  -1.26900 26.78800 33.32200

