158

Mg -0.34900 7.96400 26.24000
C  0.58400 10.01100 28.87500
C  -0.20000 5.30700 28.30500
C  -0.84700 6.02400 23.59000
C  0.16300 10.77300 24.00100
N  0.27400 7.71600 28.30000
C  0.32400 8.67200 29.22300
C  0.26000 8.12400 30.65300
C  0.40700 6.59000 30.45700
C  0.20400 6.52200 28.89300
C  1.68100 6.05200 31.00600
C  -1.16600 8.55900 31.17800
C  -1.25800 8.87200 32.68400
H  -0.10400 8.33000 33.54400
N  -0.44700 5.93900 25.97400
C  -0.54900 5.01000 26.95700
C  -1.00700 3.77000 26.38400
C  -1.16800 3.95600 25.01600
C  -0.75900 5.34200 24.82100
C  -1.14600 2.50100 27.24300
C  -1.65100 2.98400 23.79600
O  -1.63700 3.27300 22.62200
C  -1.83400 1.58300 24.17500
N  -0.26300 8.36700 24.15600
C  -0.70400 7.42300 23.28300
C  -0.91700 7.91000 21.86000
C  -0.55200 9.45700 22.03200
C  -0.22600 9.56000 23.49300
C  -0.02300 7.13000 20.84800
C  -1.80000 10.34600 21.69800
C  -2.76700 10.98400 22.80200
N  0.19800 9.96800 26.35200
C  0.42000 10.96400 25.40300
C  0.92100 12.16500 26.09100
C  1.00300 11.81700 27.46100
C  0.48900 10.55900 27.58000
C  1.30700 13.42800 25.44800
C  1.22700 12.34300 28.76700
O  1.63700 13.42800 29.17200
C  0.97600 11.21000 29.75400
C  2.25000 11.10600 30.52500
O  3.24400 10.58200 30.06900
O  2.12500 11.56600 31.77000
C  3.31800 11.57100 32.56900
H  -0.14500 4.43600 28.96100
H  -1.34200 5.52100 22.75700
H  0.09200 11.66600 23.37700
H  0.97400 8.74900 31.19100
H  -0.43700 6.08800 30.93000
H  2.17500 6.72000 31.71200
H  2.31300 5.71000 30.18700
H  1.35900 5.14700 31.52000
H  -1.82100 7.70100 31.02600
H  -1.61700 9.43600 30.71300
H  -2.27200 8.57200 32.94800
H  -1.16300 9.95400 32.76700
H  -2.20200 2.23100 27.22200
H  -0.89900 2.60900 28.29900
H  -0.67200 1.61200 26.82800
H  -0.90200 1.08900 23.90100
H  -2.61700 1.12800 23.56800
H  -2.09400 1.50200 25.23100
H  -1.96700 7.66100 21.70300
H  0.38800 9.73500 21.55400
H  0.32300 6.27900 21.43400
H  0.88600 7.67900 20.60200
H  -0.55700 6.87000 19.93300
H  -2.46800 9.89200 20.96600
H  -1.39100 11.09300 21.01700
H  -3.80400 10.80900 22.51500
H  -2.75800 12.07400 22.81800
H  -2.68700 10.59400 23.81700
H  0.62100 14.25600 25.63200
H  1.45900 13.27900 24.37900
H  2.29200 13.73600 25.79800
H  0.14600 11.44400 30.42100
H  3.82700 12.53500 32.56400
H  4.09300 10.87300 32.25200
H  3.01400 11.35400 33.59300
Mg 26.95600 50.57500 26.40300
C  24.75400 51.75200 28.80000
C  29.34100 50.24600 28.87800
C  29.20300 50.08500 23.96900
C  24.57700 51.45700 23.94500
N  27.03800 51.03200 28.57300
C  25.96600 51.30700 29.35800
C  26.24900 51.15200 30.91400
C  27.75800 50.75100 30.88400
C  28.10600 50.67400 29.36400
C  28.78600 51.72400 31.61800
C  25.27300 50.11600 31.63300
C  24.73700 50.55500 33.04500
H  24.80600 49.64300 34.28200
N  28.97600 50.20800 26.43300
C  29.78900 50.03500 27.56700
C  31.11700 49.62500 27.20300
C  31.19800 49.60900 25.78500
C  29.70500 49.94400 25.33300
C  32.27800 49.41600 28.23800
C  32.42300 49.42200 24.88200
O  32.19800 49.59200 23.64200
C  33.78400 49.03800 25.46700
N  26.95400 50.72700 24.31100
C  27.97500 50.43700 23.50200
C  27.48400 50.35800 22.04000
C  26.02800 50.64700 22.04000
C  25.81000 50.93600 23.57400
C  28.34500 51.20700 21.04700
C  25.07900 49.59500 21.41800
C  24.07600 50.25400 20.53200
N  25.06900 51.47000 26.33500
C  24.22400 51.72400 25.26600
C  23.01200 52.38200 25.76700
C  23.16000 52.37600 27.17600
C  24.48500 51.84500 27.46500
C  21.93100 52.98300 24.91400
C  22.49500 52.64400 28.43400
O  21.38800 53.08200 28.65000
C  23.47500 52.22800 29.49100
C  23.70200 53.27000 30.51700
O  24.58000 54.08300 30.39200
O  22.81600 53.06500 31.59700
C  22.99200 54.14800 32.58500
H  30.04200 50.09200 29.70200
H  29.80500 49.85300 23.08800
H  23.85600 51.75600 23.18200
H  26.09300 52.14400 31.33700
H  27.81400 49.75000 31.31300
H  29.27200 52.42100 30.93500
H  29.53300 51.20900 32.22100
H  28.19400 52.19300 32.40400
H  25.83100 49.17900 31.63200
H  24.37600 49.99100 31.02800
H  23.67400 50.71800 32.87000
H  25.10600 51.55000 33.29800
H  33.01700 50.17800 27.99100
H  32.74100 48.44000 28.09400
H  31.94100 49.49200 29.27200
H  34.20900 49.81600 26.10300
H  34.50300 48.86500 24.66600
H  33.64200 48.12200 26.03900
H  27.60800 49.31100 21.76300
H  25.88200 51.62700 21.58700
H  29.17700 51.74900 21.49700
H  27.80100 51.93600 20.44600
H  28.74200 50.45000 20.37100
H  24.56800 49.07000 22.22500
H  25.65800 48.93200 20.77500
H  23.23800 50.58700 21.14400
H  23.62300 49.55500 19.82900
H  24.47800 51.09300 19.96400
H  22.39800 53.50900 24.08200
H  21.39900 53.69100 25.55000
H  21.21600 52.31400 24.43500
H  23.03300 51.46000 30.12600
H  23.11300 55.08300 32.03700
H  23.86100 54.03100 33.23300
H  22.11900 54.13700 33.23700

