158

Mg -3.04000 16.97500 26.73900
C  -3.66700 14.84800 29.44900
C  -3.57900 19.57000 29.02700
C  -3.42700 19.08300 24.22000
C  -3.41800 14.23200 24.61100
N  -3.68200 17.17300 29.05300
C  -3.64000 16.16800 29.97900
C  -3.68900 16.70400 31.41800
C  -3.88100 18.22700 31.18300
C  -3.69400 18.34400 29.68600
C  -5.18000 18.94300 31.76100
C  -2.65200 16.15700 32.44500
C  -2.24800 17.05700 33.53800
H  -1.83600 16.34300 34.87000
N  -3.08100 19.02000 26.68900
C  -3.32000 19.94000 27.71500
C  -3.23400 21.26500 27.09000
C  -3.19000 21.14200 25.72400
C  -3.22500 19.68300 25.46100
C  -3.27200 22.56300 27.98600
C  -3.21800 22.21700 24.70500
O  -3.19900 22.00300 23.54700
C  -3.15700 23.63600 25.04000
N  -3.53400 16.69500 24.77600
C  -3.55100 17.72400 23.90500
C  -3.60400 17.20600 22.42600
C  -3.34000 15.71100 22.59100
C  -3.47600 15.51100 24.12100
C  -4.93600 17.63600 21.65200
C  -1.95800 15.33600 21.87500
C  -0.69100 15.32700 22.72000
N  -3.29200 14.93800 26.94400
C  -3.44600 13.94200 25.99400
C  -3.67700 12.69500 26.67200
C  -3.78800 12.98800 28.06500
C  -3.58700 14.31500 28.11700
C  -3.96400 11.35000 26.09200
C  -4.08500 12.47000 29.37000
O  -4.38000 11.39500 29.89200
C  -4.00500 13.67500 30.34200
C  -2.92100 13.27900 31.27600
O  -1.76400 13.41700 30.98900
O  -3.45300 12.78500 32.39500
C  -2.47200 12.44400 33.47500
H  -3.62600 20.38300 29.75400
H  -3.53900 19.75200 23.36400
H  -3.29000 13.35300 23.97600
H  -4.63900 16.39500 31.85400
H  -3.05100 18.72200 31.68800
H  -4.81300 19.69000 32.46500
H  -5.81300 18.24900 32.31500
H  -5.77900 19.41200 30.98000
H  -1.72000 16.06100 31.88600
H  -3.11200 15.24300 32.82100
H  -3.13400 17.64400 33.77600
H  -1.37600 17.68900 33.37000
H  -3.50800 22.42500 29.04100
H  -4.11900 23.14800 27.62800
H  -2.33800 23.12600 27.99400
H  -3.96700 23.87000 25.73100
H  -3.21000 24.30200 24.17800
H  -2.20600 23.76200 25.55600
H  -2.80500 17.67300 21.85000
H  -4.06200 15.15900 21.99100
H  -5.55400 16.75200 21.80900
H  -4.84800 17.79000 20.57700
H  -5.51700 18.44900 22.08800
H  -1.66300 15.93800 21.01600
H  -2.05200 14.30000 21.54900
H  -0.65100 16.05600 23.52900
H  0.22500 15.53700 22.16800
H  -0.59700 14.28200 23.01500
H  -4.24100 10.71300 26.93200
H  -3.20300 10.87500 25.47200
H  -4.89500 11.55000 25.56100
H  -4.94000 13.90000 30.85300
H  -2.90700 11.75500 34.19900
H  -2.30400 13.33500 34.08000
H  -1.49100 12.03000 33.24200
Mg 54.56500 25.26900 44.24000
C  51.80200 27.45800 43.95900
C  52.53400 22.71400 43.28600
C  57.26600 23.29800 43.67300
C  56.57200 27.97700 44.71900
N  52.49400 25.19300 43.56400
C  51.51500 26.08600 43.57600
C  50.15900 25.45600 43.21800
C  50.39000 23.96400 43.36400
C  51.92700 23.97700 43.47200
C  49.68100 23.28700 44.61400
C  49.53000 25.83200 41.84400
C  50.43900 26.60300 40.82200
H  50.64100 25.98300 39.48400
N  54.89900 23.23200 43.66600
C  53.84500 22.30500 43.36500
C  54.43100 21.03800 43.04900
C  55.84800 21.16000 43.09300
C  56.08900 22.58200 43.46000
C  53.61200 19.81200 42.74000
C  56.84800 20.01100 42.91700
O  56.45000 18.90400 42.58300
C  58.36100 20.27500 43.04400
N  56.62200 25.65500 43.91200
C  57.52400 24.66000 43.90400
C  58.92200 25.12500 44.12100
C  58.76700 26.65100 44.25300
C  57.15300 26.76500 44.35500
C  59.59400 24.47700 45.37700
C  59.32700 27.46700 43.10500
C  59.71700 28.94900 43.53500
N  54.28500 27.33800 44.29800
C  55.17200 28.31200 44.67400
C  54.50600 29.56900 44.88400
C  53.15300 29.30700 44.64600
C  53.10900 27.93900 44.31100
C  55.03600 30.92500 45.31500
C  51.79300 29.78800 44.67300
O  51.42000 30.84900 45.09000
C  50.85100 28.69400 44.05200
C  50.29100 29.26300 42.79200
O  50.90800 29.67800 41.81600
O  48.86000 29.17800 42.91200
C  48.24000 29.80600 41.69100
H  51.81100 22.05500 42.79900
H  58.18900 22.71700 43.62800
H  57.10300 28.88900 44.99900
H  49.42800 25.81300 43.94200
H  50.03800 23.41300 42.49200
H  50.40200 23.00900 45.38300
H  49.27300 22.29100 44.43800
H  48.89600 23.93000 45.01200
H  48.64300 26.44600 42.00300
H  49.10200 24.99800 41.28800
H  51.41900 26.89900 41.19600
H  49.86700 27.51500 40.65000
H  52.57700 19.95900 42.43400
H  53.72300 19.16100 43.60700
H  54.04000 19.35500 41.84800
H  58.83900 19.36700 42.67600
H  58.61400 20.40900 44.09600
H  58.77300 21.04000 42.38500
H  59.36500 24.74100 43.20200
H  58.98700 26.99200 45.26500
H  60.06000 25.14800 46.09900
H  60.48100 23.91900 45.07700
H  58.96900 23.68300 45.78500
H  58.57200 27.48500 42.31900
H  60.27000 27.07900 42.71800
H  58.94600 29.57000 43.07900
H  60.71500 29.24500 43.21000
H  59.61200 28.96900 44.61900
H  54.99700 30.83200 46.40000
H  54.44100 31.80100 45.05500
H  56.05700 31.11800 44.98400
H  49.98500 28.62500 44.71100
H  48.15600 29.14100 40.83000
H  48.68900 30.72500 41.31400
H  47.31400 30.19900 42.10900

