158

Mg 46.77000 25.05900 27.23500
C  48.00800 27.31400 29.69500
C  46.15600 22.80800 29.74600
C  46.01300 22.91000 24.85400
C  48.28400 27.20000 24.70500
N  47.22600 25.06300 29.54500
C  47.58000 26.15300 30.29300
C  47.24500 25.90500 31.75400
C  46.93400 24.30700 31.76700
C  46.80300 24.00000 30.24100
C  48.02800 23.35600 32.35900
C  46.18100 26.87400 32.35500
C  45.90700 26.53300 33.84900
H  46.32700 27.59200 34.87200
N  46.15000 23.16200 27.31100
C  45.89600 22.42800 28.47800
C  45.42200 21.11600 28.02900
C  45.38700 21.08600 26.61800
C  45.90400 22.42900 26.17100
C  45.00600 19.99600 28.99500
C  44.89400 20.00300 25.67800
O  45.09700 20.05200 24.46000
C  44.20100 18.74600 26.20300
N  47.18100 25.02500 24.98200
C  46.53500 24.10800 24.31300
C  46.75700 24.25300 22.82900
C  47.35600 25.75700 22.79600
C  47.68300 26.00700 24.23100
C  47.60200 23.10500 22.24400
C  46.47400 26.87200 22.07800
C  46.99200 27.45700 20.84100
N  47.94000 26.76700 27.18400
C  48.44200 27.54100 26.07200
C  49.09500 28.78300 26.56500
C  48.90500 28.70100 28.00300
C  48.16800 27.51600 28.24900
C  49.78100 29.85100 25.76300
C  49.23000 29.39600 29.19500
O  49.84400 30.46000 29.35600
C  48.54200 28.60400 30.27700
C  49.42700 28.49700 31.52900
O  50.48200 28.00900 31.59800
O  48.71600 29.12100 32.55600
C  49.37500 29.06500 33.83400
H  46.00000 22.07000 30.53700
H  45.67700 22.18600 24.10800
H  48.53100 27.87800 23.88500
H  48.12600 26.05300 32.37900
H  45.95100 24.16600 32.21500
H  48.47000 23.95900 33.15200
H  48.78300 23.08500 31.62000
H  47.53900 22.47200 32.76800
H  45.18400 26.65600 31.97100
H  46.38800 27.93200 32.19300
H  46.32500 25.55500 34.08800
H  44.84400 26.38300 34.03600
H  45.54900 20.12900 29.93100
H  45.31600 19.10500 28.44900
H  43.93300 20.09100 29.16100
H  43.48100 19.08800 26.94700
H  45.01600 18.15700 26.62200
H  43.83900 18.12300 25.38400
H  45.83500 24.21800 22.24900
H  48.32900 25.83500 22.31000
H  48.43700 22.91800 22.91900
H  48.14700 23.23800 21.30900
H  47.05000 22.17800 22.09400
H  46.32000 27.75000 22.70600
H  45.44700 26.53100 21.95000
H  46.96500 26.83400 19.94700
H  48.03000 27.69100 21.08000
H  46.54600 28.39800 20.52000
H  49.05800 30.33800 25.10800
H  50.62900 29.41200 25.23700
H  50.05400 30.72700 26.35100
H  47.59200 29.09400 30.48800
H  50.43800 29.29900 33.77200
H  49.29800 28.10400 34.34300
H  49.07000 29.87600 34.49700
Mg 16.88800 53.19300 25.96500
C  18.72400 51.86300 28.64800
C  14.29800 53.82500 28.15900
C  15.07500 54.29200 23.45700
C  19.52200 52.17500 23.91500
N  16.50200 52.77700 28.19600
C  17.45900 52.29800 29.08200
C  16.95900 52.37000 30.54600
C  15.51100 52.85000 30.32300
C  15.40500 53.16600 28.83300
C  14.46200 51.82700 30.75700
C  17.70000 53.39400 31.49600
C  17.62000 53.00600 32.96900
H  16.72300 53.75900 33.94400
N  14.96700 54.05000 25.82500
C  14.04900 54.25200 26.82800
C  12.87400 54.84700 26.21600
C  13.00900 54.90400 24.83100
C  14.39700 54.37400 24.64600
C  11.76300 55.27700 27.13600
C  12.01200 55.32700 23.72800
O  12.38100 55.45400 22.55500
C  10.58600 55.66900 24.16400
N  17.18000 53.17000 23.92700
C  16.34600 53.69300 23.07600
C  16.84600 53.63800 21.64500
C  18.38500 53.24800 21.85300
C  18.41100 52.81000 23.31900
C  15.97800 52.76700 20.66100
C  19.31500 54.49600 21.40500
C  19.25800 55.76200 22.22300
N  18.74500 52.19200 26.16700
C  19.72200 51.86500 25.26300
C  20.80400 51.15900 25.82000
C  20.48500 51.16400 27.21800
C  19.18800 51.76900 27.35100
C  21.92600 50.54200 25.04600
C  20.89800 50.75600 28.57200
O  21.79000 50.12300 29.04700
C  19.81400 51.23300 29.50600
C  19.30500 50.14600 30.41500
O  18.65700 49.16500 30.03500
O  19.53800 50.53700 31.72300
C  19.03000 49.60700 32.70500
H  13.53000 54.04600 28.90400
H  14.60100 54.52700 22.50100
H  20.28500 51.85800 23.20100
H  16.97300 51.36000 30.95600
H  15.17100 53.73800 30.85700
H  14.99000 50.99600 31.22500
H  13.88700 51.43700 29.91700
H  13.78200 52.27300 31.48300
H  17.26700 54.38200 31.34100
H  18.73900 53.44400 31.17300
H  18.62600 53.18600 33.34700
H  17.25700 51.98600 33.09800
H  11.01900 54.48200 27.07800
H  11.30200 56.22200 26.84900
H  12.00700 55.49600 28.17600
H  10.71600 56.73600 24.34600
H  10.23300 55.05000 24.98800
H  9.93300 55.47600 23.31300
H  16.79500 54.61000 21.15300
H  18.65900 52.50200 21.10700
H  15.42700 52.07500 21.29900
H  16.50100 52.27800 19.83900
H  15.26000 53.46300 20.22800
H  19.31600 54.52600 20.31600
H  20.32700 54.10100 21.49000
H  18.23000 55.99600 22.49700
H  19.81000 56.49200 21.63100
H  19.83900 55.77600 23.14600
H  21.69600 50.50500 23.98100
H  22.00000 49.52800 25.43800
H  22.93100 50.89500 25.27900
H  20.48700 51.91000 30.03200
H  19.46500 48.60700 32.69100
H  17.94500 49.50500 32.72000
H  19.28000 49.98600 33.69500

