158

Mg 25.46100 1.00400 30.04100
C  27.73700 1.11100 32.88400
C  22.90600 1.69000 32.17600
C  23.34200 0.48800 27.54300
C  28.09300 0.15900 27.97100
N  25.39800 1.47300 32.27500
C  26.37800 1.48200 33.20300
C  25.81200 1.84800 34.64600
C  24.25900 1.88000 34.40400
C  24.18300 1.60900 32.86600
C  23.38500 0.97100 35.28800
C  26.33000 3.17200 35.29300
C  27.19600 3.17500 36.51000
H  26.97400 4.17500 37.65300
N  23.45200 1.08400 29.91000
C  22.56800 1.37500 30.90200
C  21.20400 1.25000 30.42400
C  21.31600 0.85900 29.04100
C  22.74700 0.73800 28.81000
C  20.05100 1.72700 31.36600
C  20.18100 0.80400 28.01800
O  20.42200 0.60000 26.81600
C  18.69500 0.95900 28.47400
N  25.64800 0.46400 28.05600
C  24.66400 0.42400 27.20000
C  25.18500 0.31500 25.72500
C  26.72600 0.18100 25.84600
C  26.84900 0.30200 27.39500
C  24.47200 -0.74600 24.83200
C  27.74200 1.22900 25.15800
C  27.74100 2.68500 25.60300
N  27.50200 0.70200 30.30300
C  28.43800 0.38500 29.36700
C  29.79000 0.50100 29.96800
C  29.54800 0.70800 31.33700
C  28.15700 0.80400 31.49500
C  31.04700 0.25600 29.19900
C  30.15900 0.88400 32.62400
O  31.36400 0.92600 32.85600
C  29.00100 1.14000 33.71400
C  28.93200 0.15700 34.81700
O  28.27900 -0.90000 34.80100
O  29.74900 0.65200 35.86600
C  29.64700 0.03100 37.21500
H  22.10800 1.96100 32.87000
H  22.60200 0.40000 26.74500
H  29.02000 -0.20900 27.52600
H  25.92100 1.01400 35.34000
H  23.81300 2.87400 34.44800
H  22.58100 1.53100 35.76500
H  23.95900 0.48600 36.07800
H  22.90200 0.23200 34.65000
H  25.48300 3.83400 35.47600
H  26.87300 3.67700 34.49400
H  28.21200 3.31400 36.14100
H  27.15200 2.15700 36.89700
H  19.22300 1.02600 31.26600
H  19.74200 2.68700 30.95200
H  20.25600 1.73600 32.43700
H  18.07800 1.11200 27.58800
H  18.80400 1.88200 29.04400
H  18.33900 0.07200 28.99800
H  24.92300 1.27100 25.27100
H  27.10600 -0.83400 25.73200
H  25.09800 -1.63700 24.88000
H  24.31400 -0.42800 23.80100
H  23.45100 -0.87300 25.19200
H  27.45900 1.17700 24.10700
H  28.75300 0.84300 25.29000
H  27.16900 2.89700 26.50700
H  27.45400 3.33100 24.77300
H  28.77500 2.91400 25.86000
H  31.19400 -0.82200 29.12100
H  31.90500 0.59700 29.77800
H  31.12400 0.51000 28.14200
H  29.19900 2.11200 34.16600
H  30.60300 -0.12600 37.71500
H  29.29400 -0.99300 37.09500
H  28.89900 0.49600 37.85800
Mg -0.26100 33.97700 26.74000
C  -2.31900 32.39400 29.05400
C  1.15700 35.76300 29.23000
C  1.05300 36.03700 24.33600
C  -1.82400 32.17000 24.22900
N  -0.57700 34.09200 28.91100
C  -1.39300 33.26400 29.59000
C  -1.25700 33.67800 31.11200
C  -0.23400 34.88300 31.08400
C  0.28600 34.82700 29.66900
C  -0.72200 36.26200 31.48800
C  -0.81900 32.47700 31.96300
C  -0.35600 32.72300 33.41800
H  -0.72700 31.84200 34.57800
N  1.08700 35.68200 26.77500
C  1.57400 36.18900 27.88300
C  2.52400 37.19900 27.51200
C  2.52600 37.35100 26.08000
C  1.50500 36.39800 25.64100
C  3.28600 37.96000 28.45600
C  3.26000 38.35000 25.16600
O  3.16900 38.31200 23.92400
C  4.28200 39.36900 25.64200
N  -0.60800 34.26600 24.67800
C  0.17500 35.10700 23.90000
C  0.08600 34.77500 22.42800
C  -0.80600 33.47800 22.33400
C  -1.06000 33.24000 23.82200
C  -0.40800 35.93800 21.51700
C  -0.12300 32.20600 21.72900
C  0.95300 31.55900 22.60800
N  -1.78500 32.66000 26.60100
C  -2.29700 31.96700 25.52200
C  -3.35800 31.00300 25.93300
C  -3.32900 31.12700 27.33200
C  -2.43800 32.16400 27.68000
C  -4.06100 30.01100 25.13700
C  -3.93700 30.58400 28.57600
O  -4.79700 29.74700 28.72500
C  -3.17800 31.32000 29.77600
C  -4.16900 31.81600 30.73500
O  -4.88300 32.78500 30.58200
O  -3.98400 31.13600 31.93900
C  -4.87500 31.50000 33.05000
H  1.58900 36.47500 29.93600
H  1.72700 36.55600 23.65200
H  -2.25100 31.56800 23.42400
H  -2.17700 34.06800 31.54800
H  0.66100 34.69600 31.67700
H  -1.41000 36.18300 32.33100
H  -1.26700 36.66400 30.63500
H  0.16400 36.84100 31.74900
H  0.01300 32.02100 31.42700
H  -1.57700 31.70000 32.05700
H  -0.53100 33.76600 33.68200
H  0.72200 32.56600 33.46200
H  2.84400 38.92200 28.71500
H  4.31000 38.16200 28.14000
H  3.38100 37.37300 29.36900
H  4.01900 39.68500 26.65100
H  4.20000 40.26700 25.02800
H  5.27200 38.91300 25.63800
H  1.07800 34.42700 22.14100
H  -1.67600 33.55600 21.68300
H  -0.09900 36.90900 21.90400
H  -1.49300 35.86100 21.45000
H  -0.13200 35.74400 20.48000
H  0.27400 32.39300 20.73100
H  -0.81100 31.36200 21.68200
H  1.86600 31.35300 22.04900
H  0.64700 30.60600 23.03800
H  1.28900 32.29600 23.33700
H  -3.54300 29.73700 24.21800
H  -5.01500 30.32200 24.71300
H  -4.30200 29.21600 25.84300
H  -2.48500 30.61200 30.23000
H  -4.16600 31.65500 33.86300
H  -5.62700 30.75000 33.29200
H  -5.45700 32.41500 32.93700

