158

Mg 24.60100 -8.14700 47.83800
C  27.22200 -5.95400 46.53400
C  22.74000 -6.95500 45.16200
C  22.41900 -10.49800 48.44700
C  27.02600 -9.56100 49.97500
N  24.93700 -6.48400 46.18300
C  26.07900 -5.83300 45.78700
C  25.83200 -4.86800 44.61200
C  24.35700 -5.16000 44.28700
C  23.94800 -6.24000 45.28700
C  23.35000 -3.88800 44.18700
C  26.86800 -5.16800 43.45900
C  27.70000 -3.92900 43.02400
H  27.57100 -3.58000 41.49300
N  22.84000 -8.68900 46.91300
C  22.17900 -8.01800 45.89200
C  20.85800 -8.62400 45.61300
C  20.77800 -9.73100 46.54700
C  22.02500 -9.66500 47.37300
C  19.95600 -8.15100 44.42100
C  19.52700 -10.70800 46.71400
O  18.51100 -10.63600 46.01400
C  19.50900 -11.76200 47.71500
N  24.77500 -9.84000 49.09400
C  23.59800 -10.56600 49.23500
C  23.83700 -11.65400 50.29500
C  25.31800 -11.36900 50.79400
C  25.77800 -10.22900 49.86000
C  22.71800 -11.83700 51.39700
C  26.26600 -12.58600 50.76500
C  27.12200 -12.78200 52.00700
N  26.65600 -7.78300 48.26300
C  27.45100 -8.41400 49.17100
C  28.77700 -7.78100 49.22100
C  28.69400 -6.79600 48.22300
C  27.40800 -6.81600 47.62700
C  29.95700 -8.12000 50.04700
C  29.34700 -5.69300 47.61600
O  30.43000 -5.22800 47.93400
C  28.42800 -5.10100 46.48700
C  28.11800 -3.66100 46.72600
O  27.19300 -3.22200 47.43500
O  28.87400 -2.92300 45.88600
C  28.64200 -1.46200 46.04100
H  22.14900 -6.58700 44.32000
H  21.70900 -11.29300 48.68700
H  27.69900 -9.73300 50.81700
H  25.85900 -3.92300 45.15500
H  24.30400 -5.75200 43.37300
H  23.95900 -3.01400 44.41500
H  22.65800 -3.98000 45.02400
H  22.81300 -3.80600 43.24100
H  26.35300 -5.59500 42.59900
H  27.61800 -5.84900 43.86100
H  28.72800 -4.12900 43.32600
H  27.63900 -3.02000 43.62300
H  19.96400 -8.85300 43.58700
H  20.13700 -7.15300 44.02200
H  18.89600 -8.10700 44.67200
H  20.31800 -12.40800 47.37500
H  18.51700 -12.19400 47.58900
H  19.56900 -11.46200 48.76200
H  23.74500 -12.59000 49.74300
H  25.31800 -10.94300 51.79700
H  23.04400 -12.06300 52.41200
H  22.03100 -12.64300 51.13900
H  22.17400 -10.89500 51.45600
H  26.93200 -12.58200 49.90200
H  25.67100 -13.49200 50.65600
H  26.85600 -13.74000 52.45400
H  27.06100 -12.03300 52.79600
H  28.15900 -12.81500 51.67500
H  30.26400 -7.23400 50.60100
H  30.79600 -8.43500 49.42600
H  29.79600 -8.80400 50.88100
H  29.00700 -5.19700 45.56800
H  29.23000 -0.74400 45.46900
H  28.84100 -1.21500 47.08400
H  27.61600 -1.16900 45.82000
Mg 6.25900 54.42900 40.79100
C  5.79800 51.15000 40.99200
C  9.41900 53.72100 39.15200
C  6.53100 57.68000 39.79700
C  2.92200 55.00100 41.68800
N  7.42400 52.55300 39.91000
C  6.99700 51.37000 40.25600
C  8.08900 50.35300 39.93200
C  9.41900 51.18300 39.84800
C  8.72000 52.56400 39.63100
C  10.45800 51.30300 41.01900
C  7.70700 49.45200 38.63100
C  6.95800 50.12600 37.49400
H  6.21900 49.13200 36.52700
N  7.85300 55.56800 39.77500
C  8.96000 55.09600 39.14900
C  9.71500 56.28900 38.66600
C  8.95400 57.43300 38.98100
C  7.69800 56.88700 39.47800
C  11.04300 56.29000 37.95400
C  9.39100 58.92300 38.67100
O  10.39300 59.11900 37.93700
C  8.64900 60.12700 39.22800
N  4.71500 56.04400 40.42700
C  5.25400 57.32100 40.29400
C  4.07300 58.29500 40.62800
C  2.79900 57.37300 40.88300
C  3.56000 56.04400 41.07100
C  4.44600 59.13100 41.90800
C  1.77400 57.36500 39.67300
C  2.30200 57.21600 38.29800
N  4.62800 53.34200 41.23000
C  3.36900 53.67200 41.70400
C  2.74400 52.45700 42.17400
C  3.66500 51.50300 41.96200
C  4.74600 52.06500 41.34000
C  1.43800 52.38200 42.86200
C  3.91700 50.12500 42.15400
O  3.21400 49.26100 42.68300
C  5.28300 49.85400 41.50700
C  4.96600 48.90800 40.40500
O  4.61200 49.29600 39.33200
O  5.32800 47.61900 40.82000
C  5.20700 46.48400 39.84200
H  10.43800 53.58400 38.78200
H  6.62700 58.75700 39.64200
H  1.89600 55.16600 42.02400
H  8.07700 49.55700 40.67600
H  10.01300 51.05800 38.94300
H  11.46900 51.06300 40.69000
H  10.17800 50.79400 41.94200
H  10.51100 52.36200 41.26900
H  7.14000 48.59100 38.98500
H  8.61500 49.05300 38.17900
H  7.72100 50.67500 36.94300
H  6.05400 50.62500 37.84300
H  11.00900 56.83500 37.01000
H  11.49000 55.31900 37.74200
H  11.77300 56.79300 38.58800
H  8.20500 59.84600 40.18300
H  7.91200 60.45800 38.49700
H  9.31400 60.98900 39.27000
H  3.97600 58.96000 39.77000
H  2.33300 57.70900 41.80900
H  4.13500 58.74500 42.87800
H  3.97200 60.11000 41.84400
H  5.51300 59.34300 41.98300
H  1.21100 58.29400 39.75800
H  1.09000 56.53300 39.84000
H  1.60800 56.59000 37.73800
H  3.25800 56.70100 38.21100
H  2.34800 58.21000 37.85300
H  1.05300 51.37700 42.69300
H  0.66500 53.06800 42.51600
H  1.67200 52.36100 43.92600
H  6.01000 49.34000 42.13600
H  6.21000 46.27700 39.46900
H  4.44700 46.80700 39.13100
H  4.98600 45.60000 40.43900

