158

Mg 9.15600 4.38000 28.06600
C  10.50300 2.83600 30.77800
C  7.39200 6.42900 30.05400
C  7.80800 5.84200 25.30200
C  10.76800 2.02600 26.02500
N  8.87400 4.46700 30.10600
C  9.61100 3.86500 31.05600
C  9.34000 4.34900 32.44900
C  8.29000 5.43300 32.16700
C  8.16000 5.43600 30.69100
C  6.95800 5.21200 32.95300
C  10.68700 4.80600 33.15400
C  10.47800 5.86600 34.24100
H  11.19500 5.66100 35.59300
N  7.76400 5.85600 27.73300
C  7.17400 6.59600 28.66200
C  6.21900 7.56200 28.04800
C  6.41300 7.50400 26.66900
C  7.30700 6.32400 26.46100
C  5.31400 8.42400 28.78800
C  5.90500 8.34100 25.55000
O  6.06500 7.96800 24.39900
C  5.30300 9.68400 25.87300
N  9.18000 3.96100 26.02200
C  8.61700 4.75700 25.08500
C  8.92200 4.27100 23.65500
C  9.78700 2.97500 23.88300
C  9.96200 2.98900 25.43300
C  7.69200 4.00900 22.69600
C  11.21000 2.98700 23.16900
C  11.32500 1.98400 21.97900
N  10.43600 2.74900 28.29100
C  10.92900 1.82200 27.40600
C  11.77000 0.85600 28.12800
C  11.70200 1.29100 29.47500
C  10.85200 2.38200 29.49100
C  12.37600 -0.39800 27.52600
C  12.10200 1.04400 30.83000
O  12.83200 0.15200 31.17400
C  11.36000 2.03200 31.73100
C  10.62400 1.36600 32.87000
O  9.40300 1.15700 32.85700
O  11.51300 1.33100 33.92200
C  11.13400 0.81700 35.19600
H  6.75900 7.05500 30.68700
H  7.49100 6.33800 24.38300
H  11.34400 1.34100 25.40000
H  8.83900 3.55400 33.00200
H  8.75100 6.41200 32.29800
H  6.79700 6.17000 33.44700
H  6.87300 4.37200 33.64100
H  6.10300 5.10400 32.28500
H  11.38700 5.21200 32.42400
H  11.11600 3.88800 33.55700
H  9.43900 5.87400 34.57100
H  10.76300 6.86800 33.91900
H  5.73300 9.41000 28.99000
H  5.11400 7.91700 29.73200
H  4.34000 8.51700 28.30700
H  6.10700 10.15300 26.44100
H  4.40300 9.52500 26.46700
H  5.14200 10.28000 24.97500
H  9.48200 5.09400 23.21000
H  9.22100 2.07300 23.65400
H  6.81900 3.95600 23.34700
H  7.83700 3.12200 22.07900
H  7.74800 4.85100 22.00700
H  12.09500 2.70900 23.74200
H  11.47400 3.88200 22.60500
H  10.43800 1.45700 21.62700
H  12.00400 1.20800 22.33100
H  11.77300 2.43700 21.09400
H  13.46400 -0.33200 27.49800
H  12.00700 -0.57100 26.51600
H  11.98200 -1.27500 28.04000
H  12.21800 2.61700 32.06300
H  10.77200 1.58500 35.88000
H  11.96700 0.28100 35.65000
H  10.34300 0.06900 35.13500
Mg -10.20500 17.17300 40.93800
C  -6.57500 16.80600 41.22700
C  -9.59500 20.51900 40.55300
C  -13.38800 17.43300 40.77500
C  -10.51500 13.64400 41.20100
N  -8.21900 18.45300 40.75200
C  -7.00200 18.14900 41.07900
C  -6.09700 19.44100 40.95500
C  -7.11600 20.54600 41.28800
C  -8.41100 19.79100 40.86100
C  -7.07400 20.93600 42.83800
C  -5.60700 19.62700 39.38400
C  -4.14900 19.33000 39.09100
H  -3.74300 18.42300 37.89200
N  -11.30700 18.75000 40.52600
C  -10.91900 20.06600 40.39700
C  -12.08800 20.92200 40.12200
C  -13.24100 20.03700 40.26700
C  -12.70500 18.69700 40.58100
C  -12.10200 22.34800 39.81300
C  -14.68200 20.39200 40.05100
O  -15.04500 21.53300 39.82700
C  -15.80200 19.41300 40.02700
N  -11.73000 15.71400 41.04900
C  -12.97000 16.13000 41.03800
C  -14.02600 14.95000 41.17900
C  -13.04600 13.69200 41.07700
C  -11.67900 14.36900 41.15400
C  -14.98800 14.85200 42.43300
C  -13.11000 12.80100 39.81700
C  -13.04600 11.33700 39.99000
N  -8.91500 15.52600 41.06300
C  -9.20100 14.21600 41.22400
C  -7.88500 13.50700 41.40400
C  -6.86400 14.46900 41.51400
C  -7.50900 15.68600 41.23900
C  -7.69600 12.01800 41.53400
C  -5.44600 14.73300 41.80200
O  -4.51000 13.95800 42.06500
C  -5.28300 16.23000 41.53100
C  -4.48400 16.81700 42.67100
O  -3.39600 17.25300 42.60300
O  -5.21200 16.73100 43.88800
C  -4.48000 16.92300 45.11600
H  -9.53700 21.60100 40.68300
H  -14.47200 17.39800 40.90000
H  -10.56600 12.55900 41.31500
H  -5.19700 19.50900 41.56500
H  -6.80400 21.38100 40.66100
H  -6.16000 20.63200 43.34700
H  -7.84500 20.31000 43.28900
H  -7.37300 21.95700 43.07700
H  -5.88200 20.60500 38.98800
H  -6.21700 18.97900 38.75600
H  -3.56700 19.06300 39.97300
H  -3.76100 20.31100 38.81500
H  -12.56900 22.96900 40.57700
H  -12.67200 22.42800 38.88700
H  -11.08500 22.70600 39.65400
H  -15.65600 18.94400 39.05400
H  -16.70700 19.94900 39.74200
H  -15.76000 18.84400 40.95600
H  -14.79200 14.97200 40.40400
H  -13.13600 13.06400 41.96300
H  -15.99800 15.16900 42.17300
H  -14.57400 15.44500 43.24900
H  -15.25600 13.82800 42.69300
H  -12.28400 13.04800 39.14900
H  -14.05300 13.06800 39.34200
H  -12.14200 10.91300 39.55300
H  -13.86200 10.94000 39.38500
H  -13.00000 10.98500 41.02100
H  -7.81400 11.56100 40.55200
H  -8.59200 11.75200 42.09600
H  -6.73700 11.90800 42.04000
H  -4.64000 16.26200 40.65200
H  -5.01100 16.42900 45.93000
H  -4.36300 18.00600 45.16500
H  -3.52200 16.41300 45.01700

