158

Mg 36.00300 1.97200 31.12700
C  33.61600 3.14900 33.44500
C  38.25300 1.89200 33.61600
C  38.17700 1.24900 28.78500
C  33.57000 2.68000 28.66300
N  35.94400 2.62300 33.28300
C  34.86800 2.87500 34.05600
C  35.13800 2.89900 35.56400
C  36.70400 2.67900 35.50900
C  37.01900 2.34600 34.04000
C  37.50300 3.72500 36.35400
C  34.21700 1.88200 36.40800
C  33.84000 2.28600 37.88100
H  34.68500 3.38300 38.52900
N  37.97800 1.56800 31.13300
C  38.77700 1.54300 32.28300
C  40.14000 1.07200 31.83800
C  40.07100 0.83600 30.42700
C  38.67600 1.23500 30.06800
C  41.31300 1.00500 32.82900
C  41.15300 0.25300 29.55800
O  40.88100 0.01700 28.40200
C  42.63200 -0.03700 30.12200
N  35.88500 1.88000 29.00400
C  36.94500 1.51300 28.22100
C  36.55300 1.26200 26.73600
C  35.00300 1.68300 26.75600
C  34.73100 2.08300 28.24000
C  37.48300 2.04100 25.79000
C  33.93300 0.74100 26.08600
C  33.39000 -0.31200 27.03700
N  33.98100 2.79000 31.06300
C  33.17500 2.97400 29.96300
C  31.89500 3.57200 30.37900
C  31.96800 3.61100 31.80100
C  33.27800 3.16500 32.08700
C  30.70700 3.73600 29.58700
C  31.31900 3.86600 33.06000
O  30.20700 4.28400 33.19000
C  32.38900 3.65000 34.19600
C  32.51500 4.95200 34.94300
O  33.21700 5.90500 34.60600
O  31.78400 5.01200 36.07000
C  31.59300 6.31400 36.74600
H  38.92800 1.73300 34.45900
H  38.83000 0.88800 27.98800
H  32.81200 2.89200 27.90600
H  34.92600 3.91100 35.90800
H  36.84600 1.70400 35.97700
H  38.09600 3.07200 36.99500
H  36.80800 4.27500 36.98900
H  38.10400 4.37600 35.72000
H  34.74300 0.93000 36.33700
H  33.24200 1.70700 35.95500
H  34.05900 1.41200 38.49500
H  32.79000 2.57100 37.81900
H  42.25100 1.44700 32.49400
H  41.47300 -0.03200 33.12200
H  41.03700 1.51700 33.75100
H  43.21400 -0.43200 29.29000
H  42.62600 -0.73800 30.95700
H  43.04700 0.94100 30.36800
H  36.74600 0.21900 26.48500
H  34.92400 2.60200 26.17600
H  36.85000 2.37900 24.97000
H  38.22000 1.28100 25.53000
H  37.89300 2.90400 26.31400
H  34.45500 0.24900 25.26500
H  33.14000 1.40700 25.74800
H  33.89700 -0.30500 28.00300
H  33.43100 -1.28200 26.54000
H  32.35800 0.02900 27.12000
H  30.40200 2.78400 29.15300
H  30.76400 4.57800 28.89700
H  29.88000 4.01500 30.24000
H  31.96200 2.97200 34.93600
H  31.62000 7.22700 36.15100
H  32.33400 6.51900 37.51900
H  30.62600 6.34700 37.24700
Mg -5.86300 25.76300 26.81100
C  -4.74000 27.33300 29.84300
C  -7.50100 23.59100 28.78300
C  -6.49000 24.00000 24.03000
C  -3.46400 27.67800 25.09200
N  -5.95700 25.46800 29.17800
C  -5.56400 26.25900 30.18700
C  -6.15500 25.86800 31.49500
C  -6.84300 24.51900 31.06900
C  -6.80500 24.50900 29.55300
C  -6.31700 23.21800 31.64900
C  -7.13500 26.91300 32.09800
C  -7.02100 27.30100 33.62000
H  -6.43500 26.19400 34.49800
N  -7.02600 24.10800 26.36900
C  -7.59900 23.30500 27.32300
C  -8.35600 22.33000 26.63200
C  -8.00900 22.40300 25.22300
C  -7.11600 23.54100 25.14500
C  -9.15200 21.21200 27.40900
C  -8.30500 21.49300 24.08500
O  -7.80700 21.62200 22.97800
C  -9.33400 20.41600 24.26800
N  -5.08500 25.88700 24.83100
C  -5.50100 24.98500 23.88500
C  -4.62100 25.19900 22.61000
C  -3.80900 26.49400 22.88300
C  -4.06400 26.62200 24.38100
C  -3.71700 24.03000 22.11600
C  -4.21700 27.63000 21.94900
C  -5.34100 28.66600 22.49100
N  -4.48300 27.27600 27.28400
C  -3.63300 28.00900 26.46500
C  -2.93400 28.96600 27.27700
C  -3.44800 28.82400 28.58700
C  -4.27300 27.76000 28.54300
C  -1.88900 29.82600 26.62000
C  -3.44300 29.33900 29.96400
O  -2.99600 30.33600 30.46500
C  -4.24700 28.34700 30.82700
C  -3.26400 27.83200 31.83700
O  -2.45700 26.93200 31.67200
O  -3.44400 28.47100 33.05000
C  -2.46000 28.22000 34.08600
H  -8.14100 22.92700 29.36700
H  -6.51900 23.31000 23.18400
H  -2.78900 28.22200 24.42900
H  -5.28500 25.55100 32.07000
H  -7.90400 24.60900 31.30300
H  -5.46400 22.81800 31.09900
H  -7.14200 22.50700 31.60500
H  -6.08600 23.44300 32.69000
H  -8.15500 26.64000 31.82800
H  -6.90700 27.84700 31.58400
H  -8.01800 27.63800 33.90600
H  -6.40700 28.19400 33.73300
H  -10.14900 21.13100 26.97500
H  -9.34800 21.42300 28.46000
H  -8.59600 20.27400 27.40300
H  -9.15000 19.75100 25.11200
H  -9.32300 19.84400 23.34000
H  -10.34900 20.81200 24.24500
H  -5.43900 25.32900 21.90100
H  -2.78500 26.21700 22.63100
H  -2.65100 24.11700 22.32600
H  -3.99200 23.75800 21.09700
H  -3.95700 23.16800 22.73800
H  -4.61600 27.23400 21.01500
H  -3.37800 28.29300 21.73800
H  -5.95400 29.04200 21.67100
H  -4.94700 29.48200 23.09600
H  -6.12200 28.24100 23.12100
H  -2.33100 30.31000 25.75000
H  -1.03000 29.19400 26.39200
H  -1.55200 30.59200 27.31800
H  -5.05400 28.91100 31.29400
H  -2.91700 28.23900 35.07600
H  -1.55800 28.80400 33.90100
H  -2.19700 27.16200 34.06800

