158

Mg 47.88500 15.87200 28.76400
C  45.95300 15.31300 31.73400
C  50.15400 17.52000 30.47000
C  49.62500 15.98700 25.95000
C  45.28800 14.10700 27.00300
N  48.00100 16.37400 30.83000
C  47.13900 16.12900 31.89300
C  47.67500 16.70300 33.22700
C  48.90300 17.57700 32.75500
C  49.02300 17.17400 31.22700
C  48.74100 19.06400 32.92500
C  47.90300 15.76500 34.41000
C  47.49300 16.18100 35.81300
H  47.55000 17.68100 36.15100
N  49.63200 16.53700 28.30100
C  50.50100 17.12300 29.14800
C  51.78000 17.40500 28.53400
C  51.67000 16.92600 27.20600
C  50.27800 16.43600 27.09500
C  53.02400 17.91700 29.32200
C  52.80100 16.83400 26.07600
O  52.47800 16.33100 25.02300
C  54.25600 17.34000 26.37700
N  47.47900 15.23900 26.73400
C  48.35800 15.51100 25.76000
C  47.89400 14.88200 24.41700
C  46.46100 14.38300 24.75000
C  46.38400 14.53900 26.26900
C  47.96200 15.87800 23.20300
C  46.19200 12.90000 24.25900
C  46.68400 11.71100 25.15500
N  46.01800 14.93200 29.18100
C  45.06400 14.39200 28.38500
C  43.90300 13.97500 29.21700
C  44.26800 14.32700 30.53300
C  45.54700 14.88600 30.47400
C  42.69600 13.32200 28.80100
C  43.77100 14.25000 31.91300
O  42.82900 13.84700 32.49100
C  44.88500 15.00200 32.74300
C  44.13600 16.06100 33.37300
O  43.65500 17.09600 32.82300
O  43.86000 15.67800 34.68100
C  42.93500 16.49800 35.50000
H  50.79600 18.27800 30.92300
H  50.26700 16.08700 25.07200
H  44.53000 13.59600 26.40500
H  46.83800 17.35100 33.48600
H  49.76200 17.33500 33.38000
H  49.33100 19.37700 33.78700
H  47.71000 19.28900 33.19700
H  49.04000 19.68500 32.08100
H  48.95600 15.48500 34.38000
H  47.41600 14.81800 34.17800
H  48.20400 15.73800 36.51000
H  46.47900 15.81800 35.97800
H  53.78700 17.15000 29.19200
H  52.79600 17.93200 30.38800
H  53.31000 18.92500 29.02200
H  54.24000 18.38000 26.70300
H  54.75700 17.25800 25.41200
H  54.67600 16.66400 27.12200
H  48.48500 13.98800 24.22000
H  45.68400 14.97100 24.26100
H  46.99800 16.07700 22.73300
H  48.57900 15.39500 22.44500
H  48.48300 16.78200 23.51700
H  46.73200 12.76200 23.32300
H  45.12100 12.70400 24.20900
H  47.06700 10.84400 24.61500
H  45.76400 11.39800 25.64900
H  47.36600 12.10400 25.90900
H  41.92200 13.54900 29.53300
H  42.77500 12.23700 28.73400
H  42.44800 13.64100 27.78900
H  45.24900 14.27400 33.46700
H  42.35800 15.89300 36.20100
H  42.10700 16.91400 34.92600
H  43.38100 17.35300 36.00900
Mg 0.04900 43.61100 26.01400
C  2.44000 43.79700 28.65000
C  -2.29700 43.18700 28.32400
C  -2.15100 42.86300 23.49400
C  2.58600 44.01500 23.66600
N  0.08600 43.57600 28.24300
C  1.16400 43.59300 29.12700
C  0.68800 43.45800 30.61600
C  -0.89300 43.45500 30.48500
C  -1.05700 43.34100 28.93900
C  -1.54200 42.24200 31.21600
C  1.34200 44.65200 31.49500
C  0.83200 44.89400 32.99100
H  0.57300 43.66400 33.84700
N  -2.02700 43.01100 25.89600
C  -2.82000 42.95900 26.97300
C  -4.14100 42.81200 26.57500
C  -4.12200 42.68700 25.16400
C  -2.71800 42.83600 24.77000
C  -5.30200 42.80200 27.46200
C  -5.27000 42.58100 24.16300
O  -5.07800 42.38700 22.95500
C  -6.71000 42.74200 24.67300
N  0.10000 43.65200 23.94500
C  -0.85300 43.13100 23.13000
C  -0.46800 43.08000 21.63100
C  0.89300 43.81700 21.67900
C  1.23300 43.82800 23.19600
C  -0.62800 41.76400 20.91700
C  0.89600 45.22500 20.92600
C  1.60900 45.44600 19.64700
N  2.12300 43.92700 26.05200
C  3.01400 44.00500 24.99100
C  4.30100 44.23200 25.62100
C  4.17100 44.10500 26.99200
C  2.79100 43.94900 27.27000
C  5.58700 44.44800 24.94600
C  4.88900 43.94000 28.27800
O  6.07800 43.98200 28.52500
C  3.82900 43.94000 29.38900
C  4.14900 42.69900 30.16500
O  3.72800 41.57700 29.86400
O  4.94000 43.05300 31.24200
C  5.12700 42.08000 32.27900
H  -3.04100 43.12900 29.12100
H  -2.80800 42.65900 22.64600
H  3.34100 44.16200 22.89100
H  1.03400 42.43400 30.75900
H  -1.25800 44.40100 30.88400
H  -1.72200 41.41600 30.52800
H  -2.47500 42.55500 31.68300
H  -0.91500 41.81700 32.00100
H  1.34800 45.55900 30.89000
H  2.38500 44.36800 31.62800
H  0.05000 45.65200 33.01900
H  1.66200 45.48300 33.38200
H  -5.91500 43.69800 27.37300
H  -4.98700 42.51400 28.46500
H  -5.91500 42.00200 27.04800
H  -6.96200 43.70000 25.12700
H  -6.90100 41.86900 25.29700
H  -7.43300 42.68300 23.85900
H  -1.23500 43.73800 21.22500
H  1.68200 43.17200 21.29100
H  0.09200 41.03900 21.29600
H  -0.65000 41.92500 19.83900
H  -1.66000 41.48100 21.12400
H  1.52700 45.84100 21.56600
H  -0.14300 45.55200 20.89200
H  2.52900 44.86100 19.63300
H  1.84400 46.50500 19.75000
H  0.87700 45.16800 18.88900
H  5.52300 45.01200 24.01600
H  6.08700 43.50800 24.71200
H  6.02700 45.21700 25.58100
H  3.89100 44.85500 29.97700
H  5.85500 41.41000 31.82200
H  4.20800 41.56600 32.56100
H  5.57100 42.62800 33.11000

