158

Mg 0.46900 7.54900 26.71400
C  1.21500 9.91500 29.37700
C  0.67400 5.03100 28.95700
C  0.08500 5.65000 24.21300
C  1.22200 10.41900 24.52300
N  1.10900 7.53900 28.84200
C  1.07600 8.53000 29.79000
C  0.92000 8.00800 31.19500
C  1.07100 6.45000 30.99600
C  0.91600 6.31700 29.46800
C  2.47300 5.93500 31.43500
C  -0.31500 8.51500 31.88700
C  -0.46600 8.37800 33.44300
H  0.59500 7.56800 34.08600
N  0.42600 5.61400 26.61500
C  0.54200 4.70100 27.61200
C  0.38200 3.35500 27.05300
C  0.24400 3.45400 25.68000
C  0.24800 4.94600 25.43600
C  0.45600 2.06200 27.89500
C  0.02200 2.35500 24.61600
O  -0.06000 2.69100 23.37900
C  -0.15400 0.92600 24.99700
N  0.78800 7.95100 24.68900
C  0.42600 6.95100 23.82100
C  0.43800 7.39000 22.29100
C  0.46600 8.97900 22.48600
C  0.90600 9.13900 23.93800
C  1.70000 6.83000 21.47200
C  -0.84100 9.72900 22.21600
C  -0.86400 11.05800 21.50300
N  1.08100 9.84600 26.88100
C  1.33900 10.78300 25.92400
C  1.56000 12.11400 26.57100
C  1.48000 11.80600 27.93500
C  1.27500 10.38400 28.04100
C  1.88800 13.46100 26.00800
C  1.70100 12.38100 29.26900
O  1.93400 13.53800 29.67700
C  1.38400 11.19000 30.27000
C  2.45000 11.07000 31.27500
O  3.63600 10.75800 31.08800
O  1.97600 11.42500 32.49400
C  2.78900 10.98100 33.67300
H  0.75700 4.23100 29.69600
H  -0.24100 5.05500 23.35700
H  1.11900 11.35600 23.97200
H  1.71400 8.42100 31.81800
H  0.31100 5.95700 31.60300
H  2.42400 4.84600 31.40200
H  2.80700 6.13300 32.45300
H  3.20100 6.20100 30.66900
H  -1.22800 8.12500 31.43500
H  -0.48100 9.58700 31.78200
H  -1.41100 7.90000 33.69700
H  -0.56300 9.32900 33.96600
H  1.20900 1.39700 27.47200
H  -0.53900 1.63900 27.75900
H  0.62000 2.20100 28.96400
H  0.70900 0.68200 25.61600
H  -0.02400 0.35100 24.08000
H  -1.14100 0.84500 25.45200
H  -0.45300 7.03300 21.77400
H  1.16500 9.41000 21.76900
H  2.19200 7.65300 20.95300
H  1.38800 6.15400 20.67600
H  2.42900 6.32300 22.10500
H  -1.17500 9.98800 23.22100
H  -1.52800 9.01900 21.75400
H  0.06900 11.32600 21.00700
H  -1.14600 11.78100 22.26900
H  -1.64800 10.94500 20.75500
H  1.10500 13.74200 25.30500
H  2.86500 13.52100 25.52800
H  1.83400 14.19500 26.81200
H  0.40200 11.30100 30.72900
H  3.41800 10.11700 33.46000
H  2.10800 10.64200 34.45300
H  3.37400 11.79000 34.11000
Mg -5.48000 25.42500 26.26300
C  -4.04500 26.81600 29.10000
C  -7.46900 23.32700 28.31000
C  -6.49300 23.88200 23.50800
C  -3.10700 27.22900 24.35900
N  -5.67600 25.01000 28.44400
C  -5.00300 25.76800 29.38900
C  -5.54700 25.50400 30.83200
C  -6.48000 24.21000 30.51900
C  -6.58000 24.18000 29.01500
C  -5.88200 22.89800 31.18100
C  -6.36300 26.58900 31.52500
C  -6.01400 26.75100 32.98700
H  -5.94100 25.58000 33.93900
N  -6.86000 23.82700 25.92100
C  -7.60900 23.18000 26.87000
C  -8.44800 22.21800 26.16500
C  -8.08600 22.26000 24.77000
C  -7.08000 23.31600 24.69000
C  -9.36300 21.27300 26.88100
C  -8.53600 21.43500 23.59000
O  -7.86900 21.44200 22.54700
C  -9.67900 20.62800 23.67800
N  -4.76200 25.45900 24.17800
C  -5.40100 24.78300 23.31200
C  -4.87200 25.11600 21.92200
C  -3.86900 26.22100 22.11400
C  -3.96300 26.40000 23.63000
C  -4.14900 23.89200 21.23500
C  -4.25500 27.54100 21.40700
C  -3.39100 27.81700 20.21200
N  -3.86200 26.67600 26.58500
C  -3.03100 27.39500 25.75300
C  -2.21400 28.32000 26.45200
C  -2.59800 28.08400 27.83900
C  -3.50800 27.04700 27.81400
C  -1.26600 29.32100 25.92200
C  -2.26800 28.49900 29.20400
O  -1.58400 29.42400 29.64700
C  -3.24800 27.60700 30.10800
C  -2.38700 26.73400 30.99300
O  -1.88500 25.74900 30.61200
O  -2.50800 27.14800 32.25900
C  -1.88900 26.32300 33.34400
H  -8.25800 22.79100 28.84100
H  -6.71800 23.36000 22.57600
H  -2.52600 27.92200 23.74800
H  -4.71400 25.16800 31.44900
H  -7.44200 24.33900 31.01500
H  -6.60700 22.28100 31.71300
H  -5.01600 23.10800 31.80800
H  -5.57200 22.29200 30.33000
H  -7.44700 26.48800 31.46500
H  -6.18700 27.56800 31.07900
H  -6.80400 27.35100 33.43700
H  -5.09000 27.30600 33.15100
H  -10.38900 21.63400 26.96100
H  -8.94000 20.87500 27.80300
H  -9.59700 20.35400 26.34500
H  -10.08500 20.55700 22.66900
H  -10.39400 21.20300 24.26700
H  -9.58900 19.58600 23.98600
H  -5.68100 25.40300 21.25000
H  -2.81900 25.99900 21.92200
H  -3.06200 23.95000 21.16900
H  -4.67600 23.72800 20.29500
H  -4.34900 23.02700 21.86800
H  -4.08200 28.38600 22.07300
H  -5.29600 27.58700 21.08600
H  -3.96500 27.88800 19.28700
H  -2.51800 27.17900 20.07300
H  -2.92700 28.79500 20.34200
H  -1.81100 30.26400 25.88100
H  -0.98200 29.03000 24.91100
H  -0.36500 29.50100 26.50900
H  -3.84400 28.28100 30.72300
H  -1.75300 26.85700 34.28400
H  -0.95200 25.86700 33.02500
H  -2.65200 25.60100 33.63500

