158

Mg 35.25700 1.74300 30.82500
C  32.66100 3.09600 32.78800
C  37.03000 1.39000 33.61400
C  37.77900 0.75700 28.84500
C  33.18100 1.99200 27.96600
N  34.80000 2.07900 33.03100
C  33.69700 2.67200 33.57200
C  33.88100 2.77500 35.14100
C  35.40700 2.37100 35.31400
C  35.75200 1.91100 33.89500
C  36.28100 3.44800 35.92800
C  32.99900 1.76100 35.85500
C  32.11100 2.34700 36.98500
H  32.62100 3.48500 37.89500
N  37.16200 1.11700 31.18800
C  37.75400 1.05700 32.39200
C  39.15700 0.64400 32.25600
C  39.41700 0.55600 30.83500
C  38.06100 0.76100 30.22600
C  40.05700 0.38500 33.45300
C  40.69900 0.19300 30.07700
O  40.71000 -0.06200 28.90700
C  41.98900 0.18900 30.84400
N  35.40500 1.27500 28.68600
C  36.59500 0.94800 28.13000
C  36.49900 1.03100 26.56300
C  34.98000 0.98300 26.38300
C  34.44300 1.46100 27.75600
C  37.18300 2.26900 25.91100
C  34.42300 -0.40000 25.96100
C  32.98900 -0.93500 26.34700
N  33.36300 2.45700 30.42600
C  32.68200 2.50400 29.23300
C  31.36800 3.11600 29.45500
C  31.33200 3.46300 30.81500
C  32.53500 2.93000 31.38600
C  30.27000 3.22700 28.40900
C  30.56400 4.04500 31.85700
O  29.50900 4.62800 31.79900
C  31.41600 3.90700 33.21600
C  31.78000 5.22300 33.69100
O  32.72800 5.87100 33.33700
O  30.86700 5.61800 34.68200
C  31.22000 6.97400 35.25400
H  37.67200 1.28700 34.49200
H  38.57300 0.55300 28.12300
H  32.69700 2.02800 26.98700
H  33.59600 3.81600 35.29400
H  35.60200 1.44700 35.86000
H  35.71700 4.17900 36.50700
H  36.77700 3.91400 35.07700
H  36.92400 2.86600 36.58800
H  33.59300 0.99800 36.35900
H  32.30800 1.30500 35.14600
H  31.91300 1.55700 37.71000
H  31.20000 2.57400 36.43200
H  39.56700 0.29300 34.42200
H  40.87100 1.10800 33.51400
H  40.43600 -0.61000 33.22100
H  41.94900 -0.40500 31.75700
H  42.23700 1.18600 31.20900
H  42.87100 -0.09900 30.27300
H  37.02800 0.16700 26.16200
H  34.63800 1.65200 25.59300
H  38.09900 1.92200 25.43300
H  37.39200 2.99000 26.70100
H  36.54700 2.74600 25.16500
H  35.10400 -1.09900 26.44700
H  34.65200 -0.63500 24.92200
H  32.24100 -0.18400 26.59700
H  33.10200 -1.65900 27.15400
H  32.69000 -1.56000 25.50600
H  29.58100 4.02400 28.68900
H  29.74400 2.28500 28.26000
H  30.68900 3.52000 27.44600
H  30.72800 3.44100 33.92100
H  30.33600 7.25000 35.83000
H  31.55000 7.69400 34.50500
H  32.09300 6.83300 35.89100
Mg 16.81700 52.08500 25.99800
C  18.42200 50.48400 28.70100
C  14.71100 53.37000 28.25400
C  15.36800 53.38500 23.45100
C  19.16900 50.31900 23.84200
N  16.51000 51.86100 28.30300
C  17.29600 51.18000 29.17600
C  16.82000 51.41900 30.67400
C  15.50400 52.25700 30.38300
C  15.56300 52.55900 28.92500
C  14.09800 51.71300 30.80200
C  17.87600 52.29500 31.37000
C  18.28500 51.82700 32.88200
H  17.61200 52.56800 33.95800
N  15.17600 53.21100 25.80500
C  14.50900 53.72500 26.87400
C  13.42800 54.55500 26.39900
C  13.64600 54.67200 25.00100
C  14.73200 53.73600 24.66100
C  12.47000 55.34300 27.19700
C  12.84800 55.38500 23.91500
O  13.14500 55.39200 22.71100
C  11.55000 56.21800 24.24500
N  17.07100 51.70200 23.92100
C  16.40000 52.47300 23.07800
C  16.90500 52.34200 21.64300
C  18.21200 51.46800 21.79000
C  18.17100 51.13200 23.26400
C  15.88500 52.10100 20.47600
C  19.55300 52.28600 21.42200
C  19.84000 53.62600 22.08300
N  18.48200 50.69300 26.16300
C  19.34300 50.11900 25.20000
C  20.41900 49.47300 25.88700
C  20.12300 49.52700 27.23500
C  18.92000 50.22100 27.34400
C  21.56100 48.89300 25.12500
C  20.55800 49.25000 28.61600
O  21.49300 48.65300 29.01700
C  19.43500 49.85900 29.62100
C  18.82000 48.90700 30.51800
O  17.92300 48.13600 30.23000
O  19.53300 48.97800 31.65400
C  19.14900 48.12100 32.77700
H  13.99300 53.87500 28.90200
H  14.97900 53.74300 22.49600
H  19.92700 49.87800 23.19100
H  16.59000 50.51700 31.24100
H  15.49500 53.26700 30.79300
H  13.78800 51.17100 29.90800
H  13.43300 52.51300 31.12800
H  14.23100 51.03100 31.64200
H  17.41200 53.24000 31.65500
H  18.79000 52.54400 30.83300
H  19.34700 52.02200 33.02700
H  18.12400 50.75100 32.95700
H  11.45700 54.94000 27.19600
H  12.56100 56.35300 26.79700
H  12.79900 55.33400 28.23600
H  10.89400 55.60900 24.86700
H  11.21800 56.52300 23.25200
H  11.70400 57.07400 24.90200
H  17.23100 53.33300 21.32600
H  18.13000 50.55500 21.20000
H  15.76100 52.96600 19.82500
H  14.90800 52.00000 20.94900
H  16.03900 51.17700 19.91800
H  19.64300 52.28100 20.33600
H  20.38700 51.63800 21.69100
H  20.22700 54.28100 21.30200
H  20.49100 53.43700 22.93600
H  18.91500 54.01600 22.50700
H  21.21400 48.17600 24.38100
H  22.21800 48.40400 25.84400
H  22.05100 49.71400 24.60100
H  19.80200 50.67600 30.24300
H  18.26600 47.49700 32.64100
H  18.93000 48.64000 33.71100
H  19.97400 47.48200 33.09100

