158

Mg 35.06500 3.48300 29.30100
C  32.64200 4.37600 31.71700
C  37.27300 2.93500 31.85900
C  37.19500 2.31600 27.07100
C  32.69100 3.96700 26.87500
N  34.94000 3.79200 31.48200
C  33.87800 4.22900 32.29300
C  34.28200 4.24800 33.80300
C  35.84800 4.10100 33.75600
C  36.10600 3.62200 32.25500
C  36.66900 5.36500 33.99700
C  33.62600 3.17700 34.73400
C  33.26900 3.56700 36.23700
H  34.06800 4.83700 36.69500
N  36.99800 2.74800 29.42900
C  37.69400 2.47200 30.58600
C  38.95700 1.84500 30.27600
C  39.01000 1.62900 28.82100
C  37.68900 2.20200 28.37200
C  40.08400 1.61100 31.27200
C  40.09600 1.06000 27.88300
O  39.98900 1.10400 26.64300
C  41.36400 0.49400 28.32700
N  34.93700 3.14000 27.28400
C  36.03400 2.80300 26.55400
C  35.81100 3.06700 25.00900
C  34.25100 3.25800 24.96600
C  33.93200 3.46300 26.45900
C  36.50000 4.32500 24.49900
C  33.46500 2.11800 24.29500
C  32.96000 0.94500 25.03700
N  33.04100 4.09900 29.22600
C  32.23300 4.25500 28.13700
C  30.97000 4.83300 28.58200
C  31.08100 4.77800 30.00500
C  32.38300 4.31600 30.30400
C  29.85900 5.19400 27.66000
C  30.34600 4.93900 31.26800
O  29.16600 5.23300 31.43400
C  31.33800 4.65000 32.40700
C  31.41600 5.90000 33.23100
O  31.88000 6.97800 32.90300
O  30.85800 5.70600 34.52600
C  30.80600 6.88400 35.38900
H  37.81000 2.62100 32.75700
H  37.82400 1.87000 26.29800
H  31.92700 4.07400 26.10100
H  34.03500 5.24900 34.15700
H  36.14000 3.37300 34.51200
H  37.00600 5.72800 33.02600
H  37.55800 5.09100 34.56600
H  36.12500 6.19400 34.45000
H  34.19500 2.25700 34.87000
H  32.77900 2.75300 34.19400
H  33.62100 2.73200 36.84300
H  32.20000 3.64300 36.43300
H  39.59300 1.54100 32.24300
H  40.65200 2.53800 31.35100
H  40.61800 0.67000 31.13800
H  42.04800 1.14700 28.87000
H  41.90600 0.39300 27.38700
H  41.15100 -0.50400 28.71000
H  36.13200 2.13900 24.53600
H  34.06100 4.16800 24.39600
H  35.92800 5.16700 24.10800
H  37.05100 3.78100 23.73200
H  37.19700 4.67100 25.26300
H  34.08500 1.78800 23.46200
H  32.59100 2.62500 23.88800
H  33.38100 0.96900 26.04200
H  33.34000 -0.01000 24.67600
H  31.87300 0.86900 25.08200
H  29.12100 5.76100 28.22800
H  29.36900 4.24300 27.45100
H  30.14900 5.57300 26.68000
H  30.98700 3.88700 33.10100
H  31.76200 7.40600 35.43700
H  30.50800 6.47000 36.35200
H  30.10300 7.63600 35.03100
Mg 6.66400 53.53800 39.59800
C  6.46100 49.81600 39.50600
C  10.00900 53.12500 38.85300
C  6.67300 56.71300 39.33100
C  3.22000 53.42500 40.09100
N  8.07600 51.70100 39.21000
C  7.78700 50.32900 39.35800
C  9.08400 49.48700 39.14000
C  10.21800 50.52400 39.32500
C  9.42400 51.86700 39.12300
C  10.94400 50.51900 40.69700
C  9.16800 48.80500 37.72700
C  8.92500 49.75600 36.52300
H  7.65300 49.69200 35.73500
N  8.11600 54.81900 39.03900
C  9.44500 54.44800 38.70200
C  10.08800 55.60700 38.38900
C  9.16800 56.75900 38.59500
C  7.94900 56.17700 39.06900
C  11.52400 55.66400 37.82200
C  9.53400 58.22500 38.34000
O  10.64700 58.50800 37.91300
C  8.59400 59.39200 38.61200
N  5.15500 54.86200 39.51300
C  5.44800 56.15400 39.61600
C  4.16600 57.04600 39.86800
C  3.11400 55.91500 40.19900
C  3.88400 54.63900 39.96800
C  4.30600 58.12600 41.00700
C  1.72900 56.01800 39.56700
C  0.57200 55.96500 40.54500
N  5.06200 51.93300 39.57600
C  3.73700 52.14800 39.90100
C  3.04500 50.85800 40.07300
C  4.11300 49.93100 39.95100
C  5.28300 50.62800 39.63700
C  1.57400 50.65200 40.44400
C  4.39200 48.58000 40.02700
O  3.64600 47.60100 40.13200
C  5.86900 48.42300 39.72400
C  6.00900 47.60900 38.57200
O  5.77500 47.93000 37.41800
O  6.46700 46.30800 38.91000
C  6.17100 45.13900 37.97600
H  11.08700 52.98700 38.74500
H  6.70600 57.80200 39.24600
H  2.16900 53.38000 40.38500
H  9.14200 48.65900 39.84600
H  10.98600 50.53300 38.55200
H  11.98900 50.39900 40.41000
H  10.83300 49.68300 41.38800
H  10.91400 51.40200 41.33500
H  8.35400 48.08100 37.71900
H  10.11800 48.27100 37.70300
H  9.78300 49.65900 35.85700
H  9.06100 50.76700 36.90600
H  12.24100 55.79100 38.63300
H  11.55500 56.48500 37.10600
H  11.89700 54.78600 37.29400
H  9.08200 60.35900 38.73200
H  8.25300 59.07000 39.59600
H  7.72000 59.35200 37.96200
H  4.05000 57.54400 38.90500
H  3.03700 55.89700 41.28600
H  4.40500 59.16400 40.68900
H  5.21900 57.76200 41.47800
H  3.51000 57.94900 41.73000
H  1.61400 55.18800 38.87000
H  1.69700 56.98200 39.05800
H  -0.38300 55.87600 40.02600
H  0.52100 56.91100 41.08500
H  0.56600 54.96100 40.97000
H  1.51000 49.59300 40.69000
H  0.82600 51.00800 39.73600
H  1.46300 51.25900 41.34300
H  6.24100 47.88200 40.59400
H  7.11000 44.76800 37.56500
H  5.34700 45.41200 37.31800
H  5.70600 44.34900 38.56600

