158

Mg 35.80700 49.00800 24.65300
C  35.60400 47.23900 27.85100
C  34.31900 51.68700 26.17100
C  35.22000 50.19100 21.58700
C  36.64400 45.84700 23.21600
N  35.19600 49.45800 26.77600
C  35.16400 48.58700 27.91400
C  34.83300 49.31200 29.19500
C  34.22500 50.68100 28.56200
C  34.60700 50.64400 27.06800
C  32.71200 50.95600 28.70000
C  35.97100 49.47600 30.17900
C  35.92700 48.80600 31.56300
H  34.88800 49.48000 32.50400
N  34.94200 50.79800 23.99000
C  34.43900 51.78000 24.75100
C  34.04200 52.93500 23.87200
C  34.28900 52.49700 22.52900
C  34.92400 51.13000 22.62200
C  33.55900 54.22900 24.39600
C  33.97200 53.26900 21.19100
O  34.27400 52.88300 20.07000
C  33.32100 54.62900 21.23800
N  35.77700 47.98500 22.67300
C  35.58400 48.78700 21.57100
C  35.82700 48.01600 20.28700
C  36.50700 46.70200 20.82500
C  36.25700 46.80100 22.34600
C  34.57200 47.72100 19.33000
C  37.93800 46.35300 20.39600
C  39.15300 46.85000 21.29200
N  36.11700 47.01100 25.33300
C  36.51400 45.81700 24.63200
C  36.85300 44.77500 25.55400
C  36.42000 45.25800 26.77800
C  36.01400 46.61500 26.64500
C  37.45500 43.47600 25.25600
C  36.30500 44.88900 28.19100
O  36.47100 43.81300 28.72100
C  35.82400 46.19700 28.90800
C  34.63400 45.82400 29.70100
O  33.45900 46.09900 29.46500
O  35.05500 45.15800 30.78400
C  34.09900 44.77300 31.67100
H  33.94900 52.56800 26.69800
H  35.12800 50.66200 20.60600
H  36.93600 44.87000 22.82700
H  34.10200 48.66200 29.67700
H  34.72000 51.54000 29.01500
H  32.26800 50.13400 29.26100
H  32.35600 51.13000 27.68500
H  32.53900 51.94700 29.12000
H  36.10100 50.55300 30.29100
H  36.89400 49.19900 29.67100
H  36.93600 48.82300 31.97500
H  35.60300 47.77800 31.39600
H  34.18500 55.09800 24.19400
H  33.49200 54.19100 25.48300
H  32.63300 54.60600 23.96100
H  32.29300 54.45300 21.55500
H  33.35400 55.08000 20.24600
H  33.77600 55.45100 21.79100
H  36.48800 48.54700 19.60200
H  35.89500 45.87300 20.47200
H  34.58000 46.70800 18.92800
H  34.46400 48.48400 18.55900
H  33.63200 47.87300 19.86000
H  38.18000 46.67300 19.38300
H  38.02000 45.26700 20.35900
H  38.93400 47.03000 22.34500
H  39.44500 47.83400 20.92600
H  39.93100 46.08600 21.29600
H  38.26300 43.66700 24.55000
H  36.74500 42.93900 24.62700
H  37.78800 42.98600 26.17100
H  36.62700 46.48800 29.58500
H  33.35000 44.18600 31.14100
H  33.65100 45.68600 32.06300
H  34.57200 44.25300 32.50400
Mg -2.30900 35.37100 27.29500
C  -3.57700 33.43900 29.82500
C  -1.11000 37.59100 29.53900
C  -1.24600 37.05200 24.68700
C  -3.48400 32.87300 25.01200
N  -2.48300 35.54200 29.38200
C  -2.98900 34.64300 30.26800
C  -2.61500 34.94900 31.75600
C  -2.04200 36.42000 31.58200
C  -1.88100 36.55800 30.07600
C  -2.92800 37.54600 32.16600
C  -1.63100 33.97400 32.34400
C  -2.09200 33.11800 33.56000
H  -1.23100 32.97900 34.70500
N  -1.34200 37.12900 27.05500
C  -0.85800 37.85000 28.14200
C  -0.14900 38.99300 27.58700
C  -0.30100 38.91900 26.13100
C  -1.01800 37.68100 25.90500
C  0.61600 40.07500 28.43100
C  0.16600 39.90400 25.08500
O  -0.05500 39.79200 23.82200
C  0.93500 41.20000 25.60000
N  -2.52400 35.06900 25.16100
C  -1.84100 35.84800 24.29300
C  -1.97100 35.42800 22.82400
C  -2.45900 33.93400 22.96200
C  -2.92000 33.94000 24.41300
C  -2.82300 36.29700 21.86200
C  -1.44300 32.85800 22.61200
C  -0.36700 32.62100 23.71200
N  -3.38500 33.53000 27.37100
C  -3.86000 32.71500 26.32600
C  -4.58800 31.60800 26.96800
C  -4.39700 31.81100 28.38000
C  -3.79800 33.05600 28.55000
C  -5.26400 30.61400 26.15500
C  -4.69000 31.29200 29.69100
O  -5.28600 30.25900 29.97000
C  -4.09600 32.28200 30.68600
C  -5.17800 32.75100 31.59200
O  -6.11100 33.51800 31.39500
O  -5.06200 32.01200 32.69800
C  -5.89100 32.33600 33.90200
H  -0.70800 38.24400 30.31700
H  -0.91400 37.65000 23.83600
H  -3.70900 32.04100 24.34000
H  -3.42900 35.11000 32.46300
H  -1.08100 36.56500 32.07400
H  -3.93800 37.21000 32.40300
H  -3.00300 38.43500 31.54000
H  -2.51700 37.72900 33.15900
H  -0.71200 34.48100 32.63600
H  -1.44700 33.18600 31.61400
H  -2.17800 32.10800 33.16000
H  -3.08300 33.35800 33.94600
H  1.68200 39.91800 28.26000
H  0.36300 39.97800 29.48700
H  0.33000 41.09300 28.16800
H  1.83600 41.01500 26.18500
H  0.30700 41.87600 26.18100
H  1.16600 41.76900 24.69900
H  -0.92100 35.37500 22.53600
H  -3.39400 33.68300 22.46200
H  -3.28500 35.64400 21.12100
H  -2.06800 36.91300 21.37300
H  -3.55000 36.99200 22.28400
H  -0.97100 33.23000 21.70200
H  -1.97900 31.97200 22.27000
H  -0.66700 32.71000 24.75600
H  0.60400 33.07900 23.52500
H  -0.00600 31.59900 23.59600
H  -6.21800 30.98200 25.77800
H  -5.62700 29.79500 26.77700
H  -4.70400 30.04500 25.41300
H  -3.22500 31.79600 31.12500
H  -6.81000 32.87900 33.68300
H  -5.31200 32.91200 34.62300
H  -6.09700 31.33900 34.29200

