158

Mg 27.14800 49.91900 26.12900
C  25.21900 50.91400 28.84800
C  29.69000 48.91400 28.42400
C  29.14600 49.21700 23.46900
C  24.69300 50.94200 23.95700
N  27.41400 49.92700 28.36500
C  26.41400 50.35700 29.25600
C  26.89000 50.03500 30.71800
C  28.35600 49.41700 30.56000
C  28.51900 49.48100 28.99700
C  29.50800 50.20800 31.27700
C  25.81900 49.19200 31.49500
C  25.69700 49.74500 32.94000
H  25.74800 48.87200 34.14100
N  29.14500 49.18600 25.99600
C  30.03800 48.85400 27.03900
C  31.26500 48.36700 26.41600
C  31.16700 48.47000 24.98000
C  29.74400 48.96200 24.76300
C  32.42100 47.90200 27.36300
C  32.25400 48.28300 23.89200
O  32.07300 48.64100 22.71600
C  33.52300 47.64900 24.25500
N  26.94100 50.05600 24.06500
C  27.84700 49.59200 23.17100
C  27.22900 49.65100 21.74900
C  25.87000 50.22200 21.89000
C  25.80100 50.29300 23.41200
C  28.08400 50.31300 20.66500
C  24.76400 49.27800 21.33300
C  23.78200 49.98200 20.38100
N  25.30000 50.85600 26.29000
C  24.39900 51.10300 25.34800
C  23.25300 51.72700 25.99400
C  23.57200 51.77800 27.33000
C  24.78000 51.06700 27.47900
C  21.98900 52.17100 25.35900
C  23.06600 52.16800 28.66000
O  22.07200 52.81100 28.91800
C  24.08200 51.44800 29.68900
C  24.49000 52.57100 30.68800
O  25.19800 53.53800 30.46600
O  23.67500 52.45200 31.82900
C  24.11400 53.36200 32.86800
H  30.45900 48.46700 29.05700
H  29.73700 48.90500 22.60500
H  23.93800 51.31700 23.26200
H  26.91700 51.03400 31.15400
H  28.30200 48.41200 30.97900
H  29.08500 50.62600 32.19000
H  29.97100 50.95300 30.62900
H  30.28300 49.48500 31.53300
H  26.11300 48.14400 31.55000
H  24.84600 49.21000 31.00500
H  24.72000 50.19500 33.11900
H  26.43100 50.52300 33.14500
H  32.09900 47.04200 27.94900
H  32.63400 48.72700 28.04300
H  33.31400 47.65900 26.78700
H  34.13200 48.24900 24.93100
H  34.05400 47.57500 23.30600
H  33.44600 46.64300 24.67000
H  27.15500 48.59900 21.47300
H  25.93900 51.24400 21.51600
H  29.03800 50.56500 21.12800
H  27.68200 51.28300 20.37300
H  28.09800 49.74600 19.73400
H  24.25200 48.91100 22.22300
H  25.20200 48.48000 20.73400
H  24.27000 49.96700 19.40700
H  23.66700 51.01900 20.69600
H  22.83600 49.44800 20.29500
H  22.05300 53.20000 25.00800
H  21.21400 52.19300 26.12500
H  21.79100 51.47100 24.54700
H  23.52500 50.66800 30.20700
H  23.47600 53.29000 33.74800
H  23.91300 54.35100 32.45600
H  25.11400 53.20500 33.27300
Mg -6.38700 25.92500 25.69600
C  -4.37700 26.98100 28.31200
C  -7.76800 23.59300 27.85500
C  -7.87700 24.25500 22.96900
C  -4.73100 28.01300 23.62500
N  -6.03600 25.30000 27.81500
C  -5.29200 26.02800 28.74800
C  -5.45400 25.41900 30.12800
C  -6.31300 24.16200 29.80200
C  -6.82500 24.48900 28.41900
C  -5.48100 22.91600 29.85500
C  -6.15000 26.51000 30.98400
C  -5.63200 26.59000 32.43300
H  -4.91600 25.41900 33.12800
N  -7.81900 24.26000 25.49800
C  -8.27800 23.49400 26.53700
C  -9.29900 22.52000 26.06000
C  -9.30500 22.65200 24.60700
C  -8.26400 23.76300 24.29700
C  -10.02500 21.67900 27.02700
C  -10.18400 21.98300 23.50900
O  -10.05500 22.09700 22.31100
C  -11.31700 21.07500 24.02800
N  -6.35900 26.05300 23.64400
C  -6.97200 25.25700 22.70200
C  -6.89800 25.82300 21.27800
C  -5.78200 26.92000 21.51200
C  -5.64300 27.05000 23.01500
C  -6.40100 24.68500 20.20100
C  -6.11100 28.35600 20.87200
C  -5.18100 28.90300 19.76200
N  -4.86000 27.33300 25.86900
C  -4.36900 28.15000 24.94200
C  -3.49900 29.08300 25.61300
C  -3.42000 28.65900 26.92300
C  -4.29300 27.57900 27.04100
C  -2.84500 30.24700 24.93700
C  -2.83400 28.84300 28.22700
O  -1.97900 29.62700 28.66700
C  -3.46400 27.81200 29.18400
C  -2.32400 27.05200 29.73100
O  -1.67700 26.21200 29.13900
O  -2.13700 27.47400 31.03500
C  -1.11800 26.77100 31.81000
H  -8.31600 23.04900 28.62700
H  -8.38000 23.84400 22.09100
H  -4.06700 28.52800 22.92800
H  -4.51000 25.08100 30.55400
H  -7.23600 24.05400 30.37100
H  -5.37500 22.36300 28.92200
H  -5.81600 22.12900 30.53000
H  -4.46300 23.11700 30.19100
H  -7.20700 26.24900 31.03300
H  -6.11200 27.53600 30.61800
H  -6.49300 26.88900 33.03100
H  -4.93400 27.42100 32.53200
H  -9.56200 20.70400 27.17500
H  -11.06200 21.45700 26.77600
H  -10.04900 22.07500 28.04300
H  -11.75600 20.60500 23.14800
H  -11.96700 21.78100 24.54400
H  -10.98800 20.25300 24.66400
H  -7.84900 26.29000 21.01900
H  -4.90200 26.52400 21.00500
H  -5.48600 24.25500 20.60800
H  -6.18200 25.14500 19.23800
H  -7.15000 23.89400 20.14300
H  -6.03200 29.04100 21.71600
H  -7.13900 28.31400 20.51300
H  -4.76900 29.87700 20.02300
H  -5.73700 29.09300 18.84400
H  -4.33100 28.26300 19.52700
H  -2.29200 30.70400 25.75800
H  -3.47700 31.04400 24.54600
H  -2.10500 29.87400 24.22800
H  -4.09600 28.38800 29.86000
H  -0.34700 27.45000 32.17400
H  -0.68000 25.94900 31.24400
H  -1.61800 26.41000 32.70800

