158

Mg 25.23800 1.76100 29.72100
C  27.41700 1.44700 32.55000
C  22.57800 1.96500 31.78200
C  23.43300 1.88800 26.98200
C  28.13400 1.07100 27.64400
N  25.07100 1.83900 31.97600
C  26.08400 1.68500 32.90300
C  25.53700 1.85800 34.36900
C  23.93500 1.86800 34.02200
C  23.79400 1.87800 32.50600
C  23.03900 0.98400 34.95300
C  25.97800 3.19000 35.17100
C  26.04200 2.93500 36.68600
H  25.55600 4.02000 37.63400
N  23.26000 1.96600 29.39800
C  22.32100 2.05000 30.35500
C  21.08300 2.15400 29.79800
C  21.26400 2.05900 28.39400
C  22.73700 1.97300 28.18300
C  19.76200 2.33200 30.67700
C  20.20700 1.84700 27.30200
O  20.50200 1.56200 26.12900
C  18.75500 1.90200 27.72400
N  25.72600 1.38900 27.60700
C  24.74300 1.66200 26.73200
C  25.31500 1.63500 25.26400
C  26.81700 1.47400 25.46600
C  26.90400 1.32200 27.00100
C  24.77400 0.67900 24.15300
C  27.60300 2.68500 24.80400
C  27.66000 4.04600 25.55200
N  27.35100 1.39300 29.96400
C  28.34900 1.09800 29.05900
C  29.55700 0.65800 29.78300
C  29.27700 0.95300 31.13500
C  27.87800 1.24900 31.21600
C  30.82600 0.22600 29.13600
C  29.84000 1.00800 32.47500
O  31.00000 0.97500 32.89500
C  28.60400 1.32000 33.42700
C  28.44800 0.32700 34.54500
O  28.29800 -0.86200 34.39400
O  28.57900 0.98700 35.70200
C  28.37400 0.18000 36.93400
H  21.74400 2.05900 32.48000
H  22.82300 1.90600 26.07500
H  29.05600 1.08900 27.05800
H  25.72800 0.99400 35.00500
H  23.65600 2.88500 34.30100
H  23.60500 0.50800 35.75300
H  22.55800 0.31300 34.24000
H  22.30400 1.68400 35.35000
H  25.17700 3.91900 35.04600
H  26.89600 3.53600 34.69500
H  27.03800 2.69700 37.06000
H  25.42800 2.04500 36.82700
H  19.76200 1.99600 31.71400
H  18.81800 1.96800 30.27100
H  19.55900 3.40200 30.65100
H  18.39200 2.81400 28.19700
H  18.60600 1.00100 28.32000
H  18.26400 1.67500 26.77700
H  25.10800 2.64200 24.90300
H  27.19200 0.56700 24.99000
H  23.74500 0.90400 23.87500
H  24.84600 -0.38700 24.36800
H  25.39600 0.84300 23.27300
H  27.08600 2.87300 23.86300
H  28.61000 2.26900 24.76200
H  26.92500 3.79400 26.31700
H  27.23700 4.81000 24.90000
H  28.68900 4.27700 25.82700
H  31.38800 -0.39300 29.83400
H  31.42200 1.05700 28.75900
H  30.59600 -0.39700 28.27100
H  28.90600 2.26200 33.88400
H  29.15600 -0.57500 37.00600
H  27.34800 -0.14700 37.10600
H  28.48700 0.80400 37.82000
Mg 46.77200 25.66700 28.07100
C  47.90000 27.58900 30.66500
C  46.33400 23.01200 30.30600
C  46.36100 23.63600 25.36700
C  48.03900 28.06400 25.82000
N  47.09800 25.26700 30.25600
C  47.39600 26.29400 31.10000
C  47.15000 25.95800 32.58500
C  46.87800 24.44200 32.46200
C  46.76600 24.23200 30.92900
C  47.99300 23.53600 33.10200
C  45.97800 26.68700 33.31200
C  46.38700 27.58900 34.56300
H  45.39300 27.58100 35.70900
N  46.27300 23.65600 27.87400
C  46.24100 22.69100 28.91700
C  45.80500 21.45400 28.36100
C  45.81200 21.62300 26.90400
C  46.20100 23.03200 26.62300
C  45.52000 20.18000 29.16000
C  45.48000 20.62900 25.77800
O  45.73700 20.83400 24.59400
C  44.96700 19.25500 26.07500
N  47.13400 25.74900 25.89300
C  46.80800 24.86200 24.97200
C  46.92700 25.31300 23.56600
C  47.36800 26.82200 23.73600
C  47.55600 26.90200 25.28800
C  47.82100 24.36800 22.65500
C  46.45900 27.92000 23.11900
C  47.27000 29.06800 22.30600
N  47.85900 27.38700 28.12200
C  48.27900 28.28900 27.16400
C  48.99900 29.40900 27.80100
C  48.81900 29.20800 29.16800
C  48.10800 27.97400 29.30100
C  49.65200 30.56400 27.03100
C  48.98500 29.86200 30.41900
O  49.44600 30.94200 30.67800
C  48.33700 28.82700 31.49200
C  49.38800 28.53600 32.45700
O  50.45300 28.03700 32.21100
O  49.07900 29.12500 33.63800
C  50.02900 29.06000 34.68100
H  46.21900 22.19900 31.02600
H  46.06400 23.03000 24.50800
H  48.39200 28.80500 25.09900
H  48.10700 26.10900 33.08500
H  45.90300 24.19300 32.88100
H  47.55100 22.84900 33.82300
H  48.71600 24.12500 33.66500
H  48.44400 22.94900 32.30200
H  45.23500 25.96600 33.65100
H  45.55300 27.31400 32.52800
H  46.56700 28.63300 34.30500
H  47.36500 27.16300 34.78800
H  45.70800 20.21800 30.23300
H  46.07100 19.36500 28.69100
H  44.46300 19.97400 28.98900
H  45.81700 18.80000 26.58300
H  44.61000 18.73100 25.18800
H  44.07600 19.28000 26.70300
H  45.90500 25.36900 23.19100
H  48.40700 26.84900 23.40600
H  48.80700 24.36100 23.11800
H  47.97800 24.85900 21.69500
H  47.51200 23.33000 22.53000
H  45.99100 28.38000 23.98900
H  45.66700 27.57700 22.45400
H  46.80700 29.39000 21.37300
H  48.32400 28.80100 22.22800
H  47.13700 29.88200 23.01800
H  49.01500 31.40400 26.75600
H  50.34100 30.17100 26.28300
H  50.34900 30.87000 27.81100
H  47.51400 29.39300 31.92900
H  49.62400 28.33200 35.38500
H  50.12200 30.03800 35.15300
H  51.03300 28.67800 34.49500

