158

Mg 42.14000 41.87200 26.66500
C  41.36300 44.27500 29.07000
C  43.18600 39.79500 29.18100
C  42.59300 39.44800 24.37400
C  40.93500 44.05300 24.22700
N  42.39400 42.10100 28.87600
C  41.87200 43.11000 29.65100
C  41.64900 42.70700 31.04500
C  42.39700 41.35600 31.19200
C  42.72800 41.04700 29.70100
C  43.64000 41.47500 32.16200
C  40.14500 42.50500 31.41300
C  39.53800 43.48400 32.46400
H  39.17000 43.00100 33.88800
N  42.84900 39.87200 26.81200
C  43.18900 39.21800 27.90700
C  43.68900 37.88600 27.59800
C  43.42400 37.68900 26.21200
C  42.93700 39.04700 25.69600
C  44.28800 36.96700 28.64100
C  43.57900 36.49800 25.46800
O  43.34400 36.50000 24.28200
C  43.93600 35.13200 26.05400
N  41.89300 41.85800 24.64500
C  42.11300 40.74800 23.86700
C  41.83800 40.98800 22.39500
C  41.17800 42.37900 22.37100
C  41.31400 42.81700 23.89200
C  43.13700 40.90100 21.51900
C  39.65500 42.28500 22.02200
C  38.71900 41.73200 23.00600
N  41.57100 43.89100 26.55000
C  41.00400 44.56800 25.51200
C  40.59900 45.86400 25.96600
C  40.67000 45.81400 27.38500
C  41.26300 44.57000 27.68900
C  40.22500 46.97300 25.13300
C  40.48000 46.52500 28.60500
O  40.19700 47.70600 28.79100
C  40.81600 45.55900 29.77300
C  41.73700 46.22500 30.69200
O  42.93400 46.24500 30.55100
O  41.02000 46.81300 31.75200
C  41.71400 47.22800 32.87900
H  43.38700 39.16400 30.04900
H  42.85700 38.70600 23.61800
H  40.48000 44.68700 23.46400
H  42.03900 43.31000 31.86500
H  41.78300 40.56500 31.62300
H  43.60200 42.32900 32.83700
H  44.54500 41.53500 31.55800
H  43.79800 40.53000 32.68200
H  39.84600 41.55000 31.84400
H  39.62300 42.45200 30.45700
H  38.62300 43.84200 31.99100
H  40.16700 44.33800 32.71400
H  45.28400 36.60000 28.39600
H  43.64000 36.12400 28.88200
H  44.41900 37.50300 29.58100
H  43.99700 34.46200 25.19700
H  43.28100 34.68100 26.79900
H  44.91800 35.29100 26.49800
H  41.19800 40.13100 22.18600
H  41.73900 43.03000 21.70000
H  43.75600 41.52000 22.16900
H  42.95100 41.33300 20.53600
H  43.35700 39.83300 21.50500
H  39.52000 41.70200 21.11100
H  39.31000 43.27800 21.73000
H  38.22500 42.42300 23.68900
H  39.19300 40.99500 23.65500
H  37.90100 41.15300 22.57700
H  39.23500 47.42300 25.21200
H  40.37200 46.82100 24.06400
H  41.03500 47.69600 25.22900
H  39.86500 45.26500 30.21700
H  42.79900 47.21100 32.78700
H  41.49400 46.59900 33.74200
H  41.33000 48.23600 33.03900
Mg 16.09100 51.47300 25.38900
C  17.80600 50.64900 28.32700
C  13.61500 52.80100 27.34700
C  14.32300 52.06200 22.64900
C  18.64800 49.74700 23.55900
N  15.85100 51.78100 27.53500
C  16.60400 51.26500 28.56800
C  16.04500 51.61500 29.97600
C  14.64500 52.29800 29.68000
C  14.69700 52.35400 28.10200
C  13.40800 51.54300 30.22800
C  17.05600 52.53200 30.86600
C  17.02400 52.53500 32.37800
H  15.96200 51.70700 33.09400
N  14.28500 52.37300 24.98300
C  13.37900 52.78700 25.93500
C  12.26500 53.39300 25.30900
C  12.45600 53.26100 23.90100
C  13.70700 52.55300 23.78400
C  11.11800 54.13600 25.97400
C  11.63900 53.87700 22.77100
O  11.92700 53.61800 21.60200
C  10.32800 54.54900 22.97000
N  16.43000 50.93300 23.47700
C  15.51700 51.30300 22.45700
C  16.04000 51.02100 20.94500
C  17.38500 50.20700 21.32600
C  17.54400 50.36200 22.89400
C  14.98600 50.34500 20.03200
C  18.67600 50.68300 20.65400
C  19.31700 51.93000 21.14200
N  17.87200 50.39000 25.80700
C  18.79800 49.79300 24.97800
C  19.95200 49.43200 25.73100
C  19.64100 49.61600 27.08000
C  18.34800 50.29800 27.06000
C  21.08700 48.71600 25.13800
C  20.06200 49.44100 28.46200
O  20.98200 48.89400 29.00600
C  18.87500 50.05600 29.30800
C  18.35000 49.03100 30.26700
O  17.27400 48.43600 30.25000
O  19.20300 48.84700 31.26300
C  18.85000 47.92700 32.39100
H  12.76200 53.09200 27.96400
H  13.87000 52.11900 21.65700
H  19.51600 49.24100 23.13200
H  15.92700 50.67300 30.51200
H  14.73300 53.31600 30.05900
H  12.69200 51.14100 29.51100
H  12.85900 52.27800 30.81600
H  13.87000 50.86400 30.94400
H  16.81000 53.56000 30.59900
H  18.07400 52.36400 30.51400
H  16.93700 53.59900 32.60100
H  18.01800 52.22500 32.70000
H  10.15600 53.73200 25.66100
H  11.31600 55.18000 25.73400
H  11.07200 53.98800 27.05300
H  9.90100 54.59600 21.96800
H  10.39000 55.58100 23.31500
H  9.66500 53.95300 23.59700
H  16.33600 52.01100 20.59800
H  17.26000 49.13900 21.14800
H  14.50800 51.03100 19.33300
H  14.27700 49.69400 20.54300
H  15.57200 49.67000 19.40900
H  18.20700 50.86400 19.68600
H  19.39800 49.92700 20.34300
H  20.30100 51.63900 21.50800
H  18.77400 52.49300 21.90200
H  19.38800 52.63500 20.31400
H  20.75000 48.01900 24.37000
H  21.48700 48.02900 25.88400
H  21.81200 49.42600 24.74000
H  19.53400 50.70400 29.88600
H  17.94300 48.21100 32.92600
H  19.70900 47.84800 33.05800
H  18.69300 46.97300 31.88800

