158

Mg 47.48800 14.94800 28.32400
C  45.16700 14.69500 30.92300
C  49.16000 17.48200 30.14000
C  49.82200 14.89000 25.90800
C  45.63500 12.54500 26.57900
N  47.06500 16.06900 30.30300
C  46.17600 15.64800 31.24000
C  46.44100 16.36100 32.60100
C  47.58300 17.38100 32.14700
C  47.97900 17.01100 30.74800
C  47.12000 18.89400 32.26200
C  46.83600 15.35400 33.76300
C  46.78700 15.98300 35.16900
H  47.71700 15.58100 36.30200
N  49.23500 16.10600 28.03800
C  49.80900 17.08000 28.89500
C  51.04900 17.41300 28.34400
C  51.26800 16.64100 27.13900
C  50.07800 15.79600 26.98000
C  51.90000 18.56400 28.96500
C  52.28800 16.82100 26.08300
O  52.39300 16.16200 25.06600
C  53.43800 17.80700 26.30600
N  47.61200 13.98800 26.41800
C  48.70100 14.12000 25.63200
C  48.75300 13.03200 24.58500
C  47.50700 12.10700 24.90000
C  46.86400 12.88400 26.01600
C  48.78900 13.67500 23.21700
C  47.75000 10.63500 25.37900
C  49.01900 9.99000 24.74900
N  45.70100 13.95900 28.51600
C  45.02300 13.02600 27.71500
C  43.84600 12.60200 28.35500
C  43.92100 13.17100 29.61800
C  45.03300 13.97600 29.65900
C  42.75500 11.75700 27.84900
C  43.22500 13.27900 30.88800
O  42.15400 12.77200 31.19900
C  44.07600 14.13700 31.82300
C  43.26500 15.14900 32.45100
O  42.56800 15.98400 31.88300
O  43.31600 14.96200 33.83800
C  42.68300 16.13100 34.53100
H  49.71000 18.19000 30.76300
H  50.61300 14.68200 25.18400
H  45.11100 11.77400 26.01000
H  45.55800 16.92500 32.90200
H  48.37900 17.14600 32.85400
H  46.99000 19.41300 31.31200
H  48.01300 19.40600 32.62200
H  46.35400 18.91800 33.03700
H  47.83400 14.97900 33.53700
H  46.16900 14.49800 33.86600
H  45.75300 15.82700 35.47400
H  46.68600 17.06500 35.08400
H  51.91800 19.25600 28.12300
H  52.89100 18.19800 29.23600
H  51.44700 19.01900 29.84700
H  54.02000 17.64400 27.21300
H  53.11800 18.83100 26.11400
H  54.12800 17.57000 25.49700
H  49.72100 12.53200 24.60800
H  46.80500 12.03400 24.06900
H  48.72800 14.76000 23.30300
H  47.89900 13.35000 22.67700
H  49.68700 13.42200 22.65400
H  46.87700 9.99400 25.25900
H  48.07900 10.75600 26.41100
H  48.76600 8.95700 24.51000
H  49.78400 9.83500 25.51000
H  49.51200 10.57900 23.97600
H  43.02400 10.86100 27.28900
H  42.13900 12.42500 27.24700
H  42.21800 11.47800 28.75600
H  44.41100 13.31500 32.45600
H  43.05700 16.24500 35.54800
H  41.63800 15.98900 34.80700
H  42.99300 17.07400 34.08100
Mg -2.01900 34.44800 27.13700
C  -3.39700 32.61600 29.87400
C  -0.48500 36.57400 29.30800
C  -1.05500 36.30800 24.34200
C  -3.88700 32.40800 25.05800
N  -2.06200 34.60800 29.34500
C  -2.63400 33.75300 30.29900
C  -2.20200 34.16600 31.71400
C  -1.34500 35.46900 31.47900
C  -1.24600 35.58300 29.92300
C  -1.87900 36.75700 32.22100
C  -1.56900 33.03300 32.49800
C  -2.33300 32.58000 33.77600
H  -1.64700 32.28900 35.05600
N  -0.70000 36.11100 26.84400
C  -0.22000 36.86400 27.89200
C  0.57500 37.92700 27.27900
C  0.32900 37.90500 25.88200
C  -0.49000 36.70600 25.62300
C  1.37000 38.92600 28.19400
C  0.82300 38.75700 24.77700
O  0.60400 38.66300 23.59600
C  1.70600 39.86400 25.15600
N  -2.42300 34.41500 25.01100
C  -1.85100 35.16200 24.06000
C  -2.46600 34.87900 22.69600
C  -2.99200 33.44800 22.94700
C  -3.07600 33.33800 24.42300
C  -3.60700 35.92400 22.29500
C  -2.02100 32.29300 22.44900
C  -0.62400 32.10900 23.01200
N  -3.27100 32.80300 27.33000
C  -4.00800 32.12600 26.37800
C  -4.69900 31.06800 26.96100
C  -4.52400 31.22400 28.33900
C  -3.65900 32.27100 28.51700
C  -5.70000 30.03200 26.37900
C  -4.85100 30.72900 29.57800
O  -5.58400 29.78600 29.84800
C  -4.12500 31.56100 30.69700
C  -5.22000 32.08000 31.61500
O  -6.06500 32.92200 31.25900
O  -5.21700 31.45900 32.84300
C  -6.07900 32.14000 33.82600
H  0.02600 37.23100 30.01400
H  -0.88800 36.87300 23.42300
H  -4.31300 31.74700 24.30100
H  -3.10200 34.50200 32.22800
H  -0.34800 35.30000 31.88500
H  -2.38200 36.40900 33.12300
H  -2.70100 37.18200 31.64400
H  -1.07000 37.42000 32.52800
H  -0.54000 33.27700 32.76500
H  -1.56500 32.12500 31.89500
H  -2.90000 31.69100 33.49800
H  -3.03200 33.37000 34.05200
H  0.87800 39.88900 28.06100
H  2.39600 38.87600 27.82700
H  1.35600 38.59400 29.23200
H  1.25000 40.36900 26.00800
H  1.71500 40.67700 24.43000
H  2.74900 39.62800 25.36600
H  -1.67000 34.91400 21.95200
H  -3.93900 33.33600 22.41900
H  -3.65000 36.64800 23.10800
H  -4.60000 35.48800 22.18700
H  -3.31400 36.44800 21.38500
H  -2.00200 32.47500 21.37500
H  -2.48200 31.31700 22.60400
H  -0.17000 33.01900 23.40400
H  -0.05300 31.71000 22.17400
H  -0.66700 31.46500 23.89000
H  -5.43400 28.97600 26.43800
H  -5.97800 30.24500 25.34700
H  -6.54900 30.23300 27.03300
H  -3.45700 30.93300 31.28700
H  -5.98300 31.60900 34.77300
H  -7.08100 32.09500 33.39900
H  -5.76100 33.17400 33.95900

