158

Mg 44.16200 4.18900 48.22300
C  41.68500 6.53400 47.04800
C  41.65300 1.78700 47.95300
C  46.50100 1.76600 48.43200
C  46.57900 6.53400 47.97200
N  41.91900 4.21400 47.65500
C  41.18300 5.28000 47.18000
C  39.81100 4.85000 46.66300
C  39.76700 3.39600 47.20400
C  41.20700 3.08500 47.63200
C  38.61600 3.06400 48.27300
C  39.61300 5.01700 45.12000
C  38.13600 5.26900 44.71200
H  37.72300 4.46200 43.42300
N  44.09000 1.99700 48.28300
C  42.90700 1.27900 48.07600
C  43.32600 -0.10600 48.14300
C  44.71000 -0.17700 48.41900
C  45.20900 1.22700 48.32600
C  42.42100 -1.26900 47.85600
C  45.45700 -1.46000 48.60300
O  44.88100 -2.54200 48.62500
C  46.92900 -1.46000 48.83600
N  46.22500 4.15100 47.98500
C  46.93800 3.00400 48.30100
C  48.45600 3.28700 48.33000
C  48.51400 4.83600 48.41700
C  47.09700 5.24900 48.04100
C  49.31300 2.54000 49.46100
C  49.58300 5.44700 47.57500
C  50.37300 6.55900 48.23000
N  44.19700 6.20900 47.73500
C  45.24900 7.03200 47.74200
C  44.79300 8.36600 47.49700
C  43.40000 8.28100 47.17300
C  43.09100 6.89900 47.28400
C  45.78600 9.55600 47.45200
C  42.23700 8.90600 46.69600
O  42.08600 10.07800 46.31200
C  41.01700 7.84900 46.75800
C  39.92500 8.19200 47.68600
O  39.66900 7.74900 48.81000
O  39.20900 9.21400 47.17500
C  37.89100 9.52700 47.78400
H  40.84900 1.05200 47.87400
H  47.26000 0.98800 48.53600
H  47.41000 7.24200 48.01300
H  39.10300 5.51500 47.15700
H  39.59300 2.74900 46.34400
H  39.09400 2.73900 49.19700
H  37.98300 2.27900 47.85800
H  38.12300 4.01100 48.48900
H  39.97100 4.10400 44.64300
H  40.24500 5.85400 44.82200
H  38.09100 6.35700 44.65800
H  37.56000 4.98000 45.59100
H  42.73400 -1.78500 46.94900
H  41.43600 -0.83400 47.68800
H  42.43800 -1.97100 48.69000
H  47.46000 -1.15000 47.93600
H  47.19900 -2.50200 49.00900
H  47.25800 -0.98100 49.75900
H  48.83500 2.87600 47.39500
H  48.63600 5.03300 49.48200
H  49.67800 1.67200 48.91300
H  48.70800 2.22400 50.31100
H  50.04300 3.17900 49.95800
H  49.10400 5.80800 46.66500
H  50.20500 4.63200 47.20500
H  51.41700 6.33100 48.44300
H  49.85800 6.87800 49.13700
H  50.38000 7.40800 47.54700
H  45.12100 10.41800 47.50000
H  46.37300 9.61500 46.53500
H  46.52900 9.51700 48.24800
H  40.57100 7.83300 45.76300
H  37.68100 10.59200 47.68500
H  37.74200 9.30000 48.83900
H  37.17400 9.09200 47.08700
Mg 47.32000 24.59100 28.78000
C  48.04700 26.89400 31.32800
C  46.43900 22.31600 31.13300
C  47.05800 22.39100 26.30300
C  48.55200 26.96600 26.44100
N  47.28800 24.69900 30.97300
C  47.47300 25.72000 31.82300
C  47.09200 25.33600 33.23000
C  46.95000 23.79700 33.18400
C  47.01700 23.54400 31.66100
C  48.12200 23.01800 33.95000
C  45.80800 26.10000 33.82500
C  45.98100 26.61400 35.33600
H  44.77100 26.51000 36.18200
N  46.71400 22.56800 28.72400
C  46.35600 21.88100 29.83900
C  45.89100 20.59400 29.30400
C  46.16400 20.56000 27.89700
C  46.63800 21.89200 27.58300
C  45.39000 19.53500 30.22700
C  45.93300 19.48400 26.81600
O  46.39600 19.47500 25.68200
C  45.45800 18.10400 27.28300
N  47.87500 24.67200 26.66800
C  47.54900 23.64600 25.86700
C  47.70800 24.05300 24.37900
C  47.84500 25.58500 24.41600
C  48.14300 25.75600 25.93100
C  48.94200 23.36100 23.73900
C  46.52900 26.34100 24.05100
C  45.24700 26.02200 24.83000
N  48.15600 26.46800 28.83000
C  48.49500 27.32900 27.81700
C  48.87900 28.60300 28.24300
C  48.70400 28.52400 29.66500
C  48.32000 27.14000 29.97500
C  49.32800 29.79200 27.46500
C  48.86700 29.21300 30.92200
O  49.16000 30.38300 31.22100
C  48.29400 28.20500 32.03300
C  49.40600 28.04400 33.05700
O  50.63300 27.90700 32.87100
O  48.97900 28.33600 34.30400
C  49.87400 28.39300 35.41200
H  46.21200 21.58000 31.90600
H  47.00000 21.73500 25.43200
H  48.81800 27.79700 25.78400
H  47.97100 25.49500 33.85500
H  45.96900 23.50700 33.56100
H  47.91500 22.89400 35.01300
H  48.92600 23.74500 33.83600
H  48.33000 22.12600 33.35900
H  45.02600 25.34600 33.92200
H  45.45000 26.94900 33.24200
H  46.30600 27.65300 35.28800
H  46.85100 26.05500 35.68100
H  44.68000 18.83100 29.79300
H  44.92600 20.06400 31.05900
H  46.21600 18.90500 30.55700
H  45.64300 17.30800 26.56200
H  44.38100 18.19900 27.42100
H  46.01300 17.92200 28.20400
H  46.78500 23.78800 23.86300
H  48.58000 25.94000 23.69400
H  48.75500 22.90800 22.76600
H  49.27600 22.50900 24.33200
H  49.72200 24.10500 23.58200
H  46.30600 26.12200 23.00700
H  46.78300 27.40100 24.06500
H  45.25600 25.16000 25.49700
H  44.39400 25.96800 24.15400
H  45.04500 26.86700 25.48900
H  49.67800 30.62900 28.06800
H  48.49100 30.16200 26.87300
H  50.15100 29.40300 26.86400
H  47.36500 28.62700 32.41400
H  50.75400 27.76000 35.29900
H  49.42900 28.10500 36.36500
H  50.12800 29.44800 35.51400

