158

Mg 44.06200 3.00600 47.46400
C  42.15900 5.79600 46.70500
C  41.29700 1.02800 47.36500
C  46.04800 0.31600 47.57200
C  46.95200 5.03900 47.17700
N  41.92300 3.39500 47.04300
C  41.40800 4.61600 46.72300
C  39.88700 4.42500 46.51200
C  39.61300 2.94400 46.91200
C  41.03600 2.40200 47.13300
C  38.68400 2.66100 48.11200
C  39.38700 4.63300 45.02200
C  37.98500 5.10700 44.63500
H  38.01400 5.99900 43.45500
N  43.73000 0.93600 47.39900
C  42.52200 0.31000 47.41700
C  42.72100 -1.03600 47.52900
C  44.11300 -1.34000 47.52400
C  44.73300 0.00100 47.52000
C  41.56400 -2.00000 47.72900
C  44.74100 -2.75700 47.61600
O  44.03700 -3.80300 47.65900
C  46.24100 -2.90200 47.73700
N  46.18800 2.71200 47.41300
C  46.74700 1.47400 47.54100
C  48.27500 1.56900 47.64100
C  48.57700 3.15500 47.74500
C  47.20100 3.64700 47.41300
C  48.97700 0.65100 48.69500
C  49.67100 3.55500 46.73000
C  49.09600 3.62600 45.25800
N  44.49800 5.00400 47.02300
C  45.71200 5.71200 47.04800
C  45.52600 7.11000 46.86500
C  44.14700 7.18400 46.74500
C  43.59300 5.89200 46.83000
C  46.62800 8.13300 46.76400
C  43.00500 8.03500 46.50900
O  42.93900 9.23900 46.25400
C  41.68600 7.23900 46.48700
C  40.78000 7.82000 47.62000
O  40.91000 7.39200 48.77700
O  39.87300 8.74400 47.21000
C  38.77500 8.97800 48.14600
H  40.40600 0.40200 47.45300
H  46.69800 -0.56200 47.56500
H  47.84000 5.67400 47.14700
H  39.35200 5.10000 47.18000
H  39.14900 2.41400 46.08100
H  38.09500 3.53000 48.40500
H  39.23800 2.17400 48.91500
H  38.01900 1.83700 47.85700
H  39.47400 3.67300 44.51300
H  40.13400 5.32000 44.62600
H  37.46100 5.49900 45.50600
H  37.55300 4.16000 44.31300
H  41.77700 -3.03700 47.47100
H  40.66800 -1.69300 47.19000
H  41.35200 -1.99100 48.79900
H  46.77600 -2.59300 46.83900
H  46.56400 -3.90900 48.00200
H  46.63000 -2.26800 48.53400
H  48.62800 1.20700 46.67500
H  48.70500 3.51400 48.76600
H  48.14200 0.12100 49.15400
H  49.40100 1.24800 49.50200
H  49.73400 0.02500 48.22300
H  50.54500 2.90400 46.72800
H  49.90100 4.57000 47.05500
H  48.67000 4.61000 45.06200
H  48.24300 2.95600 45.16100
H  49.87400 3.30300 44.56600
H  46.29400 9.08600 46.35400
H  47.44300 7.95200 46.06300
H  47.03700 8.38800 47.74100
H  41.31700 7.35300 45.46700
H  38.79700 9.93300 48.67100
H  38.67400 8.17200 48.87300
H  37.80500 8.86100 47.66400
Mg 26.33400 50.91400 26.05900
C  24.10400 51.97900 28.63800
C  28.39100 49.89600 28.54600
C  28.39400 50.21200 23.65300
C  24.14800 52.28200 23.79200
N  26.24300 50.90800 28.38200
C  25.20500 51.39700 29.13900
C  25.45600 51.09300 30.65000
C  26.91000 50.39100 30.59000
C  27.22500 50.44800 29.10800
C  28.00100 51.06500 31.48500
C  24.39900 50.16100 31.30900
C  24.82100 49.36600 32.62200
H  23.68800 49.32000 33.70400
N  28.16900 50.21100 26.12300
C  28.90200 49.77600 27.22200
C  30.21000 49.31700 26.77900
C  30.22700 49.48500 25.38800
C  28.93800 50.00000 25.05000
C  31.14700 48.64700 27.73400
C  31.35700 49.14500 24.45100
O  31.27700 49.39300 23.27200
C  32.66100 48.56700 25.01400
N  26.26200 51.11200 24.05600
C  27.19200 50.67200 23.25700
C  26.84500 50.85200 21.81000
C  25.32300 51.36800 21.87100
C  25.19900 51.57800 23.34400
C  27.77900 51.79200 21.10200
C  24.35800 50.38300 21.18000
C  24.02800 50.76800 19.75900
N  24.58100 52.02100 26.14300
C  23.83900 52.55500 25.11100
C  22.61700 53.17500 25.63000
C  22.71800 53.05700 27.03900
C  23.90200 52.30500 27.27900
C  21.50600 53.70200 24.76200
C  22.01500 53.21500 28.31800
O  20.91100 53.67600 28.64200
C  22.96900 52.50000 29.37400
C  23.31700 53.58500 30.39400
O  24.19300 54.44800 30.29300
O  22.61700 53.38200 31.54200
C  23.01300 54.10000 32.76800
H  29.09300 49.63900 29.34200
H  29.09100 50.02700 22.83300
H  23.42700 52.62500 23.04800
H  25.51100 52.00100 31.25100
H  26.75000 49.35600 30.89300
H  28.86200 51.31300 30.86500
H  28.26800 50.38700 32.29600
H  27.63200 51.97500 31.95900
H  24.13500 49.51600 30.47100
H  23.57500 50.81400 31.59800
H  25.68100 49.82500 33.10900
H  24.98800 48.36400 32.22700
H  31.06600 47.57500 27.55500
H  30.80800 48.78300 28.76100
H  32.17300 49.01200 27.69100
H  33.23900 48.26300 24.14100
H  32.50700 47.73200 25.69900
H  33.10300 49.42100 25.52800
H  26.88400 49.86400 21.34900
H  25.22500 52.38600 21.49200
H  28.47600 52.27000 21.79000
H  27.25900 52.60600 20.59700
H  28.39800 51.24800 20.38900
H  23.39800 50.26800 21.68400
H  24.85400 49.41300 21.14800
H  24.56400 50.09000 19.09600
H  24.35600 51.75700 19.43700
H  22.94600 50.71200 19.64000
H  21.96700 54.49400 24.17100
H  20.69700 54.02300 25.41800
H  21.07000 52.94900 24.10500
H  22.52700 51.62400 29.84700
H  23.37700 55.09200 32.50300
H  23.70000 53.52400 33.38800
H  22.11800 54.19500 33.38300

