158

Mg 23.95700 -4.27700 45.15300
C  26.22300 -1.87500 44.03600
C  21.52900 -2.97800 43.18200
C  22.12600 -7.17100 45.70400
C  26.69000 -5.76200 46.85600
N  24.01600 -2.71400 43.67000
C  24.90900 -1.79200 43.40200
C  24.43000 -0.83200 42.30400
C  22.90000 -1.06700 42.23000
C  22.74700 -2.31800 43.16600
C  21.95200 0.13800 42.60300
C  25.22200 -1.09800 40.95800
C  25.52300 0.16700 40.13200
H  25.08200 0.14500 38.62900
N  22.12200 -4.96400 44.55900
C  21.18100 -4.24800 43.75000
C  19.95200 -4.94000 43.61000
C  20.13700 -6.23000 44.23800
C  21.50600 -6.15600 44.90200
C  18.80700 -4.30300 42.84400
C  19.08200 -7.30400 44.09200
O  18.01600 -7.03700 43.54000
C  19.34100 -8.54400 44.78300
N  24.28400 -6.07500 46.19300
C  23.32600 -7.04500 46.33200
C  23.87600 -8.21800 47.14900
C  25.32900 -7.75600 47.63800
C  25.44100 -6.41800 46.90200
C  22.97400 -8.79400 48.30500
C  26.50700 -8.70200 47.22700
C  27.70500 -8.71100 48.19100
N  25.97900 -3.80500 45.56100
C  26.91500 -4.49400 46.25900
C  28.16000 -3.77500 46.15700
C  27.92100 -2.70800 45.35800
C  26.62000 -2.77500 44.94600
C  29.45500 -4.14500 46.87200
C  28.47300 -1.48400 44.73000
O  29.58500 -1.07200 44.75600
C  27.34200 -0.90600 43.79300
C  27.03100 0.38800 44.27300
O  26.16400 0.75600 45.03400
O  27.92600 1.31800 43.82300
C  27.96700 2.64800 44.35500
H  20.72500 -2.43400 42.68200
H  21.64500 -8.13900 45.85600
H  27.59500 -6.26700 47.19900
H  24.69500 0.20000 42.53100
H  22.67300 -1.40000 41.21800
H  21.68000 0.59000 41.64900
H  22.55500 0.88800 43.11300
H  21.15200 -0.34500 43.16400
H  24.56600 -1.68400 40.31500
H  26.16000 -1.63300 41.10300
H  26.59000 0.32600 40.29100
H  24.82900 0.92000 40.50500
H  19.09400 -3.45100 42.22700
H  18.19200 -4.06500 43.71100
H  18.13800 -4.91100 42.23700
H  18.55500 -9.27100 44.57800
H  19.51600 -8.30700 45.83200
H  20.32400 -8.85900 44.43200
H  23.94800 -9.01700 46.41100
H  25.46400 -7.56700 48.70300
H  23.42300 -8.81500 49.29800
H  22.79100 -9.84500 48.08200
H  21.98600 -8.33400 48.31500
H  26.88100 -8.40200 46.24800
H  26.14700 -9.72900 47.17300
H  27.75200 -7.84600 48.85300
H  28.59700 -8.74200 47.56600
H  27.61700 -9.57300 48.85200
H  30.15700 -4.45300 46.09700
H  29.35300 -4.92000 47.63200
H  29.88000 -3.30700 47.42500
H  27.73200 -0.76500 42.78400
H  28.55500 3.20500 43.62600
H  28.32500 2.61800 45.38500
H  26.99100 3.13000 44.29800
Mg 25.21200 2.00400 29.65200
C  27.18600 1.35600 32.35100
C  22.42000 2.45600 31.68000
C  23.15100 2.20000 26.83000
C  27.86500 1.37400 27.52200
N  24.86400 1.89500 31.76500
C  25.85100 1.75600 32.66600
C  25.37800 2.04300 34.08900
C  23.84400 2.32600 33.91600
C  23.67400 2.25200 32.35400
C  22.93500 1.27700 34.68100
C  26.13200 3.31300 34.71600
C  26.90000 3.19400 36.08400
H  26.40900 4.08400 37.22700
N  23.11200 2.29500 29.34600
C  22.17200 2.40100 30.33000
C  20.87800 2.42000 29.69700
C  21.08100 2.36600 28.27800
C  22.51900 2.25600 28.11500
C  19.54000 2.32100 30.48300
C  20.00200 2.20600 27.20900
O  20.17500 2.14100 25.98600
C  18.50300 2.16100 27.57700
N  25.43800 1.84400 27.54800
C  24.53100 2.11600 26.62000
C  25.16600 2.40100 25.20200
C  26.65500 2.24900 25.46500
C  26.66400 1.73400 26.89800
C  24.60000 1.55100 24.01900
C  27.48500 3.57600 25.38500
C  27.04700 4.72900 26.31400
N  27.13400 1.36000 29.83100
C  28.13500 1.16200 28.90600
C  29.41800 0.86400 29.55100
C  29.13600 0.92900 30.96600
C  27.72700 1.20900 31.04300
C  30.75900 0.62000 28.82500
C  29.68000 0.91700 32.34100
O  30.82400 0.85500 32.82500
C  28.41000 1.19000 33.21300
C  28.32200 0.10000 34.24500
O  27.80800 -1.00400 34.01400
O  28.82100 0.58000 35.37300
C  28.65700 -0.27000 36.54200
H  21.59200 2.80000 32.30200
H  22.53600 2.41000 25.95200
H  28.65300 1.35800 26.76600
H  25.64500 1.19800 34.72300
H  23.58500 3.33000 34.25300
H  23.56000 0.88700 35.48400
H  22.66700 0.58500 33.88200
H  22.03900 1.74100 35.09300
H  25.44200 4.15500 34.67600
H  26.87400 3.65500 33.99400
H  27.93800 3.51700 36.00000
H  26.75800 2.17300 36.43700
H  19.05500 1.34700 30.41400
H  18.85300 3.15700 30.35300
H  19.54000 2.34100 31.57300
H  18.12800 1.21300 27.96200
H  17.99900 2.18700 26.61100
H  18.20900 2.97700 28.23700
H  25.10800 3.46600 24.97300
H  27.11000 1.54500 24.76800
H  25.39800 0.89600 23.66900
H  24.25900 2.17600 23.19400
H  23.72000 1.02200 24.38700
H  27.41200 3.98400 24.37700
H  28.54700 3.40800 25.56300
H  27.71500 4.96100 27.14400
H  26.08300 4.47700 26.75700
H  26.81900 5.66900 25.81100
H  31.25200 1.58500 28.70400
H  30.48400 0.10300 27.90600
H  31.31800 -0.06500 29.46200
H  28.50800 2.18800 33.64000
H  29.56700 -0.85700 36.66200
H  27.81800 -0.96600 36.55700
H  28.56000 0.41600 37.38300

