158

Mg 29.42300 58.88600 40.07800
C  26.88400 56.70200 38.78600
C  31.85200 56.40300 39.00200
C  31.83000 61.25800 40.34700
C  26.89100 61.29900 40.33900
N  29.42800 56.84200 38.88200
C  28.17300 56.14200 38.58200
C  28.56800 54.77700 37.96400
C  30.08200 54.66500 38.29700
C  30.50600 56.05200 38.76600
C  30.43700 53.61900 39.40100
C  28.30200 54.88000 36.38500
C  27.04000 54.08600 36.00500
H  26.22700 54.58800 34.80400
N  31.56100 58.80000 39.82300
C  32.33500 57.71000 39.37800
C  33.65900 58.18400 39.47500
C  33.79000 59.52200 39.99900
C  32.36300 59.94400 40.06600
C  34.74100 57.20800 38.98400
C  35.07900 60.30300 40.35900
O  36.23000 59.93800 40.11400
C  35.04800 61.63900 40.99400
N  29.33500 60.92200 40.19300
C  30.47800 61.68700 40.33000
C  30.08400 63.16700 40.57100
C  28.55700 63.24500 40.59500
C  28.22200 61.69500 40.39400
C  30.79700 63.75700 41.85500
C  27.88300 64.20200 39.59800
C  27.39900 65.61600 39.98400
N  27.34100 58.95400 39.84500
C  26.49700 59.99300 40.05400
C  25.08800 59.53300 40.00600
C  25.23600 58.27300 39.48300
C  26.55900 57.97700 39.39000
C  23.84100 60.31800 40.34200
C  24.47200 57.10400 39.02300
O  23.23300 56.96800 38.86300
C  25.51200 56.05800 38.58700
C  25.28900 54.85400 39.48600
O  25.57400 54.86900 40.67800
O  24.62600 53.85300 38.80100
C  24.31200 52.57900 39.40900
H  32.53300 55.58700 38.75000
H  32.52300 62.08600 40.51100
H  26.11500 62.04800 40.51100
H  28.04900 53.98400 38.50200
H  30.66900 54.37200 37.42700
H  31.04800 52.84900 38.93000
H  29.56600 53.04500 39.71500
H  30.95700 54.01800 40.27200
H  29.08900 54.56600 35.69800
H  28.05700 55.89500 36.07400
H  26.44600 53.86500 36.89200
H  27.33100 53.05300 35.82000
H  35.09000 56.46700 39.70300
H  35.64900 57.80100 38.87100
H  34.45700 56.63400 38.10200
H  34.61800 62.43200 40.38300
H  36.09500 61.82700 41.23600
H  34.45900 61.51000 41.90200
H  30.48500 63.75500 39.74600
H  28.25100 63.65800 41.55600
H  30.52400 63.37200 42.83800
H  30.58100 64.82400 41.80500
H  31.87300 63.64500 41.72300
H  27.09800 63.68300 39.04600
H  28.52200 64.36700 38.73100
H  27.82500 66.28400 39.23500
H  27.73900 65.79600 41.00400
H  26.31200 65.64200 39.90700
H  23.14600 59.63600 40.83200
H  23.29500 60.64600 39.45800
H  24.08900 61.13800 41.01600
H  25.34700 55.60900 37.60800
H  23.42100 52.24600 38.87600
H  24.09900 52.61500 40.47700
H  25.14800 51.91000 39.20300
Mg -11.92700 38.68500 42.72200
C  -10.06700 36.13000 41.52500
C  -9.89500 40.94700 41.12900
C  -14.21900 41.23100 43.12500
C  -14.34000 36.34000 43.76400
N  -10.28600 38.47500 41.45900
C  -9.55900 37.37800 41.17400
C  -8.30200 37.66400 40.33500
C  -8.21800 39.25000 40.37800
C  -9.57000 39.60400 41.09900
C  -7.13100 39.73900 41.35500
C  -8.14700 37.00600 38.98800
C  -6.83200 36.22200 38.64100
H  -6.01200 36.94900 37.44500
N  -12.01600 40.86400 42.30900
C  -11.02600 41.56300 41.63200
C  -11.35000 42.99300 41.69900
C  -12.58800 43.11000 42.25900
C  -12.99500 41.70200 42.58900
C  -10.45100 44.13500 41.22200
C  -13.40000 44.42400 42.57500
O  -12.76500 45.46500 42.34100
C  -14.80200 44.59800 43.09600
N  -13.95300 38.72700 43.41000
C  -14.65800 39.88400 43.50300
C  -16.05900 39.59100 44.03200
C  -16.10200 38.09000 44.30500
C  -14.67200 37.69100 43.78200
C  -16.44000 40.53300 45.27500
C  -17.17600 37.42700 43.36700
C  -17.70300 36.12500 43.85600
N  -12.11200 36.57500 42.85300
C  -13.14300 35.76600 43.19300
C  -12.69700 34.41900 43.12600
C  -11.51300 34.50600 42.43700
C  -11.23100 35.83100 42.24200
C  -13.45900 33.10600 43.46000
C  -10.52700 33.75100 41.73300
O  -10.36900 32.53900 41.46900
C  -9.45800 34.74700 41.25200
C  -8.23800 34.42900 41.98000
O  -8.09600 34.53400 43.19100
O  -7.31200 33.79400 41.15000
C  -6.15500 33.37600 41.90900
H  -9.19800 41.53900 40.53300
H  -14.99600 41.99600 43.19000
H  -15.03000 35.64700 44.25100
H  -7.56300 37.22800 41.00700
H  -8.13900 39.79400 39.43700
H  -6.41200 38.95200 41.58100
H  -7.51900 39.98600 42.34300
H  -6.63000 40.57100 40.85900
H  -8.29600 37.85600 38.32200
H  -8.96900 36.32300 38.77700
H  -6.97400 35.18200 38.34400
H  -6.20700 36.20200 39.53400
H  -11.08900 44.77100 40.60900
H  -9.69900 43.67600 40.58000
H  -9.98500 44.63600 42.07100
H  -15.48700 44.08800 42.41800
H  -15.03700 45.66100 43.15200
H  -14.73600 44.19600 44.10700
H  -16.66700 40.03600 43.24400
H  -16.22800 37.80300 45.34900
H  -17.05900 40.06400 46.03900
H  -17.00600 41.35700 44.84100
H  -15.59500 41.07200 45.70500
H  -16.72600 37.31500 42.38000
H  -18.03100 38.08800 43.22400
H  -17.35500 35.95300 44.87500
H  -17.42500 35.39100 43.09900
H  -18.77300 36.11300 43.64600
H  -13.70200 32.86800 44.49600
H  -12.81000 32.31400 43.08600
H  -14.31100 33.18000 42.78400
H  -9.31000 34.62500 40.17900
H  -5.63600 34.27500 42.24100
H  -5.47200 32.94400 41.17800
H  -6.49100 32.70600 42.70100

