158

Mg -11.32800 39.09200 41.86200
C  -9.80300 36.02900 40.83000
C  -8.71000 40.82000 40.36200
C  -12.91500 41.87300 42.53200
C  -14.14200 37.16800 42.78000
N  -9.55500 38.48300 40.72500
C  -9.12200 37.20600 40.50700
C  -7.75500 37.26900 39.83100
C  -7.33000 38.75800 39.88700
C  -8.60500 39.42500 40.40500
C  -6.14500 38.99400 40.91200
C  -7.83400 36.78400 38.37000
C  -6.73900 35.70000 37.91400
H  -5.83100 36.17600 36.81000
N  -10.91100 41.11000 41.55800
C  -9.76900 41.57600 40.95400
C  -9.79300 43.02800 41.09800
C  -11.00000 43.46500 41.74400
C  -11.63800 42.13600 42.04900
C  -8.73200 43.85200 40.47100
C  -11.46100 44.87800 42.11500
O  -10.70300 45.77100 41.87000
C  -12.75700 45.19700 42.77100
N  -13.34200 39.46100 42.28500
C  -13.72700 40.71200 42.64600
C  -15.13100 40.77700 43.02300
C  -15.61500 39.28200 42.96300
C  -14.29000 38.53600 42.58400
C  -15.33500 41.36000 44.46800
C  -16.84900 39.02800 41.93600
C  -18.18800 38.63600 42.44000
N  -11.78700 36.95700 42.03300
C  -13.01800 36.42600 42.40000
C  -12.87000 34.93000 42.20500
C  -11.57700 34.70500 41.65600
C  -11.03700 35.95300 41.52000
C  -13.84200 33.89500 42.48300
C  -10.56400 33.79300 41.13800
O  -10.60700 32.59200 41.12200
C  -9.29500 34.61600 40.64600
C  -8.21900 34.33300 41.63600
O  -8.01500 34.74300 42.77200
O  -7.43700 33.48300 40.93600
C  -6.33900 32.80700 41.59900
H  -7.80400 41.40600 40.19500
H  -13.50400 42.76600 42.75300
H  -15.04100 36.62400 43.07800
H  -7.06500 36.67100 40.42600
H  -6.94600 39.01000 38.89800
H  -5.53300 39.82800 40.56900
H  -5.52800 38.10400 41.03300
H  -6.43300 39.17300 41.94800
H  -7.66200 37.57700 37.64300
H  -8.78400 36.27300 38.21100
H  -7.29500 34.81800 37.59500
H  -6.22000 35.29900 38.78500
H  -7.78400 43.44600 40.82300
H  -8.69000 44.89700 40.77800
H  -8.85600 43.70900 39.39800
H  -13.56800 45.03800 42.06100
H  -12.65200 46.26400 42.97100
H  -12.90700 44.62900 43.68900
H  -15.54300 41.41500 42.24100
H  -15.75400 38.87500 43.96400
H  -16.03800 40.78700 45.07200
H  -15.74200 42.35100 44.26700
H  -14.49100 41.72400 45.05300
H  -16.45000 38.29900 41.23100
H  -16.99300 39.91200 41.31400
H  -18.55200 37.68600 42.04900
H  -18.99300 39.23600 42.01500
H  -18.29500 38.57000 43.52300
H  -13.58900 32.96200 41.98100
H  -14.79800 34.22400 42.07400
H  -14.02400 33.66900 43.53400
H  -8.98300 34.48900 39.60900
H  -6.37600 32.86000 42.68700
H  -5.39600 33.27500 41.31600
H  -6.38400 31.75300 41.32500
Mg -2.70300 34.71000 26.59100
C  -3.97900 32.85200 29.42200
C  -1.13000 36.70500 29.03300
C  -2.08500 36.80800 24.23300
C  -4.59900 32.69900 24.50700
N  -2.58400 34.77900 29.02400
C  -3.11800 33.85100 29.90900
C  -2.61900 34.06300 31.32000
C  -1.84600 35.37200 31.16600
C  -1.82900 35.67000 29.67900
C  -2.36600 36.52000 32.02200
C  -1.66100 32.89600 32.00500
C  -2.10400 32.33100 33.37200
H  -1.25400 32.24000 34.62700
N  -1.67200 36.50000 26.57700
C  -1.16200 37.17700 27.64900
C  -0.37200 38.28900 27.17700
C  -0.61300 38.29900 25.75000
C  -1.50700 37.18200 25.43300
C  0.62600 39.03000 28.06600
C  -0.26900 39.32600 24.69500
O  -0.59100 39.21900 23.52900
C  0.53200 40.48900 25.17100
N  -3.35700 34.80400 24.73700
C  -2.85000 35.74700 23.82500
C  -3.28000 35.51700 22.37000
C  -3.86200 34.08600 22.53100
C  -4.03000 33.87700 24.02200
C  -4.25600 36.65000 21.89200
C  -2.87600 33.00900 21.93600
C  -3.38500 32.08800 20.84100
N  -4.01900 33.11500 26.87000
C  -4.68000 32.33900 25.93200
C  -5.38800 31.28300 26.52500
C  -5.16400 31.46700 27.87500
C  -4.39400 32.63500 28.09800
C  -6.18900 30.22800 25.82300
C  -5.54400 30.93600 29.12300
O  -6.13900 29.96900 29.42600
C  -4.76500 31.75500 30.23700
C  -5.78700 32.43200 31.06200
O  -6.71600 33.02500 30.55400
O  -5.57700 32.25800 32.43900
C  -6.58400 32.87900 33.30900
H  -0.61800 37.36100 29.74000
H  -1.94900 37.47100 23.37600
H  -5.22300 32.01500 23.93000
H  -3.44200 34.21800 32.01700
H  -0.82200 35.21800 31.50600
H  -2.87400 36.23800 32.94400
H  -3.06000 37.13100 31.44400
H  -1.47400 37.03800 32.37200
H  -0.65700 33.30400 32.12300
H  -1.67800 32.05400 31.31200
H  -2.33500 31.29400 33.12800
H  -3.06000 32.76100 33.66800
H  0.23200 39.97100 28.45000
H  1.63500 39.17200 27.67700
H  0.86700 38.39300 28.91700
H  0.71000 41.04400 24.25000
H  1.41800 40.02200 25.59900
H  -0.13000 40.98200 25.88400
H  -2.44100 35.56000 21.67600
H  -4.88900 33.94200 22.19700
H  -4.56800 37.38600 22.63300
H  -5.23000 36.28500 21.56300
H  -3.85100 37.23200 21.06400
H  -2.55500 32.44800 22.81300
H  -1.91800 33.40700 21.60200
H  -3.76000 31.17200 21.29700
H  -2.56200 31.83300 20.17400
H  -4.24600 32.43700 20.27000
H  -5.75700 29.24300 26.00200
H  -6.26400 30.31300 24.73900
H  -7.18700 30.31100 26.25400
H  -4.14200 31.11100 30.85700
H  -7.41200 33.37900 32.80700
H  -6.08000 33.55800 33.99600
H  -7.04800 32.03200 33.81400

