158

Mg 35.14200 2.93800 28.41800
C  33.16200 4.08800 31.12800
C  37.66500 2.40200 30.66400
C  37.28100 2.67500 25.75400
C  32.59900 3.95900 26.19800
N  35.43900 3.35700 30.60400
C  34.44400 3.63900 31.52300
C  34.97600 3.38900 32.93000
C  36.47000 3.25400 32.76500
C  36.54100 2.90600 31.26100
C  37.36400 4.41800 33.25700
C  34.19600 2.30300 33.79200
C  33.55500 2.79300 35.08100
H  34.33200 3.82400 35.88800
N  37.16300 2.37600 28.24300
C  38.01000 2.29400 29.29700
C  39.28100 1.73500 28.78200
C  39.21300 1.79400 27.34600
C  37.86900 2.39400 27.07900
C  40.48500 1.45200 29.58500
C  40.23100 1.37900 26.30800
O  40.08200 1.48700 25.06900
C  41.51000 0.79600 26.73600
N  34.96200 3.10400 26.37300
C  35.95500 2.90700 25.44900
C  35.39800 2.96600 23.97900
C  33.88700 3.18800 24.17200
C  33.74400 3.38800 25.70900
C  36.06700 4.06700 23.16100
C  33.01000 2.07600 23.54400
C  32.32600 1.07900 24.48400
N  33.20800 3.93800 28.54500
C  32.28100 4.21600 27.59300
C  31.02200 4.67100 28.27200
C  31.36000 4.65200 29.64100
C  32.68400 4.23300 29.76100
C  29.64500 4.83800 27.65300
C  30.84800 4.76900 30.96600
O  29.71500 4.92100 31.43600
C  32.03200 4.56700 31.95300
C  32.39200 5.68200 32.83000
O  33.34300 6.42500 32.64600
O  31.47600 5.88000 33.86700
C  31.74300 6.97500 34.83700
H  38.48100 2.17700 31.35400
H  37.97200 2.57700 24.91400
H  31.80000 4.07700 25.46300
H  34.88100 4.33400 33.46300
H  36.79300 2.36500 33.30800
H  38.33000 3.97700 33.50200
H  36.88900 4.95600 34.07700
H  37.41600 5.09300 32.40200
H  34.83000 1.47900 34.12000
H  33.46500 1.82800 33.13700
H  33.43600 1.94700 35.75700
H  32.50300 3.05200 34.95500
H  40.90900 0.50400 29.25600
H  40.30100 1.11200 30.60400
H  41.27400 2.19600 29.46900
H  42.00300 0.68700 25.77000
H  41.50500 -0.22400 27.11800
H  42.12200 1.49300 27.30800
H  35.69800 1.99500 23.58300
H  33.59900 4.10900 23.66500
H  36.86400 3.61500 22.57000
H  36.51700 4.82000 23.80700
H  35.40800 4.65700 22.52500
H  33.76500 1.49100 23.01800
H  32.24500 2.52800 22.91300
H  31.33900 1.39000 24.82800
H  33.03800 0.82900 25.27000
H  32.12000 0.18200 23.90000
H  29.65400 4.49600 26.61800
H  29.26900 5.85400 27.77900
H  29.02100 4.17000 28.24700
H  31.61500 3.79800 32.60300
H  32.21700 7.84900 34.39000
H  32.39800 6.72600 35.67200
H  30.78100 7.24900 35.27100
Mg 40.74100 9.81100 29.03600
C  42.41700 10.80900 31.91900
C  38.18800 8.60800 31.01100
C  39.56400 8.27900 26.38100
C  43.68100 10.74700 27.19600
N  40.34800 9.65700 31.24400
C  41.13200 10.20400 32.16400
C  40.31200 10.23600 33.49000
C  39.13200 9.23800 33.21900
C  39.15400 9.30100 31.74200
C  39.18200 7.82200 33.84300
C  39.95700 11.66300 34.01600
C  39.70400 11.85300 35.48300
H  40.76900 12.60000 36.27700
N  39.11800 8.69000 28.68400
C  38.11000 8.29900 29.63700
C  36.98900 7.65000 28.99100
C  37.33300 7.66900 27.60100
C  38.76600 8.21900 27.53700
C  35.83500 7.00500 29.78000
C  36.48300 7.23700 26.43700
O  36.87700 7.37100 25.30300
C  35.10500 6.66800 26.70300
N  41.53600 9.53600 27.09400
C  40.81500 8.87900 26.18400
C  41.43500 8.98100 24.78400
C  42.74600 9.75800 25.04200
C  42.66300 10.13900 26.50900
C  41.65400 7.57700 24.23000
C  43.01800 10.95900 24.04800
C  42.40700 12.31100 24.41300
N  42.64200 10.71900 29.39300
C  43.71700 11.02500 28.58200
C  44.74600 11.66900 29.34000
C  44.29700 11.54700 30.67200
C  43.01200 11.00300 30.61700
C  46.06500 12.03000 28.86300
C  44.61100 11.88100 32.02900
O  45.55900 12.49600 32.48700
C  43.47900 11.34600 32.91400
C  44.04500 10.41700 33.90700
O  44.61700 9.42400 33.65000
O  43.59000 10.77400 35.21100
C  43.77100 9.62300 36.11700
H  37.29900 8.26400 31.54400
H  39.06600 7.99800 25.45100
H  44.48000 11.18700 26.59400
H  40.86400 9.77100 34.30600
H  38.18700 9.71600 33.47700
H  39.68000 7.15600 33.13900
H  38.18200 7.56100 34.19000
H  39.92800 7.75000 34.63400
H  39.14700 12.03000 33.38500
H  40.73000 12.37100 33.71500
H  39.63000 10.92300 36.04800
H  38.78000 12.42800 35.54000
H  35.87000 6.74300 30.83800
H  35.54800 6.12500 29.20400
H  34.96700 7.66100 29.71700
H  34.63700 6.58100 25.72200
H  34.54900 7.40000 27.28800
H  35.08100 5.69300 27.18900
H  40.77900 9.42300 24.03400
H  43.61400 9.09800 25.04900
H  41.59700 6.87100 25.05900
H  42.59800 7.42600 23.70600
H  40.86600 7.30400 23.52800
H  42.63700 10.60600 23.08900
H  44.10400 10.95700 23.96400
H  41.90700 12.28400 25.38100
H  41.74900 12.51700 23.56900
H  43.23100 13.02400 24.44400
H  46.11600 12.18000 27.78500
H  46.68800 11.18800 29.16300
H  46.44100 12.92600 29.35700
H  42.99200 12.17800 33.42300
H  43.08700 8.77400 36.10500
H  43.67200 10.01100 37.13100
H  44.78400 9.24800 35.97100

