158

Mg 35.44800 2.29700 29.67700
C  33.79400 3.36400 32.54600
C  38.26200 2.10200 31.70400
C  37.41300 1.76900 26.94800
C  32.79900 3.37600 27.66400
N  35.99400 2.66600 31.94700
C  35.07900 3.04300 32.89900
C  35.72700 2.96300 34.36200
C  37.23100 2.78800 33.95600
C  37.21600 2.49800 32.47600
C  38.22500 3.96700 34.23500
C  35.15300 1.81300 35.17900
C  34.66900 2.18600 36.53500
H  35.35900 3.28700 37.31700
N  37.52800 1.91500 29.33300
C  38.47300 1.79200 30.33500
C  39.71700 1.31600 29.73000
C  39.45900 1.17600 28.34500
C  38.10100 1.66000 28.14000
C  40.88600 0.94400 30.49700
C  40.31100 0.68400 27.17700
O  39.97300 0.61300 25.97200
C  41.71500 0.29600 27.49100
N  35.13000 2.52400 27.55100
C  36.10600 2.19400 26.60900
C  35.43200 2.17600 25.23600
C  33.94900 2.54400 25.44300
C  33.93800 2.84300 26.91200
C  36.17400 3.11600 24.33200
C  32.94800 1.48000 24.89300
C  32.43300 0.32400 25.81200
N  33.65000 3.09200 30.01700
C  32.70100 3.47200 29.10500
C  31.50600 3.95800 29.83100
C  31.88200 3.89400 31.14200
C  33.18600 3.40200 31.24700
C  30.17200 4.45000 29.31300
C  31.47900 4.16200 32.46600
O  30.40700 4.60300 32.85300
C  32.62100 3.78500 33.41800
C  32.88800 5.04700 34.38000
O  33.58200 6.01700 34.12300
O  32.02900 4.92800 35.43700
C  31.92200 6.00800 36.38400
H  39.19300 1.95300 32.25500
H  37.95900 1.75400 26.00300
H  31.87500 3.63200 27.14100
H  35.53800 3.96800 34.73900
H  37.59600 1.89700 34.46700
H  38.72000 3.87900 35.20200
H  37.58700 4.85100 34.20700
H  38.95500 4.11100 33.43800
H  35.92100 1.06700 35.38200
H  34.32600 1.33200 34.65500
H  34.46200 1.32800 37.17400
H  33.66600 2.56300 36.33800
H  40.89100 -0.11400 30.76200
H  40.87000 1.40400 31.48600
H  41.82200 1.23400 30.01900
H  42.05700 1.26100 27.86700
H  42.29700 0.02600 26.60900
H  41.87700 -0.47500 28.24400
H  35.49100 1.12100 24.96800
H  33.75900 3.52500 25.00800
H  35.45700 3.78300 23.85500
H  36.59200 2.42800 23.59700
H  36.97400 3.68700 24.80400
H  33.37900 1.06400 23.98200
H  32.14500 2.09700 24.48800
H  33.10300 0.15200 26.65400
H  32.30000 -0.61700 25.27800
H  31.42100 0.58500 26.12200
H  29.72200 3.71600 28.64500
H  30.16900 5.38600 28.75500
H  29.56400 4.50300 30.21600
H  32.21900 2.94700 33.98800
H  30.87300 6.29700 36.45800
H  32.60400 6.83600 36.19500
H  32.15200 5.54200 37.34200
Mg 47.89200 25.88300 28.93900
C  48.71900 27.99100 31.69800
C  46.81600 23.42600 31.21800
C  47.49200 23.63200 26.40500
C  49.43300 28.19900 26.75100
N  47.69900 25.83500 31.13600
C  48.10800 26.81300 32.13500
C  47.71900 26.35200 33.55900
C  47.37500 24.86400 33.33500
C  47.27100 24.66800 31.81500
C  48.41400 23.87700 33.93600
C  46.55900 27.25600 34.15800
C  46.75900 27.84000 35.57900
H  47.30500 27.03200 36.81500
N  47.06700 23.86100 28.81300
C  46.74100 23.10300 29.86600
C  46.13500 21.85300 29.33900
C  46.27000 21.91300 27.86800
C  46.95300 23.15000 27.64600
C  45.54800 20.77800 30.26900
C  45.79600 20.96800 26.80600
O  45.91800 21.14900 25.62200
C  45.23100 19.69000 27.30700
N  48.56100 25.81200 26.85000
C  48.15800 24.82400 25.99500
C  48.46200 25.18000 24.50900
C  49.00200 26.67000 24.62700
C  49.01900 26.93600 26.17300
C  49.48700 24.20100 23.83900
C  48.04800 27.75000 24.01700
C  48.60300 28.86200 23.07800
N  48.82000 27.71000 29.07400
C  49.38900 28.56100 28.14200
C  49.84200 29.71500 28.73100
C  49.61500 29.53700 30.14100
C  48.96100 28.31400 30.29600
C  50.47800 30.91900 28.11800
C  49.76300 30.13700 31.46000
O  50.30200 31.20500 31.83800
C  49.25300 29.13000 32.50000
C  50.42300 28.73700 33.26500
O  51.31500 28.04500 32.87700
O  50.47200 29.43100 34.46600
C  51.74000 29.33500 35.24600
H  46.39400 22.81900 32.02100
H  47.27900 23.11000 25.47000
H  50.03600 28.82300 26.08800
H  48.55000 26.52900 34.24100
H  46.39000 24.77100 33.79300
H  48.14400 22.96200 34.46200
H  48.98800 24.49600 34.62600
H  49.03900 23.61200 33.08300
H  45.63000 26.71700 34.34100
H  46.34000 28.13900 33.55700
H  45.78800 28.18700 35.93500
H  47.27200 28.79400 35.46300
H  44.58400 20.40700 29.92100
H  45.35700 21.15200 31.27400
H  46.30800 20.00600 30.39200
H  45.91000 19.15600 27.97200
H  44.93300 19.01900 26.50200
H  44.25800 19.86200 27.76700
H  47.53500 25.18300 23.93700
H  49.94100 26.85400 24.10500
H  49.10600 23.74200 22.92700
H  49.67400 23.34700 24.49000
H  50.46000 24.68200 23.73500
H  47.61200 28.27900 24.86400
H  47.25300 27.21600 23.49700
H  48.90500 29.71300 23.68800
H  47.86200 29.07400 22.30600
H  49.45300 28.62600 22.43800
H  50.01400 31.74400 28.65700
H  50.38600 31.05700 27.04000
H  51.52200 30.80300 28.41000
H  48.44500 29.60800 33.05400
H  52.65000 29.31500 34.64700
H  51.60900 28.46400 35.88800
H  51.79300 30.23100 35.86500

