158

Mg 48.37700 14.31600 27.88800
C  46.47400 14.84400 30.96000
C  50.77100 16.39200 29.38800
C  49.91100 14.14800 24.94400
C  45.67300 12.53400 26.59000
N  48.53100 15.63200 29.94600
C  47.67000 15.61300 30.99400
C  48.32100 16.29700 32.18300
C  49.52800 16.99900 31.60800
C  49.67700 16.24300 30.29500
C  49.50200 18.59900 31.37800
C  48.51700 15.32600 33.33700
C  47.89700 15.68000 34.69600
H  48.79700 15.49300 35.91900
N  50.08000 15.15200 27.21100
C  50.99800 15.91800 28.04900
C  52.16700 16.03800 27.19000
C  51.91300 15.45100 25.89700
C  50.58800 14.89300 25.96800
C  53.38500 16.88600 27.70900
C  52.86300 15.46000 24.61500
O  52.48800 15.00500 23.52500
C  54.20900 16.09000 24.60600
N  47.78900 13.62600 25.94900
C  48.65500 13.59700 24.91500
C  48.23900 12.58500 23.79400
C  46.81800 12.20800 24.24000
C  46.72200 12.80300 25.71200
C  48.26500 13.33000 22.37400
C  46.42300 10.70900 24.22400
C  47.44400 9.77600 24.94500
N  46.44400 13.76000 28.59600
C  45.50400 12.94800 27.95700
C  44.37300 12.76000 28.91600
C  44.71100 13.42200 30.02900
C  45.96900 14.03300 29.84300
C  43.07100 12.07000 28.57600
C  44.16900 13.75700 31.37800
O  43.19200 13.44000 31.98300
C  45.38300 14.60800 32.02900
C  44.79500 15.83500 32.49900
O  44.66300 16.85500 31.85100
O  44.33700 15.53800 33.77600
C  43.61100 16.64700 34.36500
H  51.61300 16.89800 29.86600
H  50.32700 13.84000 23.98200
H  44.83800 12.04500 26.08400
H  47.67600 17.12900 32.46400
H  50.36300 16.73100 32.25500
H  48.51100 19.02400 31.53500
H  49.64100 18.83000 30.32200
H  50.28300 19.03700 31.99900
H  49.59000 15.15600 33.42400
H  47.98100 14.39800 33.13800
H  46.94400 15.16600 34.82100
H  47.58600 16.72500 34.69300
H  54.29900 16.36500 27.99700
H  53.15200 17.59400 28.50500
H  53.85300 17.53100 26.96600
H  54.79600 15.76100 25.46300
H  54.02300 17.15700 24.72800
H  54.71300 16.00000 23.64300
H  48.86100 11.69100 23.82100
H  46.04300 12.79000 23.74200
H  48.40700 14.38000 22.63100
H  47.36000 13.27400 21.76800
H  49.10600 12.91500 21.81800
H  46.51300 10.55700 23.14900
H  45.38500 10.49400 24.47800
H  46.84600 9.01800 25.45000
H  48.03000 10.45000 25.57000
H  48.14300 9.25900 24.28700
H  43.36500 11.02000 28.59000
H  42.83300 12.32300 27.54200
H  42.28800 12.33700 29.28600
H  45.77200 14.01300 32.85500
H  44.21500 17.31600 34.97900
H  42.87000 16.21900 35.04100
H  42.98900 17.31600 33.77100
Mg 48.01000 35.29600 28.13700
C  46.34700 33.80000 30.83900
C  48.31300 38.19400 30.06300
C  49.51300 36.87800 25.42800
C  47.35700 32.64300 26.08700
N  47.36600 35.92400 30.20200
C  46.92900 35.06600 31.16400
C  46.96200 35.81100 32.52400
C  47.16000 37.36300 32.14500
C  47.78700 37.11400 30.78300
C  45.94400 38.23700 32.01100
C  48.12200 35.30000 33.47300
C  47.82100 34.98900 34.96900
H  47.35700 36.20100 35.81500
N  48.90000 37.22900 27.80400
C  48.89600 38.28500 28.78200
C  49.70600 39.34900 28.26500
C  50.08600 38.92500 26.94000
C  49.47400 37.58800 26.65100
C  49.94000 40.65900 28.92600
C  50.94500 39.66200 25.93200
O  51.32200 39.07800 24.91900
C  51.34000 41.16600 26.12000
N  48.13000 34.95700 25.91800
C  48.91800 35.68800 25.05900
C  48.89000 35.08100 23.64600
C  48.43300 33.65800 23.97400
C  47.91200 33.69300 25.41500
C  47.99400 35.97000 22.77700
C  49.60100 32.53500 23.92300
C  49.08600 31.15100 23.45700
N  47.08100 33.56500 28.47000
C  46.83400 32.57200 27.49100
C  46.02300 31.49800 28.07700
C  45.81400 31.95300 29.44000
C  46.43700 33.22400 29.56600
C  45.63000 30.13100 27.49700
C  45.29600 31.51100 30.76300
O  44.83400 30.44800 31.15900
C  45.51700 32.80800 31.67500
C  46.04900 32.29300 32.93800
O  47.10400 31.75400 33.05200
O  44.99200 32.31600 33.93800
C  45.37800 31.86700 35.29900
H  48.31300 39.17700 30.53700
H  50.08300 37.35200 24.62500
H  47.27400 31.80900 25.38700
H  45.97900 35.62800 32.95900
H  47.88000 37.89800 32.76400
H  45.63100 38.62100 32.98200
H  45.13000 37.64600 31.59100
H  46.10200 39.08200 31.34100
H  48.98000 35.95900 33.33800
H  48.54800 34.40900 33.01100
H  48.79400 34.69000 35.35900
H  47.07600 34.19500 35.01300
H  49.17700 41.38800 28.65400
H  50.90500 41.08600 28.65100
H  49.91700 40.55000 30.01100
H  52.23100 41.35600 26.71800
H  50.44100 41.64000 26.51200
H  51.57200 41.58600 25.14100
H  49.84500 35.25700 23.15000
H  47.66800 33.35100 23.26100
H  48.67000 36.32300 21.99800
H  47.80900 36.93500 23.25100
H  47.16100 35.42200 22.33700
H  49.93500 32.38900 24.95000
H  50.44600 32.86000 23.31500
H  49.63000 30.80900 22.57700
H  48.07700 31.32900 23.08500
H  48.98900 30.35100 24.19100
H  46.08600 29.34100 28.09300
H  46.10100 30.05600 26.51700
H  44.54900 30.02900 27.39900
H  44.54200 33.21600 31.94300
H  45.07100 30.85300 35.55300
H  44.81100 32.54500 35.93600
H  46.41900 32.12400 35.49300

