158

Mg 7.23700 3.18800 27.27400
C  8.80200 2.04900 30.16200
C  5.19400 5.26200 29.10900
C  5.93400 4.31000 24.43000
C  8.77800 0.58800 25.59700
N  7.03100 3.56600 29.42200
C  7.81300 3.05500 30.45400
C  7.35100 3.59900 31.78900
C  6.03600 4.34200 31.50400
C  6.01400 4.37000 29.91000
C  4.77300 3.69000 32.00200
C  8.39000 4.37100 32.60600
C  8.28600 4.16800 34.14800
H  9.38700 4.66300 35.10700
N  5.83700 4.81100 26.80800
C  5.11000 5.53100 27.73100
C  4.23600 6.46400 27.00300
C  4.39100 6.10900 25.62700
C  5.39100 5.02400 25.54100
C  3.47100 7.56600 27.76900
C  3.75400 6.75800 24.45300
O  3.83900 6.36000 23.29600
C  2.69900 7.88600 24.59900
N  7.26200 2.47100 25.33600
C  6.80400 3.22400 24.29700
C  7.13700 2.62600 22.94400
C  8.07400 1.42700 23.36200
C  8.04200 1.46500 24.87400
C  5.87000 2.25200 22.13700
C  9.54700 1.46400 22.79400
C  10.08800 0.31700 21.97100
N  8.49300 1.65000 27.70600
C  9.02400 0.70900 26.93400
C  9.91100 -0.11800 27.61800
C  9.87900 0.39000 28.89500
C  9.02000 1.47100 28.91000
C  10.73400 -1.23300 27.18600
C  10.41600 0.19100 30.27100
O  11.23000 -0.60500 30.65100
C  9.59900 1.22900 31.14200
C  8.67900 0.60200 32.13100
O  7.49700 0.35200 32.02000
O  9.41300 0.30800 33.23700
C  8.71500 -0.47400 34.32400
H  4.63300 5.94200 29.75200
H  5.54300 4.63500 23.46400
H  9.38200 -0.20100 25.14500
H  7.16900 2.82200 32.53100
H  6.07100 5.40100 31.75900
H  4.89200 2.67600 32.38400
H  4.15200 3.59200 31.11200
H  4.19900 4.15200 32.80500
H  8.23200 5.44400 32.49700
H  9.38000 4.15300 32.20600
H  8.18600 3.15900 34.54800
H  7.45100 4.80600 34.43600
H  3.79800 8.53600 27.39600
H  3.68800 7.57300 28.83700
H  2.40300 7.50200 27.56100
H  2.38500 8.34500 23.66200
H  3.30600 8.58700 25.17300
H  1.95700 7.46200 25.27600
H  7.75700 3.34000 22.40100
H  7.50300 0.59100 22.95700
H  4.93400 2.37200 22.68200
H  5.84100 1.20300 21.84300
H  5.76200 2.98700 21.33900
H  10.33300 1.68600 23.51600
H  9.53300 2.29900 22.09400
H  10.11000 0.55000 20.90600
H  9.51100 -0.58900 22.15700
H  11.12500 0.12100 22.24400
H  11.53200 -1.34300 27.92100
H  11.27200 -0.94400 26.28300
H  10.27400 -2.21900 27.11300
H  10.34800 1.76900 31.72100
H  8.04200 0.23700 34.80300
H  9.40400 -0.73500 35.12700
H  8.10700 -1.32000 34.00300
Mg 9.91400 46.77800 25.39200
C  7.50300 47.09000 27.74300
C  12.32600 47.75600 27.51900
C  12.42100 46.40800 22.82300
C  7.54100 46.22200 22.89300
N  9.86300 47.31600 27.37000
C  8.78900 47.34100 28.20500
C  9.23300 47.50700 29.67600
C  10.56400 48.24000 29.38800
C  10.96200 47.86300 27.91400
C  10.66200 49.72600 29.67800
C  9.43200 46.22800 30.57300
C  10.11800 46.51700 31.94600
H  9.44100 45.93300 33.15700
N  12.12700 46.91500 25.25700
C  12.87900 47.33000 26.30800
C  14.27500 47.33200 25.93800
C  14.38100 46.82600 24.59200
C  12.95700 46.66800 24.14700
C  15.39100 47.96600 26.77200
C  15.60800 46.58300 23.74100
O  15.47900 46.22500 22.58500
C  17.02600 46.72400 24.25600
N  10.05500 46.46600 23.20400
C  11.09600 46.45500 22.36800
C  10.73000 46.26500 20.87600
C  9.23000 46.15600 20.94200
C  8.87200 46.27700 22.42900
C  11.37100 47.42400 19.98600
C  8.71800 44.79700 20.41400
C  8.10200 44.79600 19.05000
N  7.88100 46.62500 25.24700
C  7.01600 46.39600 24.21700
C  5.60500 46.35000 24.79500
C  5.78200 46.47000 26.18500
C  7.16700 46.78900 26.37600
C  4.32700 46.17100 24.00500
C  5.07500 46.47600 27.43800
O  3.86000 46.31400 27.73100
C  6.21400 46.87100 28.48200
C  6.35500 45.71600 29.51200
O  6.86100 44.61000 29.34100
O  5.78900 46.13400 30.66300
C  5.54400 45.11500 31.70500
H  12.87400 48.12200 28.38900
H  13.12200 46.36100 21.98700
H  6.75300 45.97800 22.17800
H  8.60800 48.26300 30.15100
H  11.35400 47.77500 29.97900
H  9.85200 50.04900 30.33100
H  10.72600 50.23200 28.71500
H  11.58100 49.86600 30.24700
H  10.07100 45.57000 29.98400
H  8.48500 45.71900 30.75600
H  10.35100 47.57200 32.09000
H  11.09300 46.05100 31.80200
H  15.81300 48.83800 26.27300
H  16.04600 47.14000 27.04900
H  15.08100 48.31700 27.75700
H  17.08600 47.77200 24.55000
H  17.78700 46.45400 23.52300
H  17.16500 46.03500 25.08800
H  11.14900 45.28500 20.64500
H  8.80600 46.91300 20.28200
H  11.78200 48.18000 20.65500
H  10.63100 47.76300 19.26100
H  12.12700 46.92000 19.38400
H  7.98300 44.32300 21.06400
H  9.51500 44.05700 20.35900
H  8.53600 45.54600 18.38900
H  7.01900 44.91500 19.04500
H  8.28000 43.82800 18.58100
H  4.16200 45.09500 23.96200
H  4.68000 46.50500 23.02900
H  3.49800 46.69500 24.48000
H  5.95600 47.73800 29.09000
H  4.50900 45.03500 32.03700
H  6.17600 45.47800 32.51600
H  5.84900 44.09800 31.45800

