158

Mg 16.11200 52.45300 25.46600
C  18.28400 51.51500 27.92500
C  13.79200 53.31300 27.73900
C  13.92200 53.42500 22.94600
C  18.35500 51.40600 23.07700
N  16.08600 52.44500 27.63500
C  17.10500 51.99500 28.44500
C  16.70800 52.25200 29.99500
C  15.19000 52.69900 29.85600
C  15.02100 52.86600 28.34700
C  14.15200 51.72100 30.43700
C  17.57700 53.35600 30.70300
C  17.61500 53.38400 32.26300
H  16.67200 52.57800 33.18100
N  14.17300 53.43000 25.35200
C  13.32500 53.63500 26.41100
C  12.13000 54.25400 25.97200
C  12.21000 54.34200 24.54400
C  13.52100 53.82000 24.19400
C  10.93400 54.66900 26.90300
C  11.11400 54.71000 23.51100
O  11.27900 54.67700 22.28100
C  9.68500 55.03200 24.00200
N  16.16600 52.59600 23.30900
C  15.14100 52.89000 22.56200
C  15.48700 52.55800 21.06200
C  16.88200 52.03400 21.11900
C  17.17900 51.99100 22.60100
C  14.44500 51.62200 20.31700
C  17.97700 52.81400 20.30100
C  18.65500 51.99300 19.18000
N  17.97700 51.72800 25.40500
C  18.78200 51.41300 24.35500
C  19.94100 50.77100 24.86900
C  19.84500 50.85400 26.22000
C  18.62800 51.46500 26.52400
C  21.00600 50.02600 24.10200
C  20.44500 50.36100 27.46100
O  21.42000 49.63800 27.64400
C  19.54400 50.92700 28.60500
C  19.22100 49.83600 29.56900
O  18.68700 48.79400 29.42000
O  19.70800 50.16000 30.76600
C  19.42400 49.29900 31.94800
H  13.12800 53.58200 28.56400
H  13.42300 53.86800 22.08200
H  18.73700 50.82500 22.23500
H  16.81800 51.29900 30.51300
H  15.06900 53.67600 30.32400
H  14.67900 50.81500 30.73500
H  13.52300 51.38800 29.61200
H  13.61800 52.04200 31.33100
H  17.17800 54.31800 30.38200
H  18.61800 53.31100 30.38300
H  17.70200 54.39000 32.67200
H  18.56500 52.85100 32.29600
H  10.05800 54.02100 26.90200
H  10.54700 55.67900 26.77000
H  11.39800 54.64100 27.88900
H  9.06400 54.95800 23.10900
H  9.83400 56.04700 24.36900
H  9.32900 54.36700 24.78900
H  15.42500 53.52900 20.57200
H  16.94300 50.99500 20.79400
H  14.85400 50.76800 19.77600
H  13.83900 52.14000 19.57400
H  13.81900 51.19900 21.10300
H  18.76100 53.15300 20.97800
H  17.49800 53.71800 19.92600
H  18.79000 52.51500 18.23200
H  18.06800 51.11700 18.90100
H  19.64400 51.66700 19.50000
H  21.46800 50.81100 23.50300
H  20.53300 49.34100 23.39800
H  21.69900 49.52700 24.77900
H  20.11700 51.75100 29.02900
H  18.34400 49.18100 32.04400
H  19.96500 49.74200 32.78400
H  19.82500 48.28900 31.86700
Mg -11.02600 16.95300 43.26800
C  -7.68700 17.53600 43.17500
C  -11.61600 20.30200 42.64500
C  -14.29800 16.27300 42.88000
C  -10.38700 13.48700 43.44300
N  -9.80600 18.62700 42.69600
C  -8.45700 18.66500 42.83200
C  -7.93100 20.05300 42.68900
C  -9.16500 20.89900 42.98800
C  -10.28500 19.91000 42.74400
C  -9.22500 21.49000 44.45300
C  -7.22500 20.19200 41.29500
C  -5.79800 20.68300 41.38400
H  -4.81500 19.83000 40.52800
N  -12.71100 18.12200 42.76500
C  -12.76100 19.50300 42.61500
C  -14.08900 19.93400 42.40700
C  -14.91600 18.76300 42.48700
C  -14.01000 17.68700 42.73900
C  -14.48100 21.34000 42.12900
C  -16.43700 18.86100 42.27500
O  -16.88800 19.94000 41.95600
C  -17.38900 17.76300 42.46300
N  -12.17800 15.09600 43.12600
C  -13.48900 15.14500 43.06900
C  -14.13500 13.72800 43.10100
C  -12.84100 12.89000 42.97700
C  -11.72100 13.84000 43.13500
C  -14.98900 13.48000 44.35600
C  -12.72000 12.07900 41.67700
C  -13.36300 10.66500 41.75700
N  -9.37500 15.74400 43.30200
C  -9.25900 14.34000 43.46500
C  -7.89300 14.06200 43.62200
C  -7.25300 15.26100 43.66000
C  -8.18100 16.25700 43.37100
C  -7.27400 12.68000 43.91900
C  -5.96300 15.91100 43.76400
O  -4.87100 15.41500 43.84500
C  -6.21500 17.46700 43.48600
C  -5.88600 18.30900 44.76000
O  -6.53100 18.29300 45.80500
O  -4.84300 19.17900 44.53100
C  -4.41900 20.08400 45.54900
H  -11.84800 21.36800 42.68600
H  -15.37900 16.13600 42.82000
H  -10.18800 12.41300 43.44200
H  -7.06900 20.08800 43.35500
H  -9.30400 21.66600 42.22600
H  -8.21600 21.59100 44.85300
H  -9.79500 20.87300 45.14900
H  -9.67200 22.46800 44.27800
H  -7.69400 20.87700 40.58900
H  -7.32600 19.21500 40.82300
H  -5.45200 20.77100 42.41400
H  -5.73300 21.72500 41.06900
H  -15.22100 21.70700 42.84100
H  -14.83300 21.42700 41.10100
H  -13.69200 22.08700 42.04100
H  -18.39600 18.17400 42.40300
H  -17.20700 17.28000 43.42300
H  -17.33400 17.04900 41.64100
H  -14.83000 13.63900 42.26700
H  -12.76200 12.27500 43.87300
H  -14.88300 14.32800 45.03300
H  -14.46300 12.65100 44.83000
H  -16.01800 13.14300 44.23400
H  -11.65000 11.93200 41.52500
H  -13.22400 12.55800 40.83700
H  -12.50100 9.99900 41.80400
H  -13.93800 10.44300 40.85700
H  -14.00200 10.67700 42.64000
H  -7.68000 12.50200 44.91500
H  -6.18700 12.74000 43.95900
H  -7.57100 11.93700 43.17900
H  -5.51000 17.60600 42.66600
H  -4.55600 19.87100 46.60900
H  -4.80200 21.08900 45.37200
H  -3.35100 20.25300 45.40500

