158

Mg 50.89200 44.48600 42.57100
C  47.68400 45.43600 41.12400
C  50.36000 41.33600 41.28600
C  54.15500 43.94600 43.11900
C  51.38900 47.87500 43.15100
N  49.19400 43.57700 41.35100
C  48.02500 44.14600 40.86500
C  47.23700 43.10900 40.10100
C  48.04400 41.76100 40.29900
C  49.27100 42.22600 41.01600
C  47.15600 40.75900 41.05300
C  47.19700 43.63000 38.63600
C  45.81100 43.70500 38.00800
H  45.69200 42.98300 36.64000
N  52.07600 42.83200 42.34200
C  51.66500 41.57400 41.95100
C  52.74100 40.61700 42.14100
C  53.86800 41.34300 42.68200
C  53.44000 42.79300 42.75700
C  52.66200 39.17400 41.78800
C  55.18000 40.73600 43.13200
O  55.47900 39.53100 42.89300
C  56.17900 41.51400 43.96000
N  52.57100 45.76300 42.96500
C  53.83300 45.31800 43.17400
C  54.83100 46.47300 43.39700
C  53.91900 47.70400 43.30600
C  52.48700 47.06700 43.20400
C  55.62300 46.56200 44.78500
C  54.15600 48.81700 42.23300
C  54.41400 50.23000 42.78000
N  49.71500 46.29000 42.50800
C  49.98600 47.59800 42.87200
C  48.78100 48.44500 42.73300
C  47.80500 47.60100 42.11900
C  48.46200 46.31500 41.94700
C  48.67600 49.89000 43.05800
C  46.49700 47.60500 41.49100
O  45.65400 48.45800 41.36800
C  46.38800 46.18000 40.74500
C  45.03900 45.59000 41.11200
O  44.05900 45.52000 40.43700
O  45.07500 45.17500 42.44400
C  43.84400 44.79800 43.11600
H  50.20900 40.34800 40.84600
H  55.20700 43.78700 43.36100
H  51.46800 48.95700 43.27900
H  46.21100 43.07600 40.46700
H  48.22500 41.33200 39.31300
H  46.12700 41.12000 41.02900
H  47.50700 40.75700 42.08500
H  47.06000 39.77100 40.60400
H  47.91500 43.04800 38.05900
H  47.51900 44.66300 38.50600
H  45.57500 44.73900 37.75500
H  44.99500 43.30300 38.60900
H  53.07900 39.08700 40.78500
H  51.65900 38.77500 41.63900
H  53.14600 38.49000 42.48500
H  55.69800 42.21800 44.64000
H  56.84800 41.92700 43.20500
H  56.74700 40.86200 44.62400
H  55.59300 46.56900 42.62400
H  53.74500 48.23200 44.24400
H  55.60700 45.56900 45.23300
H  55.26100 47.36100 45.43200
H  56.67500 46.76600 44.58400
H  53.40900 48.76400 41.44000
H  55.12300 48.49800 41.84400
H  54.12400 50.36800 43.82200
H  54.02500 50.95400 42.06500
H  55.48800 50.41400 42.74900
H  48.78900 50.51900 42.17500
H  49.55400 50.03000 43.68900
H  47.79700 49.99500 43.69500
H  46.41200 46.36800 39.67200
H  43.92700 43.71800 42.99100
H  42.98900 45.16900 42.55100
H  43.76300 45.17800 44.13400
Mg -11.35500 37.40800 42.64900
C  -9.20900 34.76900 41.72600
C  -9.00300 39.66600 41.29600
C  -13.59500 39.79300 42.95500
C  -13.75500 34.99200 43.44900
N  -9.50800 37.26200 41.57000
C  -8.85300 36.05200 41.27000
C  -7.53600 36.27700 40.38100
C  -7.26800 37.83000 40.63000
C  -8.70700 38.33000 41.20400
C  -6.11300 38.14500 41.60500
C  -7.68200 35.83200 38.88100
C  -6.75200 34.68300 38.37800
H  -5.91100 35.01200 37.11900
N  -11.21600 39.48300 42.35800
C  -10.21600 40.17700 41.79200
C  -10.58900 41.60600 41.71700
C  -11.91600 41.70000 42.11400
C  -12.33100 40.29700 42.50300
C  -9.68000 42.65100 41.24700
C  -12.68100 43.02200 41.95500
O  -12.12800 44.07800 41.63100
C  -14.18300 42.99500 42.18100
N  -13.38600 37.39400 43.21300
C  -14.06000 38.54800 43.36400
C  -15.53200 38.33400 43.91200
C  -15.61700 36.78000 43.98900
C  -14.20300 36.33100 43.52700
C  -15.93600 39.06300 45.20100
C  -16.69500 36.05600 43.17500
C  -17.47900 34.90900 43.90300
N  -11.47100 35.30800 42.63800
C  -12.45800 34.49900 43.05500
C  -11.97600 33.14700 43.10400
C  -10.65000 33.24100 42.63400
C  -10.43200 34.57400 42.22800
C  -12.72300 31.86300 43.65000
C  -9.45400 32.45800 42.33100
O  -9.20700 31.25300 42.51100
C  -8.45900 33.37900 41.66100
C  -7.14300 33.28100 42.38000
O  -6.21900 32.69400 41.85000
O  -7.12500 33.92900 43.60000
C  -5.81800 34.13000 44.16000
H  -8.22600 40.42400 41.18200
H  -14.25900 40.63300 43.16900
H  -14.49900 34.28300 43.82000
H  -6.68900 35.67600 40.71100
H  -7.05000 38.28700 39.66500
H  -5.29100 38.46200 40.96400
H  -5.85900 37.25600 42.18200
H  -6.35200 38.98200 42.26100
H  -7.53500 36.63400 38.15800
H  -8.68900 35.46900 38.67600
H  -7.26900 33.72500 38.32300
H  -6.08100 34.46900 39.21000
H  -8.60700 42.54900 41.08600
H  -9.70700 43.54500 41.87100
H  -10.17100 42.83400 40.29100
H  -14.71200 43.80600 41.67900
H  -14.45600 42.92300 43.23300
H  -14.66400 42.10500 41.77600
H  -16.20400 38.79900 43.19000
H  -15.68300 36.55900 45.05400
H  -14.97900 39.33000 45.65000
H  -16.54200 38.40600 45.82500
H  -16.42800 40.02100 45.03200
H  -16.29000 35.78600 42.20000
H  -17.44300 36.80500 42.91400
H  -18.51700 35.23200 43.98500
H  -16.98700 34.68400 44.84900
H  -17.32600 33.99300 43.33200
H  -12.50200 31.54000 44.66700
H  -12.41100 31.10400 42.93200
H  -13.79600 32.04800 43.58600
H  -8.28400 33.01600 40.64800
H  -5.13500 33.36900 43.78300
H  -5.86600 34.09400 45.24800
H  -5.39100 35.12100 44.00000

