158

Mg 17.18400 -1.33800 27.25500
C  16.26500 0.98500 29.62900
C  19.21000 -2.78000 29.61700
C  18.47600 -3.42000 24.79300
C  15.71000 0.59200 24.76300
N  17.80300 -0.84700 29.30700
C  17.13900 0.02600 30.20100
C  17.57600 -0.15700 31.62300
C  18.73100 -1.24000 31.49400
C  18.55700 -1.69000 30.02500
C  20.20700 -0.83300 31.90400
C  16.46200 -0.54700 32.58600
C  16.71600 -0.91700 34.06700
H  17.99400 -0.43200 34.76500
N  18.53300 -2.99100 27.25100
C  19.22500 -3.44300 28.33300
C  19.98700 -4.58600 27.87900
C  19.76400 -4.79500 26.51900
C  18.90800 -3.73100 26.10000
C  20.78800 -5.39100 28.93900
C  20.34000 -5.86300 25.56500
O  20.06800 -5.88800 24.34100
C  21.32800 -6.91900 26.06700
N  17.07100 -1.37800 25.09900
C  17.68100 -2.37500 24.36600
C  17.35700 -2.06300 22.88500
C  16.38100 -0.93500 22.87200
C  16.35900 -0.54700 24.33800
C  18.63800 -1.66000 22.10400
C  14.92800 -1.32900 22.43700
C  14.58600 -0.97800 20.94800
N  16.14700 0.43300 27.11800
C  15.61500 1.08900 26.07200
C  14.89500 2.20400 26.60200
C  15.09500 2.17600 28.02700
C  15.92200 1.10700 28.27100
C  14.09700 3.19700 25.76500
C  14.88400 2.91000 29.28700
O  14.23600 3.91200 29.47800
C  15.58900 2.11600 30.43600
C  16.46100 3.12000 31.14600
O  17.41000 3.70600 30.67900
O  15.95900 3.18900 32.48200
C  16.74100 4.11400 33.28800
H  19.78100 -3.15400 30.46900
H  18.87100 -4.14000 24.07300
H  15.28900 1.16800 23.93600
H  17.98900 0.76200 32.03700
H  18.49500 -2.11900 32.09400
H  20.12700 -0.03300 32.64000
H  20.73000 -0.49900 31.00800
H  20.79200 -1.60900 32.39800
H  15.95000 -1.34400 32.04600
H  15.74500 0.27200 32.64100
H  16.67600 -2.00300 34.14300
H  15.80600 -0.61400 34.58400
H  21.85100 -5.36500 28.70000
H  20.33700 -6.37200 28.78900
H  20.50200 -4.97700 29.90600
H  21.42500 -7.62500 25.24200
H  20.91300 -7.57100 26.83500
H  22.20100 -6.47500 26.54500
H  17.00400 -2.98500 22.42400
H  16.85500 -0.13800 22.30000
H  19.21100 -1.03700 22.79200
H  18.37000 -1.10200 21.20700
H  19.26400 -2.53100 21.91100
H  14.13600 -0.99100 23.10600
H  14.87300 -2.41600 22.50200
H  13.84900 -0.17700 21.00000
H  14.32500 -1.87300 20.38400
H  15.45000 -0.41500 20.59400
H  14.75200 3.89200 25.23800
H  13.56300 3.87400 26.43100
H  13.47800 2.65600 25.04900
H  14.93900 1.62400 31.15900
H  16.60700 5.15000 32.97700
H  17.76400 3.82800 33.04600
H  16.53700 3.96400 34.34800
Mg 25.89400 0.93300 29.21600
C  27.85500 0.93600 32.09700
C  23.11900 1.69900 31.13500
C  24.05100 0.47600 26.42000
C  28.66500 -0.24400 27.40600
N  25.60400 1.20100 31.32500
C  26.52900 1.28700 32.35400
C  25.92600 1.79400 33.74500
C  24.38900 1.78300 33.37000
C  24.30600 1.48100 31.84800
C  23.67400 0.73800 34.15400
C  26.56700 3.18700 34.26000
C  27.14300 3.04400 35.68500
H  26.31400 3.83100 36.73900
N  23.90000 1.12800 28.86200
C  22.93300 1.49500 29.81700
C  21.65700 1.58800 29.01100
C  21.87200 1.16900 27.69300
C  23.37100 0.87700 27.59100
C  20.30000 2.02000 29.57800
C  20.88900 1.02500 26.52900
O  21.25300 0.73300 25.39300
C  19.47000 1.32600 26.67700
N  26.34300 0.25800 27.14000
C  25.42100 0.28900 26.14600
C  26.06800 -0.03200 24.79800
C  27.59400 -0.06800 25.10700
C  27.58500 -0.03600 26.61700
C  25.45800 -1.21600 23.96800
C  28.47400 0.98600 24.44000
C  28.62100 0.77000 22.95700
N  27.82900 0.37100 29.61600
C  28.85600 0.00300 28.78500
C  30.11400 -0.21000 29.55400
C  29.72000 0.30700 30.81400
C  28.37300 0.60500 30.83200
C  31.44400 -0.73600 29.15400
C  30.26600 0.37800 32.18600
O  31.40600 0.14600 32.55100
C  29.01600 0.86600 33.08300
C  28.84900 -0.25300 34.13400
O  28.32900 -1.30500 33.84900
O  29.51800 0.01200 35.27900
C  29.36500 -1.02300 36.33600
H  22.29800 1.97900 31.79800
H  23.51900 0.41200 25.46800
H  29.55900 -0.56500 26.86600
H  26.09900 1.00500 34.47700
H  23.92700 2.75100 33.56000
H  22.68500 0.61900 33.71300
H  23.50000 0.90200 35.21700
H  24.14700 -0.24400 34.14500
H  25.86100 4.01400 34.19500
H  27.32800 3.42200 33.51600
H  28.14500 3.46900 35.75100
H  27.22800 2.00700 36.00900
H  20.08000 3.05900 29.33200
H  20.36700 1.77500 30.63800
H  19.58600 1.24000 29.31300
H  18.87400 0.57500 27.19600
H  19.02000 1.34900 25.68400
H  19.46800 2.34200 27.07100
H  25.78000 0.83000 24.19600
H  27.97700 -1.06600 24.89400
H  24.48700 -1.47300 24.39100
H  26.12100 -2.07000 23.82800
H  25.21000 -0.88400 22.96000
H  29.37900 0.85700 25.03500
H  28.17500 2.02100 24.60200
H  28.28100 1.60400 22.34400
H  28.13800 -0.15200 22.63300
H  29.70600 0.72500 22.86200
H  32.21300 -0.35000 29.82300
H  31.69400 -0.50300 28.11900
H  31.41200 -1.82500 29.12300
H  29.34700 1.81700 33.50100
H  28.35900 -1.43100 36.24800
H  29.47400 -0.51800 37.29600
H  30.18800 -1.72800 36.21400

