158

Mg 8.96500 3.07100 27.86000
C  10.28600 1.51200 30.74900
C  7.00800 4.96500 29.91200
C  7.27200 4.05500 25.10900
C  10.77500 0.70500 25.97900
N  8.81300 3.24900 30.07400
C  9.50700 2.60600 31.04300
C  9.33000 3.23000 32.41500
C  8.02100 4.20100 32.11000
C  7.92100 4.13500 30.58900
C  6.70800 3.75500 32.88800
C  10.63500 3.98900 32.88100
C  10.36300 4.77400 34.23100
H  10.75000 4.20600 35.56200
N  7.49100 4.44200 27.51500
C  6.76200 5.12500 28.54500
C  5.88000 6.03000 27.91500
C  5.88000 5.75000 26.51700
C  6.87700 4.72400 26.31800
C  5.13900 7.11000 28.70900
C  5.15300 6.49700 25.36200
O  5.27500 6.17100 24.17300
C  4.47200 7.77000 25.68700
N  9.02000 2.42200 25.89800
C  8.24800 3.11000 24.93700
C  8.61200 2.57700 23.51100
C  9.80800 1.57000 23.79900
C  9.86400 1.52700 25.32400
C  7.48100 2.03300 22.59800
C  11.23300 1.94800 23.24000
C  11.80600 1.09800 22.08400
N  10.25200 1.35400 28.26300
C  10.91800 0.54300 27.37300
C  11.64700 -0.43400 28.10900
C  11.51400 -0.08000 29.46900
C  10.60100 0.92500 29.48700
C  12.49700 -1.52800 27.60800
C  11.89300 -0.37400 30.77200
O  12.67800 -1.25200 31.15500
C  11.22500 0.73900 31.74000
C  10.44200 0.11400 32.84700
O  9.51100 -0.65100 32.77100
O  11.00000 0.43400 34.02000
C  10.49100 -0.27900 35.18800
H  6.47000 5.65800 30.56300
H  6.77100 4.33600 24.18000
H  11.43100 0.03900 25.41500
H  8.91700 2.41500 33.00900
H  8.16800 5.24400 32.38900
H  6.68600 2.69300 33.13200
H  5.90100 3.78900 32.15700
H  6.44500 4.41600 33.71300
H  11.05100 4.59400 32.07600
H  11.35700 3.26200 33.25400
H  9.28900 4.82900 34.40700
H  10.66800 5.82000 34.26600
H  5.88100 7.90200 28.81300
H  4.71300 6.74500 29.64400
H  4.26500 7.60300 28.28500
H  5.24300 8.47800 25.99200
H  3.71600 7.64600 26.46300
H  4.02100 8.21600 24.80100
H  9.08800 3.44800 23.06100
H  9.54100 0.56100 23.48600
H  6.51900 2.48300 22.84500
H  7.43400 0.96300 22.80200
H  7.80300 2.25800 21.58100
H  11.94100 1.88100 24.06600
H  11.12900 2.97400 22.88800
H  12.88300 1.04500 22.24500
H  11.64800 1.64400 21.15400
H  11.32500 0.12000 22.05000
H  13.24100 -1.17500 26.89400
H  11.83300 -2.16700 27.02600
H  12.94000 -2.19400 28.34900
H  12.03200 1.39300 32.07000
H  10.22200 0.48200 35.92100
H  11.23800 -0.91400 35.66300
H  9.60700 -0.89900 35.04000
Mg 16.22900 51.26000 24.63100
C  18.16700 50.79700 27.41600
C  13.61800 52.28600 26.55900
C  14.43300 51.74500 21.73200
C  19.07200 50.49400 22.66400
N  15.91000 51.44800 26.86400
C  16.82700 51.20200 27.84000
C  16.30400 51.46200 29.24600
C  14.72300 51.76900 28.93200
C  14.70900 51.82100 27.36800
C  13.66400 50.77000 29.47300
C  16.99500 52.67500 29.90200
C  16.66600 53.04500 31.35700
H  16.05200 52.03000 32.26200
N  14.32000 51.95300 24.18800
C  13.43000 52.41000 25.12600
C  12.31400 52.95800 24.43800
C  12.48100 52.75200 23.02900
C  13.80900 52.08200 22.94000
C  11.13900 53.60200 25.26500
C  11.52300 53.02900 21.88700
O  11.77900 52.87700 20.70000
C  10.11200 53.42900 22.15500
N  16.66000 51.12100 22.55900
C  15.71400 51.33000 21.51600
C  16.36900 51.01700 20.08600
C  17.89400 51.16900 20.48600
C  17.88300 50.87900 22.00100
C  15.79000 49.71200 19.37000
C  18.47000 52.60200 20.27300
C  19.40100 52.83200 19.16200
N  18.12100 50.56200 24.91600
C  19.18700 50.26400 24.06900
C  20.33200 49.96900 24.83600
C  19.93000 50.08000 26.14700
C  18.58000 50.47500 26.15900
C  21.65400 49.66400 24.24400
C  20.44800 49.93400 27.49500
O  21.49800 49.58200 27.95800
C  19.29100 50.37300 28.30800
C  18.95800 49.24800 29.25900
O  18.50000 48.18600 28.98800
O  19.09700 49.84000 30.53800
C  18.46500 49.14900 31.65800
H  12.81800 52.68200 27.18800
H  14.02200 52.01000 20.75600
H  19.94300 50.19100 22.08000
H  16.58300 50.56800 29.80500
H  14.53300 52.78500 29.27700
H  12.95300 50.56000 28.67400
H  13.23200 51.22000 30.36700
H  14.06900 49.80200 29.76900
H  16.80500 53.46500 29.17600
H  18.08000 52.56500 29.89400
H  15.95100 53.86100 31.25500
H  17.61200 53.41500 31.75400
H  10.69400 54.42900 24.71100
H  11.56200 54.00400 26.18600
H  10.40000 52.81500 25.41800
H  9.70100 52.83200 22.96900
H  9.49100 53.17100 21.29800
H  10.04900 54.49100 22.39600
H  16.01500 51.83700 19.46200
H  18.48300 50.39300 19.99800
H  14.76200 49.82800 19.02700
H  15.82600 48.93600 20.13500
H  16.45800 49.37700 18.57600
H  19.03600 52.90700 21.15300
H  17.66400 53.33400 20.24800
H  18.82200 53.20200 18.31600
H  19.79200 51.88700 18.78400
H  20.27400 53.47100 19.29300
H  21.92000 50.32400 23.41800
H  21.64300 48.60100 24.00500
H  22.46100 49.81100 24.96200
H  19.55100 51.17100 29.00300
H  18.97000 48.31300 32.14200
H  17.42500 48.89800 31.44800
H  18.51100 49.90800 32.43900

