158

Mg 1.02500 7.51400 26.13000
C  1.81400 9.78000 28.74300
C  1.40100 4.99700 28.32000
C  0.78600 5.58500 23.51900
C  1.51900 10.31500 23.92700
N  1.54400 7.47700 28.30900
C  1.68400 8.47800 29.20700
C  1.72500 7.92600 30.65800
C  1.94700 6.44100 30.40700
C  1.53600 6.28600 28.92500
C  3.36500 5.98300 30.71900
C  0.32800 8.20400 31.37100
C  0.50200 8.68000 32.84500
H  1.70400 8.04100 33.64100
N  0.94000 5.53200 25.94900
C  1.08900 4.66500 26.96900
C  0.77400 3.37200 26.51000
C  0.67300 3.43000 25.13000
C  0.76300 4.87900 24.74900
C  0.73100 2.19900 27.42500
C  0.43300 2.31500 24.05300
O  0.26900 2.53900 22.87100
C  0.48600 0.90100 24.43600
N  1.27900 7.87800 24.03700
C  0.90300 6.88500 23.17300
C  0.85300 7.40600 21.68900
C  1.17200 8.95800 21.80500
C  1.31900 9.06000 23.36400
C  1.90100 6.58500 20.81000
C  0.04900 9.99200 21.23100
C  0.51000 11.29600 20.71300
N  1.49200 9.62500 26.22800
C  1.54600 10.61700 25.27200
C  1.69400 11.91200 25.88900
C  1.73800 11.64200 27.25700
C  1.65800 10.21600 27.40000
C  1.68500 13.30000 25.19300
C  1.89800 12.22600 28.56200
O  2.08300 13.33400 28.93700
C  1.90800 11.04800 29.55900
C  2.99800 11.12200 30.49400
O  4.13800 10.73500 30.25800
O  2.57600 11.65300 31.67100
C  3.54400 11.68600 32.77700
H  1.42500 4.15000 29.00900
H  0.65900 4.90300 22.67600
H  1.67400 11.24600 23.37900
H  2.50700 8.44100 31.21600
H  1.23600 5.94100 31.06500
H  3.91000 6.90200 30.93600
H  3.78100 5.46700 29.85400
H  3.39900 5.28900 31.55800
H  -0.31400 7.32600 31.29400
H  -0.08500 9.04300 30.81100
H  -0.41900 8.47200 33.39000
H  0.61900 9.76400 32.84500
H  -0.12200 1.64100 27.03800
H  0.50700 2.44500 28.46300
H  1.71500 1.73100 27.40300
H  0.26500 0.35600 23.51800
H  -0.23700 0.57400 25.18300
H  1.39600 0.71600 25.00700
H  -0.18900 7.25000 21.41200
H  2.11300 9.26900 21.35100
H  2.49700 5.90100 21.41300
H  2.45700 7.35900 20.28000
H  1.40700 5.93300 20.09000
H  -0.78500 10.16400 21.91200
H  -0.37800 9.44700 20.38900
H  1.39900 11.16000 20.09700
H  0.78700 12.02800 21.47100
H  -0.33800 11.74700 20.19800
H  1.36200 14.12000 25.83300
H  1.05400 13.25600 24.30600
H  2.70600 13.49100 24.86100
H  0.98700 11.21100 30.11900
H  4.41900 12.23700 32.43400
H  3.85300 10.66800 33.01500
H  3.15600 12.14900 33.68400
Mg 46.90800 16.02600 28.21800
C  45.04100 15.60700 31.01300
C  48.87200 18.25800 29.74900
C  48.70000 16.29200 25.25600
C  44.65800 13.96300 26.46000
N  47.00200 16.79300 30.18300
C  46.07600 16.54100 31.17300
C  46.40600 17.34100 32.46400
C  47.54200 18.24300 31.98000
C  47.85600 17.71500 30.52600
C  47.24700 19.75900 31.94000
C  46.92100 16.33200 33.52200
C  47.15600 16.92200 34.94200
H  48.55700 16.73900 35.53500
N  48.53400 17.13800 27.61200
C  49.24200 17.97200 28.38700
C  50.26400 18.61700 27.63900
C  50.21100 18.14800 26.25300
C  49.13800 17.08800 26.35800
C  51.19400 19.70900 28.08300
C  51.00000 18.51100 24.97900
O  50.81800 18.00200 23.89400
C  52.01900 19.57700 25.04200
N  46.65800 15.33000 26.10300
C  47.55200 15.44500 25.12400
C  47.09200 14.77200 23.84400
C  45.79800 14.00900 24.20000
C  45.70900 14.40300 25.71300
C  46.90100 15.81900 22.72500
C  45.75100 12.53500 23.82700
C  46.46100 11.64600 24.78700
N  45.18800 15.02100 28.54000
C  44.32000 14.36200 27.77200
C  43.19400 13.85800 28.57400
C  43.41900 14.29400 29.85700
C  44.61400 15.00400 29.75400
C  42.12600 12.91200 28.08200
C  42.99800 14.17200 31.20600
O  42.07800 13.57700 31.73800
C  43.98700 15.07700 32.02900
C  43.16200 16.11100 32.70700
O  42.39900 16.81800 32.09100
O  43.41400 16.18600 34.05200
C  42.46900 17.00100 34.86300
H  49.55600 18.92800 30.27400
H  49.32300 16.41200 24.36700
H  44.02000 13.24800 25.93700
H  45.55500 17.88900 32.86700
H  48.46000 18.14100 32.55900
H  47.37900 20.14000 30.92700
H  48.01000 20.25400 32.53900
H  46.21400 19.99300 32.19600
H  47.85100 15.86900 33.19200
H  46.07100 15.66400 33.66200
H  46.56500 16.48500 35.74600
H  46.95900 17.99100 35.02600
H  51.12700 20.03100 29.12200
H  50.94900 20.58000 27.47500
H  52.20400 19.30400 28.02800
H  51.65700 20.58300 25.25500
H  52.64400 19.54300 24.15000
H  52.74100 19.41200 25.84200
H  47.77000 13.93100 23.70300
H  44.93200 14.56000 23.83400
H  45.94300 15.66000 22.23000
H  47.74300 16.00300 22.05800
H  46.78700 16.72600 23.31900
H  46.26200 12.45400 22.86800
H  44.67800 12.34000 23.81800
H  46.91100 12.13200 25.65300
H  47.25300 11.15900 24.21900
H  45.72800 11.00200 25.27300
H  42.55600 12.35400 27.25000
H  41.25700 13.49300 27.77400
H  41.83300 12.19700 28.85000
H  44.40600 14.44600 32.81300
H  42.00600 17.76500 34.23900
H  43.08000 17.48700 35.62500
H  41.70100 16.42300 35.37700

