158

Mg 34.56900 2.37600 29.45200
C  32.72900 3.41700 32.18900
C  37.30300 1.86300 31.53300
C  36.37600 1.82700 26.62600
C  31.81500 3.17200 27.33600
N  34.94700 2.69600 31.50200
C  33.97600 3.00400 32.53100
C  34.49800 2.72500 33.95200
C  36.03300 2.72500 33.63700
C  36.13100 2.33300 32.11700
C  36.90600 3.91000 33.83000
C  33.90000 1.36000 34.53900
C  33.48000 1.41700 36.00500
H  34.31700 2.22700 36.95100
N  36.48000 1.84800 29.14500
C  37.48700 1.72700 30.09400
C  38.73900 1.36900 29.43700
C  38.51500 1.34900 28.01100
C  37.03700 1.67900 27.84700
C  39.94500 1.18800 30.17100
C  39.48000 0.98300 26.89700
O  39.06100 0.84600 25.76300
C  40.89400 0.56600 27.14600
N  34.11400 2.33000 27.30800
C  35.05000 2.18100 26.38200
C  34.47600 2.31900 24.96200
C  33.03700 2.73000 25.23200
C  32.93800 2.79200 26.69700
C  35.24700 3.43500 24.12200
C  31.96300 1.74100 24.61000
C  32.20400 0.23000 24.87800
N  32.71200 3.17600 29.66100
C  31.66400 3.29100 28.73300
C  30.46500 3.67600 29.43200
C  30.76100 3.67400 30.76500
C  32.18900 3.45800 30.85800
C  29.09600 4.04300 28.82500
C  30.21400 3.83800 32.06300
O  28.98400 3.83100 32.39800
C  31.50600 3.77000 33.05100
C  31.58200 5.04300 33.80700
O  32.13800 6.10300 33.53000
O  30.88100 4.80100 34.94900
C  30.61200 6.02100 35.78900
H  38.15700 1.60900 32.16400
H  36.95700 1.82000 25.70200
H  30.94300 3.50000 26.76600
H  34.30800 3.65400 34.49100
H  36.49000 1.86800 34.13300
H  37.09100 4.34800 32.84900
H  37.83700 3.69200 34.35300
H  36.36600 4.61300 34.46300
H  34.58900 0.52000 34.44800
H  33.00400 1.22700 33.93300
H  33.47000 0.37800 36.33600
H  32.46500 1.79800 35.89000
H  40.28800 0.20300 29.85600
H  39.89400 1.49400 31.21600
H  40.66700 1.89800 29.76600
H  41.40300 1.49000 27.42100
H  41.31700 0.24900 26.19300
H  41.11300 -0.25300 27.83000
H  34.50100 1.42500 24.34000
H  32.77200 3.69900 24.80900
H  35.71200 2.92300 23.27900
H  36.13600 3.82800 24.61600
H  34.66200 4.28700 23.77700
H  31.90700 1.95600 23.54200
H  30.93800 1.92000 24.93500
H  33.04000 0.12800 25.57000
H  32.49900 -0.22500 23.93200
H  31.28400 -0.21800 25.25400
H  29.27900 4.18600 27.76000
H  28.70500 4.92400 29.33400
H  28.55100 3.10000 28.85400
H  31.33000 2.97500 33.77600
H  30.51400 6.90000 35.15300
H  31.51400 6.13600 36.39000
H  29.66200 5.85900 36.29900
Mg 46.87500 16.64700 27.55800
C  45.07600 16.38200 30.65000
C  49.05200 18.75300 29.22100
C  48.18700 17.36600 24.61200
C  44.17700 15.18000 25.98700
N  47.00800 17.53500 29.76500
C  46.23000 17.09400 30.83700
C  46.79200 17.67900 32.11000
C  47.97800 18.56300 31.64400
C  48.07100 18.26000 30.13300
C  47.85000 20.05000 32.06800
C  47.23100 16.47100 33.05500
C  47.00600 16.65800 34.54300
H  47.24700 18.09600 35.05500
N  48.46000 17.84600 27.02900
C  49.23800 18.63700 27.82100
C  50.35000 19.15100 27.02100
C  50.18200 18.71400 25.68300
C  48.90300 17.92800 25.73700
C  51.46200 19.88700 27.64200
C  51.04400 18.91400 24.48400
O  50.74300 18.49600 23.37100
C  52.41600 19.62100 24.63200
N  46.33300 16.31200 25.65200
C  47.02300 16.65100 24.52600
C  46.41400 16.16300 23.19400
C  45.12000 15.45500 23.68800
C  45.25800 15.62600 25.24000
C  46.01100 17.31100 22.12400
C  44.97200 14.02400 23.17300
C  45.66900 12.99700 23.99300
N  45.06700 15.87800 28.10000
C  44.02700 15.30800 27.31600
C  42.92600 14.91600 28.18000
C  43.27000 15.32400 29.53500
C  44.53700 15.95400 29.38600
C  41.69700 14.25700 27.79900
C  42.77300 15.41100 30.88000
O  41.79700 14.96800 31.45800
C  43.98400 16.03600 31.67000
C  43.45500 17.16300 32.56400
O  43.28800 18.31900 32.15300
O  43.20100 16.74900 33.89200
C  42.80700 17.72500 34.87700
H  49.77900 19.34200 29.78400
H  48.54000 17.64100 23.61600
H  43.32200 14.74800 25.46200
H  45.99000 18.20000 32.63200
H  48.89000 18.23500 32.14100
H  47.05800 20.21500 32.79800
H  47.52700 20.58600 31.17500
H  48.77000 20.48800 32.45600
H  48.28800 16.25400 32.90300
H  46.69800 15.53700 32.87500
H  47.49500 15.90800 35.16500
H  45.95100 16.39900 34.63500
H  51.44800 19.87700 28.73200
H  51.39800 20.87100 27.17800
H  52.34500 19.29900 27.39200
H  52.33000 20.59100 25.12300
H  52.75500 19.79100 23.61000
H  53.03900 19.00300 25.27800
H  47.14200 15.48800 22.74500
H  44.19400 15.99300 23.48900
H  46.46200 18.22400 22.51400
H  44.95900 17.50300 21.91200
H  46.44300 17.04600 21.15900
H  45.42200 13.93000 22.18500
H  43.90700 13.79900 23.22500
H  46.14500 12.26900 23.33600
H  45.00500 12.49700 24.69800
H  46.51600 13.37200 24.56800
H  41.36600 14.61300 26.82400
H  40.88600 14.46700 28.49600
H  41.84200 13.18100 27.70100
H  44.28400 15.30200 32.41800
H  42.51000 17.30800 35.84000
H  41.97400 18.32100 34.50500
H  43.70400 18.34300 34.91600

