158

Mg 0.13300 7.95300 26.74300
C  0.82300 10.03900 29.50500
C  -0.25500 5.36300 28.76500
C  -0.60800 6.11700 24.04300
C  0.67000 10.78300 24.66600
N  0.35500 7.74200 28.79800
C  0.49000 8.68700 29.82500
C  0.40500 8.09100 31.20900
C  0.48600 6.56300 30.84700
C  0.18100 6.52100 29.35800
C  1.78700 5.89300 31.16700
C  -0.90700 8.55800 31.93500
C  -0.77600 8.68300 33.50700
H  0.38100 8.13500 34.22700
N  -0.34300 6.02900 26.46900
C  -0.54800 5.07400 27.41500
C  -0.89100 3.84500 26.89100
C  -0.89000 4.01200 25.47300
C  -0.62900 5.46000 25.28000
C  -1.30200 2.60600 27.70500
C  -1.23900 3.02500 24.42100
O  -1.34900 3.44000 23.24500
C  -1.33600 1.60600 24.65600
N  0.06900 8.47100 24.60900
C  -0.30500 7.44400 23.76700
C  -0.34900 8.00400 22.32200
C  -0.02500 9.58800 22.51800
C  0.18400 9.67100 24.01300
C  0.65400 7.30400 21.26600
C  -1.08700 10.52800 21.88900
C  -2.30200 10.89100 22.77500
N  0.78400 9.92000 26.95000
C  0.97200 10.94500 26.03700
C  1.33900 12.20200 26.74100
C  1.34300 11.83600 28.12800
C  0.94900 10.50900 28.18100
C  1.49600 13.56700 26.08800
C  1.53300 12.25200 29.42500
O  1.94500 13.28800 29.81600
C  1.11900 11.18300 30.43500
C  2.28500 10.87600 31.42200
O  3.30100 10.18300 31.20500
O  2.06000 11.50100 32.63500
C  3.07500 11.49700 33.63700
H  -0.26200 4.57200 29.51800
H  -0.68200 5.61000 23.07800
H  0.82900 11.64300 24.01100
H  1.25400 8.23200 31.87800
H  -0.20500 5.95800 31.43500
H  2.59800 6.52700 31.52300
H  2.08400 5.24800 30.33900
H  1.49600 5.14200 31.90100
H  -1.58800 7.70700 31.94100
H  -1.26300 9.49300 31.50400
H  -1.69300 8.19100 33.83200
H  -0.97200 9.70100 33.84300
H  -1.62200 2.85700 28.71600
H  -0.56400 1.80600 27.63800
H  -2.19300 2.19900 27.22700
H  -0.43300 1.40800 25.23300
H  -1.14000 1.08600 23.71800
H  -2.23700 1.30200 25.18800
H  -1.41100 7.81400 22.16300
H  0.95600 9.85400 22.12300
H  0.02100 7.04200 20.41800
H  1.08500 6.42800 21.75000
H  1.48100 7.90800 20.89300
H  -1.58400 10.18700 20.98100
H  -0.61700 11.49500 21.71000
H  -3.23600 10.44700 22.42900
H  -2.35000 11.97700 22.86300
H  -2.20500 10.58700 23.81700
H  1.28800 14.38200 26.78200
H  0.77300 13.66300 25.27800
H  2.51500 13.71700 25.73300
H  0.25100 11.53100 30.99600
H  3.01000 12.41200 34.22700
H  4.09100 11.29300 33.30000
H  2.76100 10.77300 34.38900
Mg 35.97800 48.99200 24.88500
C  36.14200 46.96000 27.67000
C  34.40300 51.38200 26.81700
C  34.89700 50.63600 22.06000
C  36.91000 46.25900 22.96000
N  35.34400 49.13300 26.96200
C  35.62300 48.19300 27.90900
C  35.36800 48.77300 29.29000
C  34.44000 49.96100 28.99300
C  34.71800 50.18200 27.50900
C  32.86800 49.81800 29.23000
C  36.74900 49.30800 29.93600
C  36.71500 49.15300 31.46800
H  35.37700 48.91800 32.15600
N  35.03100 50.79400 24.47600
C  34.52600 51.62000 25.43200
C  34.20400 52.88400 24.87700
C  34.34100 52.78000 23.44400
C  34.71600 51.28800 23.25100
C  33.77100 54.09300 25.68000
C  34.27200 53.78600 22.30000
O  34.79500 53.60400 21.23200
C  33.83600 55.18800 22.57500
N  35.84700 48.45600 22.78300
C  35.46800 49.35800 21.85600
C  35.86100 48.85000 20.42900
C  36.77500 47.64200 20.72500
C  36.54800 47.44600 22.24900
C  34.52000 48.56100 19.62400
C  38.25100 47.82700 20.30000
C  39.36500 47.62300 21.41600
N  36.54000 47.00600 25.17900
C  36.95300 46.04400 24.31100
C  37.42400 44.86900 25.03700
C  37.13300 45.15700 26.40100
C  36.52000 46.43500 26.36900
C  38.05300 43.66100 24.53200
C  37.08000 44.68000 27.81400
O  37.39300 43.62400 28.36100
C  36.57400 45.90900 28.63100
C  35.56100 45.43200 29.52900
O  34.37400 45.42300 29.26100
O  36.14300 45.10400 30.72100
C  35.18500 44.55100 31.73300
H  34.03900 52.17000 27.47900
H  34.75400 51.18000 21.12400
H  37.41000 45.46600 22.40000
H  34.87900 48.00000 29.88300
H  34.70000 50.76500 29.68100
H  32.29200 49.66100 28.31800
H  32.52600 50.74400 29.69200
H  32.64300 48.96100 29.86500
H  36.93000 50.35100 29.67400
H  37.48600 48.59000 29.57500
H  37.06600 50.14600 31.74900
H  37.33600 48.31500 31.78500
H  33.49900 53.74700 26.67700
H  32.90100 54.56100 25.21900
H  34.60000 54.79900 25.71800
H  32.99800 55.15100 23.27200
H  33.39600 55.60500 21.66900
H  34.65000 55.80100 22.96100
H  36.45800 49.65300 19.99700
H  36.39000 46.72100 20.28700
H  33.63900 48.75600 20.23600
H  34.44900 47.53900 19.25100
H  34.53700 49.36600 18.88800
H  38.34800 48.89600 20.10700
H  38.48200 47.19300 19.44400
H  39.19900 46.69300 21.96000
H  39.37100 48.36600 22.21400
H  40.34900 47.55700 20.95100
H  38.08700 42.86100 25.27200
H  39.05500 43.99300 24.26200
H  37.54200 43.23500 23.66900
H  37.35400 46.22500 29.32300
H  34.23600 44.15700 31.36800
H  34.92600 45.34600 32.43200
H  35.60300 43.71700 32.29700

