158

Mg 7.26500 3.13300 28.13200
C  8.55600 1.64400 31.03300
C  5.22500 5.09000 30.04900
C  5.66300 4.33500 25.27100
C  8.92700 0.81500 26.14300
N  6.96000 3.28000 30.24200
C  7.65700 2.70500 31.32400
C  7.51100 3.44200 32.64800
C  6.32700 4.44800 32.23300
C  6.12800 4.23500 30.73800
C  5.12800 4.19800 33.14600
C  8.85700 4.26200 33.01000
C  8.79300 4.92200 34.37900
H  9.58700 4.23700 35.49000
N  5.73100 4.62500 27.73800
C  4.94200 5.30600 28.66500
C  4.09300 6.23500 28.00100
C  4.30000 6.06600 26.61500
C  5.28300 4.93900 26.48800
C  3.21300 7.23500 28.74200
C  3.79900 6.84000 25.43600
O  4.23500 6.77300 24.29700
C  2.76100 7.83000 25.73900
N  7.07400 2.45100 26.07500
C  6.46000 3.18900 25.09300
C  6.64400 2.57900 23.76400
C  7.66500 1.39400 23.91300
C  7.91800 1.58500 25.46900
C  5.33100 2.15700 23.01200
C  8.99700 1.33400 23.19900
C  9.37000 -0.07600 22.67500
N  8.53600 1.52000 28.46300
C  9.06800 0.61900 27.57400
C  9.92900 -0.31000 28.33600
C  9.81400 0.11900 29.66300
C  8.90500 1.17000 29.67600
C  10.75100 -1.55100 27.79000
C  10.20900 -0.12700 31.00700
O  10.94600 -0.98000 31.52100
C  9.51300 0.95000 31.94900
C  8.84200 0.19700 32.98800
O  7.98500 -0.67900 32.84800
O  9.39100 0.56500 34.20300
C  8.60900 0.17700 35.35200
H  4.65800 5.72300 30.73500
H  5.05900 4.69400 24.43500
H  9.44200 0.17100 25.42700
H  7.24800 2.76600 33.46200
H  6.63600 5.46000 32.49400
H  5.37600 4.15700 34.20700
H  4.66800 3.24500 32.88500
H  4.46800 5.02900 32.89800
H  9.02800 4.92200 32.16000
H  9.64900 3.51400 32.98600
H  7.76500 5.05200 34.71800
H  9.37600 5.83500 34.25600
H  3.56200 8.26000 28.61600
H  3.09600 7.01900 29.80400
H  2.24000 7.11300 28.26500
H  3.16800 8.57500 26.42200
H  1.92900 7.29300 26.19400
H  2.39000 8.23600 24.79800
H  7.04400 3.40800 23.18000
H  7.13800 0.47600 23.65500
H  4.45800 2.63500 23.45700
H  5.06900 1.11100 22.85500
H  5.40600 2.63200 22.03400
H  9.81800 1.70300 23.81400
H  8.95000 1.94000 22.29400
H  9.37400 -0.01900 21.58700
H  8.71300 -0.82600 23.11600
H  10.29300 -0.45900 23.11100
H  10.34300 -1.58600 26.78000
H  10.37500 -2.38900 28.37600
H  11.83600 -1.44500 27.81900
H  10.33700 1.54100 32.34900
H  8.81800 -0.82900 35.71600
H  7.52600 0.18200 35.23500
H  8.92200 0.88100 36.12400
Mg 17.18700 50.42900 26.24800
C  19.07500 49.05100 28.85500
C  14.90100 51.47500 28.46900
C  15.64000 51.65800 23.64000
C  19.65200 48.96600 23.94200
N  17.08700 50.31500 28.40000
C  17.94900 49.80300 29.28900
C  17.55300 50.11500 30.77300
C  15.96700 50.26600 30.60800
C  15.89200 50.70000 29.11700
C  15.11600 49.13000 31.13300
C  18.15800 51.44900 31.26400
C  18.43300 51.37800 32.72900
H  17.49400 50.76600 33.63900
N  15.56800 51.52200 26.05200
C  14.75400 51.90500 27.08100
C  13.67600 52.78900 26.54300
C  13.95700 52.97900 25.15500
C  15.12200 52.01100 24.89100
C  12.63600 53.47900 27.48100
C  13.24200 53.86300 24.10600
O  13.58800 53.91500 22.92900
C  12.20800 54.90400 24.52200
N  17.55200 50.24300 24.12800
C  16.68800 50.82900 23.26500
C  16.93700 50.41900 21.78600
C  18.39800 49.92400 21.89600
C  18.50900 49.67300 23.40700
C  15.87300 49.40500 21.37800
C  19.41200 50.90600 21.29800
C  20.45000 50.23300 20.36500
N  18.99300 49.18900 26.29300
C  19.85900 48.71700 25.34200
C  20.91400 47.96100 25.99200
C  20.63400 48.06400 27.35000
C  19.50700 48.84400 27.49400
C  22.03300 47.21700 25.26600
C  21.07600 47.68000 28.67100
O  22.05700 46.96300 28.99200
C  20.05700 48.40700 29.76200
C  19.44000 47.35100 30.57100
O  18.40800 46.77400 30.25600
O  19.86000 47.35000 31.87700
C  19.14200 46.53000 32.90600
H  14.11600 51.89700 29.10000
H  14.90700 51.91100 22.87100
H  20.43300 48.60700 23.26900
H  17.82400 49.25800 31.38900
H  15.60300 51.17200 31.09200
H  14.21900 49.51700 31.61500
H  15.69800 48.55500 31.85400
H  14.82700 48.39300 30.38400
H  17.44800 52.25300 31.06900
H  19.10800 51.67100 30.77900
H  18.82800 52.36100 32.98700
H  19.41500 50.92200 32.84900
H  12.41900 54.51000 27.20400
H  12.88900 53.54300 28.54000
H  11.64500 53.04100 27.36800
H  11.86300 55.36500 23.59700
H  12.64200 55.58100 25.25700
H  11.37400 54.30500 24.88800
H  16.75200 51.25400 21.10900
H  18.43800 48.95400 21.39900
H  15.03800 49.93500 20.92000
H  15.51600 48.87400 22.26100
H  16.26400 48.54900 20.82800
H  19.85800 51.47200 22.11600
H  18.85500 51.59100 20.65900
H  21.40800 50.72200 20.53900
H  20.19300 50.69500 19.41100
H  20.51000 49.15300 20.23500
H  22.34900 47.62800 24.30700
H  21.73800 46.25800 24.84200
H  22.91500 47.03000 25.87900
H  20.69900 49.11600 30.28400
H  19.72700 45.70000 33.30000
H  18.15500 46.18000 32.60400
H  19.13100 47.13600 33.81200

