158

Mg 25.81200 0.77600 29.31200
C  27.73300 0.55500 32.15900
C  22.99100 0.99600 30.99300
C  24.01500 0.25600 26.32400
C  28.73300 0.08500 27.37900
N  25.40500 0.56100 31.34700
C  26.32000 0.64400 32.40100
C  25.59400 0.65500 33.76400
C  24.07900 0.77300 33.28700
C  24.14800 0.74700 31.77900
C  23.05300 -0.27000 33.81700
C  26.20500 2.02800 34.40200
C  25.29700 2.91300 35.19600
H  26.02500 3.40800 36.55300
N  23.78300 0.71800 28.73300
C  22.76400 0.84600 29.62400
C  21.46700 0.52900 28.98400
C  21.78200 0.26600 27.60300
C  23.18300 0.45900 27.49500
C  20.16700 0.46600 29.73600
C  20.86700 -0.03800 26.42100
O  21.22600 -0.36700 25.25600
C  19.36500 -0.06600 26.66200
N  26.30000 0.31800 27.11800
C  25.37700 0.12900 26.14900
C  25.99600 0.00100 24.72800
C  27.54800 0.13300 25.09000
C  27.57600 0.19800 26.62500
C  25.61800 -1.24900 23.81800
C  28.32400 1.24700 24.39000
C  28.27200 2.64000 24.99800
N  27.78600 0.43700 29.61000
C  28.85900 0.18400 28.77400
C  30.07600 0.02900 29.55700
C  29.65200 0.20600 30.89100
C  28.26600 0.38600 30.88400
C  31.40800 -0.34900 28.94600
C  30.15100 0.24900 32.21500
O  31.25800 0.05000 32.62400
C  28.93100 0.57300 33.09500
C  28.76200 -0.41600 34.29100
O  28.14600 -1.42500 34.31000
O  29.41100 0.17700 35.33900
C  29.35900 -0.59700 36.57900
H  22.12100 1.25800 31.59800
H  23.40900 0.34500 25.42000
H  29.63000 -0.16700 26.80900
H  25.77400 -0.23100 34.37300
H  23.63700 1.74700 33.49400
H  22.66200 -0.84900 32.97900
H  22.28600 0.41300 34.18400
H  23.58100 -0.82500 34.59200
H  26.49000 2.73200 33.62100
H  26.97400 1.74200 35.12000
H  24.51200 2.23000 35.52100
H  24.90900 3.68200 34.52800
H  20.24500 0.86000 30.74900
H  19.92500 -0.58100 29.91900
H  19.35300 0.93300 29.18200
H  18.88800 -0.24200 25.69800
H  19.04200 0.91700 27.00600
H  19.07200 -0.90900 27.28800
H  25.71300 0.88000 24.14800
H  27.93800 -0.82700 24.75300
H  26.35300 -2.05200 23.87500
H  25.47300 -0.92500 22.78700
H  24.65700 -1.65200 24.14000
H  28.04800 1.18000 23.33700
H  29.36800 0.93400 24.39700
H  27.38600 3.07300 24.53500
H  29.12300 3.31400 24.90000
H  28.04100 2.66800 26.06300
H  32.29200 0.28800 28.93700
H  31.24100 -0.90000 28.02000
H  31.73200 -1.24700 29.47200
H  29.07100 1.58000 33.48800
H  29.43700 -1.68400 36.57900
H  28.45000 -0.38100 37.14000
H  30.21500 -0.33100 37.19900
Mg 16.70800 53.12600 26.70800
C  18.36100 51.64400 29.22800
C  13.97600 53.82700 28.89600
C  14.98800 54.49900 24.18600
C  18.90300 51.69200 24.38500
N  16.21300 52.71300 28.79300
C  17.15800 52.30600 29.63100
C  16.75800 52.52000 31.11400
C  15.27500 52.97300 31.04100
C  15.10900 53.20600 29.51100
C  14.13900 51.99200 31.53900
C  17.72400 53.47200 31.91200
C  18.20000 53.11300 33.33400
H  17.24400 52.49700 34.34700
N  14.83900 54.06700 26.62600
C  13.88400 54.29000 27.61500
C  12.82500 55.12400 27.10400
C  13.20200 55.46900 25.78300
C  14.42800 54.67000 25.52700
C  11.51200 55.34800 27.78000
C  12.49300 56.38300 24.74300
O  12.93800 56.67700 23.58400
C  11.15400 56.99600 25.05200
N  16.76100 52.88000 24.50600
C  15.99700 53.68200 23.75000
C  16.26200 53.42300 22.26100
C  17.59900 52.56700 22.30600
C  17.85000 52.43800 23.80600
C  15.11800 52.63100 21.62400
C  18.83800 53.17700 21.56100
C  19.37800 54.42500 22.27000
N  18.27400 51.84200 26.67800
C  19.17300 51.46400 25.68600
C  20.23000 50.71100 26.36100
C  19.97600 50.76900 27.76700
C  18.81700 51.46700 27.89900
C  21.34700 50.17300 25.54700
C  20.44400 50.35500 29.04500
O  21.53200 49.82700 29.35200
C  19.40400 50.94800 30.04600
C  18.83900 49.78300 30.75200
O  18.23000 48.87400 30.27100
O  19.20400 49.81600 32.07100
C  18.78700 48.69000 32.96300
H  13.18600 54.13900 29.58200
H  14.56600 55.04300 23.33800
H  19.54900 51.17400 23.67200
H  16.82400 51.52600 31.55700
H  15.20600 53.93600 31.54700
H  13.68900 52.33700 32.47000
H  14.55000 51.01400 31.79000
H  13.43700 51.89600 30.71000
H  17.15600 54.40000 31.98100
H  18.55000 53.61400 31.21500
H  18.64900 54.02200 33.73300
H  19.01500 52.39000 33.35500
H  10.71300 55.17800 27.05900
H  11.39500 56.36500 28.15400
H  11.42200 54.68200 28.63900
H  10.98300 57.40500 26.04800
H  10.42500 56.22300 24.81000
H  11.00600 57.79300 24.32300
H  16.52700 54.32300 21.70700
H  17.30200 51.58500 21.93800
H  14.32800 52.33700 22.31400
H  15.41800 51.78300 21.00900
H  14.63900 53.32000 20.92900
H  18.51800 53.38100 20.54000
H  19.58200 52.38300 21.48500
H  19.57600 55.09600 21.43400
H  20.13700 54.24300 23.03100
H  18.56000 54.86400 22.84000
H  22.09000 49.75800 26.22800
H  21.89100 50.88600 24.92700
H  21.01700 49.42400 24.82800
H  19.83900 51.55000 30.84400
H  19.00500 49.11400 33.94300
H  19.36300 47.78500 32.77100
H  17.71900 48.46900 32.94100

