158

Mg -1.23200 17.26600 26.73000
C  -1.64400 15.09100 29.38600
C  -1.73800 19.93100 28.93600
C  -1.17100 19.36400 24.15700
C  -1.43000 14.65400 24.53900
N  -1.65700 17.44000 28.89300
C  -1.75500 16.41500 29.83200
C  -1.90200 16.96300 31.29400
C  -2.18900 18.48200 31.01900
C  -1.88000 18.67900 29.53100
C  -3.60200 19.02000 31.46500
C  -0.70900 16.68700 32.28600
C  -0.68300 17.60000 33.54900
H  -0.58400 16.95200 34.94000
N  -1.29500 19.31300 26.58400
C  -1.37300 20.25800 27.62400
C  -1.23100 21.52700 27.07600
C  -1.07100 21.43000 25.65100
C  -1.08000 19.97600 25.41600
C  -1.36200 22.80200 27.94200
C  -1.01000 22.58500 24.66800
O  -0.97500 22.41700 23.46700
C  -0.78200 24.02200 25.07600
N  -1.25700 17.11300 24.67700
C  -1.30500 18.10900 23.79700
C  -1.52500 17.64100 22.35500
C  -1.24100 16.07100 22.48300
C  -1.29100 15.91700 24.00300
C  -2.87500 17.96700 21.83600
C  0.15600 15.61900 22.01400
C  0.41900 15.81300 20.52300
N  -1.34100 15.28700 26.81900
C  -1.38100 14.36500 25.94400
C  -1.36700 13.04100 26.51800
C  -1.47200 13.24900 27.84800
C  -1.55000 14.67900 28.01500
C  -1.35900 11.84000 25.65400
C  -1.63600 12.61000 29.12200
O  -1.74800 11.40600 29.37800
C  -1.82500 13.79900 30.17100
C  -0.93200 13.43300 31.24500
O  0.25700 13.64500 31.34100
O  -1.69700 12.85300 32.28900
C  -0.80600 12.41500 33.43200
H  -1.98900 20.77700 29.58000
H  -1.13700 20.08500 23.33700
H  -1.41600 13.78400 23.87900
H  -2.83800 16.70600 31.79000
H  -1.55600 19.19800 31.54500
H  -3.94600 19.67900 30.66800
H  -3.43800 19.59800 32.37400
H  -4.38500 18.33100 31.78000
H  0.18300 16.85500 31.68200
H  -0.73100 15.68700 32.71700
H  -1.58200 18.20500 33.66600
H  0.18400 18.25800 33.48900
H  -2.28100 23.28400 27.60700
H  -0.47300 23.41000 27.77600
H  -1.35600 22.62900 29.01900
H  0.03500 24.15100 25.78500
H  -1.74700 24.33600 25.47300
H  -0.40300 24.47500 24.16000
H  -0.69700 18.11700 21.83100
H  -1.92100 15.37000 21.99900
H  -3.10200 18.95600 22.23400
H  -3.56500 17.14700 22.03600
H  -2.81200 18.11200 20.75700
H  0.31700 14.57200 22.27300
H  0.80100 16.31100 22.55500
H  0.62500 14.87900 19.99900
H  1.28000 16.44900 20.31800
H  -0.41900 16.26900 19.99500
H  -2.30900 11.78600 25.12100
H  -1.28900 11.03800 26.38800
H  -0.58800 11.65200 24.90600
H  -2.86100 13.60500 30.45000
H  -0.42700 13.21700 34.06600
H  0.04300 11.77300 33.20000
H  -1.47600 11.94700 34.15200
Mg 8.96300 3.18700 27.20500
C  10.17700 1.65300 30.08300
C  7.29800 5.42900 29.22600
C  7.77700 4.52600 24.43900
C  10.56300 0.69600 25.34500
N  8.67200 3.40200 29.51300
C  9.31800 2.73000 30.49700
C  9.05000 3.34600 31.90300
C  8.02700 4.49300 31.54800
C  7.98700 4.43300 30.01300
C  6.69500 4.51100 32.20300
C  10.44600 3.79900 32.50300
C  10.54700 4.58800 33.81800
H  11.22100 4.00200 35.03600
N  7.80800 4.82100 26.82700
C  7.14900 5.58300 27.80200
C  6.42500 6.56200 27.11600
C  6.62200 6.32500 25.73600
C  7.45900 5.20000 25.59000
C  5.80000 7.72600 27.77000
C  6.02700 7.20200 24.61400
O  6.20500 7.00400 23.42200
C  4.86600 8.16300 24.93700
N  9.21100 2.69400 25.15100
C  8.58300 3.41200 24.15000
C  8.74000 2.79800 22.74000
C  9.72700 1.63000 23.10100
C  9.84400 1.63900 24.62800
C  7.44000 2.22200 22.05600
C  11.11500 1.93100 22.51500
C  11.37100 1.70700 20.95400
N  10.00200 1.39300 27.59700
C  10.66500 0.53600 26.74800
C  11.40100 -0.40400 27.50700
C  11.12100 -0.08600 28.85800
C  10.31900 1.09300 28.85600
C  12.24200 -1.58400 27.03900
C  11.37100 -0.50200 30.16500
O  12.08700 -1.41800 30.59100
C  10.86700 0.68100 31.07100
C  10.03400 0.08500 32.12500
O  8.96600 -0.38900 32.08200
O  10.82300 0.06900 33.20600
C  10.07000 0.17500 34.44500
H  6.75300 6.20000 29.77500
H  7.29400 5.06100 23.61800
H  11.10000 -0.02000 24.71900
H  8.58500 2.51300 32.43000
H  8.49800 5.44600 31.79000
H  5.99000 5.03700 31.55900
H  6.79400 5.10400 33.11200
H  6.33400 3.56400 32.60400
H  10.86500 4.31200 31.63800
H  10.96300 2.84800 32.63700
H  9.52300 4.70800 34.17000
H  10.95000 5.58000 33.61600
H  6.26200 7.86700 28.74700
H  4.75900 7.45200 27.93900
H  5.93300 8.67200 27.24400
H  4.40200 8.32600 23.96500
H  5.50400 9.01700 25.16400
H  4.21500 7.87200 25.76200
H  9.17700 3.59100 22.13300
H  9.42200 0.65300 22.72500
H  7.25500 2.75600 21.12400
H  6.62300 2.29000 22.77400
H  7.51100 1.15200 21.86400
H  11.83200 1.37600 23.12100
H  11.35100 2.97200 22.73800
H  11.61300 2.62300 20.41500
H  10.51000 1.43000 20.34400
H  12.15300 0.97900 20.73800
H  13.04900 -1.86600 27.71600
H  12.56100 -1.25200 26.05100
H  11.53700 -2.41400 27.02400
H  11.75100 1.16000 31.49200
H  9.70100 1.20100 34.46300
H  10.62500 0.09400 35.38000
H  9.17800 -0.44700 34.52400

