158

Mg 6.91100 56.87600 41.37800
C  6.45200 53.27900 41.27900
C  9.91100 56.34700 39.70300
C  6.83300 60.03600 40.55600
C  3.66800 57.13800 42.80300
N  8.08800 55.00300 40.53200
C  7.70500 53.67700 40.65200
C  8.80500 52.81600 40.03300
C  10.06300 53.73000 40.02700
C  9.37000 55.12600 40.13700
C  10.93800 53.56400 41.26700
C  8.41000 52.33200 38.62600
C  8.63100 50.77400 38.28300
H  7.45800 50.10800 37.49500
N  8.22800 58.05800 40.36000
C  9.41600 57.64100 39.75700
C  10.03100 58.86200 39.21000
C  9.27900 59.95100 39.48700
C  7.99100 59.37800 40.09200
C  11.36700 58.80800 38.58800
C  9.59200 61.39500 39.25300
O  10.65900 61.65000 38.67100
C  8.77800 62.63900 39.70200
N  5.42900 58.31500 41.55500
C  5.71900 59.58500 41.23300
C  4.60200 60.54500 41.61800
C  3.54900 59.63900 42.29800
C  4.28000 58.30600 42.25300
C  4.88600 61.81000 42.47000
C  2.12000 59.59200 41.67800
C  0.95700 60.17200 42.57200
N  5.40900 55.46400 42.08900
C  4.22900 55.80800 42.74300
C  3.67000 54.54800 43.24900
C  4.47900 53.51100 42.67700
C  5.43400 54.14200 41.90900
C  2.47100 54.38300 44.10800
C  4.69700 52.06200 42.55200
O  4.13400 51.12700 43.08100
C  5.91200 51.89800 41.57100
C  5.43700 51.28000 40.31100
O  5.16300 51.85900 39.24400
O  5.38200 49.98800 40.56900
C  4.49600 49.17600 39.63800
H  10.89000 56.17900 39.24700
H  6.79800 61.12400 40.46500
H  2.73800 57.17000 43.37500
H  9.04600 51.96100 40.66500
H  10.63400 53.57900 39.11100
H  10.75000 54.18200 42.14400
H  11.90400 53.93000 40.91800
H  10.96300 52.50900 41.53900
H  8.99300 52.91300 37.91100
H  7.36000 52.55400 38.43500
H  8.94800 50.26300 39.19200
H  9.50700 50.71800 37.63700
H  11.91100 57.86300 38.59600
H  12.04600 59.42000 39.18300
H  11.34700 59.13800 37.55000
H  8.57500 62.39000 40.74400
H  7.82900 62.67700 39.16700
H  9.38700 63.53200 39.56400
H  4.30600 60.73900 40.58700
H  3.51200 59.92700 43.34900
H  4.75400 62.67100 41.81500
H  5.91000 61.69500 42.82500
H  4.17700 61.93600 43.28800
H  1.95400 58.52900 41.50400
H  2.21900 60.14000 40.74000
H  0.33300 60.86200 42.00300
H  1.34300 60.68200 43.45500
H  0.39800 59.32900 42.97700
H  1.56100 54.50100 43.51900
H  2.46200 54.96700 45.02800
H  2.46300 53.40300 44.58500
H  6.77800 51.34800 41.94000
H  3.48100 49.06300 40.02000
H  4.82900 48.13900 39.68100
H  4.42400 49.67700 38.67200
Mg -1.67000 34.45700 26.88600
C  -3.18100 32.72300 29.53000
C  -0.18200 36.48500 28.85500
C  -1.29600 36.60700 24.22100
C  -4.03200 32.60200 24.62000
N  -1.97800 34.77900 28.91900
C  -2.34700 33.83200 29.87700
C  -1.84800 34.13600 31.25300
C  -0.96200 35.37000 30.96100
C  -1.05200 35.60100 29.45800
C  -1.19800 36.59300 31.87000
C  -1.20400 32.94200 32.07600
C  -1.51400 32.99100 33.62700
H  -0.43300 32.69800 34.65500
N  -0.65300 36.20700 26.49800
C  0.00700 36.84800 27.50200
C  0.68900 37.95300 26.95100
C  0.37600 37.97200 25.53500
C  -0.54100 36.92300 25.35300
C  1.43800 39.04200 27.73100
C  0.90200 38.89600 24.46800
O  0.44600 38.90100 23.36100
C  1.87800 39.89000 24.76600
N  -2.58300 34.58600 24.75800
C  -2.31900 35.61700 23.97200
C  -3.02000 35.59800 22.52400
C  -3.81100 34.23500 22.61200
C  -3.43200 33.75600 24.05800
C  -4.01600 36.79200 22.41000
C  -3.27900 33.21200 21.49000
C  -1.68900 32.97300 21.42900
N  -3.13800 32.94100 26.97500
C  -3.93800 32.28200 26.03300
C  -4.72300 31.25000 26.66100
C  -4.39300 31.35100 28.05500
C  -3.54000 32.44600 28.16700
C  -5.64900 30.27300 25.99900
C  -4.73000 30.80800 29.38900
O  -5.48200 29.92400 29.74100
C  -3.86500 31.64700 30.42100
C  -4.73100 32.28300 31.37400
O  -5.60700 33.06900 31.06300
O  -4.55600 31.82300 32.63800
C  -5.45700 32.42600 33.62500
H  0.38500 37.05800 29.59100
H  -1.17900 37.21200 23.31900
H  -4.66300 32.03000 23.93700
H  -2.71400 34.49800 31.80700
H  0.01500 34.92400 31.15100
H  -1.99100 36.37500 32.58500
H  -1.48200 37.42500 31.22500
H  -0.28500 36.76800 32.43800
H  -0.11500 32.96400 32.11500
H  -1.47900 31.95300 31.70700
H  -2.25000 32.20400 33.78900
H  -1.83700 34.01000 33.83700
H  1.68100 38.73900 28.75000
H  0.93700 40.00600 27.64100
H  2.42600 39.12000 27.27800
H  2.37500 40.16700 23.83600
H  2.69800 39.42700 25.31400
H  1.47500 40.75900 25.28600
H  -2.31000 35.66300 21.70000
H  -4.89600 34.31700 22.67900
H  -5.04500 36.51900 22.17800
H  -3.60100 37.34800 21.56900
H  -3.98300 37.44700 23.28100
H  -3.75100 33.42400 20.53000
H  -3.59800 32.18600 21.67600
H  -1.46500 33.16900 20.38100
H  -1.22400 32.02700 21.70400
H  -1.18200 33.75300 21.99800
H  -5.46600 29.27700 26.40200
H  -5.61500 30.24200 24.91000
H  -6.64000 30.58100 26.33300
H  -3.29700 30.89900 30.97400
H  -5.96200 33.34400 33.32800
H  -4.75100 32.71600 34.40400
H  -6.15400 31.78600 34.16700

