158

Mg 26.98600 49.62500 25.71200
C  25.22200 50.87300 28.61700
C  29.52900 48.45900 27.91100
C  28.90400 48.99200 23.06800
C  24.73700 51.30500 23.70300
N  27.42100 49.87400 27.97700
C  26.44100 50.20600 28.95700
C  26.93600 49.81300 30.38400
C  28.47800 49.39000 30.15600
C  28.53200 49.23300 28.55800
C  29.51900 50.57200 30.54900
C  25.94800 48.83000 31.06400
C  25.48300 49.11000 32.52100
H  26.46900 49.51500 33.54700
N  28.78100 48.56900 25.53000
C  29.66300 48.15100 26.54700
C  30.85300 47.56700 25.91700
C  30.73200 47.83100 24.49400
C  29.44700 48.49800 24.31500
C  31.88200 46.78900 26.65300
C  31.69700 47.46200 23.40700
O  31.53500 47.77200 22.22700
C  32.96100 46.80500 23.67600
N  26.89000 50.20000 23.63700
C  27.76300 49.76000 22.75800
C  27.34700 50.03600 21.30400
C  25.91800 50.75100 21.59200
C  25.82100 50.72900 23.09200
C  28.29500 50.95300 20.56100
C  24.71600 50.10400 20.86800
C  24.23300 48.66200 21.18100
N  25.30000 50.83600 26.07500
C  24.50700 51.41600 25.10300
C  23.48400 52.09600 25.75400
C  23.65900 51.86800 27.08800
C  24.85100 51.18500 27.26400
C  22.26800 52.84000 25.17300
C  23.13400 52.08200 28.50200
O  22.07600 52.65100 28.77900
C  24.14300 51.38700 29.46700
C  24.49700 52.32500 30.57900
O  25.38200 53.10200 30.62800
O  23.67200 52.12100 31.61800
C  23.87200 53.07500 32.74700
H  30.23300 48.11600 28.67100
H  29.55200 48.80500 22.20900
H  24.06500 51.81900 23.01300
H  26.97900 50.74500 30.94700
H  28.80900 48.51500 30.71400
H  29.97400 51.02700 29.66800
H  30.34400 50.12900 31.10600
H  29.02200 51.35800 31.11800
H  26.27900 47.79100 31.03800
H  25.08800 48.90700 30.39800
H  25.10600 48.15100 32.87600
H  24.66700 49.82700 32.43400
H  32.11200 45.80200 26.25200
H  31.44800 46.64000 27.64200
H  32.82600 47.32700 26.74600
H  33.44500 47.38000 24.46500
H  33.55500 46.63800 22.77700
H  32.77100 45.86000 24.18600
H  27.19100 49.01800 20.94700
H  25.96600 51.82400 21.40600
H  28.50200 50.53400 19.57600
H  29.18900 51.20400 21.13300
H  27.92700 51.95100 20.32300
H  24.92800 50.04200 19.80100
H  23.95100 50.88100 20.85100
H  24.78100 47.92600 20.59300
H  23.21000 48.43400 20.88000
H  24.34300 48.39700 22.23300
H  22.56400 53.76500 24.68000
H  21.48900 52.99600 25.92000
H  21.74600 52.27700 24.39900
H  23.68900 50.52700 29.95900
H  24.58400 52.59300 33.41800
H  22.91700 53.07000 33.27200
H  24.27500 54.03500 32.42500
Mg 16.98200 51.68900 26.13000
C  19.20000 50.25100 28.57200
C  15.11900 52.93300 28.79600
C  15.01600 52.97200 23.88700
C  19.07300 50.23700 23.72800
N  17.08000 51.46900 28.42600
C  18.11700 50.91200 29.11700
C  17.92000 51.15100 30.64300
C  16.30800 51.57600 30.64600
C  16.13900 52.03600 29.17000
C  15.38900 50.44100 31.15800
C  18.79700 52.17200 31.26200
C  18.85800 52.22000 32.77400
H  17.59500 51.80800 33.64500
N  15.25500 52.77400 26.28500
C  14.68200 53.22100 27.46000
C  13.47500 53.99900 27.10900
C  13.37500 54.03400 25.67300
C  14.54600 53.23500 25.20000
C  12.62300 54.56400 28.23300
C  12.35100 54.70500 24.76800
O  12.36000 54.65400 23.53700
C  11.30300 55.58600 25.47600
N  16.96200 51.51800 24.07700
C  16.19100 52.30300 23.34600
C  16.39700 52.08600 21.83500
C  17.68000 51.29100 21.83600
C  17.94400 51.02700 23.29600
C  15.22700 51.36200 21.15000
C  18.90100 51.88200 21.10900
C  19.86300 50.90000 20.38700
N  18.86200 50.54300 26.11700
C  19.50600 49.98400 25.04200
C  20.60600 49.11900 25.51800
C  20.59400 49.31300 26.89300
C  19.46500 50.10600 27.18800
C  21.62000 48.37200 24.67700
C  21.24900 48.94200 28.10400
O  22.23400 48.22500 28.25500
C  20.42000 49.61900 29.27500
C  20.10900 48.53200 30.24800
O  19.30900 47.61900 30.02700
O  20.79500 48.79800 31.45700
C  20.33300 48.02100 32.61400
H  14.54500 53.30200 29.64900
H  14.51900 53.58700 23.13300
H  19.65300 49.68600 22.98400
H  17.99700 50.18300 31.13800
H  16.11700 52.43400 31.29000
H  14.61900 50.10300 30.46500
H  14.86500 50.82900 32.03100
H  15.94500 49.60900 31.59100
H  18.27400 53.10900 31.07200
H  19.74900 52.00300 30.75900
H  19.21200 53.18400 33.14000
H  19.56200 51.42000 33.00400
H  12.16500 55.51700 27.96500
H  13.03000 54.70800 29.23400
H  11.79700 53.85500 28.28100
H  10.75400 56.11900 24.69900
H  11.76600 56.39100 26.04600
H  10.60900 54.96700 26.04400
H  16.52300 53.09700 21.44900
H  17.55800 50.26000 21.50300
H  15.39800 50.38900 20.68900
H  14.96500 52.13000 20.42300
H  14.35800 51.25700 21.80000
H  19.48700 52.50400 21.78600
H  18.56300 52.55600 20.32200
H  19.58300 49.90900 20.74300
H  20.86700 51.20700 20.68000
H  19.72600 50.96800 19.30700
H  21.62200 48.69400 23.63600
H  21.61400 47.28200 24.65400
H  22.60500 48.59900 25.08600
H  21.05700 50.38700 29.71400
H  19.24900 48.02200 32.71900
H  20.81700 48.25900 33.56200
H  20.49900 46.95700 32.44500

