158

Mg 2.80400 -0.41100 43.73600
C  6.13500 0.00300 42.94200
C  2.09800 2.18200 41.64800
C  -0.43800 -1.45000 43.72800
C  3.73300 -3.25900 45.60200
N  3.99400 1.00400 42.56200
C  5.31500 0.96100 42.35000
C  5.83200 2.10000 41.48800
C  4.53200 3.01200 41.51400
C  3.43600 2.04100 41.94500
C  4.63200 4.21100 42.49900
C  6.20900 1.57400 40.04600
C  7.13100 2.55300 39.32400
H  6.74900 2.89500 37.87700
N  1.02900 0.35200 42.93400
C  0.96100 1.42500 42.04400
C  -0.34600 1.75700 41.64600
C  -1.15400 0.76300 42.30500
C  -0.18900 -0.23300 42.97100
C  -0.76000 2.94100 40.73500
C  -2.62300 0.64800 42.14100
O  -3.24400 1.30400 41.38400
C  -3.31500 -0.29300 42.97300
N  1.77200 -2.38700 44.25300
C  0.42400 -2.36400 44.33000
C  0.01200 -3.60900 45.11400
C  1.27200 -4.03900 45.91400
C  2.35100 -3.23000 45.24100
C  -1.26100 -3.44200 45.99800
C  1.54400 -5.50200 45.94000
C  1.50800 -6.24700 47.30600
N  4.59200 -1.42400 44.20700
C  4.80400 -2.55800 44.96600
C  6.30100 -2.76200 45.04500
C  6.84000 -1.73900 44.27400
C  5.75900 -1.02300 43.80600
C  6.94800 -3.77400 45.93200
C  8.08600 -1.14200 43.79900
O  9.24700 -1.33900 44.12600
C  7.66400 0.03100 42.84900
C  8.23400 1.26900 43.45800
O  7.79500 1.72700 44.52200
O  9.07900 1.88600 42.53400
C  9.35500 3.25300 43.01600
H  1.94600 3.00300 40.94500
H  -1.47200 -1.73400 43.93700
H  3.97100 -4.04300 46.32500
H  6.69600 2.63900 41.87800
H  4.47100 3.44200 40.51400
H  5.51400 4.18600 43.13900
H  3.73200 4.36700 43.09300
H  4.57500 5.07400 41.83500
H  5.36100 1.35600 39.39800
H  6.66400 0.58600 40.12600
H  8.19300 2.32300 39.23400
H  7.15800 3.45800 39.93100
H  -1.37700 3.58300 41.36300
H  -1.31700 2.62300 39.85400
H  0.06500 3.56900 40.39800
H  -4.38800 -0.16000 42.83400
H  -3.13900 -0.20800 44.04600
H  -2.93500 -1.25300 42.62400
H  -0.24200 -4.40600 44.41500
H  1.34100 -3.68800 46.94400
H  -2.14200 -3.85800 45.50800
H  -1.35100 -2.41000 46.33500
H  -1.07700 -3.99200 46.92100
H  2.50800 -5.68000 45.46300
H  0.82000 -5.97300 45.27600
H  1.23900 -5.62300 48.15800
H  2.43600 -6.78600 47.49700
H  0.76300 -7.03600 47.20400
H  8.03800 -3.77200 45.91000
H  6.63800 -4.79400 45.70600
H  6.63900 -3.55700 46.95500
H  8.13800 -0.20600 41.89600
H  9.68400 3.02000 44.02900
H  8.43000 3.82400 43.09700
H  10.16400 3.77500 42.50500
Mg 41.26500 7.29100 29.36500
C  43.14800 8.46500 32.06800
C  39.04800 5.98400 31.61100
C  39.45100 6.21300 26.77300
C  43.96400 7.97700 27.24800
N  41.11600 7.19700 31.59700
C  41.86400 7.88700 32.46500
C  41.22500 7.97100 33.82700
C  40.22200 6.77200 33.73600
C  40.13900 6.58200 32.24200
C  40.67900 5.42400 34.42400
C  40.68000 9.31200 34.14300
C  40.58700 9.68000 35.59800
H  41.53300 10.72200 36.30200
N  39.52200 6.27100 29.22400
C  38.71500 5.83400 30.21600
C  37.55600 5.18400 29.57700
C  37.54800 5.39100 28.20900
C  38.91600 5.95600 28.02200
C  36.55300 4.42200 30.50200
C  36.49800 5.06700 27.24400
O  36.58800 5.04100 26.04200
C  35.11000 4.85400 27.81400
N  41.71800 6.91600 27.33500
C  40.72100 6.62600 26.48800
C  41.10500 6.79700 24.98400
C  42.49600 7.45800 25.08200
C  42.84400 7.38500 26.66800
C  40.98300 5.55200 24.07400
C  42.58400 8.94600 24.48500
C  42.13600 10.12800 25.42100
N  43.18100 8.12800 29.55800
C  44.15600 8.29900 28.62700
C  45.26000 9.01700 29.21400
C  44.87600 9.14300 30.57900
C  43.63400 8.55300 30.76700
C  46.40100 9.64500 28.51800
C  45.29600 9.74100 31.84200
O  46.27000 10.39400 32.16000
C  44.10300 9.33800 32.80000
C  44.61700 8.66000 34.00300
O  44.44700 7.44400 34.28400
O  45.44200 9.48800 34.78800
C  45.88500 8.82300 36.01600
H  38.28800 5.58000 32.28300
H  38.73100 5.96900 25.98900
H  44.66800 8.19300 26.44200
H  42.05600 7.79700 34.51000
H  39.26400 7.06700 34.16400
H  40.11900 5.16700 35.32300
H  41.75000 5.56000 34.57700
H  40.60400 4.56800 33.75500
H  39.68900 9.45800 33.71400
H  41.30400 9.99300 33.56400
H  40.56500 8.77700 36.20800
H  39.58200 10.09900 35.66200
H  37.09300 4.06200 31.37800
H  36.08400 3.55700 30.03300
H  35.78500 5.13000 30.81500
H  35.16800 3.83200 28.18700
H  34.39300 5.06600 27.02100
H  34.97200 5.53400 28.65600
H  40.42400 7.50600 24.51200
H  43.30000 6.90200 24.59900
H  40.22400 4.83300 24.38100
H  41.96300 5.07500 24.07000
H  40.73200 5.89300 23.06900
H  41.97700 8.85800 23.58400
H  43.49400 9.15500 23.92400
H  41.85000 9.84400 26.43400
H  41.30400 10.56400 24.86700
H  42.91100 10.89500 25.44200
H  46.26600 10.14300 27.55800
H  47.18900 8.89300 28.48200
H  46.90900 10.38500 29.13700
H  43.68600 10.28800 33.13500
H  45.05300 8.63900 36.69600
H  46.56600 9.52600 36.49700
H  46.46900 7.92400 35.82200

