158

Mg 49.54700 34.74100 26.80900
C  47.44200 33.28200 29.28900
C  49.29500 37.65400 28.52300
C  51.05500 36.10800 24.28700
C  48.97600 31.86200 24.81400
N  48.60300 35.31400 28.86200
C  47.75400 34.55900 29.58800
C  47.25300 35.36300 30.85600
C  47.77400 36.86600 30.48100
C  48.60900 36.59900 29.22500
C  46.67800 37.89000 30.22000
C  47.76900 34.89700 32.24900
C  46.74100 34.98300 33.45300
H  47.26000 35.78500 34.63700
N  50.29700 36.46900 26.55900
C  50.10300 37.60000 27.34400
C  50.82700 38.77600 26.77900
C  51.49300 38.27200 25.59100
C  50.96700 36.89500 25.45900
C  50.91000 40.10900 27.45000
C  52.43900 38.98700 24.65600
O  52.69000 38.41500 23.60100
C  53.24100 40.25600 24.97300
N  49.98000 34.05500 24.86300
C  50.67300 34.80300 24.04000
C  50.98700 34.13500 22.68000
C  50.31100 32.75600 22.81800
C  49.68200 32.89200 24.22900
C  50.44800 35.03000 21.50600
C  51.20000 31.50900 22.50800
C  51.58200 31.27300 21.04500
N  48.57900 32.83000 26.97000
C  48.36800 31.76200 26.05200
C  47.61700 30.70200 26.66900
C  47.22500 31.28200 27.89700
C  47.80100 32.58300 28.04700
C  47.07800 29.31700 26.11600
C  46.32900 31.05200 29.04700
O  45.55600 30.13800 29.32000
C  46.46400 32.35700 29.99000
C  46.93500 31.81300 31.31800
O  48.07700 31.40900 31.53600
O  45.89000 31.74300 32.23100
C  46.22500 31.15700 33.58400
H  49.14000 38.66500 28.90600
H  51.63000 36.53900 23.46600
H  48.75000 30.98300 24.20600
H  46.16400 35.35300 30.81900
H  48.41600 37.30700 31.24300
H  46.87300 38.83800 30.72300
H  45.70000 37.68700 30.65600
H  46.60900 38.05900 29.14600
H  48.45400 35.61600 32.69800
H  48.17200 33.88500 32.21100
H  46.50800 34.03600 33.94000
H  45.80400 35.44500 33.14100
H  51.47300 40.02000 28.37900
H  49.89300 40.48800 27.54500
H  51.46000 40.85300 26.87300
H  52.76100 41.18300 24.65800
H  54.27000 40.22800 24.61600
H  53.36600 40.17100 26.05300
H  52.05900 33.94100 22.71900
H  49.49800 32.74000 22.09200
H  49.79000 34.44100 20.86600
H  51.23100 35.44600 20.87200
H  49.88600 35.80100 22.03300
H  50.66700 30.64900 22.91300
H  52.08800 31.68400 23.11600
H  51.04300 31.94600 20.37800
H  51.46800 30.25100 20.68500
H  52.63800 31.51400 20.92600
H  46.83600 28.63200 26.92900
H  47.97100 28.81600 25.74500
H  46.36400 29.39400 25.29600
H  45.50900 32.85900 30.14500
H  45.45600 31.04400 34.34900
H  46.90200 31.92500 33.95800
H  46.70100 30.19100 33.41900
Mg -5.24700 26.09200 25.78100
C  -4.11300 27.51300 28.74400
C  -7.33500 24.03000 27.69800
C  -6.51900 24.84900 22.97800
C  -3.03700 28.18500 24.01800
N  -5.49500 25.66500 27.93400
C  -4.98200 26.42700 28.98900
C  -5.37400 25.90600 30.38100
C  -6.09000 24.50300 29.98900
C  -6.35700 24.71600 28.46900
C  -5.32900 23.22000 30.23900
C  -6.43700 26.80800 31.05700
C  -6.55400 26.76600 32.61800
H  -5.78700 25.66000 33.38500
N  -6.60400 24.50500 25.39000
C  -7.40600 23.95700 26.27300
C  -8.36800 23.18200 25.52700
C  -8.19400 23.43200 24.19200
C  -7.05600 24.28600 24.12200
C  -9.50400 22.48200 26.27300
C  -9.07100 22.89000 23.02000
O  -8.75600 23.04900 21.80600
C  -10.22400 22.02300 23.21800
N  -4.83500 26.50700 23.77400
C  -5.46200 25.76200 22.81100
C  -4.78000 26.01500 21.44100
C  -3.89200 27.24500 21.76200
C  -3.89700 27.31600 23.27100
C  -4.10400 24.80300 20.85300
C  -4.40900 28.53000 21.09200
C  -3.38600 29.36100 20.30800
N  -3.81600 27.53100 26.26700
C  -3.05000 28.32400 25.41800
C  -2.28200 29.30400 26.25700
C  -2.68700 28.97500 27.58000
C  -3.63200 27.92600 27.53500
C  -1.27200 30.31200 25.85300
C  -2.46900 29.29500 28.96900
O  -1.68000 29.97000 29.59800
C  -3.50700 28.50600 29.71100
C  -2.91800 27.84400 30.96900
O  -2.13000 26.91100 31.01900
O  -3.08000 28.67100 32.07300
C  -2.25900 28.41700 33.27400
H  -8.02400 23.43800 28.30400
H  -7.01100 24.51400 22.06300
H  -2.30500 28.84400 23.54600
H  -4.47400 25.59300 30.91100
H  -7.02100 24.36800 30.54000
H  -6.00400 22.48000 30.67000
H  -4.46900 23.47100 30.85900
H  -4.94100 22.91800 29.26600
H  -7.40400 26.56700 30.61600
H  -6.23500 27.85700 30.84400
H  -7.60900 26.71500 32.88700
H  -6.19000 27.70100 33.04600
H  -9.38500 22.49800 27.35600
H  -9.64400 21.48200 25.86200
H  -10.42500 23.05000 26.14500
H  -10.94600 21.95800 22.40400
H  -10.84100 22.21800 24.09500
H  -9.74400 21.05500 23.36600
H  -5.65000 26.31000 20.85400
H  -2.88900 27.05100 21.38200
H  -4.29900 23.88300 21.40400
H  -3.01800 24.86900 20.91700
H  -4.30900 24.76900 19.78300
H  -4.93800 29.10300 21.85200
H  -5.23600 28.31700 20.41500
H  -3.43200 29.22400 19.22700
H  -2.38500 29.09100 20.64500
H  -3.59600 30.42200 20.43900
H  -1.70400 31.18900 25.37000
H  -0.46800 29.91000 25.23700
H  -0.76400 30.81000 26.67800
H  -4.31100 29.17300 30.02200
H  -1.22700 28.06600 33.25600
H  -2.84500 27.67600 33.81800
H  -2.43900 29.26800 33.93000

