158

Mg 1.53100 -1.67800 44.17100
C  4.67400 -0.55300 43.41100
C  0.14400 0.89500 42.59700
C  -1.43400 -3.47600 43.98200
C  3.06300 -4.70200 45.29100
N  2.32200 -0.19900 42.82800
C  3.59500 0.19200 42.88700
C  3.76700 1.63400 42.40100
C  2.25200 2.19500 42.54900
C  1.50900 0.87700 42.62000
C  2.06700 3.08900 43.81800
C  4.41300 1.70400 40.94300
C  5.79100 2.17200 40.76900
H  6.57800 1.57900 39.61400
N  -0.46800 -1.21800 43.57100
C  -0.81200 -0.08400 42.88600
C  -2.31500 -0.10300 42.70300
C  -2.73700 -1.33600 43.15700
C  -1.53900 -2.09000 43.55000
C  -3.05900 1.09700 42.34300
C  -4.20700 -1.83500 43.16200
O  -5.20000 -1.10800 42.93600
C  -4.54000 -3.32500 43.44100
N  0.95800 -3.76900 44.56500
C  -0.37900 -4.16400 44.49200
C  -0.52500 -5.64800 44.81900
C  0.89400 -5.97700 45.39100
C  1.74900 -4.75400 45.09800
C  -1.61200 -5.98800 45.85200
C  1.48100 -7.36300 44.87000
C  1.85400 -8.36400 46.00100
N  3.47200 -2.49600 44.36800
C  3.89600 -3.64600 44.97100
C  5.36200 -3.59000 45.12500
C  5.68100 -2.41700 44.46900
C  4.50300 -1.79100 44.02400
C  6.25400 -4.51000 45.77400
C  6.76300 -1.55300 44.11200
O  7.97400 -1.64500 44.31900
C  6.14100 -0.25200 43.49500
C  6.41200 0.89500 44.43300
O  5.56900 1.23300 45.23000
O  7.66500 1.54200 44.26900
C  7.79200 2.73100 45.12900
H  -0.35100 1.79900 42.23400
H  -2.34000 -4.08400 43.93000
H  3.56000 -5.60700 45.64400
H  4.38200 2.20500 43.09700
H  1.90500 2.70800 41.65200
H  1.40100 2.58200 44.51700
H  1.53500 3.94900 43.41000
H  2.95100 3.35600 44.39700
H  3.68400 2.24000 40.33500
H  4.48200 0.69900 40.52700
H  6.35100 2.08800 41.70000
H  5.71600 3.25000 40.62400
H  -4.14000 0.96200 42.36400
H  -2.84500 1.32000 41.29700
H  -2.86100 1.90300 43.04800
H  -4.32900 -3.51200 44.49400
H  -4.09800 -4.07200 42.78100
H  -5.60500 -3.54000 43.34400
H  -0.71700 -6.20900 43.90400
H  0.92400 -5.80200 46.46700
H  -2.31700 -5.16400 45.74100
H  -1.26500 -6.15900 46.87100
H  -2.20200 -6.82300 45.47400
H  2.32400 -7.19100 44.20100
H  0.71600 -7.86500 44.27700
H  2.94100 -8.42800 46.05700
H  1.56400 -9.38300 45.74800
H  1.42400 -7.98200 46.92700
H  5.82900 -5.00700 46.64500
H  7.07300 -3.83500 46.02500
H  6.53800 -5.25000 45.02500
H  6.60200 -0.07900 42.52200
H  8.25400 2.47000 46.08100
H  6.90900 3.27600 45.46300
H  8.43200 3.51200 44.71900
Mg 5.94300 52.94100 40.56700
C  5.88300 49.33400 40.12300
C  9.21200 52.93400 39.75100
C  5.67700 56.22200 40.31300
C  2.34700 52.67200 41.08900
N  7.29500 51.27400 39.82000
C  7.16800 49.87900 39.93500
C  8.56400 49.21500 39.86600
C  9.54300 50.42700 40.14500
C  8.63300 51.68900 39.99200
C  10.15000 50.49100 41.62400
C  8.86500 48.54300 38.48000
C  8.76100 49.47500 37.20200
H  7.65700 49.14900 36.23000
N  7.25500 54.39500 39.96700
C  8.56500 54.16100 39.65700
C  9.17100 55.40100 39.29600
C  8.17900 56.43900 39.54400
C  6.95500 55.75000 39.90400
C  10.52200 55.53800 38.67500
C  8.39000 57.85500 39.31800
O  9.47700 58.25500 38.91600
C  7.34300 58.91400 39.66900
N  4.20900 54.29000 40.77300
C  4.44000 55.62200 40.66800
C  3.12800 56.31200 40.84200
C  2.02900 55.20100 41.02000
C  2.87200 53.94100 40.97200
C  3.15200 57.43100 41.98900
C  0.85900 55.23100 39.97300
C  -0.54600 55.69000 40.53400
N  4.42600 51.42900 40.72100
C  3.03500 51.44900 40.86800
C  2.48200 50.08400 40.88200
C  3.58400 49.27900 40.58700
C  4.74200 50.07900 40.48900
C  0.95400 49.82000 40.99800
C  3.92300 47.83000 40.32800
O  3.20400 46.83400 40.47900
C  5.44100 47.86400 39.95000
C  5.53000 47.32000 38.64100
O  5.11400 47.87000 37.65300
O  6.19500 46.12100 38.61000
C  6.33100 45.55300 37.27800
H  10.29900 52.83300 39.70900
H  5.55700 57.30600 40.26400
H  1.27000 52.51100 41.17500
H  8.58300 48.41400 40.60500
H  10.48900 50.44000 39.60500
H  10.52100 49.57900 42.09200
H  9.46700 51.00600 42.30000
H  11.03500 51.12800 41.63700
H  8.11400 47.75300 38.49800
H  9.83900 48.05400 38.50500
H  9.74100 49.18400 36.82400
H  8.85100 50.53700 37.42800
H  10.46500 56.36000 37.96200
H  10.69100 54.59600 38.15300
H  11.25200 55.68300 39.47100
H  7.67900 59.93000 39.46400
H  7.09600 58.77900 40.72200
H  6.42600 58.69500 39.12200
H  3.04200 56.80100 39.87200
H  1.64900 55.26300 42.04000
H  3.59500 58.36900 41.65400
H  3.68700 57.00900 42.84000
H  2.19100 57.71200 42.42100
H  0.66700 54.25000 39.53900
H  1.13200 55.85500 39.12200
H  -0.43700 56.02200 41.56600
H  -1.20800 54.82500 40.49300
H  -0.81800 56.54900 39.92000
H  0.46800 49.93400 40.02900
H  0.47100 50.52900 41.67000
H  0.82700 48.85000 41.47700
H  5.90000 47.17600 40.66000
H  7.19100 45.96000 36.74600
H  5.51900 45.61000 36.55300
H  6.46100 44.50600 37.55000

