158

Mg 53.80500 25.09300 45.85300
C  51.18400 27.20000 44.68600
C  52.17900 22.39200 44.45900
C  56.78700 23.41500 45.64100
C  55.52200 28.09500 46.45800
N  51.91800 24.93700 44.73700
C  50.97600 25.89000 44.34300
C  49.82600 25.24000 43.62000
C  49.98200 23.72000 44.03000
C  51.54900 23.64700 44.39400
C  49.05900 23.34500 45.14200
C  49.87500 25.44200 42.08300
C  48.50400 25.37100 41.43500
H  48.34300 24.49600 40.13600
N  54.40800 23.12900 45.30500
C  53.51000 22.18600 44.80900
C  54.19800 20.90100 44.71700
C  55.57700 21.18300 44.96600
C  55.66100 22.64900 45.34300
C  53.53600 19.56700 44.33400
C  56.65800 20.05400 44.79200
O  56.28400 18.88000 44.61300
C  58.04600 20.35100 44.96200
N  55.90300 25.70600 45.86700
C  56.92100 24.73200 45.90800
C  58.21900 25.43200 46.35200
C  57.85300 26.96800 46.45700
C  56.34700 26.93900 46.30700
C  58.83500 24.78800 47.66100
C  58.70700 27.92900 45.59800
C  58.92500 29.40600 46.18800
N  53.47000 27.22500 45.80100
C  54.16100 28.33300 46.19400
C  53.30100 29.47700 46.27500
C  52.08100 29.05500 45.75800
C  52.31700 27.74500 45.32600
C  53.64200 30.80900 46.83400
C  50.75600 29.43600 45.40700
O  50.08300 30.44400 45.52700
C  50.15800 28.28000 44.60300
C  49.89500 28.77000 43.27100
O  50.68700 29.24000 42.41400
O  48.54800 28.57000 43.08700
C  47.98100 28.96600 41.77600
H  51.69700 21.53900 43.97700
H  57.76400 22.92700 45.63400
H  56.04200 28.94500 46.90600
H  48.87800 25.63100 43.98700
H  49.80500 23.00600 43.22500
H  49.57100 23.45700 46.09800
H  48.68400 22.32900 45.02100
H  48.17000 23.97300 45.20100
H  50.38800 24.56400 41.69000
H  50.29800 26.43700 41.94800
H  48.36800 26.40700 41.12300
H  47.76800 25.00200 42.14900
H  53.79200 19.06900 43.39800
H  52.44600 19.53500 44.32600
H  53.80900 18.79800 45.05600
H  58.57800 19.42800 44.73200
H  58.13600 20.59700 46.02000
H  58.34000 21.18300 44.32300
H  58.86400 25.34200 45.47800
H  58.16200 27.24600 47.46400
H  58.14800 23.98900 47.94000
H  58.98400 25.44600 48.51700
H  59.77300 24.37900 47.28600
H  58.30100 28.12400 44.60500
H  59.68000 27.52500 45.31900
H  59.11700 30.08500 45.35700
H  59.64700 29.27900 46.99500
H  57.99600 29.70200 46.67500
H  54.30300 30.86300 47.70000
H  52.68200 31.14900 47.22300
H  53.95900 31.46800 46.02600
H  49.17900 28.06200 45.02900
H  48.73300 29.09900 40.99800
H  47.49000 29.93600 41.85600
H  47.31300 28.23600 41.31800
Mg 6.09600 54.14100 41.39100
C  5.68100 50.73600 40.61700
C  9.18000 54.08200 40.07000
C  5.79000 57.47400 41.51000
C  2.54800 54.02500 42.66800
N  7.27200 52.55500 40.40700
C  6.88800 51.32100 40.20600
C  8.17600 50.45500 39.69600
C  9.34600 51.50800 39.81400
C  8.53100 52.81700 40.02800
C  10.53400 51.28000 40.88400
C  8.07500 49.82600 38.38600
C  7.78000 50.74500 37.15500
H  6.80200 50.09400 36.13800
N  7.35100 55.61200 40.94300
C  8.66000 55.37800 40.46000
C  9.29900 56.72000 40.34800
C  8.30300 57.68900 40.78900
C  7.06200 56.92900 41.04900
C  10.76700 57.01300 39.84400
C  8.52000 59.19700 40.91000
O  9.59200 59.64800 40.54000
C  7.58000 60.19900 41.47200
N  4.52100 55.55800 42.32400
C  4.65800 56.82100 41.96200
C  3.44100 57.64800 42.34300
C  2.47600 56.57400 42.93800
C  3.22900 55.28100 42.58500
C  3.78200 58.80300 43.36100
C  1.04400 56.65500 42.30300
C  -0.12300 56.38300 43.23500
N  4.45100 52.73600 41.68800
C  3.14800 52.79000 42.23400
C  2.68300 51.42900 42.47300
C  3.57200 50.59200 41.82700
C  4.61100 51.41500 41.31500
C  1.53800 50.99000 43.35200
C  3.90400 49.16900 41.55900
O  3.34800 48.13700 41.92600
C  5.20800 49.28400 40.63500
C  4.75600 48.73700 39.31700
O  3.96500 49.28300 38.54500
O  5.30200 47.45000 39.06100
C  4.75500 46.81400 37.87200
H  10.24700 54.12000 39.84000
H  5.66100 58.52500 41.24100
H  1.47800 54.11700 42.86500
H  8.49300 49.73600 40.45100
H  9.83200 51.56700 38.84000
H  10.32400 51.94800 41.71900
H  11.55300 51.44800 40.53500
H  10.46600 50.27600 41.30200
H  7.41000 48.96300 38.39200
H  9.05800 49.44400 38.10900
H  8.75100 51.00200 36.73000
H  7.35800 51.67100 37.54600
H  11.30100 56.08200 40.03900
H  11.28600 57.75900 40.44500
H  10.85500 57.22100 38.77800
H  8.14600 61.10000 41.70800
H  6.98300 59.90700 42.33600
H  6.82700 60.44900 40.72500
H  3.01400 58.11100 41.45300
H  2.46600 56.77400 44.01000
H  3.73800 59.75900 42.83900
H  4.72600 58.61100 43.87100
H  2.97400 58.79600 44.09300
H  0.91500 55.91700 41.51000
H  0.83100 57.61600 41.83600
H  -0.92000 57.12600 43.20400
H  0.04100 56.33000 44.31100
H  -0.51300 55.37700 43.08000
H  0.77500 51.73200 43.11300
H  1.76200 50.93100 44.41700
H  1.21100 50.00300 43.02300
H  5.94300 48.65700 41.14000
H  3.96500 46.08400 38.05100
H  5.60500 46.27300 37.45600
H  4.42100 47.51700 37.10900

