158

Mg -2.24600 17.34400 26.88900
C  -2.84300 15.29600 29.63300
C  -2.42000 20.02200 28.97200
C  -2.10400 19.32500 24.11600
C  -2.73500 14.57000 24.73300
N  -2.76400 17.62600 29.15000
C  -2.79400 16.63500 30.08100
C  -2.76500 17.22200 31.57800
C  -2.78700 18.79500 31.25600
C  -2.67100 18.86600 29.72900
C  -4.12700 19.47600 31.69000
C  -1.61700 16.77900 32.49400
C  -1.18400 17.63900 33.59800
H  -0.94500 16.81400 34.92800
N  -1.95500 19.28600 26.61300
C  -2.05600 20.22200 27.62900
C  -1.67400 21.54600 27.11600
C  -1.65100 21.36400 25.73500
C  -1.90400 19.89000 25.41700
C  -1.58200 22.77700 27.99500
C  -1.39800 22.51600 24.69300
O  -1.48300 22.39400 23.51300
C  -1.21000 23.82500 25.20700
N  -2.74900 17.03600 24.78300
C  -2.58100 18.07200 23.84200
C  -2.77700 17.46700 22.43800
C  -2.40900 15.99000 22.66500
C  -2.60400 15.81400 24.15500
C  -4.21800 17.67900 21.99100
C  -0.95200 15.58900 22.24100
C  0.14000 16.06900 23.13300
N  -2.68600 15.34600 27.07500
C  -2.83600 14.37800 26.14500
C  -3.05700 13.09300 26.78600
C  -3.04900 13.37400 28.19000
C  -2.82000 14.79100 28.30800
C  -3.30400 11.69800 26.19100
C  -3.25600 12.84400 29.53900
O  -3.40700 11.70200 29.97600
C  -3.09200 14.02200 30.50000
C  -1.90700 13.61000 31.33700
O  -0.71500 13.90300 31.19300
O  -2.43400 12.92700 32.40500
C  -1.48500 12.45700 33.39900
H  -2.36100 20.87200 29.65600
H  -2.10300 19.97700 23.24000
H  -2.79400 13.62500 24.18800
H  -3.64600 16.86800 32.11300
H  -2.06000 19.43000 31.76200
H  -3.88000 20.47600 32.04800
H  -4.60600 18.96800 32.52700
H  -4.78300 19.59500 30.82800
H  -0.79300 16.51400 31.83100
H  -2.07700 15.85000 32.83200
H  -1.84800 18.49100 33.74600
H  -0.28600 18.16000 33.26800
H  -1.40900 22.57800 29.05300
H  -2.42300 23.46000 27.88500
H  -0.63000 23.24300 27.73900
H  -0.24300 23.79000 25.70900
H  -2.02000 24.09100 25.88700
H  -1.13400 24.51200 24.36500
H  -2.04100 17.88800 21.75400
H  -3.10400 15.36600 22.10400
H  -4.82900 17.95100 22.85100
H  -4.51300 16.77100 21.46500
H  -4.24500 18.59800 21.40500
H  -0.89300 16.03700 21.25000
H  -0.92000 14.51900 22.03300
H  0.68700 15.19900 23.49800
H  -0.28900 16.58500 23.99100
H  0.73200 16.79100 22.57100
H  -2.36700 11.14700 26.27100
H  -3.66600 11.82200 25.17000
H  -4.10700 11.25500 26.78100
H  -4.00700 14.13500 31.08100
H  -1.12700 11.59700 32.83300
H  -1.97300 12.04800 34.28400
H  -0.72800 13.18500 33.69000
Mg 25.23600 1.33900 29.96700
C  27.62700 1.37900 32.59600
C  22.73500 1.62700 32.30900
C  23.08800 1.30100 27.41200
C  27.87800 0.63000 27.83500
N  25.18300 1.60000 32.15500
C  26.30000 1.53500 33.10800
C  25.76600 1.90200 34.53300
C  24.20800 2.04700 34.39300
C  23.98500 1.68900 32.85300
C  23.36500 1.06700 35.34400
C  26.42600 3.20900 35.07000
C  27.41900 3.04100 36.29400
H  27.16000 4.03000 37.38900
N  23.14900 1.38100 29.85300
C  22.32600 1.43500 30.93300
C  20.94400 1.49000 30.39200
C  21.04400 1.44700 28.96200
C  22.46700 1.34700 28.68700
C  19.65700 1.58200 31.20800
C  19.90800 1.28800 27.98000
O  20.04600 1.12100 26.78800
C  18.53100 1.46900 28.50300
N  25.41900 0.86900 27.97900
C  24.41700 1.03700 27.06400
C  24.94400 1.05700 25.65000
C  26.44700 0.87600 25.75600
C  26.61600 0.76900 27.25900
C  24.26700 -0.08700 24.76700
C  27.29600 1.91600 24.98600
C  27.42900 3.33200 25.74100
N  27.31900 0.94000 30.14000
C  28.21400 0.62300 29.19500
C  29.48200 0.36600 29.78200
C  29.35100 0.70800 31.13000
C  27.97200 1.08800 31.28700
C  30.74900 0.18300 28.95800
C  30.02900 0.79000 32.38700
O  31.19400 0.58400 32.70100
C  28.94800 1.23600 33.38800
C  28.89000 0.16600 34.44500
O  28.20000 -0.78600 34.39000
O  29.67900 0.56200 35.51100
C  29.60600 -0.26500 36.73800
H  21.93400 1.70100 33.04700
H  22.38100 1.46700 26.59700
H  28.72300 0.57300 27.14600
H  26.12300 1.13400 35.21900
H  23.78000 3.04500 34.48200
H  22.67400 1.55200 36.03400
H  24.04300 0.59800 36.05700
H  22.87000 0.31700 34.72700
H  25.71000 4.01100 35.24500
H  27.05500 3.65000 34.29700
H  28.43100 3.21900 35.92900
H  27.44400 2.04400 36.73200
H  20.00700 1.64300 32.23900
H  19.02900 0.69200 31.17100
H  19.03500 2.45800 31.02600
H  18.22600 0.68800 29.19900
H  17.78800 1.32300 27.71800
H  18.55300 2.49000 28.88500
H  24.70000 2.05000 25.27300
H  26.76000 -0.09700 25.37700
H  23.38700 -0.42600 25.31500
H  25.02500 -0.80600 24.46000
H  24.01600 0.39600 23.82300
H  26.75500 2.01300 24.04500
H  28.27700 1.51900 24.72300
H  28.46800 3.66000 25.76100
H  27.10100 3.25300 26.77800
H  26.77800 3.94500 25.11700
H  31.68300 0.38500 29.48100
H  30.56600 0.87000 28.13200
H  30.88900 -0.84300 28.61900
H  29.18000 2.17200 33.89800
H  29.67100 -1.33700 36.55400
H  28.58100 -0.10700 37.07500
H  30.28600 0.09400 37.51000

