158

Mg -0.40800 7.33500 25.65100
C  0.62900 9.03600 28.62000
C  -0.43200 4.31600 27.50700
C  -0.57800 5.56100 22.83900
C  0.79900 10.08100 23.83100
N  0.07200 6.77700 27.81900
C  0.25700 7.68900 28.84100
C  0.14600 6.96300 30.30300
C  0.14100 5.44200 29.78400
C  -0.08300 5.43300 28.30500
C  1.41700 4.73200 30.34900
C  -1.20300 7.29000 30.95000
C  -1.13600 7.62400 32.46400
H  0.14800 7.20600 33.25900
N  -0.65300 5.21900 25.26600
C  -0.68200 4.21100 26.15800
C  -1.12100 2.99900 25.42700
C  -1.22900 3.35400 24.05200
C  -0.71900 4.74000 24.03700
C  -1.38300 1.65500 26.13200
C  -1.68100 2.49600 22.82300
O  -1.88700 3.01700 21.73500
C  -1.91900 1.01300 22.93800
N  -0.02300 7.75300 23.72300
C  -0.24700 6.92600 22.69700
C  -0.06100 7.48100 21.27800
C  0.42400 8.86300 21.62800
C  0.44900 8.89000 23.13300
C  0.72500 6.66000 20.28100
C  -0.36800 9.98800 20.93200
C  -1.64700 10.35700 21.67000
N  0.48700 9.16800 26.04500
C  0.89600 10.22400 25.22000
C  1.40000 11.32000 25.99200
C  1.24600 10.86100 27.29200
C  0.80400 9.55200 27.30200
C  1.75700 12.66400 25.51500
C  1.40500 11.37900 28.61700
O  1.83500 12.49200 29.01600
C  0.85400 10.22900 29.58700
C  1.80100 9.91800 30.64300
O  2.89300 9.34300 30.50900
O  1.41500 10.63400 31.70000
C  2.27900 10.62700 32.87000
H  -0.36700 3.42100 28.12800
H  -0.86300 5.05900 21.91200
H  1.15300 10.92400 23.23400
H  1.02800 7.18200 30.90600
H  -0.68400 4.82900 30.14700
H  1.83600 4.13700 29.53800
H  1.02400 4.14400 31.17800
H  2.13700 5.41300 30.80300
H  -1.79900 6.38300 30.84700
H  -1.64300 8.16700 30.47400
H  -1.93400 6.93600 32.74700
H  -1.31800 8.69400 32.56500
H  -2.44600 1.48500 25.95800
H  -1.07000 1.47400 27.16000
H  -0.82700 0.89700 25.57900
H  -1.00100 0.60500 23.36100
H  -1.94900 0.51900 21.96600
H  -2.77500 0.90700 23.60400
H  -1.01300 7.60500 20.76100
H  1.42400 9.03100 21.23000
H  -0.13000 6.15300 19.83400
H  1.53900 6.03800 20.65200
H  1.16200 7.24300 19.47100
H  -0.68400 9.84700 19.89900
H  0.31900 10.81600 20.75800
H  -2.46700 10.53000 20.97300
H  -1.57300 11.31200 22.19000
H  -1.96900 9.50300 22.26700
H  1.19600 12.89200 24.60800
H  2.80100 12.89400 25.30300
H  1.41000 13.33200 26.30300
H  -0.12600 10.51300 29.96900
H  1.74200 11.14000 33.66800
H  3.17800 11.19100 32.62300
H  2.66300 9.64200 33.13800
Mg 35.85300 1.06100 29.53400
C  33.70200 2.27000 32.19400
C  38.48700 1.50400 31.70600
C  37.97000 0.39000 27.03000
C  33.24600 1.66400 27.31500
N  36.03500 1.88200 31.75100
C  35.05500 2.18700 32.64900
C  35.64900 2.24700 34.04900
C  37.20500 2.31000 33.79000
C  37.25800 1.90500 32.29600
C  37.87100 3.69200 34.08700
C  35.18300 1.04800 34.97100
C  35.23100 1.32000 36.53000
H  36.29100 2.27400 37.11800
N  37.92500 0.86600 29.40300
C  38.82300 1.02500 30.44100
C  40.08500 0.52300 29.95900
C  39.99000 0.18400 28.56000
C  38.60800 0.57700 28.26300
C  41.23100 0.25500 30.92800
C  41.09100 -0.29300 27.50900
O  40.79100 -0.39300 26.31500
C  42.45400 -0.57200 27.98900
N  35.63400 1.07200 27.59200
C  36.58700 0.57400 26.64500
C  36.01600 0.48100 25.18900
C  34.59400 0.56500 25.47800
C  34.47600 1.23000 26.86200
C  36.61200 1.55500 24.22800
C  33.80700 -0.76200 25.33700
C  32.65500 -0.82500 24.36900
N  33.87100 1.62900 29.71900
C  32.97900 1.94900 28.69500
C  31.68200 2.34900 29.26100
C  31.90000 2.44300 30.62500
C  33.23100 2.04600 30.84900
C  30.40600 2.45400 28.50900
C  31.24500 2.67100 31.88800
O  30.10500 3.04400 32.11300
C  32.42000 2.50400 33.00100
C  32.41800 3.68200 33.89200
O  32.36600 4.85700 33.47600
O  32.47600 3.29300 35.18300
C  32.88800 4.35900 36.08200
H  39.27200 1.41000 32.46000
H  38.53500 0.17300 26.12100
H  32.39000 1.69100 26.63800
H  35.25600 3.20600 34.38600
H  37.60600 1.55900 34.47100
H  37.08900 4.45100 34.05700
H  38.53600 3.83200 33.23500
H  38.32600 3.64000 35.07700
H  35.62100 0.09300 34.67800
H  34.12600 0.86900 34.77800
H  35.19700 0.34200 37.01000
H  34.28500 1.82400 36.72800
H  41.37600 -0.82500 30.95100
H  40.85700 0.39400 31.94200
H  42.08400 0.89300 30.69400
H  42.43700 -1.41000 28.68600
H  42.94700 0.33200 28.34700
H  42.91900 -1.01000 27.10700
H  36.25300 -0.49900 24.77400
H  34.19500 1.27500 24.75500
H  37.61000 1.86300 24.53700
H  35.85700 2.33400 24.12000
H  36.72600 1.04400 23.27200
H  33.40100 -0.95800 26.32900
H  34.44300 -1.63700 25.20700
H  31.74600 -0.70400 24.95800
H  32.71400 -1.76900 23.82600
H  32.58400 -0.01400 23.64400
H  30.42500 1.58100 27.85700
H  30.32300 3.32800 27.86300
H  29.59200 2.48200 29.23400
H  32.14400 1.62500 33.58300
H  32.03000 5.01400 36.23300
H  33.62400 5.02500 35.63100
H  33.39100 3.92300 36.94500

