158

Mg -1.26300 17.47700 26.89100
C  -1.61800 15.22200 29.76000
C  -1.75000 20.06900 29.02300
C  -1.72800 19.48400 24.17500
C  -1.66500 14.64000 24.84600
N  -1.71800 17.60500 29.19500
C  -1.69300 16.60800 30.16100
C  -1.91400 17.20600 31.60700
C  -2.18400 18.72000 31.26400
C  -1.87500 18.83000 29.74300
C  -3.67500 19.04100 31.53100
C  -0.69600 16.98000 32.50400
C  -0.51000 17.66900 33.82600
H  -0.89400 16.96300 35.13700
N  -1.37500 19.48800 26.63900
C  -1.54000 20.38300 27.64400
C  -1.54300 21.70200 27.02400
C  -1.47900 21.54100 25.60200
C  -1.55600 20.12300 25.42600
C  -1.69800 22.93100 27.91200
C  -1.30400 22.55500 24.54000
O  -1.27000 22.32800 23.33500
C  -1.19700 24.01300 24.92300
N  -1.72800 17.11100 24.85000
C  -1.71700 18.11600 23.90300
C  -1.95800 17.53500 22.57200
C  -1.70600 16.03800 22.81300
C  -1.69000 15.88900 24.29700
C  -3.35800 17.97700 22.00100
C  -0.34700 15.49000 22.22600
C  0.98700 16.14200 22.75300
N  -1.49100 15.37700 27.20800
C  -1.56900 14.36500 26.24100
C  -1.51200 13.04400 26.92000
C  -1.56300 13.36800 28.26500
C  -1.47300 14.73400 28.37400
C  -1.58400 11.67400 26.20500
C  -1.61800 12.75100 29.58500
O  -1.73100 11.60300 29.88400
C  -1.73200 13.96500 30.63500
C  -0.71000 13.67000 31.62100
O  0.48700 14.00100 31.71900
O  -1.34900 12.76000 32.41400
C  -0.73100 12.06800 33.52500
H  -1.83400 20.85200 29.78000
H  -2.02600 20.00100 23.26000
H  -1.55300 13.84800 24.10300
H  -2.74000 16.56500 31.91400
H  -1.52400 19.44200 31.74500
H  -3.94200 19.65200 30.66900
H  -3.80300 19.50800 32.50800
H  -4.36600 18.20000 31.47400
H  0.20900 17.15400 31.92100
H  -0.70700 15.92200 32.76500
H  -1.19600 18.49600 33.64300
H  0.44200 18.19800 33.86300
H  -2.04000 22.81100 28.94100
H  -2.38300 23.57100 27.35600
H  -0.72300 23.41100 27.99000
H  -0.29400 23.99700 25.53400
H  -2.04500 24.41700 25.47500
H  -0.95800 24.61800 24.04800
H  -1.15400 17.85400 21.90900
H  -2.53300 15.43400 22.44000
H  -3.64100 18.92700 22.45300
H  -4.00700 17.17200 22.34400
H  -3.27000 18.09800 20.92100
H  -0.42300 15.73000 21.16500
H  -0.31800 14.40100 22.25000
H  1.42500 16.71800 21.93800
H  1.69700 15.40200 23.12200
H  0.73000 16.78400 23.59500
H  -0.62200 11.34100 25.81500
H  -2.32100 11.63400 25.40300
H  -1.94300 10.94200 26.92900
H  -2.70200 13.99500 31.13300
H  -0.87700 12.65500 34.43200
H  0.34900 11.96400 33.42200
H  -1.20300 11.11600 33.76700
Mg 1.80400 8.20300 26.29200
C  2.36400 10.31800 28.91700
C  2.92200 5.42100 28.41000
C  1.64600 6.15000 23.60700
C  1.63600 10.94800 24.19700
N  2.54400 7.92800 28.36600
C  2.48500 8.91600 29.33000
C  2.65000 8.33200 30.73900
C  3.04100 6.89600 30.51600
C  2.91900 6.75600 29.00000
C  4.35600 6.41700 31.14900
C  1.42600 8.62300 31.66600
C  1.62700 8.68800 33.20000
H  2.86400 7.90600 33.84600
N  2.19100 6.11500 26.00400
C  2.57800 5.15800 27.01900
C  2.63200 3.87800 26.37900
C  2.22200 3.94800 25.01600
C  1.93800 5.40100 24.82300
C  3.15200 2.63900 27.10300
C  2.02000 2.91000 23.99200
O  1.70100 3.14000 22.81500
C  2.17900 1.41800 24.32400
N  1.67100 8.53900 24.22700
C  1.64400 7.54600 23.32500
C  1.66900 8.05600 21.85200
C  1.39800 9.58600 22.12800
C  1.61500 9.72500 23.61500
C  2.98200 7.74600 21.00600
C  -0.00300 10.13700 21.56100
C  0.09400 11.24500 20.55200
N  1.86200 10.18700 26.49300
C  1.86900 11.19600 25.55300
C  1.97400 12.47000 26.14700
C  2.11100 12.18100 27.54800
C  2.16900 10.78900 27.62900
C  2.08900 13.79900 25.52700
C  2.40700 12.71200 28.85300
O  2.58400 13.84800 29.25700
C  2.31300 11.53300 29.77900
C  3.34500 11.60100 30.81900
O  4.57600 11.48700 30.55900
O  2.82000 11.57400 32.09600
C  3.93200 11.47400 33.12500
H  3.15200 4.61200 29.10700
H  1.82500 5.61700 22.67100
H  1.51400 11.71600 23.43000
H  3.46700 8.81300 31.27800
H  2.18600 6.37100 30.94100
H  4.95500 6.03500 30.32200
H  4.18000 5.57100 31.81300
H  4.89400 7.20800 31.67200
H  0.61900 7.92600 31.43700
H  0.90000 9.50100 31.29100
H  0.75600 8.10200 33.49400
H  1.53800 9.67700 33.64900
H  2.29300 2.09500 27.49600
H  3.69500 3.11400 27.92000
H  3.74700 1.97700 26.47500
H  1.52500 1.18000 25.16300
H  3.24000 1.18600 24.41000
H  1.94700 0.82700 23.43800
H  0.87200 7.55400 21.30400
H  2.27600 10.14000 21.79500
H  2.84400 7.29900 20.02100
H  3.61000 7.14600 21.66500
H  3.47200 8.70900 20.86100
H  -0.52900 10.57000 22.41200
H  -0.65600 9.34700 21.18900
H  -0.59500 10.99500 19.74500
H  1.11100 11.51700 20.26800
H  -0.38600 12.13600 20.95600
H  1.99800 13.64200 24.45300
H  3.02000 14.32000 25.74700
H  1.22100 14.34900 25.89300
H  1.35300 11.47400 30.29100
H  4.48100 10.54600 32.96700
H  3.49200 11.47200 34.12200
H  4.58200 12.34900 33.16400

