158

Mg 49.41100 34.89300 26.62400
C  47.32300 33.53800 29.30500
C  50.09700 37.59400 28.66600
C  50.90900 36.26700 24.07000
C  48.76500 31.92600 24.95100
N  48.77900 35.44800 28.73700
C  48.00800 34.71200 29.65700
C  47.99300 35.46100 30.98600
C  48.47100 36.87600 30.58100
C  49.14300 36.64900 29.21000
C  47.37300 38.01600 30.76400
C  48.99700 34.84700 32.00100
C  48.65900 34.99900 33.51200
H  47.43500 35.90000 33.82200
N  50.38500 36.66600 26.32800
C  50.60100 37.65700 27.33800
C  51.34300 38.75000 26.79400
C  51.62500 38.36000 25.45000
C  50.99400 37.01700 25.26800
C  51.72600 40.02000 27.56500
C  52.56100 39.06100 24.34700
O  52.75900 38.57200 23.22200
C  53.32900 40.31400 24.70900
N  49.82400 34.21700 24.79600
C  50.43800 34.98800 23.86900
C  50.63000 34.26200 22.53100
C  50.02800 32.82900 22.77400
C  49.50700 33.01000 24.31100
C  49.95600 35.03500 21.37200
C  50.92200 31.60800 22.75300
C  50.64200 30.75900 21.54300
N  48.31000 33.06900 26.94800
C  48.17000 31.96300 26.20800
C  47.20500 31.03500 26.78500
C  46.85100 31.67600 27.95400
C  47.59000 32.90700 28.08300
C  46.57300 29.74500 26.17700
C  45.93000 31.53900 29.04600
O  45.06500 30.68200 29.18200
C  46.19800 32.80300 29.98000
C  46.41300 32.24000 31.39600
O  47.36800 31.67800 31.77400
O  45.28100 32.43100 32.13200
C  45.03200 31.75600 33.41300
H  50.26700 38.45800 29.31200
H  51.36500 36.62300 23.14400
H  48.65800 31.06600 24.28600
H  46.95400 35.50100 31.31100
H  49.30800 37.14300 31.22700
H  47.59000 38.72700 31.56100
H  46.39200 37.56800 30.92200
H  47.18800 38.68300 29.92200
H  49.96000 35.34900 31.91600
H  49.16300 33.77000 31.98900
H  49.50400 35.38800 34.07900
H  48.27200 34.02000 33.79600
H  50.99600 40.19800 28.35500
H  51.49500 40.83300 26.87700
H  52.79100 40.04400 27.79500
H  52.79200 41.21000 24.39800
H  54.33100 40.21900 24.28900
H  53.44900 40.16000 25.78100
H  51.68200 34.13000 22.27700
H  49.19100 32.74700 22.08100
H  50.09800 34.52100 20.42100
H  50.33900 36.05500 21.35600
H  48.87200 35.04100 21.48100
H  50.87400 31.07300 23.70200
H  51.95900 31.93500 22.68200
H  51.41800 30.94500 20.80000
H  49.62000 30.88900 21.18800
H  50.90700 29.75200 21.86300
H  47.03000 28.94500 26.76000
H  46.85500 29.73700 25.12400
H  45.50000 29.61000 26.31300
H  45.38300 33.51200 30.12900
H  45.02900 32.52500 34.18600
H  45.80300 31.02400 33.65300
H  44.11200 31.17100 33.44100
Mg 36.04200 48.59800 24.83600
C  36.04500 46.67500 27.85700
C  34.14200 50.84000 26.47600
C  35.10100 49.93100 21.84000
C  37.13200 45.78800 23.18500
N  35.08500 48.63700 26.95800
C  35.34900 47.88900 28.01700
C  35.05300 48.68300 29.32000
C  34.25000 49.88300 28.76700
C  34.56100 49.82900 27.33000
C  32.69200 49.94600 29.18500
C  36.35000 49.13600 30.02700
C  36.29600 49.64900 31.54300
H  34.96900 49.64700 32.36100
N  34.99700 50.37200 24.22900
C  34.33900 51.14200 25.06300
C  33.83800 52.35900 24.37200
C  34.18400 52.05800 23.02300
C  34.71400 50.69200 22.96700
C  33.00500 53.49900 24.92600
C  34.15300 52.97300 21.83500
O  34.58600 52.60400 20.73700
C  33.68600 54.43300 22.02700
N  35.92500 47.92200 22.87600
C  35.57400 48.66000 21.85400
C  35.72800 47.91100 20.41400
C  36.52800 46.69800 20.87100
C  36.55500 46.76600 22.42400
C  34.31600 47.58000 19.82400
C  37.96100 46.65000 20.22800
C  38.89900 47.83900 20.57400
N  36.47700 46.59500 25.37600
C  37.08000 45.65000 24.59700
C  37.41100 44.51400 25.42200
C  37.09300 44.90100 26.76500
C  36.54300 46.19400 26.61700
C  37.97400 43.20400 24.99300
C  36.99700 44.53900 28.13300
O  37.22100 43.45000 28.64700
C  36.49900 45.77800 28.96600
C  35.54700 45.34600 30.07300
O  34.54800 44.71200 29.90600
O  36.04600 45.89300 31.20600
C  35.15000 45.61000 32.39900
H  33.44900 51.58500 26.87200
H  34.89300 50.36000 20.85800
H  37.47900 44.87500 22.69700
H  34.48500 48.08900 30.03500
H  34.55900 50.85500 29.15100
H  32.47700 49.10000 29.83700
H  32.06600 49.85500 28.29700
H  32.52300 50.90900 29.66600
H  36.78700 49.89000 29.37200
H  37.11800 48.36900 30.13000
H  36.55300 50.70800 31.52300
H  37.12400 49.21600 32.10500
H  33.56400 54.42700 25.04200
H  32.71000 53.30400 25.95700
H  32.10400 53.53400 24.31300
H  33.75600 54.96100 21.07500
H  34.46300 54.78600 22.70500
H  32.69000 54.44300 22.46800
H  36.28400 48.49400 19.67900
H  36.08500 45.74600 20.58000
H  34.33400 46.51100 19.61300
H  34.11300 48.12500 18.90200
H  33.58700 47.82100 20.59700
H  37.97500 46.58700 19.14000
H  38.48900 45.76200 20.57700
H  38.89300 48.51500 19.71900
H  39.88100 47.37500 20.67500
H  38.70300 48.49700 21.42000
H  38.57100 43.42900 24.10900
H  37.13600 42.58300 24.67900
H  38.63900 42.88800 25.79700
H  37.39100 46.09200 29.50800
H  35.22200 44.65100 32.91300
H  34.12500 45.70000 32.04100
H  35.34300 46.36800 33.15700

