158

Mg 48.10700 34.08800 26.86500
C  46.06600 32.90500 29.41100
C  48.75100 36.89200 28.78000
C  49.59600 35.59600 24.17100
C  47.26100 31.34600 24.87300
N  47.54000 34.75200 28.85300
C  46.75200 34.08600 29.75300
C  47.01400 34.76900 31.19500
C  47.35700 36.20400 30.74400
C  47.96100 35.95300 29.39400
C  46.31400 37.42600 30.84600
C  48.13100 34.06400 32.13000
C  47.99200 33.98800 33.67600
H  47.08700 35.00700 34.48200
N  49.07600 35.95900 26.51800
C  49.23500 36.90700 27.47200
C  50.08000 37.94400 26.93400
C  50.32500 37.62600 25.56400
C  49.67500 36.33900 25.33600
C  50.55700 39.19600 27.71800
C  50.97200 38.56300 24.54500
O  51.02100 38.26100 23.37700
C  51.66300 39.84600 24.90000
N  48.28800 33.59300 24.85800
C  48.92300 34.40500 23.93100
C  48.88100 33.70500 22.57200
C  48.65000 32.16700 22.90600
C  48.07100 32.30600 24.31000
C  47.79700 34.36400 21.61000
C  49.97800 31.32900 22.89300
C  50.91500 31.54800 24.08800
N  46.90900 32.42300 27.02500
C  46.70800 31.38400 26.18700
C  45.85600 30.43100 26.81000
C  45.64700 30.94800 28.12800
C  46.31000 32.17000 28.17700
C  45.40300 29.14900 26.15900
C  44.95400 30.71900 29.42500
O  44.31200 29.75800 29.86600
C  45.13700 32.13100 30.23300
C  45.51200 31.82000 31.58000
O  46.39100 31.03700 31.88200
O  44.68400 32.49500 32.42000
C  44.77800 32.02100 33.81800
H  48.96900 37.81800 29.31600
H  50.12300 36.07900 23.34600
H  47.22800 30.39300 24.34200
H  46.14900 34.76700 31.85800
H  48.19300 36.64100 31.29000
H  46.49600 38.02800 31.73600
H  45.29700 37.03500 30.79600
H  46.44200 37.98900 29.92200
H  49.08400 34.56300 31.95000
H  48.16700 33.06500 31.69700
H  48.97800 33.97800 34.13900
H  47.68200 32.96500 33.89100
H  51.62500 38.98000 27.69700
H  50.24300 39.12800 28.75900
H  50.24600 40.16700 27.33300
H  52.25100 39.66900 25.80000
H  50.87600 40.60000 24.91200
H  52.38200 40.02300 24.10000
H  49.90800 33.89800 22.26400
H  47.95600 31.63600 22.25400
H  47.27200 35.21000 22.05400
H  47.13300 33.60000 21.20600
H  48.30500 34.75400 20.72800
H  50.44700 31.58300 21.94200
H  49.71200 30.27300 22.91100
H  50.61600 31.10000 25.03600
H  51.15000 32.59900 24.25700
H  51.91600 31.16900 23.87900
H  46.02500 28.88600 25.30300
H  44.37200 29.14400 25.80600
H  45.58600 28.35700 26.88600
H  44.10500 32.47600 30.28100
H  45.76200 32.13900 34.27200
H  44.43900 30.99500 33.96200
H  44.15800 32.70000 34.40300
Mg -1.58500 34.51100 26.70800
C  -3.28900 32.54300 28.99800
C  -0.85100 36.66500 29.24600
C  -0.14600 36.69400 24.45600
C  -2.76700 32.56500 24.23200
N  -2.18300 34.63400 28.90600
C  -2.76100 33.66200 29.63900
C  -2.59800 33.89700 31.14100
C  -1.84900 35.27600 31.22900
C  -1.59700 35.56300 29.69200
C  -2.60100 36.49100 31.93600
C  -1.68900 32.75300 31.80800
C  -2.16900 32.30200 33.23200
H  -1.13000 32.44500 34.38600
N  -0.47400 36.37400 26.88900
C  -0.31800 37.08400 28.00900
C  0.50000 38.25900 27.67600
C  0.75000 38.26900 26.30100
C  0.08000 37.07200 25.83300
C  1.03400 39.23800 28.74400
C  1.40300 39.42700 25.37900
O  1.25500 39.43700 24.14200
C  2.05100 40.60600 26.04400
N  -1.49300 34.73500 24.62600
C  -0.77100 35.60200 23.90300
C  -0.92600 35.34900 22.44600
C  -1.58300 33.94600 22.36300
C  -2.02800 33.73700 23.82400
C  -1.81900 36.48200 21.75400
C  -0.61400 32.81400 21.85800
C  0.61800 32.32300 22.69800
N  -2.86800 32.89300 26.58000
C  -3.27700 32.20000 25.49900
C  -4.10200 31.09000 25.76400
C  -4.08300 31.11600 27.18600
C  -3.35600 32.24100 27.62300
C  -4.70300 30.25300 24.79300
C  -4.56600 30.44500 28.37400
O  -5.23700 29.45800 28.58500
C  -4.05400 31.29200 29.59600
C  -5.15700 31.56800 30.63400
O  -6.11500 32.26500 30.39500
O  -4.83800 31.07700 31.86100
C  -5.86900 31.38000 32.83600
H  -0.57000 37.29500 30.09300
H  0.35200 37.28200 23.68200
H  -2.99600 31.73700 23.55800
H  -3.55700 33.95300 31.65600
H  -0.92100 35.19200 31.79500
H  -3.25000 36.83400 31.13000
H  -1.93400 37.23200 32.37700
H  -3.11700 36.10800 32.81600
H  -0.67100 33.13300 31.90100
H  -1.63500 31.88400 31.15200
H  -2.48800 31.28700 32.99400
H  -3.08800 32.80800 33.52800
H  0.67000 40.22500 28.46000
H  2.12200 39.19500 28.80500
H  0.61900 39.02000 29.72800
H  1.15800 41.13800 26.36900
H  2.51800 41.15100 25.22400
H  2.67500 40.22500 26.85200
H  0.01800 35.38100 21.90200
H  -2.52500 33.81200 21.83000
H  -1.27100 37.17800 21.11900
H  -2.28700 37.18900 22.44000
H  -2.58100 35.98100 21.15700
H  -0.37800 33.16900 20.85500
H  -1.24900 31.98200 21.55500
H  0.34400 31.35300 23.11400
H  0.88600 32.87000 23.60200
H  1.46600 32.22800 22.02000
H  -5.59200 29.79300 25.22300
H  -3.90600 29.55500 24.53700
H  -4.85000 30.88100 23.91400
H  -3.29400 30.72000 30.12900
H  -6.53400 30.52800 32.70000
H  -6.39700 32.32600 32.71900
H  -5.41200 31.35400 33.82600

