158

Mg 9.21500 4.56400 27.26700
C  10.54100 2.94500 30.00600
C  6.88200 6.04000 29.54300
C  7.51500 5.90600 24.74100
C  10.83700 2.31300 25.13200
N  8.64200 4.39600 29.53400
C  9.52600 3.86000 30.42100
C  9.10600 4.22600 31.85200
C  7.85700 5.06900 31.61600
C  7.76000 5.14900 30.15200
C  6.55900 4.76000 32.45000
C  10.21300 4.95200 32.61900
C  9.85600 5.38000 34.06100
H  10.70200 4.81100 35.23300
N  7.56100 5.93400 27.11200
C  6.74900 6.37200 28.16900
C  5.82200 7.31900 27.64300
C  6.07300 7.41600 26.29900
C  7.08700 6.37300 25.98900
C  4.71900 8.09300 28.52900
C  5.51400 8.38700 25.29900
O  5.82000 8.26300 24.12600
C  4.50800 9.40200 25.77500
N  9.12600 4.09100 25.28800
C  8.38900 4.90000 24.40400
C  8.73200 4.67600 22.93200
C  9.93800 3.62400 23.08300
C  10.04600 3.30500 24.53000
C  7.61300 4.34100 21.92500
C  11.27300 4.25800 22.72300
C  11.56300 5.62600 23.33400
N  10.50100 3.02000 27.41700
C  11.10300 2.15200 26.49300
C  11.92900 1.19800 27.15000
C  11.71800 1.55100 28.52700
C  10.83900 2.56800 28.66600
C  12.94700 0.20200 26.59000
C  12.19100 1.17300 29.78700
O  12.94200 0.25800 30.11800
C  11.38400 2.01800 30.84500
C  10.56900 1.07600 31.67500
O  9.36600 0.73400 31.50700
O  11.35000 0.65600 32.73200
C  10.58300 0.14500 33.92100
H  6.09000 6.46800 30.16100
H  6.99900 6.30900 23.86600
H  11.37000 1.54800 24.56400
H  8.86900 3.32200 32.41300
H  8.04500 6.08800 31.95500
H  5.77600 4.24400 31.89400
H  6.09200 5.68400 32.79000
H  6.88800 4.15500 33.29500
H  10.56300 5.79500 32.02400
H  11.03100 4.23300 32.57900
H  8.81700 5.22000 34.35000
H  10.04300 6.44800 33.94900
H  4.55500 7.47600 29.41200
H  3.74300 8.12600 28.04500
H  5.01400 9.10300 28.81300
H  4.17100 10.08400 24.99500
H  4.98900 10.02200 26.53200
H  3.59500 8.99600 26.21000
H  9.13800 5.59700 22.51300
H  9.71400 2.74500 22.47900
H  7.77300 3.43700 21.33800
H  7.46800 5.19600 21.26400
H  6.69600 4.10600 22.46500
H  11.32800 4.42900 21.64800
H  12.06800 3.55800 22.98100
H  10.75400 5.96200 23.98300
H  11.65800 6.40000 22.57200
H  12.45500 5.69400 23.95600
H  13.33800 0.29100 25.57700
H  12.52800 -0.79400 26.73700
H  13.82600 0.30500 27.22500
H  12.10500 2.48100 31.51900
H  11.30900 0.02900 34.72700
H  9.99700 -0.74700 33.70000
H  9.93700 1.00100 34.11500
Mg 25.81700 1.26400 29.21100
C  27.75700 0.76300 32.10400
C  23.07200 1.82500 31.18200
C  23.82500 1.10800 26.38400
C  28.59800 0.40300 27.37300
N  25.37400 1.09200 31.41800
C  26.37200 1.06200 32.35300
C  25.70300 1.36800 33.79200
C  24.20700 1.67100 33.52100
C  24.25000 1.57700 31.91900
C  23.20900 0.72000 34.09900
C  26.44600 2.45700 34.59300
C  26.87400 2.17800 36.05400
H  26.58500 3.26000 37.10200
N  23.74700 1.57300 28.78800
C  22.80600 1.75900 29.76600
C  21.49200 1.99700 29.09900
C  21.73600 1.80600 27.69100
C  23.14800 1.48400 27.56300
C  20.18600 2.24500 29.76900
C  20.76500 1.99600 26.54800
O  21.09500 1.95000 25.34700
C  19.37900 2.26100 26.81200
N  26.18300 0.76000 27.16800
C  25.17700 0.74400 26.23800
C  25.73400 0.50400 24.85700
C  27.30900 0.55400 25.07600
C  27.43700 0.61400 26.62800
C  25.11700 -0.67900 24.09000
C  27.99700 1.75200 24.28500
C  28.67200 1.46600 22.97400
N  27.76600 0.63200 29.61900
C  28.84100 0.36300 28.73300
C  29.97900 0.05000 29.53500
C  29.60300 0.20100 30.89200
C  28.24400 0.55400 30.85500
C  31.28200 -0.18500 28.92900
C  30.05700 0.13700 32.24200
O  31.07100 -0.26900 32.75600
C  28.87600 0.58100 33.13500
C  28.61900 -0.40700 34.23500
O  27.96700 -1.40200 34.15700
O  29.30100 0.00100 35.38900
C  28.98900 -0.74200 36.56400
H  22.20900 2.16600 31.75800
H  23.30900 1.31100 25.44300
H  29.44200 0.20800 26.70800
H  25.82400 0.40700 34.29200
H  23.92900 2.72100 33.61100
H  22.33000 1.35600 34.20100
H  23.53500 0.23200 35.01700
H  22.83200 -0.06100 33.43900
H  25.94100 3.42000 34.66900
H  27.37500 2.65000 34.05700
H  27.92700 1.91500 36.14800
H  26.32100 1.27600 36.31700
H  19.90300 3.26000 29.49000
H  20.38500 2.25100 30.84100
H  19.34500 1.60400 29.50600
H  18.85800 1.38700 27.20300
H  18.94000 2.52700 25.85100
H  19.11400 3.11700 27.43200
H  25.40700 1.40800 24.34300
H  27.81200 -0.36100 24.76100
H  25.85500 -1.45200 23.87000
H  24.79200 -0.43500 23.07900
H  24.27100 -1.23500 24.49400
H  28.79200 2.06500 24.96200
H  27.33700 2.59700 24.08800
H  28.41700 0.50100 22.53400
H  29.73100 1.62800 23.17700
H  28.26800 2.15100 22.22900
H  31.50300 0.39300 28.03100
H  31.40000 -1.22700 28.63000
H  32.03500 0.07200 29.67300
H  29.21100 1.49500 33.62600
H  29.54000 -0.30800 37.39800
H  29.16400 -1.81600 36.49400
H  27.94900 -0.68800 36.88700

