158

Mg 8.98900 2.84500 27.62700
C  10.58800 1.26100 30.25700
C  7.30600 4.74100 29.80200
C  6.86300 3.68900 25.03900
C  9.94300 0.05200 25.58200
N  8.79800 2.81900 29.81400
C  9.69600 2.28600 30.67600
C  9.71400 2.89700 32.12000
C  8.58900 3.89300 31.88700
C  8.24700 3.86500 30.38400
C  7.30900 3.64300 32.74700
C  11.06200 3.57100 32.47100
C  11.70300 3.19300 33.78100
H  10.75700 2.91200 34.94100
N  7.44300 4.11900 27.41300
C  6.93100 4.85800 28.47300
C  5.98400 5.86000 27.95900
C  5.81300 5.52500 26.53200
C  6.74100 4.41500 26.26100
C  5.38400 6.94600 28.84500
C  4.97700 6.36000 25.51100
O  4.88400 6.09900 24.32000
C  4.08300 7.48300 25.99200
N  8.54100 2.00100 25.56200
C  7.69400 2.59300 24.70800
C  7.64000 1.87100 23.32500
C  8.68600 0.72100 23.55000
C  9.13600 0.95300 25.01100
C  6.31600 1.29100 22.89000
C  9.79400 0.65500 22.54700
C  10.12600 -0.68600 21.84000
N  10.21300 1.16400 27.78900
C  10.55900 0.14400 26.87500
C  11.57500 -0.73500 27.49000
C  11.64100 -0.27700 28.84000
C  10.76200 0.77800 28.94900
C  12.26900 -1.79500 26.79200
C  12.29000 -0.52900 30.09200
O  13.21500 -1.27900 30.36000
C  11.52200 0.43600 31.12400
C  10.80700 -0.39900 32.11600
O  9.74700 -0.91500 31.99600
O  11.70700 -0.52700 33.18400
C  11.12300 -1.22900 34.35800
H  6.78300 5.37200 30.52300
H  6.21000 4.12900 24.28200
H  10.19000 -0.79500 24.93900
H  9.53300 2.11900 32.86000
H  8.87900 4.91500 32.13200
H  7.41900 2.61900 33.10400
H  6.41600 3.56200 32.12700
H  7.14300 4.37200 33.54000
H  10.96700 4.65300 32.56700
H  11.73500 3.32100 31.65100
H  12.43000 3.92700 34.12900
H  12.34100 2.31800 33.65700
H  5.45000 6.82100 29.92600
H  4.31300 6.89700 28.65200
H  5.79100 7.92100 28.57400
H  3.22200 7.12300 26.55600
H  3.81400 8.10200 25.13700
H  4.65800 8.14800 26.63600
H  7.92100 2.62900 22.59500
H  8.21700 -0.25800 23.64600
H  6.16600 0.21200 22.93800
H  6.16400 1.50300 21.83200
H  5.43200 1.69700 23.38200
H  10.67400 1.02400 23.07400
H  9.73400 1.36300 21.72100
H  9.67200 -0.70200 20.84900
H  9.75700 -1.57500 22.35300
H  11.21000 -0.76500 21.76100
H  12.17600 -1.64800 25.71500
H  11.86900 -2.72900 27.18600
H  13.30500 -1.72100 27.12100
H  12.22000 1.08500 31.65300
H  11.82700 -1.08300 35.17800
H  10.99900 -2.28600 34.12200
H  10.12100 -0.89400 34.62600
Mg 17.47400 -2.16600 27.18200
C  16.47800 -0.06700 29.76300
C  19.33400 -3.95800 29.41300
C  18.59700 -4.00400 24.56700
C  15.64500 -0.08900 24.97900
N  17.93300 -1.87500 29.28300
C  17.32800 -1.06300 30.19100
C  17.82100 -1.27200 31.56300
C  18.88400 -2.37900 31.37500
C  18.79000 -2.77300 29.91100
C  20.39500 -2.03500 31.70500
C  16.73700 -1.55800 32.67500
C  16.66800 -0.64500 33.95400
H  18.03700 -0.07400 34.39100
N  18.75800 -3.76600 26.99600
C  19.38000 -4.39700 28.00800
C  20.09200 -5.52700 27.55000
C  19.91300 -5.66300 26.11500
C  19.14300 -4.38800 25.77600
C  20.94500 -6.41700 28.41200
C  20.18100 -6.80500 25.13100
O  19.76500 -6.75100 23.96600
C  20.97100 -7.99500 25.54300
N  17.32200 -2.00300 25.04900
C  17.84000 -2.88300 24.21300
C  17.62000 -2.51500 22.77700
C  16.64500 -1.27900 22.89600
C  16.47100 -1.08500 24.41000
C  18.92900 -2.25800 21.92100
C  15.30300 -1.54800 22.13300
C  14.54000 -0.42100 21.56700
N  16.24000 -0.47100 27.26000
C  15.49600 0.17700 26.31800
C  14.61500 1.08500 26.98400
C  15.00800 1.09400 28.36100
C  15.93700 0.08500 28.46100
C  13.59500 1.96100 26.24300
C  14.79300 1.69300 29.64900
O  14.05000 2.65700 29.90300
C  15.72500 0.93200 30.62400
C  16.52000 1.92400 31.24200
O  17.56300 2.34500 30.71300
O  15.87400 2.42600 32.36100
C  16.56000 3.45800 33.18300
H  19.91400 -4.50300 30.16100
H  18.84900 -4.52600 23.64100
H  14.96900 0.51500 24.37000
H  18.26100 -0.31400 31.83900
H  18.55500 -3.26500 31.91800
H  20.83600 -2.87900 32.23500
H  20.51900 -1.19800 32.39200
H  21.02800 -1.85300 30.83700
H  17.02200 -2.53100 33.07700
H  15.71600 -1.48600 32.30200
H  16.32900 -1.23700 34.80400
H  15.92900 0.14400 33.81300
H  21.16200 -7.44900 28.13900
H  20.53600 -6.55000 29.41300
H  21.90900 -5.91900 28.51900
H  22.01200 -7.81200 25.81100
H  21.06800 -8.68200 24.70200
H  20.42100 -8.60400 26.26100
H  17.16900 -3.44700 22.43600
H  17.23000 -0.42400 22.55900
H  19.69200 -1.74700 22.50700
H  18.75900 -1.57200 21.09100
H  19.31500 -3.18700 21.50200
H  14.65300 -2.12700 22.79000
H  15.49200 -2.22700 21.30200
H  13.52700 -0.32700 21.95900
H  14.58400 -0.49800 20.48000
H  15.14800 0.48100 21.63200
H  12.82200 2.29000 26.93700
H  13.11700 1.39600 25.44300
H  13.93100 2.87000 25.74500
H  15.15000 0.46500 31.42300
H  16.20900 4.48900 33.14000
H  17.62300 3.39600 32.94700
H  16.31700 3.10300 34.18500

