158

Mg 35.29800 1.60700 29.19900
C  33.25200 2.64300 31.78200
C  37.94800 2.11400 31.27700
C  37.25900 0.82600 26.64500
C  32.56300 1.85800 27.08200
N  35.50700 2.20100 31.28900
C  34.55300 2.45500 32.19600
C  35.02900 2.44500 33.64500
C  36.49700 2.38200 33.41200
C  36.71100 2.29900 31.90500
C  37.32600 3.61100 33.99900
C  34.44000 1.36000 34.53500
C  34.02200 1.78300 35.96100
H  34.75500 2.95900 36.61200
N  37.35100 1.39200 29.03900
C  38.22900 1.76000 29.94500
C  39.57400 1.61800 29.41900
C  39.42400 1.09700 28.03700
C  37.98100 1.04700 27.85100
C  40.78400 1.89500 30.31300
C  40.48200 0.71800 27.03800
O  40.12300 0.43000 25.90900
C  41.89300 0.69500 27.43100
N  34.87800 1.28800 27.25200
C  35.81800 0.92000 26.35700
C  35.27300 0.56900 24.96700
C  33.74000 0.77300 25.15700
C  33.76700 1.39900 26.53000
C  35.80900 1.42400 23.81600
C  32.92600 -0.53400 24.95800
C  33.08000 -1.24400 23.51700
N  33.32600 2.13100 29.31100
C  32.35500 2.25000 28.40100
C  31.11200 2.78300 28.93900
C  31.43300 2.93000 30.26300
C  32.78000 2.50200 30.43900
C  29.83300 2.96500 28.25400
C  30.87300 3.30800 31.58000
O  29.78900 3.64200 31.92300
C  32.02000 3.00000 32.58900
C  32.19100 4.27500 33.38200
O  32.76900 5.33100 33.01500
O  31.50000 4.19800 34.55700
C  31.31100 5.48600 35.18800
H  38.83000 2.20500 31.91300
H  37.82500 0.53600 25.75700
H  31.79300 1.98100 26.31700
H  34.89600 3.46100 34.01700
H  36.96300 1.49600 33.84400
H  36.69200 4.28300 34.57800
H  37.75000 4.27900 33.24900
H  38.14700 3.31100 34.65000
H  35.04600 0.46200 34.65700
H  33.46500 1.04400 34.16400
H  34.13700 0.97000 36.67900
H  32.96400 2.04400 35.93300
H  41.78000 1.64100 29.95000
H  40.71100 1.38400 31.27300
H  40.77500 2.98000 30.41600
H  42.29500 1.69200 27.61100
H  42.43700 0.43200 26.52300
H  42.08800 0.06300 28.29700
H  35.49000 -0.46100 24.68500
H  33.37900 1.57300 24.51100
H  35.06200 1.94000 23.21300
H  36.43800 0.77700 23.20500
H  36.48500 2.18300 24.20800
H  31.87100 -0.27500 25.04600
H  33.36300 -1.21600 25.68800
H  32.34200 -1.03700 22.74100
H  33.13400 -2.28700 23.82900
H  34.07400 -1.07500 23.10400
H  29.04700 3.06800 29.00200
H  29.70700 2.15600 27.53400
H  29.83500 3.83400 27.59500
H  31.67600 2.17300 33.20900
H  32.30200 5.91900 35.32500
H  30.87800 5.34400 36.17800
H  30.71100 6.21400 34.64200
Mg 0.18700 42.87800 26.74300
C  2.39700 42.92700 29.45200
C  -2.32800 42.26800 29.01500
C  -1.87800 42.38900 24.12900
C  2.86300 43.15200 24.56600
N  0.02800 42.58100 29.00800
C  1.09300 42.74600 29.84400
C  0.63600 42.74700 31.27000
C  -0.88400 42.29700 31.20300
C  -1.09000 42.37100 29.66300
C  -1.07600 40.79600 31.61600
C  0.69900 44.20900 31.94500
C  1.08900 44.34200 33.38400
H  0.94300 43.19900 34.33500
N  -1.86600 42.28100 26.58100
C  -2.74800 42.28600 27.69200
C  -4.12400 42.11300 27.15300
C  -3.95700 42.14700 25.70900
C  -2.51300 42.27700 25.38400
C  -5.23200 41.87300 28.11600
C  -5.01500 42.04300 24.60400
O  -4.83600 42.05600 23.37700
C  -6.46700 41.95900 25.06200
N  0.43000 42.74900 24.66000
C  -0.54500 42.54500 23.78100
C  -0.04400 42.47000 22.23400
C  1.35700 43.27600 22.47600
C  1.59500 43.06200 24.00700
C  -0.01400 41.09200 21.59100
C  1.21800 44.78500 22.06300
C  1.27400 45.92500 23.12700
N  2.19200 43.03000 26.89900
C  3.18400 43.11700 25.93200
C  4.47500 43.14800 26.55800
C  4.22200 43.09500 27.93200
C  2.83500 42.98100 28.13000
C  5.86300 43.29700 25.84300
C  4.87800 43.03700 29.22100
O  6.04400 42.98200 29.62400
C  3.59800 43.00700 30.23600
C  3.85900 41.86100 31.12100
O  3.79900 40.70000 30.75700
O  4.12600 42.30500 32.41800
C  4.63200 41.34800 33.43100
H  -3.13800 42.33100 29.74500
H  -2.58200 42.32500 23.29700
H  3.67400 43.35400 23.86200
H  1.20300 42.04800 31.88500
H  -1.51300 42.96000 31.79600
H  -1.40700 40.24800 30.73500
H  -1.87800 40.74700 32.35200
H  -0.26300 40.25600 32.10200
H  -0.20100 44.74300 31.64000
H  1.46900 44.78200 31.42900
H  0.42800 45.10400 33.79800
H  2.13200 44.64600 33.48100
H  -4.97000 40.91800 28.57000
H  -6.20400 41.68000 27.66300
H  -5.36200 42.52700 28.97800
H  -6.39600 41.09900 25.72800
H  -7.25700 41.76300 24.33700
H  -6.70500 42.75900 25.76200
H  -0.74600 43.05600 21.64100
H  2.17600 42.90400 21.86000
H  -0.41300 40.30200 22.22700
H  1.01600 40.81200 21.37300
H  -0.50400 41.03700 20.61800
H  0.42200 44.94100 21.33400
H  2.09300 44.99700 21.44800
H  0.39700 46.54100 22.92800
H  2.15300 46.55200 22.98200
H  1.11100 45.48600 24.11100
H  5.73300 42.87000 24.84800
H  6.55800 42.73300 26.46500
H  6.22000 44.32100 25.72900
H  3.56000 43.91200 30.84200
H  5.21100 40.56900 32.93400
H  3.83000 40.86300 33.98700
H  5.31000 41.91800 34.06700

