158

Mg 16.90800 52.34400 26.52600
C  19.14200 51.13400 28.90700
C  14.57600 52.93700 28.86100
C  14.87800 53.50500 24.04000
C  19.21900 51.27500 24.05200
N  16.97200 52.10100 28.66200
C  17.96800 51.66100 29.44800
C  17.57300 51.80400 30.89700
C  16.04400 52.02100 30.84200
C  15.80100 52.33800 29.37100
C  15.19400 50.83900 31.46900
C  18.35900 52.95800 31.63100
C  18.52400 52.72500 33.18000
H  17.44900 51.76700 33.82500
N  14.99100 53.10300 26.44100
C  14.23400 53.36200 27.56700
C  13.07300 54.13300 27.20300
C  13.08700 54.24500 25.82100
C  14.37900 53.63400 25.34700
C  12.07200 54.66000 28.31000
C  12.05300 54.89400 24.90300
O  12.18900 54.95700 23.71500
C  10.88400 55.51000 25.60700
N  16.99600 52.34000 24.35000
C  16.06300 52.89900 23.52800
C  16.45200 52.68800 22.01300
C  17.93400 52.32000 22.10000
C  18.13200 52.03200 23.60700
C  15.49300 51.66300 21.40700
C  19.11300 53.30600 21.60500
C  19.80300 54.23100 22.60200
N  18.74100 51.35700 26.45800
C  19.51600 50.97700 25.40800
C  20.71000 50.22700 25.86500
C  20.57900 50.34100 27.23500
C  19.37800 51.05100 27.54900
C  21.91700 49.68600 25.07200
C  21.19800 49.98300 28.42700
O  22.26500 49.45200 28.63400
C  20.34900 50.50600 29.55600
C  19.96100 49.37100 30.40500
O  19.28800 48.34700 30.03600
O  20.50600 49.48200 31.66800
C  20.35600 48.33000 32.54800
H  13.92900 53.20300 29.70000
H  14.25200 53.86300 23.21900
H  20.08500 51.01000 23.44000
H  17.80200 50.86000 31.39000
H  15.73700 52.93900 31.34300
H  14.40600 51.16400 32.14800
H  15.79800 50.06200 31.93600
H  14.73200 50.27600 30.65800
H  17.85300 53.92400 31.63400
H  19.36500 52.93900 31.21300
H  18.41100 53.69500 33.66600
H  19.48600 52.28400 33.44100
H  11.74500 55.68700 28.14600
H  12.59100 54.64600 29.26800
H  11.26600 53.95100 28.50000
H  11.02600 56.43900 26.15900
H  10.40200 54.72300 26.18700
H  10.13700 55.76700 24.85600
H  16.33000 53.67400 21.56500
H  18.12600 51.35500 21.63100
H  16.03800 50.93700 20.80300
H  14.89900 52.24600 20.70400
H  14.80300 51.19900 22.11100
H  18.62000 53.89900 20.83500
H  19.84800 52.64700 21.14200
H  20.88900 54.22700 22.51000
H  19.51400 54.03500 23.63500
H  19.46200 55.24100 22.37600
H  21.55400 49.24400 24.14400
H  22.29700 48.88600 25.70800
H  22.60200 50.51600 24.89900
H  20.89000 51.24900 30.14300
H  20.58100 47.38600 32.05200
H  19.30100 48.22500 32.79900
H  20.90400 48.47700 33.47900
Mg 9.95100 47.97500 26.29700
C  8.22800 47.71500 29.37100
C  12.50500 49.67000 27.96500
C  11.72300 48.12600 23.36800
C  7.18800 46.90800 24.55700
N  10.26600 48.69300 28.40400
C  9.53500 48.32300 29.47800
C  10.14000 48.86200 30.77200
C  11.23500 49.76400 30.21600
C  11.35900 49.34200 28.79100
C  11.23600 51.27700 30.46800
C  10.55700 47.68800 31.66600
C  10.06200 47.68700 33.17600
H  10.19000 46.33400 33.94700
N  11.86300 48.63000 25.79800
C  12.77500 49.22200 26.65800
C  14.04300 49.22200 25.92400
C  13.79900 48.84700 24.61100
C  12.34100 48.56200 24.49300
C  15.36700 49.52400 26.67400
C  14.84100 48.61400 23.44300
O  14.54100 48.26600 22.28200
C  16.36100 48.77700 23.75400
N  9.53700 47.61600 24.19100
C  10.38800 47.75000 23.18200
C  9.83100 47.11500 21.86700
C  8.43800 46.55300 22.39600
C  8.33800 47.10800 23.75500
C  9.73200 48.06500 20.61500
C  8.40800 44.99700 22.29900
C  9.31400 44.22700 23.19200
N  8.06200 47.44100 26.78900
C  7.06200 47.02600 25.98800
C  5.87700 46.82400 26.82300
C  6.29000 47.01900 28.14300
C  7.66600 47.37000 28.09000
C  4.54600 46.50400 26.37300
C  5.89600 47.09800 29.55700
O  4.76400 46.81900 30.07100
C  7.19300 47.36600 30.35700
C  7.42500 46.03600 30.97100
O  8.09500 45.17500 30.57100
O  6.59500 45.81700 32.03600
C  6.74700 44.54600 32.73400
H  13.30600 50.23900 28.44200
H  12.24800 48.19200 22.41300
H  6.31700 46.67300 23.94100
H  9.31700 49.45500 31.17200
H  12.17100 49.40800 30.64800
H  10.55200 51.58500 31.25800
H  10.96400 51.78700 29.54400
H  12.17800 51.66500 30.85600
H  11.63600 47.65900 31.51100
H  10.14300 46.84100 31.11900
H  8.99500 47.91300 33.17400
H  10.52500 48.56900 33.61700
H  15.24600 49.72700 27.73800
H  15.91800 50.30300 26.14700
H  16.09300 48.72300 26.53200
H  16.70000 49.80100 23.91100
H  16.87400 48.37700 22.88000
H  16.70000 48.11200 24.54800
H  10.47800 46.28300 21.59000
H  7.55600 46.93100 21.88000
H  8.71300 48.41500 20.45300
H  10.11800 47.47800 19.78200
H  10.40100 48.92200 20.69900
H  8.68800 44.78000 21.26900
H  7.38900 44.66200 22.49500
H  9.66500 44.90800 23.96800
H  10.25300 44.01700 22.68000
H  8.83100 43.32500 23.56700
H  3.93700 47.38600 26.17400
H  3.98000 45.89500 27.07800
H  4.56100 45.88200 25.47800
H  7.04100 48.09100 31.15700
H  6.10200 43.79200 32.28200
H  6.48100 44.85000 33.74600
H  7.74700 44.11500 32.78600

