158

Mg 43.75300 4.50800 47.56700
C  41.57000 7.17900 47.33200
C  41.04800 2.39600 46.98400
C  45.88800 1.96600 47.27800
C  46.40700 6.79200 47.70100
N  41.68000 4.72400 47.05200
C  40.96200 5.96500 47.07000
C  39.50000 5.73600 46.79100
C  39.32600 4.21700 47.02500
C  40.78000 3.71800 47.11100
C  38.32500 3.80000 48.21100
C  39.12600 6.29400 45.32200
C  37.88900 7.13500 45.30600
H  37.15800 7.00100 43.98600
N  43.51700 2.43900 47.16500
C  42.33400 1.72200 47.06300
C  42.61300 0.33400 46.86700
C  44.02300 0.08200 46.96800
C  44.55300 1.53100 47.12200
C  41.49800 -0.63600 46.59400
C  44.71700 -1.19200 46.95900
O  44.04700 -2.16600 46.90500
C  46.16500 -1.37600 47.09600
N  45.77600 4.42900 47.44000
C  46.44900 3.23500 47.45700
C  48.02800 3.43600 47.59200
C  48.18000 4.98000 47.64600
C  46.67500 5.43100 47.56900
C  48.69100 2.84000 48.76900
C  48.96000 5.74600 46.51400
C  49.99800 6.86600 46.93000
N  43.97000 6.55400 47.53400
C  45.05800 7.30000 47.68800
C  44.69100 8.70700 47.74000
C  43.24000 8.73100 47.68200
C  42.86700 7.37100 47.50100
C  45.71100 9.87400 47.73400
C  42.14400 9.55700 47.66300
O  42.03800 10.72200 47.78700
C  40.93800 8.56000 47.48300
C  39.98800 8.69700 48.66500
O  40.15200 8.16800 49.72600
O  38.91300 9.48900 48.34300
C  37.86900 9.68700 49.35700
H  40.22400 1.71400 46.76300
H  46.68900 1.23300 47.16000
H  47.33500 7.36500 47.65700
H  39.01900 6.19900 47.65200
H  38.82600 3.87100 46.12100
H  37.85900 4.61600 48.76300
H  38.93600 3.30100 48.96300
H  37.49800 3.17800 47.86900
H  38.98800 5.48400 44.60600
H  39.97400 6.90700 45.01800
H  38.19700 8.16100 45.50600
H  37.21300 7.03400 46.15500
H  41.65200 -1.10500 45.62200
H  40.49700 -0.20800 46.64600
H  41.54500 -1.37500 47.39400
H  46.45300 -1.28100 48.14300
H  46.61200 -0.59900 46.47700
H  46.39700 -2.34100 46.64400
H  48.47500 3.16500 46.63500
H  48.57700 5.27300 48.61800
H  48.02700 2.10600 49.22700
H  48.74400 3.53900 49.60300
H  49.68100 2.43500 48.56200
H  48.17700 6.13500 45.86200
H  49.52900 5.06700 45.88000
H  50.20700 6.89800 48.00000
H  49.42400 7.76200 46.69500
H  50.85100 6.83600 46.25200
H  45.22600 10.58500 47.06500
H  46.62800 9.45800 47.31700
H  45.81100 10.22700 48.76100
H  40.42000 8.83400 46.56400
H  36.98600 9.32300 48.83100
H  37.78200 10.74300 49.61200
H  37.98500 9.04900 50.23300
Mg 49.81300 44.63400 42.80400
C  46.61300 44.78300 41.84100
C  49.76500 41.07600 42.22600
C  53.23300 44.52700 43.21700
C  49.96800 48.11300 43.13300
N  48.32900 43.03900 42.24000
C  47.00000 43.43900 41.89000
C  46.17900 42.17100 41.35900
C  47.11000 40.99500 41.90400
C  48.47700 41.70200 42.12400
C  46.72200 40.09700 43.08100
C  46.13600 42.21300 39.76600
C  44.68900 42.31800 39.25500
H  44.28200 43.41000 38.28900
N  51.28700 43.06000 42.75300
C  51.06300 41.65800 42.52500
C  52.28200 40.94200 42.55700
C  53.32000 41.85400 42.86300
C  52.67100 43.23400 42.94700
C  52.43400 39.51300 42.12100
C  54.81700 41.44300 43.01200
O  55.21000 40.27900 42.94600
C  55.84800 42.58100 43.01900
N  51.34200 46.08400 43.45200
C  52.66000 45.80200 43.34000
C  53.51900 47.04100 43.59900
C  52.42000 48.17800 43.68100
C  51.18800 47.40400 43.43500
C  54.41100 47.12300 44.83300
C  52.78300 49.42100 42.73300
C  52.45500 50.84800 43.14300
N  48.57300 46.15500 42.64900
C  48.77200 47.49900 42.73200
C  47.44100 48.08200 42.44600
C  46.55500 47.08900 42.19100
C  47.32700 45.91700 42.24600
C  47.19100 49.58200 42.46600
C  45.21000 46.76300 41.82300
O  44.18000 47.44400 41.70100
C  45.17500 45.26000 41.56200
C  44.16100 44.80000 42.57000
O  44.19200 44.72700 43.82700
O  42.94400 44.64300 41.84000
C  41.69800 44.49800 42.59400
H  49.77900 39.99200 42.09600
H  54.31500 44.53700 43.36800
H  49.99600 49.20500 43.10400
H  45.22000 42.27400 41.86600
H  47.20600 40.29700 41.07300
H  47.23900 40.31800 44.01400
H  46.85200 39.05800 42.77900
H  45.67700 40.31800 43.30000
H  46.65300 41.34400 39.36000
H  46.59800 43.07800 39.29000
H  43.88300 42.10600 39.95700
H  44.76700 41.51000 38.52700
H  51.53600 39.27700 41.55000
H  52.48900 38.81700 42.95800
H  53.29700 39.29100 41.49200
H  55.66600 43.35800 42.27700
H  56.76800 42.14200 42.63400
H  55.87700 43.06900 43.99400
H  54.04300 47.19000 42.65600
H  52.32000 48.56600 44.69500
H  54.05000 47.87700 45.53200
H  55.34900 47.55000 44.47900
H  54.52900 46.11800 45.23900
H  52.34700 49.28200 41.74400
H  53.85500 49.37900 42.53900
H  53.35400 51.46000 43.21000
H  51.85500 50.85500 44.05300
H  51.82900 51.24000 42.34100
H  46.29900 49.85300 43.03200
H  47.14300 49.94800 41.44000
H  48.05700 50.07600 42.90800
H  44.76500 45.09500 40.56500
H  40.97800 44.42500 41.77900
H  41.51200 45.30200 43.30700
H  41.75500 43.54700 43.12300

