158

Mg 0.38200 7.45300 25.85300
C  1.39100 9.57700 28.53700
C  0.69200 4.86500 27.99900
C  -0.14900 5.51300 23.27700
C  1.13700 10.12900 23.61000
N  1.30500 7.33300 27.92900
C  1.35800 8.26500 28.86000
C  1.30700 7.71200 30.32900
C  1.27300 6.20300 30.07600
C  1.16500 6.09500 28.53600
C  2.34700 5.33500 30.76100
C  0.11800 8.25100 31.17000
C  -0.04600 7.51500 32.51700
H  1.19300 6.84300 33.21300
N  0.18100 5.46600 25.77600
C  0.22100 4.55000 26.76500
C  -0.11300 3.22200 26.26500
C  -0.37700 3.37300 24.85200
C  -0.17800 4.86500 24.58400
C  0.02200 1.93100 27.15600
C  -0.76400 2.43900 23.83300
O  -1.00400 2.71000 22.64700
C  -0.91100 0.99600 24.28800
N  0.48300 7.81200 23.68200
C  0.27100 6.79500 22.84500
C  0.29600 7.27500 21.36400
C  0.78100 8.67500 21.45200
C  0.72600 8.95400 22.99900
C  1.01600 6.33200 20.36800
C  -0.02000 9.78100 20.63200
C  0.93000 10.67100 19.74200
N  1.05200 9.49800 25.98600
C  1.19200 10.47800 25.07400
C  1.44700 11.75700 25.72000
C  1.57800 11.43900 27.08100
C  1.35800 10.04300 27.14100
C  1.78200 13.01700 24.99400
C  1.84000 11.94700 28.36700
O  2.11500 13.08300 28.78800
C  1.58900 10.78700 29.36000
C  2.59200 10.71100 30.43300
O  3.64900 10.14200 30.32300
O  2.16900 11.34400 31.61500
C  3.16100 11.29000 32.73100
H  0.62000 4.08300 28.75700
H  -0.49900 4.87600 22.46200
H  1.30800 10.90700 22.86300
H  2.29600 7.91200 30.74000
H  0.30800 5.88500 30.47000
H  3.03400 5.89300 31.39700
H  2.95300 4.92400 29.95300
H  1.86900 4.58600 31.39200
H  -0.79900 8.10800 30.59800
H  0.23200 9.30000 31.44300
H  -0.89700 6.85300 32.35400
H  -0.29500 8.32800 33.19800
H  0.88600 1.30600 26.93100
H  -0.92700 1.41600 27.00500
H  0.02700 2.18300 28.21600
H  -1.16900 0.49700 23.35300
H  -1.77100 0.98100 24.95800
H  0.06100 0.72700 24.70100
H  -0.75300 7.26300 21.06800
H  1.80800 8.65300 21.08600
H  1.35900 5.54400 21.03900
H  1.71000 6.99300 19.84800
H  0.26100 5.97900 19.66600
H  -0.57100 10.46100 21.28100
H  -0.84600 9.38600 20.04000
H  0.82100 10.44000 18.68200
H  1.97700 10.51300 20.00000
H  0.70800 11.70700 20.00000
H  2.43000 13.63900 25.61200
H  0.88400 13.56400 24.70900
H  2.32200 12.72800 24.09200
H  0.69000 11.06300 29.91300
H  4.00100 11.85000 32.31900
H  3.28500 10.26600 33.08100
H  2.73100 11.80600 33.58900
Mg 17.25100 -1.87000 28.15400
C  15.79100 0.08000 30.93700
C  19.03800 -3.58900 30.36800
C  18.78900 -3.27400 25.56000
C  15.41700 0.29700 25.95200
N  17.34300 -1.70200 30.43100
C  16.70800 -0.93500 31.39600
C  17.09100 -1.37500 32.80700
C  18.12100 -2.58300 32.52900
C  18.17000 -2.66200 31.01700
C  19.55900 -2.43500 33.10000
C  15.88100 -1.89200 33.67500
C  16.15900 -2.17800 35.10100
H  17.46000 -1.73600 35.76200
N  18.60800 -3.29100 27.98400
C  19.27200 -3.88500 29.01300
C  20.11300 -4.94200 28.50900
C  19.97600 -4.93000 27.08600
C  19.12400 -3.81100 26.84300
C  20.90400 -5.85100 29.33300
C  20.67800 -5.66500 26.03400
O  20.40600 -5.56900 24.83500
C  21.91000 -6.57300 26.38900
N  16.92600 -1.62500 25.99400
C  17.82600 -2.28800 25.14900
C  17.65900 -1.70400 23.65500
C  16.45500 -0.78000 23.82400
C  16.19000 -0.66300 25.31600
C  19.05500 -1.08000 23.04900
C  15.17200 -1.19100 23.14700
C  15.29400 -1.15000 21.60500
N  15.84000 -0.25500 28.33400
C  15.23100 0.52300 27.33800
C  14.50000 1.55300 27.98400
C  14.61100 1.38400 29.33400
C  15.55500 0.37800 29.54100
C  13.60300 2.59400 27.31100
C  14.08100 1.91200 30.59900
O  13.22200 2.74600 30.79800
C  14.96900 1.19600 31.67000
C  15.85100 2.18200 32.24900
O  16.84800 2.69500 31.74700
O  15.50900 2.14500 33.55600
C  16.38500 2.82700 34.48200
H  19.65400 -4.14300 31.07900
H  19.33400 -3.64500 24.69000
H  15.13800 1.22200 25.44400
H  17.56200 -0.54100 33.32700
H  17.68700 -3.43200 33.05600
H  19.69000 -1.60700 33.79600
H  20.23300 -2.25800 32.26200
H  19.86500 -3.37500 33.55900
H  15.34500 -2.68600 33.15400
H  15.06200 -1.17200 33.68100
H  15.92800 -3.22800 35.28400
H  15.39500 -1.58400 35.60400
H  20.72200 -5.58600 30.37400
H  21.94300 -5.60400 29.11200
H  20.60600 -6.82200 28.93900
H  22.45500 -6.28500 27.28700
H  22.60400 -6.47300 25.55500
H  21.53700 -7.59200 26.50100
H  17.40300 -2.54600 23.01200
H  16.58400 0.28500 23.63100
H  19.82800 -1.25200 23.79700
H  18.87800 -0.02200 22.85700
H  19.37800 -1.61700 22.15700
H  14.42000 -0.47900 23.48700
H  15.02300 -2.20800 23.51000
H  14.30000 -0.98300 21.18900
H  15.72400 -2.05800 21.18300
H  15.89500 -0.29400 21.29600
H  13.53100 3.46100 27.96900
H  12.58000 2.22100 27.26700
H  14.08700 2.93200 26.39400
H  14.35000 0.68800 32.40900
H  16.09900 3.86100 34.67500
H  17.36800 3.06900 34.07900
H  16.48600 2.25500 35.40400

