158

Mg 47.25600 25.85900 28.37100
C  48.29500 27.99000 30.84700
C  46.42600 23.45900 30.78500
C  46.62600 23.64300 25.91400
C  48.48600 28.16400 25.99600
N  47.54300 25.75900 30.50900
C  47.73400 26.80300 31.40300
C  47.68900 26.42200 32.82600
C  47.31900 24.87400 32.69100
C  47.07700 24.64100 31.20600
C  48.27000 23.81000 33.35000
C  46.62700 27.25200 33.66300
C  47.29800 28.04100 34.76900
H  46.50100 28.17100 36.09700
N  46.62700 23.77900 28.33300
C  46.29700 23.02300 29.46400
C  45.78300 21.68600 28.94700
C  45.79500 21.71500 27.52500
C  46.32900 23.06300 27.21100
C  45.09300 20.66200 29.97600
C  45.35400 20.66500 26.50500
O  45.45400 20.81700 25.27700
C  44.85200 19.39000 27.08400
N  47.53100 25.91200 26.22700
C  47.12700 24.89200 25.43300
C  47.33800 25.23900 23.89600
C  47.92600 26.68600 23.94200
C  47.92300 26.95600 25.44900
C  48.31400 24.20700 23.25300
C  47.02500 27.76100 23.22100
C  47.60000 29.16900 22.88500
N  48.12000 27.69800 28.34500
C  48.61400 28.50000 27.33300
C  49.16300 29.71500 27.90200
C  49.12400 29.53800 29.23900
C  48.41600 28.30100 29.48000
C  49.58200 30.98000 27.21200
C  49.22700 30.25600 30.50700
O  49.54800 31.42500 30.66400
C  48.78600 29.26600 31.62400
C  49.94500 28.91100 32.41800
O  50.75500 27.98400 32.26500
O  49.98900 29.73700 33.52400
C  50.93800 29.38900 34.59500
H  46.00100 22.80600 31.55000
H  46.38900 22.92300 25.12800
H  48.64300 29.02500 25.34400
H  48.72400 26.63100 33.09600
H  46.38300 24.66100 33.20700
H  49.12200 24.35000 33.76300
H  48.66800 23.19800 32.54100
H  47.80600 23.17700 34.10700
H  45.87500 26.68800 34.21500
H  46.06400 28.01700 33.12800
H  47.47700 29.07000 34.45600
H  48.25700 27.57000 34.98500
H  44.00800 20.70100 29.88000
H  45.26000 20.94700 31.01500
H  45.52300 19.66400 29.88400
H  45.52500 18.80300 27.70900
H  44.47400 18.81100 26.24200
H  43.98700 19.78800 27.61600
H  46.34600 25.18900 23.44500
H  48.95800 26.70400 23.59300
H  48.47400 23.37500 23.93800
H  49.24100 24.71500 22.98800
H  47.82200 23.94600 22.31600
H  46.06200 27.84200 23.72600
H  46.85000 27.30900 22.24500
H  48.66300 28.92900 22.88000
H  47.25900 29.81700 23.69200
H  47.30900 29.51600 21.89400
H  50.62500 30.82500 26.93800
H  49.44300 31.84400 27.86100
H  49.05400 31.09900 26.26600
H  47.99000 29.52300 32.32300
H  51.91600 29.54400 34.13900
H  50.80600 28.39400 35.01900
H  50.86600 30.10600 35.41200
Mg 48.51100 35.96200 27.77800
C  46.59500 34.41900 30.12200
C  49.04000 38.54200 30.06100
C  50.31300 37.64300 25.40100
C  47.76200 33.52500 25.46000
N  48.12700 36.33500 29.85600
C  47.35000 35.47500 30.63500
C  47.40100 35.84600 32.14900
C  47.61900 37.41500 31.93700
C  48.35800 37.41100 30.56500
C  46.31600 38.36900 31.91400
C  48.73100 35.30400 32.86600
C  48.61000 34.86300 34.33400
H  47.93000 35.85500 35.23000
N  49.47600 37.75800 27.78600
C  49.53600 38.75400 28.75400
C  50.27100 39.87400 28.30900
C  50.67000 39.66100 26.99600
C  50.09600 38.28300 26.68200
C  50.41100 41.08000 29.11900
C  51.48900 40.47600 26.00000
O  51.79900 40.11100 24.85800
C  52.04900 41.81400 26.39400
N  48.94600 35.71200 25.68400
C  49.79100 36.44700 24.93300
C  50.12400 35.75700 23.63200
C  49.41100 34.32800 23.73400
C  48.69000 34.48100 25.05800
C  49.62500 36.63000 22.41700
C  50.19300 33.03600 23.53000
C  50.21100 32.36100 22.05600
N  47.37600 34.27400 27.71400
C  47.16000 33.33700 26.77800
C  46.32300 32.35500 27.27500
C  46.05100 32.74500 28.62000
C  46.69000 33.94300 28.82200
C  45.87600 31.07600 26.56300
C  45.35200 32.40900 29.86200
O  44.57000 31.47900 30.10200
C  45.52500 33.60100 30.78700
C  45.73500 33.19600 32.22500
O  46.64100 32.69300 32.85300
O  44.53000 33.41600 32.85800
C  44.52900 33.21000 34.30000
H  49.02100 39.34700 30.79900
H  51.02700 38.08200 24.70100
H  47.62200 32.59600 24.90300
H  46.50000 35.55100 32.68600
H  48.36800 37.76500 32.64700
H  46.32500 39.01500 32.79200
H  45.36700 37.84100 31.82000
H  46.38700 39.00400 31.03100
H  49.56600 35.99900 32.77800
H  48.98200 34.42800 32.26900
H  49.59400 34.71200 34.77600
H  48.13400 33.89100 34.46300
H  49.83600 41.86200 28.62200
H  51.48200 41.28300 29.10300
H  50.17300 40.98100 30.17800
H  51.31300 42.38900 26.95500
H  52.34500 42.31600 25.47300
H  52.97300 41.78900 26.97200
H  51.20400 35.76800 23.48600
H  48.59400 34.19400 23.02500
H  49.32300 35.96600 21.60700
H  50.45700 37.22900 22.04900
H  48.75200 37.24900 22.62500
H  49.76500 32.38600 24.29300
H  51.21200 33.28900 23.82200
H  49.26600 32.66500 21.60600
H  50.25100 31.27800 22.17900
H  51.08600 32.57300 21.44300
H  46.05400 31.21700 25.49700
H  44.79500 30.93900 26.53700
H  46.34700 30.13700 26.85300
H  44.57300 34.12300 30.68800
H  43.49500 33.43600 34.55900
H  45.24400 33.92300 34.71100
H  44.68700 32.18600 34.63600

