158

Mg 8.76500 47.13100 25.28800
C  6.45700 46.92100 28.06800
C  11.18200 47.86800 27.52600
C  10.82400 47.27200 22.69100
C  6.06700 46.89800 23.14300
N  8.81300 47.58600 27.55500
C  7.80200 47.21300 28.46300
C  8.26300 47.56900 29.90200
C  9.77300 47.91900 29.69300
C  9.95100 47.84300 28.16600
C  10.36500 49.21000 30.38000
C  8.04600 46.44700 30.96200
C  8.95800 46.42600 32.21500
H  8.28100 46.02100 33.51200
N  10.72300 47.61700 25.07400
C  11.60500 47.83900 26.13900
C  13.00600 47.97700 25.58500
C  12.90000 47.81900 24.20600
C  11.45400 47.58300 23.89900
C  14.16600 48.28700 26.42600
C  13.94200 47.71900 23.16200
O  13.75200 47.57300 21.91000
C  15.31400 47.58500 23.60800
N  8.44700 47.09700 23.16100
C  9.50000 47.11700 22.32200
C  9.02300 46.91400 20.85000
C  7.47700 46.67500 21.03000
C  7.27100 46.91000 22.51900
C  9.46800 48.06800 19.92200
C  7.00000 45.33600 20.43100
C  5.59800 45.47000 19.85600
N  6.72300 46.91200 25.52800
C  5.78000 46.78400 24.53700
C  4.47600 46.46300 25.11500
C  4.68300 46.47100 26.49600
C  6.07600 46.77500 26.66500
C  3.15700 46.20800 24.36700
C  4.10100 46.37500 27.81600
O  2.90300 46.05300 28.03200
C  5.21700 46.66100 28.89300
C  5.25700 45.44400 29.75000
O  5.83700 44.42500 29.51600
O  4.40000 45.65300 30.78400
C  4.46500 44.60700 31.78600
H  11.99100 48.03500 28.24100
H  11.43500 47.26700 21.78600
H  5.19800 46.97900 22.48600
H  7.77000 48.49800 30.18800
H  10.32600 47.00900 29.92300
H  10.52800 49.91800 29.56700
H  11.24600 49.15700 31.02100
H  9.60400 49.67900 31.00400
H  8.05300 45.45500 30.51200
H  7.04800 46.69600 31.32500
H  9.34600 47.43600 32.34600
H  9.68900 45.63400 32.04900
H  14.98300 47.56800 26.48800
H  13.83000 48.45900 27.44900
H  14.54900 49.26000 26.11800
H  15.78200 48.42300 24.12600
H  15.83500 47.47700 22.65700
H  15.47700 46.68800 24.20600
H  9.41400 45.97100 20.46700
H  6.90800 47.44600 20.51000
H  9.87300 47.61300 19.01800
H  10.29500 48.60100 20.39100
H  8.68200 48.79800 19.72700
H  7.10700 44.54300 21.17000
H  7.54100 45.09500 19.51600
H  5.71700 45.10200 18.83700
H  5.20000 46.48500 19.85800
H  4.89100 44.78600 20.32700
H  2.60300 47.12300 24.15800
H  2.52300 45.57800 24.99100
H  3.28900 45.72200 23.40000
H  4.89800 47.53100 29.46700
H  4.19100 45.17000 32.67800
H  5.47100 44.20500 31.90500
H  3.79300 43.79600 31.50300
Mg -8.72600 41.05600 42.26500
C  -7.52400 37.73600 41.33500
C  -5.90500 42.28900 40.79900
C  -10.09300 44.04800 42.55000
C  -11.59400 39.51500 43.34700
N  -7.00800 40.06700 41.11800
C  -6.67100 38.72100 40.94900
C  -5.28500 38.61800 40.27400
C  -4.76000 40.09500 40.30900
C  -5.96500 40.89100 40.86000
C  -3.44900 40.33900 41.16800
C  -5.44700 38.00500 38.86300
C  -4.48900 36.94800 38.25900
H  -3.64400 37.44500 37.05600
N  -8.07600 43.00000 41.74900
C  -6.86300 43.30400 41.13400
C  -6.86000 44.73700 40.89100
C  -8.01300 45.28200 41.53100
C  -8.84100 44.13100 41.92000
C  -5.67900 45.41300 40.22000
C  -8.34100 46.79200 41.67000
O  -7.59200 47.67200 41.22300
C  -9.56000 47.26000 42.43700
N  -10.55500 41.62900 42.78600
C  -10.81700 42.94500 42.97800
C  -12.25200 43.16300 43.53800
C  -12.71900 41.75900 43.84200
C  -11.51900 40.86800 43.40900
C  -12.33200 44.14900 44.68500
C  -14.06600 41.39800 43.19200
C  -14.92600 40.44100 44.01300
N  -9.47700 39.04800 42.42200
C  -10.64100 38.58700 42.93800
C  -10.75800 37.12900 42.84400
C  -9.50000 36.78400 42.13500
C  -8.80300 37.98100 41.91700
C  -11.90400 36.30900 43.38200
C  -8.75800 35.67500 41.59400
O  -9.09900 34.50500 41.71500
C  -7.46900 36.21600 41.09000
C  -6.27800 35.50100 41.65200
O  -5.74200 35.87800 42.69900
O  -5.89500 34.41800 40.92700
C  -4.69500 33.62300 41.26800
H  -5.01800 42.81500 40.43800
H  -10.50300 45.03200 42.79100
H  -12.50400 39.01700 43.68900
H  -4.62700 37.93900 40.81700
H  -4.40400 40.41300 39.32900
H  -2.80300 41.16400 40.86700
H  -2.79100 39.47400 41.08200
H  -3.47500 40.31900 42.25800
H  -5.30000 38.82900 38.16500
H  -6.48600 37.70900 38.71400
H  -5.05500 36.03700 38.06400
H  -3.77400 36.85900 39.07600
H  -6.10100 46.31000 39.76700
H  -5.11800 44.73100 39.58100
H  -4.95000 45.75900 40.95300
H  -10.46200 46.99400 41.88500
H  -9.54800 48.34700 42.52000
H  -9.52300 46.95800 43.48300
H  -12.82200 43.53700 42.68800
H  -12.91200 41.70900 44.91300
H  -11.40600 44.60500 45.03400
H  -12.88700 43.75300 45.53600
H  -13.09200 44.88100 44.41100
H  -13.92700 40.77500 42.30900
H  -14.68300 42.26800 42.96700
H  -15.88200 40.90900 44.24900
H  -14.44400 40.25400 44.97300
H  -15.12600 39.46700 43.56700
H  -12.75200 36.64100 42.78300
H  -12.14300 36.60200 44.40500
H  -11.74600 35.23400 43.46600
H  -7.49300 35.91700 40.04200
H  -4.94700 32.65900 41.71100
H  -4.01200 34.24000 41.85100
H  -4.02300 33.38700 40.44200

