158

Mg 47.93500 25.66400 27.60800
C  48.91900 27.94000 29.91800
C  46.91600 23.48900 30.14800
C  47.29000 23.21100 25.34400
C  49.46000 27.50700 25.18900
N  47.85200 25.73500 29.72700
C  48.27500 26.79000 30.52600
C  47.98300 26.56100 32.04300
C  47.40900 25.10300 32.04100
C  47.38800 24.74800 30.54300
C  48.20400 24.01900 32.83900
C  46.96700 27.61000 32.61100
C  47.47100 28.46300 33.78600
H  46.78400 28.42800 35.14100
N  47.21200 23.62900 27.69400
C  46.83100 22.92200 28.85600
C  46.21500 21.68300 28.49500
C  46.31000 21.68600 27.08600
C  47.01300 22.84300 26.63500
C  45.65100 20.74200 29.41700
C  45.72800 20.54500 26.16500
O  45.84500 20.47500 24.92200
C  45.06600 19.35500 26.80400
N  48.28400 25.31600 25.56700
C  47.81100 24.38000 24.80500
C  48.03000 24.63900 23.22900
C  48.62700 26.10300 23.23900
C  48.78500 26.36900 24.77100
C  48.83500 23.47100 22.60700
C  47.75500 27.29000 22.59000
C  48.47300 28.42200 21.88200
N  49.10000 27.28500 27.51900
C  49.68000 27.93100 26.48400
C  50.42600 29.13000 26.88300
C  50.12800 29.15300 28.24200
C  49.31600 27.99800 28.57600
C  51.19200 30.07500 26.03200
C  50.34500 29.88100 29.42100
O  51.14300 30.83400 29.57400
C  49.48900 29.18200 30.57300
C  50.59500 28.83000 31.49200
O  51.45800 27.97300 31.44600
O  50.46400 29.69500 32.57200
C  51.33700 29.50200 33.75600
H  46.50400 23.03200 31.05000
H  46.91600 22.41100 24.70200
H  49.74800 28.22700 24.42100
H  48.91400 26.62000 32.60600
H  46.40100 25.15100 32.45500
H  47.49200 23.54800 33.51700
H  49.00200 24.51900 33.38700
H  48.72100 23.24900 32.26500
H  45.93800 27.26700 32.72300
H  46.77100 28.37200 31.85700
H  47.42800 29.53100 33.57100
H  48.50500 28.26000 34.06400
H  46.02200 19.71700 29.40800
H  44.56800 20.63800 29.34500
H  45.85300 21.07100 30.43600
H  44.73100 18.70500 25.99600
H  44.27100 19.77100 27.42400
H  45.73600 18.79000 27.45300
H  47.08100 24.85700 22.73800
H  49.66600 26.10400 22.91000
H  48.52500 23.23200 21.59000
H  48.84800 22.66300 23.33900
H  49.76500 23.97800 22.35000
H  47.04800 27.66100 23.33200
H  47.13400 26.74200 21.88100
H  48.20400 29.24000 22.55000
H  47.99700 28.68500 20.93700
H  49.55300 28.28900 21.81700
H  51.80500 30.67100 26.70700
H  50.48200 30.60900 25.40100
H  51.84800 29.58800 25.31000
H  48.83400 29.93300 31.01300
H  50.69900 29.16200 34.57200
H  51.68500 30.47600 34.10300
H  52.19000 28.83500 33.63300
Mg -11.65500 37.46300 41.77400
C  -9.24000 35.07900 40.71500
C  -9.69200 39.82000 40.20300
C  -14.15500 39.50300 42.10900
C  -13.58000 34.74100 42.83500
N  -9.64700 37.41400 40.49100
C  -8.92000 36.36900 40.25800
C  -7.64700 36.74400 39.50900
C  -7.59800 38.27300 39.56700
C  -8.99800 38.55200 40.19700
C  -6.37300 38.88600 40.35000
C  -7.39800 36.11700 38.10600
C  -5.96200 35.75800 37.62800
H  -5.25100 36.73700 36.67000
N  -11.90600 39.44300 41.28300
C  -10.99800 40.24200 40.66800
C  -11.58800 41.54200 40.51600
C  -12.86200 41.52500 41.13100
C  -13.01000 40.11500 41.56300
C  -10.95800 42.69100 39.87400
C  -13.73500 42.67800 41.41900
O  -13.42900 43.77300 40.88400
C  -14.95500 42.74100 42.29800
N  -13.63900 37.14500 42.30700
C  -14.43100 38.20200 42.53800
C  -15.82400 37.77200 42.92000
C  -15.71600 36.18500 43.08800
C  -14.19400 35.99700 42.66900
C  -16.39200 38.44000 44.16000
C  -16.65800 35.35200 42.11000
C  -18.06300 35.18800 42.72700
N  -11.43700 35.37400 41.88700
C  -12.31400 34.38000 42.42900
C  -11.67500 33.07600 42.38700
C  -10.46300 33.28700 41.68900
C  -10.38000 34.65000 41.37100
C  -12.13500 31.88200 42.98600
C  -9.21200 32.67000 41.22000
O  -8.82900 31.51700 41.33200
C  -8.33900 33.81300 40.71000
C  -7.01000 33.90600 41.49800
O  -5.97600 33.28800 41.21800
O  -7.04400 34.86600 42.51300
C  -5.75700 35.23400 43.16300
H  -9.13000 40.66700 39.80300
H  -15.02900 40.15300 42.19700
H  -14.22000 33.94100 43.21100
H  -6.86200 36.47900 40.21700
H  -7.48600 38.73300 38.58500
H  -5.56000 39.08400 39.65100
H  -6.02400 38.32500 41.21700
H  -6.76600 39.83600 40.71300
H  -7.74200 36.67900 37.23700
H  -7.90700 35.15600 38.03900
H  -5.92400 34.76300 37.18500
H  -5.30600 35.68300 38.49500
H  -9.98300 42.44500 39.45400
H  -10.80200 43.46300 40.62700
H  -11.60800 43.06000 39.08000
H  -14.89500 42.11400 43.18700
H  -15.78600 42.39400 41.68400
H  -15.20400 43.77400 42.54100
H  -16.51900 38.09800 42.14600
H  -15.85500 35.90500 44.13200
H  -16.86900 39.40000 43.96300
H  -15.50300 38.55100 44.78100
H  -17.15700 37.89400 44.71200
H  -16.35900 34.34200 41.82800
H  -16.69300 35.89400 41.16500
H  -18.12500 35.74800 43.66000
H  -18.27300 34.15000 42.98400
H  -18.79400 35.48500 41.97500
H  -12.25300 32.06100 44.05500
H  -11.58000 30.95400 42.84700
H  -13.10200 31.68300 42.52300
H  -8.00600 33.65900 39.68400
H  -5.00000 35.56300 42.45000
H  -5.44800 34.34500 43.71300
H  -5.89100 36.02600 43.89900

