158

Mg 53.52500 24.27400 43.99600
C  50.72200 26.68400 43.48300
C  51.17600 21.80800 43.20100
C  56.05000 22.29700 43.54100
C  55.52100 27.05800 44.12400
N  51.23800 24.34500 43.32400
C  50.32500 25.32900 43.27100
C  48.95000 24.71500 42.91500
C  49.04500 23.25300 43.28500
C  50.62800 23.08300 43.34500
C  48.31800 22.66500 44.51500
C  48.50400 25.18700 41.49100
C  49.23800 24.47900 40.30100
H  50.05500 25.30200 39.36200
N  53.59000 22.30800 43.52500
C  52.56400 21.48600 43.13000
C  53.13300 20.18900 42.76400
C  54.49700 20.21300 43.13900
C  54.77100 21.63500 43.42300
C  52.37000 19.01000 42.11100
C  55.39300 19.01600 43.38100
O  54.91400 17.88900 43.10500
C  56.80300 19.05200 43.89200
N  55.46900 24.57000 43.90300
C  56.35300 23.59000 43.71700
C  57.80000 24.17300 43.81400
C  57.55900 25.68400 43.85100
C  56.07200 25.76500 43.90900
C  58.66500 23.51800 44.96900
C  58.15900 26.57600 42.68000
C  58.77200 27.97900 43.11900
N  53.25700 26.41300 43.98300
C  54.21200 27.41000 44.03000
C  53.60500 28.72700 44.07600
C  52.26700 28.51300 43.88400
C  52.11500 27.07400 43.78600
C  54.37200 29.96800 44.38300
C  51.01200 29.11400 43.88800
O  50.69100 30.23700 44.22600
C  50.01700 28.12100 43.43700
C  49.68400 28.53300 42.02300
O  50.41200 28.35500 41.09700
O  48.39300 28.98400 41.86400
C  47.96300 29.51900 40.59200
H  50.46400 21.00100 43.01700
H  56.99600 21.79300 43.33500
H  56.13600 27.91900 44.39600
H  48.21300 25.12400 43.60600
H  48.67300 22.60400 42.49200
H  47.75300 23.46700 44.98900
H  48.96400 22.23300 45.28000
H  47.60600 21.87600 44.27300
H  48.57200 26.24400 41.23700
H  47.45700 24.89100 41.41900
H  48.48500 24.03100 39.65300
H  49.84500 23.61700 40.57900
H  52.68500 18.78800 41.09100
H  51.35100 19.37900 41.99000
H  52.30300 18.07000 42.65800
H  57.51100 19.13400 43.06800
H  56.98800 18.06900 44.32700
H  56.89000 19.85600 44.62300
H  58.30700 23.76900 42.93700
H  57.90000 26.19100 44.75400
H  58.26800 22.57300 45.34100
H  59.03200 24.25300 45.68500
H  59.51800 23.14900 44.39900
H  57.35800 26.70700 41.95200
H  58.94600 25.93000 42.29000
H  58.25300 28.72300 42.51400
H  59.85500 28.06800 43.03200
H  58.49000 28.13400 44.16100
H  53.61100 30.69600 44.66400
H  55.04100 30.22700 43.56200
H  55.04900 29.79400 45.21900
H  49.15700 28.15600 44.10700
H  46.89100 29.65900 40.72900
H  48.16900 28.84600 39.75900
H  48.43200 30.47500 40.35800
Mg -4.44400 25.97600 26.18100
C  -3.05300 27.29500 29.15800
C  -6.37100 23.82300 28.03100
C  -5.15600 24.16300 23.37700
C  -2.06400 27.82400 24.41500
N  -4.56400 25.46500 28.40300
C  -4.02000 26.27200 29.41000
C  -4.58500 25.87600 30.82300
C  -5.46800 24.62000 30.43800
C  -5.51800 24.62900 28.89400
C  -4.84400 23.34900 31.01700
C  -5.36400 27.12600 31.40300
C  -5.11600 27.47900 32.88100
H  -4.91500 26.23500 33.84200
N  -5.72500 24.38700 25.73300
C  -6.49800 23.73800 26.61300
C  -7.47600 22.88900 25.89600
C  -7.06700 22.94700 24.53700
C  -5.89700 23.82700 24.47700
C  -8.53900 22.12200 26.60300
C  -7.62700 22.11000 23.35900
O  -7.19200 22.11700 22.23300
C  -8.78700 21.22900 23.66500
N  -3.66600 25.97500 24.17900
C  -4.18900 25.16500 23.17500
C  -3.36400 25.43400 21.88500
C  -2.50200 26.70700 22.14800
C  -2.74900 26.84900 23.66000
C  -2.44500 24.28000 21.33300
C  -2.80500 27.94900 21.36400
C  -1.60600 28.20400 20.39100
N  -2.86600 27.28800 26.62300
C  -2.13700 28.06100 25.81600
C  -1.32900 28.99500 26.57700
C  -1.55900 28.71100 27.89200
C  -2.62100 27.67600 27.88300
C  -0.42200 30.01400 25.92600
C  -1.25300 28.99400 29.27800
O  -0.41900 29.68900 29.82200
C  -2.29800 28.17400 30.17500
C  -1.42700 27.37900 31.01400
O  -0.65000 26.50300 30.65500
O  -1.73600 27.61200 32.31700
C  -0.94300 26.93400 33.30700
H  -7.02700 23.13100 28.56100
H  -5.35600 23.67900 22.41900
H  -1.38000 28.42700 23.81500
H  -3.73800 25.58900 31.44600
H  -6.53100 24.73000 30.65500
H  -4.25700 22.92300 30.20300
H  -5.61400 22.61400 31.25200
H  -4.22600 23.61500 31.87500
H  -6.42200 26.99500 31.17400
H  -4.91700 27.91600 30.79900
H  -6.04300 27.99300 33.13700
H  -4.28900 28.18900 32.88400
H  -9.50700 22.33300 26.14800
H  -8.60700 22.41900 27.65000
H  -8.38300 21.04700 26.51500
H  -8.63100 20.51500 24.47400
H  -9.28400 20.81700 22.78700
H  -9.53800 21.93900 24.01200
H  -4.13800 25.67400 21.15600
H  -1.44100 26.46300 22.19400
H  -1.49500 24.49700 20.84600
H  -3.07000 23.82700 20.56300
H  -2.14800 23.66700 22.18400
H  -2.94000 28.84100 21.97500
H  -3.67900 27.73000 20.75000
H  -0.77400 27.50300 20.45600
H  -1.16400 29.18700 20.55000
H  -2.05200 28.28100 19.39900
H  -0.80900 30.44200 25.00200
H  0.61800 29.75500 25.72500
H  -0.31800 30.77300 26.70100
H  -2.98700 28.87400 30.64700
H  -1.09700 25.85700 33.36800
H  -1.37300 27.34200 34.22200
H  0.11900 27.17500 33.30700

