158

Mg 29.61300 57.18600 40.20200
C  26.77900 55.24000 39.73900
C  31.59500 54.44100 39.62600
C  32.23500 59.26000 39.34400
C  27.56800 60.02200 40.43700
N  29.16900 55.06000 39.71400
C  27.95400 54.50600 39.52300
C  28.19100 52.94000 39.35500
C  29.69900 52.70800 39.71500
C  30.24900 54.14100 39.70300
C  30.10400 51.92000 40.97900
C  27.64900 52.35800 37.98900
C  28.20400 53.08700 36.77500
H  27.14900 53.70000 35.72600
N  31.60000 56.85800 39.42300
C  32.20800 55.64400 39.46900
C  33.56700 55.74100 38.99700
C  33.83400 57.21000 38.88000
C  32.50600 57.87500 39.18700
C  34.55600 54.61900 38.98200
C  35.15700 57.91400 38.45200
O  36.17500 57.26600 38.28400
C  35.20900 59.43300 38.21000
N  29.79800 59.32500 39.69700
C  30.97700 59.87600 39.65000
C  30.92900 61.40600 39.84400
C  29.41100 61.61500 40.12600
C  28.92400 60.24000 40.10700
C  31.82700 61.94000 41.03800
C  28.73600 62.56400 39.04400
C  28.47500 64.03600 39.34300
N  27.53500 57.58300 40.25500
C  26.82900 58.76700 40.48400
C  25.44200 58.45000 40.52700
C  25.35200 57.09900 40.15900
C  26.64100 56.59700 39.99300
C  24.25000 59.46000 40.80300
C  24.40500 56.04900 39.95800
O  23.13400 56.04900 40.00300
C  25.32000 54.77500 39.58900
C  24.90200 53.67000 40.40800
O  25.30900 53.48300 41.56100
O  24.08600 52.93600 39.61600
C  23.19800 51.97800 40.31200
H  32.18400 53.52200 39.59900
H  33.03400 59.99300 39.47400
H  27.07100 60.95900 40.69800
H  27.69000 52.37100 40.13800
H  30.23700 52.32300 38.84800
H  29.26100 51.40500 41.44100
H  30.41300 52.57800 41.79200
H  30.91600 51.27200 40.65100
H  26.55900 52.33600 38.01700
H  27.96100 51.32200 37.85200
H  28.86700 52.38300 36.27300
H  28.87200 53.90200 37.05500
H  35.55500 55.05300 38.94100
H  34.37000 54.00100 38.10400
H  34.40600 53.98800 39.85800
H  35.44300 60.05200 39.07700
H  34.27200 59.59800 37.67800
H  35.90600 59.38800 37.37300
H  31.30200 61.77700 38.89000
H  29.14700 61.92000 41.13900
H  32.59600 62.56000 40.57700
H  32.46500 61.25200 41.59200
H  31.19300 62.51400 41.71500
H  27.76900 62.09600 38.86100
H  29.32900 62.56100 38.12800
H  29.32800 64.53300 38.88200
H  28.39000 64.27700 40.40300
H  27.60800 64.25700 38.72200
H  23.63100 59.05700 41.60500
H  23.73600 59.59700 39.85200
H  24.62600 60.44700 41.07300
H  25.19000 54.62800 38.51700
H  23.43900 51.95400 41.37400
H  23.11200 50.98300 39.87300
H  22.17900 52.35600 40.22300
Mg 6.34500 54.12900 41.67300
C  5.88000 50.64900 41.41500
C  9.51000 53.60700 40.41000
C  6.63100 57.48700 41.23400
C  2.98700 54.52800 42.59500
N  7.57600 52.29900 41.02300
C  7.20900 50.94500 41.04600
C  8.26800 50.10300 40.33800
C  9.52100 51.02300 40.51500
C  8.82900 52.38700 40.63400
C  10.41700 50.74900 41.75700
C  8.03300 49.65700 38.89900
C  7.39400 50.76300 38.01300
H  6.25400 50.41000 37.04900
N  7.92400 55.41100 40.94900
C  9.13800 54.97700 40.44700
C  9.87300 56.08300 40.02100
C  9.07600 57.32900 40.30500
C  7.81100 56.76700 40.84800
C  11.32300 56.04000 39.45800
C  9.41300 58.77800 40.04300
O  10.57100 58.96400 39.61100
C  8.59700 59.93800 40.26300
N  4.91100 55.76600 41.76400
C  5.36900 57.05000 41.60200
C  4.24000 58.11500 42.01800
C  3.13500 57.07900 42.52300
C  3.72500 55.69600 42.29000
C  4.68000 59.26700 43.02000
C  1.78000 57.18600 41.83800
C  0.56000 57.11600 42.68600
N  4.76000 52.92700 41.96000
C  3.47200 53.24700 42.39700
C  2.73500 52.03200 42.60100
C  3.66600 51.03800 42.27200
C  4.87200 51.57400 41.85700
C  1.27100 51.96800 43.06000
C  3.79400 49.63500 42.22000
O  3.07100 48.74800 42.55500
C  5.20000 49.36000 41.50700
C  4.79100 48.69600 40.24600
O  4.08300 49.11400 39.34800
O  5.44500 47.40000 40.20800
C  5.09300 46.70900 38.96300
H  10.49600 53.43300 39.97500
H  6.68700 58.57600 41.17200
H  1.95700 54.76500 42.87200
H  8.40800 49.21200 40.95000
H  10.20200 51.02700 39.66400
H  9.96200 50.06000 42.46900
H  10.49400 51.74300 42.19700
H  11.43100 50.42100 41.52700
H  7.51500 48.71900 38.70100
H  9.03700 49.53500 38.49200
H  8.07800 51.37800 37.42900
H  6.84200 51.41800 38.68800
H  11.37900 56.24100 38.38800
H  11.80200 55.09100 39.69900
H  11.82000 56.88300 39.93700
H  7.73400 59.90100 39.59800
H  9.25400 60.80600 40.21000
H  8.27100 60.00300 41.30100
H  3.94100 58.60000 41.08900
H  3.12300 57.23600 43.60100
H  4.89700 60.23700 42.57200
H  5.59900 59.00200 43.54300
H  3.94800 59.35800 43.82200
H  1.68400 56.42500 41.06400
H  1.75100 58.11100 41.26100
H  0.69900 56.65200 43.66200
H  -0.23400 56.53700 42.21400
H  0.15400 58.11100 42.87300
H  0.87200 52.98200 43.04600
H  1.22100 51.44800 44.01600
H  0.79400 51.44200 42.23300
H  5.64800 48.67000 42.22200
H  5.35400 45.67200 39.17700
H  5.72800 46.97700 38.11800
H  4.03900 46.84200 38.72000

