158

Mg 9.61600 47.87300 26.27500
C  7.63300 47.89700 29.20800
C  12.23900 49.05600 28.09600
C  11.36100 47.44100 23.52100
C  6.63000 46.96800 24.46900
N  9.78500 48.48200 28.44000
C  8.95200 48.28300 29.49400
C  9.59900 48.58400 30.80300
C  10.80900 49.38400 30.30900
C  11.03100 48.97500 28.83800
C  10.69900 50.94100 30.42900
C  10.09500 47.33100 31.57800
C  10.82300 47.61300 32.85700
H  10.57900 46.60000 33.99600
N  11.52500 48.35200 25.89500
C  12.52500 48.81400 26.75000
C  13.78700 48.86800 26.00700
C  13.50700 48.45200 24.68500
C  12.11100 47.99400 24.68500
C  15.04200 49.40400 26.56400
C  14.45800 48.42900 23.58700
O  14.02300 47.96100 22.56800
C  15.84800 48.85400 23.67500
N  8.99600 47.32900 24.20900
C  10.01200 47.19200 23.33700
C  9.53800 46.61500 21.99700
C  7.94500 46.43800 22.22100
C  7.82900 46.89300 23.75500
C  9.94000 47.43600 20.76000
C  7.49300 44.93000 21.91100
C  7.62900 43.96900 23.01200
N  7.52700 47.57100 26.64300
C  6.44600 47.27600 25.82200
C  5.23700 47.24400 26.63000
C  5.70500 47.39800 27.96600
C  7.06300 47.66300 27.91500
C  3.79800 46.88800 26.16600
C  5.35200 47.35500 29.35800
O  4.35800 47.05500 29.90900
C  6.55300 47.73500 30.14700
C  6.76200 46.57700 31.07100
O  6.87800 45.42000 30.78600
O  6.68500 47.04600 32.32000
C  6.21900 46.11900 33.34500
H  13.06700 49.28400 28.77200
H  11.92600 47.11600 22.64600
H  5.71400 46.75700 23.91300
H  8.89200 49.13900 31.41900
H  11.76600 49.15000 30.77600
H  9.95000 51.34000 31.11400
H  10.45600 51.41700 29.47900
H  11.70300 51.23400 30.73700
H  10.74900 46.78600 30.89700
H  9.31600 46.58600 31.73900
H  10.27600 48.49400 33.19000
H  11.84300 47.99100 32.79300
H  14.99900 49.58000 27.63900
H  15.44400 50.31500 26.12000
H  15.89300 48.73100 26.45900
H  16.47100 48.35800 24.42000
H  15.99300 49.91800 23.86200
H  16.34900 48.55400 22.75500
H  10.00700 45.64700 21.82000
H  7.36700 47.11400 21.59000
H  9.08400 48.08400 20.57500
H  10.08300 46.76100 19.91500
H  10.75000 48.13300 20.97400
H  8.14300 44.59700 21.10300
H  6.47000 45.01400 21.54400
H  8.34200 44.34800 23.74400
H  8.15700 43.09300 22.63500
H  6.62700 43.76600 23.39200
H  3.74300 47.32900 25.17000
H  3.00300 47.33000 26.76700
H  3.63700 45.81000 26.17800
H  6.41700 48.63500 30.74700
H  5.48600 46.69600 33.90900
H  7.07100 45.99300 34.01300
H  5.88400 45.13600 33.01200
Mg -12.23100 16.56000 43.02000
C  -9.57900 14.37800 42.19400
C  -10.77800 19.01900 41.26700
C  -15.28100 17.87000 42.98100
C  -13.87000 13.44000 44.29500
N  -10.30500 16.61500 41.93200
C  -9.42700 15.67700 41.73100
C  -8.17200 16.28500 41.04800
C  -8.49400 17.81800 41.16700
C  -9.99100 17.90500 41.44600
C  -7.80600 18.44700 42.27500
C  -7.74600 15.83000 39.62000
C  -6.23700 15.55600 39.39600
H  -5.68100 16.53100 38.27900
N  -13.00300 18.29200 42.28400
C  -12.17600 19.22200 41.60300
C  -13.02000 20.27200 41.17100
C  -14.38800 19.94000 41.55100
C  -14.29300 18.63500 42.30500
C  -12.56700 21.45400 40.32100
C  -15.63000 20.75300 41.32600
O  -15.53500 21.85100 40.87100
C  -17.06600 20.32200 41.61800
N  -14.32200 15.71100 43.52700
C  -15.37300 16.56300 43.41500
C  -16.66200 15.78200 43.60900
C  -16.26800 14.42900 44.26500
C  -14.72700 14.55000 44.05000
C  -17.71700 16.58900 44.44700
C  -16.99400 13.22700 43.73000
C  -18.21200 12.65700 44.47600
N  -11.78900 14.34800 43.35900
C  -12.49900 13.30500 43.92500
C  -11.79600 12.04600 43.74700
C  -10.59400 12.46100 43.15300
C  -10.68100 13.86600 42.96500
C  -12.17800 10.61200 44.12500
C  -9.29400 11.98000 42.62500
O  -8.78200 10.85100 42.70900
C  -8.57900 13.24600 42.05900
C  -7.29400 13.49800 42.73800
O  -7.23900 13.98400 43.86500
O  -6.18800 13.16800 41.91800
C  -4.88700 13.72500 42.35600
H  -10.26700 19.79800 40.69600
H  -16.22300 18.41100 43.08300
H  -14.37600 12.58200 44.74200
H  -7.45000 15.98000 41.80500
H  -8.14800 18.36500 40.29100
H  -6.80800 18.82800 42.05800
H  -7.67100 17.79700 43.14000
H  -8.42400 19.24200 42.69300
H  -8.06700 16.62000 38.94100
H  -8.40600 15.01600 39.31800
H  -6.32900 14.49300 39.17700
H  -5.71400 15.67600 40.34500
H  -12.99100 21.33700 39.32300
H  -11.48300 21.52200 40.23000
H  -12.78500 22.36600 40.87600
H  -17.34500 20.46700 42.66200
H  -17.33800 19.31100 41.31500
H  -17.64400 20.90200 40.89900
H  -17.02400 15.55200 42.60700
H  -16.32800 14.51100 45.35100
H  -18.43000 16.96500 43.71300
H  -17.28700 17.30400 45.14800
H  -18.18400 15.81300 45.05400
H  -16.26700 12.46000 43.46600
H  -17.38200 13.41200 42.72800
H  -18.14500 12.85700 45.54500
H  -18.32600 11.57600 44.39500
H  -19.16700 13.11900 44.22500
H  -11.50500 10.45300 44.96800
H  -11.96400 9.92900 43.30300
H  -13.20900 10.57200 44.47400
H  -8.51700 13.00800 40.99700
H  -4.60300 13.12700 43.22200
H  -4.99000 14.74100 42.73700
H  -4.18600 13.70400 41.52200

