158

Mg 44.78400 4.00100 47.58200
C  42.30600 6.64600 47.15300
C  42.13800 1.76800 47.29300
C  46.93700 1.73500 47.43100
C  47.32400 6.50800 47.20500
N  42.54200 4.23300 47.23400
C  41.73300 5.35400 47.13400
C  40.25200 5.02000 46.97400
C  40.26300 3.53500 47.33400
C  41.71200 3.10500 47.27700
C  39.50300 3.26700 48.66900
C  39.54600 5.28100 45.58900
C  38.55800 6.46200 45.42400
H  38.42500 7.16100 43.99200
N  44.59500 2.02900 47.52600
C  43.44100 1.19800 47.38300
C  43.84600 -0.12900 47.58500
C  45.27600 -0.17000 47.61100
C  45.66700 1.24500 47.52000
C  42.87100 -1.23900 47.66000
C  46.17500 -1.44700 47.88600
O  45.72200 -2.53100 48.07100
C  47.66900 -1.39100 47.88300
N  46.87200 4.15700 47.29200
C  47.49800 2.98100 47.33800
C  49.05100 3.18700 47.37100
C  49.17300 4.71600 47.24000
C  47.70200 5.17200 47.25300
C  49.94600 2.62200 48.44000
C  49.93900 5.22000 45.94400
C  51.19800 6.00700 46.28300
N  44.89000 6.16900 47.30600
C  45.96200 7.05400 47.18200
C  45.49900 8.40800 46.98200
C  44.07000 8.26000 47.04000
C  43.75800 6.91500 47.27500
C  46.27200 9.73100 46.72000
C  42.85600 9.02800 46.86600
O  42.71600 10.23000 46.66500
C  41.65900 7.97800 46.91200
C  40.63500 8.46700 47.95300
O  40.54400 7.97600 49.09000
O  39.78200 9.42800 47.41800
C  38.65500 9.93800 48.20300
H  41.22600 1.18800 47.14100
H  47.79100 1.06400 47.53700
H  48.17000 7.19500 47.27200
H  39.64400 5.60400 47.66600
H  39.87100 2.91600 46.52700
H  40.23300 2.77600 49.31200
H  38.58200 2.68400 48.65200
H  39.19200 4.16000 49.21100
H  39.03200 4.37700 45.26300
H  40.24000 5.51500 44.78200
H  38.93000 7.17700 46.15800
H  37.52900 6.15300 45.60700
H  41.87100 -0.85200 47.46300
H  43.01200 -1.69300 48.64100
H  42.96800 -1.94800 46.83700
H  48.03300 -1.00100 46.93200
H  48.01500 -2.41600 48.01600
H  48.00700 -0.76800 48.71200
H  49.44300 2.81500 46.42400
H  49.59100 5.02600 48.19800
H  49.33300 1.96900 49.06000
H  50.39800 3.37300 49.08800
H  50.81100 2.10000 48.03100
H  49.31000 5.91800 45.39100
H  50.17900 4.43000 45.23200
H  51.24000 6.36000 47.31300
H  51.42000 6.83500 45.61000
H  52.00300 5.27400 46.33500
H  46.79100 9.65800 45.76500
H  47.08200 9.80600 47.44600
H  45.66600 10.63700 46.73400
H  41.31800 7.92100 45.87800
H  38.39700 10.96800 47.95700
H  38.91800 9.90300 49.26100
H  37.75600 9.33600 48.07400
Mg -4.52300 26.00600 25.92700
C  -2.96000 27.18300 28.90500
C  -6.45800 24.07400 27.82700
C  -5.46300 24.30400 23.16900
C  -2.12200 27.73600 24.09600
N  -4.60300 25.67300 28.10800
C  -4.02600 26.36200 29.16100
C  -4.69700 25.92700 30.51300
C  -5.59400 24.70300 30.14300
C  -5.58000 24.82900 28.60300
C  -5.01700 23.37600 30.70500
C  -5.52200 27.16200 31.06200
C  -5.34800 27.34900 32.60300
H  -4.81600 26.24800 33.50800
N  -5.93200 24.48200 25.49000
C  -6.61000 23.84900 26.44500
C  -7.55900 22.97300 25.79500
C  -7.15000 22.91600 24.40800
C  -6.16900 23.90100 24.24600
C  -8.52100 22.09500 26.59600
C  -7.71800 22.07800 23.27500
O  -7.20400 22.04100 22.11000
C  -8.81800 21.11800 23.47700
N  -3.84300 25.97100 23.91000
C  -4.37300 25.18300 22.92400
C  -3.52100 25.29400 21.66900
C  -2.63900 26.55900 21.88500
C  -2.86600 26.84600 23.38000
C  -2.89800 23.96000 21.23500
C  -3.11600 27.76100 20.98200
C  -2.08300 28.59500 20.10800
N  -2.96500 27.40200 26.34100
C  -2.12900 28.08500 25.47900
C  -1.29400 28.97200 26.24700
C  -1.54000 28.54500 27.59300
C  -2.61600 27.60800 27.58700
C  -0.41800 30.10700 25.67900
C  -1.17200 28.86100 28.94200
O  -0.33400 29.68900 29.34000
C  -2.08500 27.95900 29.86500
C  -1.22600 27.17700 30.77200
O  -0.36700 26.32400 30.50500
O  -1.52700 27.53400 32.01800
C  -0.76400 26.97300 33.12400
H  -7.14100 23.45200 28.41000
H  -5.69100 23.64300 22.33000
H  -1.38300 28.15300 23.40900
H  -3.91000 25.78600 31.25500
H  -6.60300 24.85700 30.52600
H  -3.97000 23.46500 30.99500
H  -5.06300 22.63500 29.90600
H  -5.66100 23.03300 31.51500
H  -6.52000 27.00100 30.65400
H  -5.09100 28.04300 30.58700
H  -6.26200 27.67400 33.10000
H  -4.63200 28.16300 32.71300
H  -8.05100 21.14100 26.83700
H  -9.38300 21.77100 26.01300
H  -8.81100 22.58000 27.52800
H  -9.09200 20.48600 22.63200
H  -9.65600 21.72100 23.82600
H  -8.52900 20.45400 24.29100
H  -4.20000 25.52400 20.84800
H  -1.62600 26.33500 21.55200
H  -1.82200 23.98800 21.40200
H  -3.15800 23.66200 20.21900
H  -3.20400 23.20100 21.95500
H  -3.64300 28.36900 21.71800
H  -3.84400 27.32900 20.29400
H  -1.25800 27.96700 19.76900
H  -1.83000 29.52600 20.61500
H  -2.49700 28.88000 19.14100
H  -0.33100 30.68300 26.60000
H  -1.01400 30.58600 24.90100
H  0.57200 29.76200 25.38000
H  -2.72400 28.67100 30.38800
H  -0.97800 25.91300 33.26200
H  -1.00400 27.47600 34.06100
H  0.28100 27.07600 32.83200

