158

Mg 27.14500 50.16500 25.50900
C  25.31100 51.58400 28.18700
C  29.60500 49.42800 27.75700
C  28.70300 48.77000 23.06900
C  24.58500 51.13600 23.36600
N  27.36200 50.42400 27.80700
C  26.51200 50.99400 28.63300
C  27.03300 50.82100 30.08100
C  28.50000 50.46500 29.85200
C  28.53700 50.11500 28.35900
C  29.64000 51.52000 30.12700
C  26.13300 49.87500 30.94400
C  25.42600 50.55900 32.15700
H  26.34000 50.96000 33.26300
N  28.96300 49.28300 25.42100
C  29.85500 49.07100 26.44000
C  31.01100 48.28600 25.89500
C  30.70700 47.97400 24.57400
C  29.47500 48.73400 24.27900
C  32.26200 47.83600 26.72000
C  31.46500 47.29400 23.53200
O  31.11600 47.32700 22.33100
C  32.83000 46.67600 23.81200
N  26.86000 50.30500 23.41800
C  27.60500 49.51600 22.66000
C  27.08500 49.48900 21.18500
C  25.61500 49.98200 21.35600
C  25.64900 50.50700 22.76500
C  27.91400 50.40500 20.26100
C  24.41200 49.04900 20.93100
C  24.25200 47.84200 21.94000
N  25.36700 51.29500 25.65900
C  24.45600 51.60400 24.69900
C  23.35200 52.42900 25.23900
C  23.58500 52.27500 26.65700
C  24.88100 51.65400 26.85900
C  22.10300 52.94900 24.53200
C  23.07200 52.56100 27.97900
O  22.01300 53.00800 28.36700
C  24.18200 52.18000 29.04900
C  24.57100 53.37500 29.77100
O  25.38300 54.23400 29.47700
O  23.87500 53.35900 30.95200
C  24.02300 54.45500 31.92100
H  30.38700 49.15000 28.46700
H  29.14900 48.21200 22.24200
H  23.72400 51.39100 22.74400
H  27.18400 51.77900 30.57900
H  28.75500 49.57300 30.42500
H  29.20000 52.50700 30.27200
H  30.31400 51.58900 29.27300
H  30.26900 51.33700 30.99800
H  26.82500 49.09100 31.25300
H  25.41000 49.42700 30.26300
H  24.60700 49.97000 32.57100
H  25.04500 51.54500 31.89100
H  32.27500 46.77200 26.48300
H  32.08800 47.90400 27.79400
H  33.21500 48.25500 26.39800
H  33.32500 46.65500 22.84100
H  32.71200 45.66600 24.20400
H  33.38800 47.28500 24.52300
H  27.12900 48.47400 20.79100
H  25.44900 50.91100 20.81100
H  28.93500 50.34100 20.63500
H  27.61300 51.45100 20.20500
H  27.93800 50.02100 19.24100
H  24.59000 48.68100 19.92000
H  23.50800 49.65900 20.91800
H  23.18100 47.63900 21.97500
H  24.83800 47.84000 22.85900
H  24.59500 47.01200 21.32200
H  21.56400 52.04300 24.25600
H  22.19300 53.47400 23.58100
H  21.42100 53.43200 25.23300
H  23.97900 51.37900 29.76000
H  24.61100 55.22900 31.42800
H  24.59900 54.15700 32.79800
H  23.03900 54.90200 32.06200
Mg -5.03900 26.31500 26.55200
C  -3.75200 27.59700 29.51400
C  -7.13000 24.28800 28.57800
C  -6.13900 24.69400 23.79800
C  -2.78000 28.22300 24.69700
N  -5.18700 25.82100 28.78800
C  -4.57500 26.54100 29.77500
C  -5.07500 26.01000 31.20500
C  -5.88600 24.72800 30.89700
C  -6.12700 24.92700 29.30600
C  -5.33000 23.34100 31.32800
C  -5.90700 27.12200 31.99400
C  -5.98000 27.10300 33.54500
H  -5.68300 25.76200 34.19400
N  -6.27600 24.61100 26.24200
C  -7.18400 24.10400 27.16700
C  -8.21300 23.30000 26.47000
C  -7.84700 23.21900 25.09100
C  -6.74000 24.17800 24.96900
C  -9.29200 22.62600 27.27800
C  -8.41300 22.43500 23.93200
O  -7.92700 22.44900 22.80100
C  -9.48100 21.57100 24.14000
N  -4.49600 26.40500 24.59500
C  -5.16300 25.71200 23.61300
C  -4.68300 26.16300 22.21200
C  -3.61200 27.25300 22.49900
C  -3.62100 27.33600 24.01800
C  -4.16000 25.04200 21.30100
C  -3.85800 28.59600 21.67100
C  -2.84100 28.88700 20.53600
N  -3.48000 27.66400 26.96900
C  -2.71200 28.39500 26.11200
C  -1.92800 29.34200 26.84500
C  -2.31500 29.09700 28.17900
C  -3.24700 28.01800 28.19700
C  -0.93500 30.34000 26.27000
C  -2.03900 29.42200 29.57100
O  -1.29800 30.29200 30.05700
C  -3.03800 28.51500 30.44600
C  -2.14600 27.69800 31.27200
O  -1.37100 26.89400 30.75200
O  -2.09500 28.09400 32.53200
C  -0.90300 27.63400 33.23900
H  -7.93700 23.88000 29.19000
H  -6.55000 24.28300 22.87400
H  -2.09900 28.89800 24.17300
H  -4.24000 25.76600 31.86200
H  -6.84200 24.81200 31.41400
H  -5.19800 22.69400 30.46100
H  -6.03300 22.85200 32.00200
H  -4.37600 23.29000 31.85300
H  -6.94700 27.01300 31.68500
H  -5.51800 28.11000 31.75000
H  -7.02800 27.38000 33.65400
H  -5.39000 27.85100 34.07600
H  -8.91100 21.83700 27.92600
H  -10.03600 22.11700 26.66500
H  -9.85200 23.34300 27.87900
H  -10.25500 22.32600 24.27200
H  -9.27800 21.02500 25.06100
H  -9.76000 20.96900 23.27500
H  -5.54800 26.68600 21.80400
H  -2.65400 26.88700 22.13100
H  -4.44800 24.10400 21.77600
H  -3.07400 25.11300 21.23900
H  -4.56300 24.97700 20.29100
H  -3.92300 29.44100 22.35600
H  -4.87200 28.67000 21.27900
H  -3.38400 28.73200 19.60400
H  -1.99100 28.20600 20.58700
H  -2.57400 29.94100 20.46900
H  -1.31000 31.36100 26.34300
H  -0.60600 30.11400 25.25600
H  -0.00800 30.34800 26.84400
H  -3.75900 29.02100 31.08800
H  -1.14600 26.58200 33.38700
H  -0.76100 28.26100 34.11900
H  0.02000 27.67200 32.66100

