158

Mg 16.20100 -1.83600 27.96200
C  15.01700 0.22700 30.44600
C  18.11100 -3.52400 30.31800
C  17.54600 -3.70200 25.44400
C  14.54700 0.15200 25.60400
N  16.66200 -1.50000 30.04400
C  15.91700 -0.69100 30.90800
C  16.32500 -0.95700 32.38000
C  17.46200 -1.98500 32.26800
C  17.38100 -2.39700 30.79500
C  18.89200 -1.41200 32.56300
C  15.17000 -1.44000 33.25100
C  15.31800 -1.21300 34.75400
H  16.47100 -0.39000 35.31900
N  17.60900 -3.47200 27.88400
C  18.24500 -4.08400 28.97300
C  19.16700 -5.16100 28.45500
C  18.92100 -5.25400 27.07300
C  18.04000 -4.14400 26.70300
C  20.20200 -5.76700 29.30300
C  19.41300 -6.26500 26.01800
O  19.02900 -6.19000 24.86200
C  20.34700 -7.34600 26.36600
N  16.14100 -1.76800 25.95200
C  16.80300 -2.61400 25.07900
C  16.55100 -2.25400 23.60300
C  15.38100 -1.28300 23.69300
C  15.33400 -0.92100 25.20100
C  17.84200 -1.82700 22.82700
C  14.01900 -1.74300 23.10100
C  13.65100 -1.15000 21.72600
N  14.98100 -0.11900 27.98000
C  14.32000 0.52700 26.95900
C  13.42000 1.55600 27.57400
C  13.72900 1.54300 28.92000
C  14.70200 0.47200 29.11500
C  12.41600 2.44400 26.83500
C  13.35100 2.08900 30.18100
O  12.53300 2.99300 30.47400
C  14.17600 1.26700 31.17800
C  14.93400 2.13800 32.06800
O  16.06600 2.59100 31.99500
O  14.14200 2.52100 33.11000
C  14.74400 3.34800 34.12300
H  18.68400 -4.15900 30.99700
H  17.97700 -4.23600 24.59500
H  13.99000 0.63700 24.80000
H  16.68300 -0.06800 32.90000
H  17.23200 -2.80300 32.95100
H  19.19800 -2.00100 33.42800
H  18.84600 -0.36200 32.85300
H  19.47700 -1.45300 31.64400
H  15.13700 -2.52900 33.20600
H  14.21500 -1.04800 32.90400
H  15.45200 -2.16500 35.26600
H  14.41800 -0.70000 35.09400
H  21.14000 -6.04800 28.82300
H  19.86800 -6.60600 29.91300
H  20.54700 -5.02600 30.02400
H  20.07300 -7.96700 27.21800
H  21.35500 -6.94200 26.46500
H  20.24300 -7.98400 25.48800
H  16.19400 -3.19200 23.17900
H  15.71100 -0.39000 23.16100
H  18.03100 -2.24400 21.83800
H  18.63500 -2.18100 23.48600
H  17.89700 -0.74200 22.74200
H  13.12800 -1.57900 23.70600
H  14.05400 -2.82000 22.93200
H  14.48600 -1.28300 21.03800
H  13.51700 -0.07600 21.86000
H  12.73200 -1.57000 21.31800
H  12.22000 2.03500 25.84400
H  12.95100 3.33600 26.51000
H  11.53300 2.69600 27.42300
H  13.48300 0.69600 31.79500
H  14.01500 3.41700 34.93000
H  14.89900 4.38400 33.82200
H  15.60600 2.94300 34.65300
Mg 40.69700 9.82000 29.43400
C  42.28100 10.72000 32.48700
C  38.06900 8.43800 31.31500
C  39.15500 8.81200 26.56800
C  43.46600 10.84000 27.65800
N  40.26600 9.55300 31.73500
C  41.00700 10.04100 32.78100
C  40.17500 9.90500 34.07500
C  38.93200 9.10900 33.61100
C  39.09300 8.95600 32.11200
C  38.78400 7.72700 34.29100
C  39.77500 11.34600 34.59900
C  39.35200 11.52200 36.04100
H  40.36500 11.40300 37.20900
N  38.88200 8.77300 29.01300
C  37.92600 8.35700 29.93600
C  36.81200 7.70300 29.27000
C  37.01900 7.91700 27.86100
C  38.34600 8.51700 27.74500
C  35.80600 6.94200 30.00800
C  36.15200 7.54600 26.66100
O  36.44300 7.86500 25.52900
C  34.78900 6.88900 26.93500
N  41.22000 9.82700 27.40400
C  40.49000 9.29300 26.41800
C  41.13800 9.54700 25.06700
C  42.46900 10.20200 25.41000
C  42.37300 10.31700 26.91200
C  41.23000 8.41800 24.00300
C  42.81000 11.63400 24.80300
C  41.78000 12.78600 24.89200
N  42.45800 10.51000 29.92400
C  43.47100 10.89100 29.09800
C  44.61000 11.31200 29.90100
C  44.17500 11.33300 31.22200
C  42.86500 10.80500 31.20800
C  45.91300 11.86000 29.29600
C  44.55200 11.70600 32.58600
O  45.60000 12.19700 32.95000
C  43.25000 11.39400 33.46300
C  43.72400 10.48400 34.62800
O  44.07400 9.30000 34.57400
O  43.80300 11.23900 35.74300
C  44.57300 10.64900 36.85700
H  37.19700 8.18400 31.92100
H  38.72700 8.56300 25.59500
H  44.42200 10.99800 27.15400
H  40.80000 9.46700 34.85400
H  37.96100 9.55100 33.83500
H  38.11200 7.87600 35.13700
H  39.73300 7.32800 34.64900
H  38.46400 6.96000 33.58600
H  38.93700 11.72900 34.01700
H  40.53200 12.12000 34.47200
H  38.49600 10.88000 36.25100
H  38.96100 12.53400 36.14500
H  36.32600 6.40600 30.80200
H  35.58100 6.12900 29.31700
H  35.04400 7.62700 30.38000
H  34.21900 7.50000 27.63500
H  34.97600 5.90800 27.37200
H  34.33900 6.75800 25.95200
H  40.45900 10.29500 24.65800
H  43.34000 9.60100 25.14600
H  40.30000 8.46700 23.43600
H  41.36100 7.41400 24.40500
H  41.97100 8.60400 23.22500
H  42.99700 11.43700 23.74800
H  43.72500 11.94800 25.30600
H  41.30100 13.05200 23.95000
H  42.31500 13.68900 25.18600
H  41.08300 12.58900 25.70700
H  46.57600 12.12800 30.11800
H  45.67000 12.79200 28.78700
H  46.36400 11.18300 28.57000
H  42.71400 12.30200 33.74000
H  43.79100 10.12400 37.40700
H  45.09300 11.30200 37.55800
H  45.26100 9.82400 36.67500

