158

Mg 50.63600 45.41400 42.49500
C  47.60900 47.15300 41.65700
C  49.34300 42.55400 41.37700
C  53.84600 44.29500 42.17900
C  51.99000 48.62800 43.36800
N  48.72600 44.96200 41.51500
C  47.62400 45.71100 41.37500
C  46.45900 44.88200 40.79800
C  46.92200 43.40500 41.12300
C  48.42900 43.61600 41.27500
C  46.14400 42.73800 42.34400
C  46.33500 45.13900 39.25600
C  44.80700 45.08300 38.72500
H  44.37200 43.77100 38.22400
N  51.47300 43.67100 41.94100
C  50.74100 42.57700 41.60900
C  51.66400 41.43200 41.53400
C  52.94900 41.91000 41.59200
C  52.79200 43.36200 41.87700
C  51.23700 39.98900 41.32900
C  54.23800 41.11100 41.35300
O  54.25500 39.91100 41.12400
C  55.61400 41.79400 41.23200
N  52.60300 46.37400 42.67400
C  53.76200 45.62900 42.55900
C  55.04100 46.44200 43.02000
C  54.38300 47.75800 43.52700
C  52.91400 47.57800 43.21600
C  55.93100 45.71600 44.01700
C  54.99500 49.05300 42.92800
C  55.18400 50.21500 43.92700
N  50.02100 47.46500 42.44400
C  50.63100 48.61800 42.97900
C  49.71400 49.73800 42.83000
C  48.58300 49.21100 42.21700
C  48.73200 47.81900 42.14800
C  50.08200 51.16800 43.05100
C  47.20100 49.51400 41.87700
O  46.66600 50.64100 41.88100
C  46.51300 48.18900 41.40200
C  45.25400 47.74700 42.03800
O  45.11300 46.93600 42.94000
O  44.24500 48.42600 41.37100
C  42.88300 47.98500 41.49100
H  48.96000 41.59700 41.01600
H  54.87800 43.96100 42.30700
H  52.37900 49.58500 43.72400
H  45.52700 45.24300 41.23400
H  46.61100 42.75400 40.30600
H  45.51100 42.05300 41.77900
H  45.51100 43.45900 42.86200
H  46.88900 42.27700 42.99200
H  46.89600 44.35300 38.75000
H  46.80000 46.06800 38.92600
H  44.89500 45.90400 38.01300
H  44.16400 45.52800 39.48400
H  51.83000 39.58600 40.50700
H  50.15600 39.92100 41.21200
H  51.50800 39.40900 42.21100
H  55.96000 42.10700 42.21700
H  55.46900 42.52800 40.43900
H  56.35600 41.07500 40.88600
H  55.53900 46.60300 42.06400
H  54.45500 47.76600 44.61500
H  56.09100 46.39600 44.85400
H  56.90200 45.37000 43.66400
H  55.39300 44.86800 44.44100
H  54.34400 49.32700 42.09700
H  55.96500 48.76600 42.52300
H  54.36900 50.92800 43.80300
H  56.15600 50.69700 43.82100
H  55.13700 49.70700 44.89000
H  50.68200 51.49700 42.20300
H  50.70000 51.35700 43.92900
H  49.21700 51.83200 43.08300
H  46.32700 48.27500 40.33200
H  42.38600 48.27800 40.56600
H  42.46800 48.33900 42.43500
H  42.85300 46.89800 41.56500
Mg 16.33400 52.32000 26.49500
C  17.99300 50.96000 29.17400
C  13.71400 53.20800 28.51000
C  14.76500 53.52100 23.77500
C  18.69200 50.83100 24.34200
N  15.86600 51.95600 28.61000
C  16.83900 51.62000 29.53300
C  16.37800 51.99400 30.96400
C  14.90300 52.52000 30.75800
C  14.77900 52.54900 29.22900
C  13.71200 51.59100 31.26800
C  17.31900 53.05800 31.62000
C  17.33900 53.18200 33.20400
H  16.43000 52.31000 34.03500
N  14.51500 53.28100 26.23800
C  13.55700 53.50700 27.13800
C  12.39500 54.17100 26.49300
C  12.77000 54.37200 25.10500
C  14.04000 53.74100 24.97700
C  11.22600 54.56200 27.31300
C  12.03800 55.03900 24.02200
O  12.46800 55.20400 22.86600
C  10.82800 55.67000 24.33300
N  16.64100 52.15400 24.42000
C  15.82000 52.80000 23.48700
C  16.33700 52.60200 22.04300
C  17.66200 51.76400 22.27400
C  17.65600 51.55700 23.77000
C  15.34900 52.02500 20.94100
C  18.93400 52.61700 21.84500
C  20.05400 51.87100 21.20000
N  18.03800 51.12400 26.65900
C  18.93400 50.64900 25.73300
C  20.06100 49.98900 26.33100
C  19.72900 50.14000 27.69200
C  18.46900 50.77900 27.85800
C  21.17700 49.19900 25.70100
C  20.12000 49.80200 29.08500
O  21.12900 49.27400 29.52600
C  19.04700 50.33900 30.01700
C  18.46200 49.39000 31.04500
O  17.64800 48.50200 30.88000
O  18.95200 49.65700 32.31500
C  18.50200 48.71900 33.35700
H  13.04500 53.63400 29.26000
H  14.31200 53.80500 22.82300
H  19.39200 50.35600 23.65300
H  16.37900 51.12400 31.62000
H  14.77600 53.47400 31.27000
H  14.13800 50.69000 31.70900
H  13.06200 51.32100 30.43600
H  13.12600 52.08700 32.04200
H  17.05800 54.00000 31.13900
H  18.32700 52.77600 31.31600
H  17.17800 54.24500 33.37900
H  18.35800 52.87700 33.44400
H  11.09700 55.63400 27.16300
H  11.31200 54.39400 28.38700
H  10.29300 54.08600 27.01200
H  10.25700 54.91300 24.87000
H  10.34700 55.96400 23.40000
H  11.07200 56.58400 24.87400
H  16.54000 53.60800 21.67400
H  17.66300 50.80600 21.75500
H  14.54500 51.48900 21.44400
H  15.96500 51.52500 20.19300
H  14.92600 52.86500 20.38900
H  19.32000 53.14700 22.71600
H  18.62200 53.41200 21.16900
H  20.12900 52.11500 20.14000
H  19.89000 50.79700 21.29700
H  20.94500 52.23500 21.71100
H  21.15100 49.31500 24.61800
H  21.04200 48.15900 25.99800
H  22.16000 49.56100 26.00300
H  19.53600 51.16000 30.54300
H  19.25800 48.77300 34.14100
H  18.60100 47.69300 33.00300
H  17.48200 48.84700 33.72000

