158

Mg 30.21400 58.95200 39.60500
C  27.76200 56.53000 39.16700
C  32.54200 56.61800 38.64500
C  32.53900 61.39300 39.59000
C  27.71800 61.27400 40.24300
N  30.09200 56.80100 39.01000
C  28.98500 56.00600 38.86500
C  29.29600 54.71700 38.34200
C  30.90400 54.66300 38.39300
C  31.19300 56.11700 38.74000
C  31.51000 53.71100 39.37300
C  28.75500 54.78500 36.86500
C  27.93500 53.54800 36.55100
H  27.41500 53.48100 35.09800
N  32.30400 58.95200 39.27100
C  33.07300 57.91400 38.89500
C  34.45000 58.27100 38.64800
C  34.46300 59.70700 38.76300
C  33.11700 60.06800 39.29500
C  35.51500 57.20900 38.29400
C  35.63700 60.50300 38.41800
O  36.68000 59.98800 37.91900
C  35.63300 61.97300 38.69400
N  30.14800 60.94700 39.88300
C  31.25600 61.73800 39.90200
C  30.88900 63.22900 40.10900
C  29.39300 63.17600 40.38800
C  29.05800 61.68500 40.07600
C  31.58200 63.96700 41.26400
C  28.58300 64.26000 39.51700
C  27.94900 65.37000 40.34100
N  28.11400 58.98600 39.79500
C  27.26600 59.96900 40.08800
C  25.94100 59.44300 40.29700
C  26.08300 58.09300 39.85400
C  27.41800 57.87500 39.55300
C  24.74000 60.26200 40.61900
C  25.34200 56.88200 39.49700
O  24.19300 56.60400 39.51300
C  26.43700 55.82300 39.14100
C  26.51000 54.84500 40.25700
O  26.81100 55.13500 41.38800
O  25.99500 53.66600 39.82400
C  26.07100 52.63700 40.87200
H  33.15300 55.89200 38.10400
H  33.36500 62.10400 39.65200
H  26.97000 62.04400 40.44100
H  28.88400 53.90100 38.93600
H  31.37600 54.48900 37.42600
H  30.79900 52.88400 39.36500
H  31.69600 54.15100 40.35200
H  32.45900 53.45600 38.90200
H  29.59500 54.67000 36.17900
H  28.15200 55.65200 36.59600
H  27.00300 53.41300 37.09900
H  28.52900 52.64600 36.70000
H  35.27600 56.23200 38.71300
H  36.54700 57.38500 38.59900
H  35.39400 57.04100 37.22400
H  34.83000 62.43600 38.12100
H  36.56600 62.47500 38.43600
H  35.50400 62.22500 39.74700
H  31.12700 63.67500 39.14300
H  29.16200 63.25500 41.45000
H  31.78700 63.29300 42.09600
H  31.09900 64.88100 41.60900
H  32.58800 64.31000 41.02100
H  27.84700 63.72300 38.91800
H  29.20600 64.80100 38.80400
H  28.12300 65.19300 41.40200
H  26.87900 65.39900 40.13400
H  28.29900 66.31100 39.91400
H  24.68200 61.09600 39.91900
H  24.70400 60.71700 41.60900
H  23.91400 59.57300 40.44800
H  26.17600 55.41100 38.16600
H  25.16200 52.80200 41.45000
H  26.97400 52.71500 41.47800
H  26.05700 51.61900 40.48300
Mg 26.23800 48.98800 27.01600
C  24.27700 50.32900 29.49700
C  28.71100 48.37200 29.19500
C  28.41000 48.34600 24.41800
C  24.00600 50.35000 24.65400
N  26.45300 49.21100 29.12300
C  25.49600 49.75000 29.97900
C  25.85900 49.45500 31.46300
C  27.43100 49.08400 31.33900
C  27.52900 48.91700 29.79800
C  28.41600 50.18200 31.85400
C  25.00700 48.31900 32.05700
C  24.96700 48.20800 33.56800
H  25.74900 49.15500 34.48800
N  28.27100 48.39100 26.82000
C  29.13700 48.21500 27.84300
C  30.36600 47.82200 27.38400
C  30.28600 47.74800 25.99400
C  28.92200 48.16600 25.64900
C  31.50600 47.41600 28.23100
C  31.31700 47.53700 24.95500
O  31.15400 47.62200 23.75000
C  32.77200 47.41600 25.46700
N  26.32200 49.59000 24.89600
C  27.26300 48.98700 24.07600
C  26.83700 49.08500 22.57700
C  25.39200 49.56500 22.68100
C  25.24700 49.90800 24.13500
C  27.77300 49.89500 21.70000
C  24.44200 48.47000 22.20700
C  24.01600 47.44100 23.24900
N  24.51800 50.10600 27.01700
C  23.66700 50.56500 25.99600
C  22.49500 51.17100 26.52200
C  22.70300 51.10800 27.89000
C  23.93600 50.40900 28.12200
C  21.42100 51.80900 25.69500
C  22.13200 51.40600 29.22000
O  21.07000 51.89800 29.54400
C  23.18500 50.94000 30.29300
C  23.64000 52.09400 31.17800
O  24.40500 52.98300 30.83000
O  22.95800 52.02600 32.35700
C  23.29100 53.06100 33.35800
H  29.45100 48.24800 29.98800
H  28.89300 47.89400 23.55000
H  23.29000 50.45000 23.83600
H  25.64800 50.42700 31.90800
H  27.58700 48.14800 31.87500
H  27.91000 51.13200 32.02800
H  29.12700 50.47900 31.08300
H  28.98900 49.77300 32.68700
H  25.54900 47.44700 31.69100
H  24.02300 48.31600 31.58900
H  25.19600 47.21400 33.95200
H  23.93600 48.47300 33.80200
H  31.21900 47.23900 29.26800
H  32.17000 48.28000 28.25400
H  32.23200 46.68100 27.88200
H  32.83700 46.40700 25.87500
H  32.96300 48.24400 26.14900
H  33.39800 47.65800 24.60800
H  26.73400 48.11900 22.08100
H  25.26500 50.40400 21.99800
H  28.64300 50.26500 22.24300
H  27.28800 50.73100 21.19500
H  28.20300 49.21100 20.96800
H  24.84800 47.91700 21.36000
H  23.56900 48.95200 21.76900
H  24.58900 47.55800 24.16900
H  24.15900 46.45400 22.80800
H  22.98300 47.67300 23.50800
H  21.06000 51.04500 25.00600
H  21.83900 52.69500 25.21800
H  20.51500 52.08200 26.23600
H  22.83100 50.11400 30.91000
H  22.92600 54.06500 33.14300
H  24.37700 53.13800 33.32400
H  23.09300 52.75000 34.38400

