158

Mg 35.68200 2.38600 30.45700
C  33.36200 3.30800 32.86100
C  38.13900 2.45900 33.01700
C  37.95900 1.49300 28.19400
C  33.15600 2.65900 27.95300
N  35.66400 2.73200 32.66700
C  34.64000 3.12300 33.40700
C  34.97500 3.03900 34.86900
C  36.51200 3.13300 34.88300
C  36.84100 2.70600 33.45100
C  36.96000 4.65400 35.19100
C  34.40100 1.77500 35.57700
C  34.04900 1.96300 37.12200
H  34.80900 3.01200 37.99300
N  37.73200 1.98500 30.62900
C  38.53200 2.02500 31.72900
C  39.90100 1.51100 31.38400
C  39.77600 1.20400 29.98300
C  38.44800 1.61500 29.55300
C  41.02400 1.32400 32.40300
C  40.84800 0.53400 29.14800
O  40.67800 0.28700 27.95100
C  42.16400 0.20200 29.73100
N  35.56500 2.20300 28.38500
C  36.68800 1.76300 27.65100
C  36.41500 1.55500 26.14700
C  34.83000 1.69100 26.16000
C  34.47900 2.23100 27.51700
C  37.26400 2.49000 25.22500
C  34.10600 0.38800 25.83600
C  34.34200 -0.23700 24.45300
N  33.68600 2.97500 30.37700
C  32.83300 3.01300 29.24900
C  31.51800 3.47800 29.78300
C  31.64400 3.51100 31.19900
C  33.03600 3.28200 31.48600
C  30.31900 3.74700 28.98400
C  30.94400 3.77200 32.40500
O  29.73500 4.06400 32.57500
C  32.06500 3.66900 33.54100
C  32.25500 5.01100 34.23900
O  32.63300 5.98900 33.71000
O  31.87500 4.97900 35.58300
C  32.08700 6.20800 36.33100
H  38.86700 2.61700 33.81600
H  38.76300 1.22800 27.50500
H  32.34600 2.70800 27.22300
H  34.54600 3.94200 35.30300
H  36.99500 2.54600 35.66400
H  37.60700 4.58300 36.06500
H  36.18700 5.39500 35.39300
H  37.46400 5.00600 34.29100
H  34.93100 0.83100 35.45600
H  33.43000 1.50300 35.16500
H  34.15900 1.00800 37.63400
H  32.97300 2.13900 37.09200
H  41.13500 0.26600 32.64000
H  40.85200 1.89700 33.31400
H  41.94000 1.72300 31.96600
H  42.17100 -0.55500 30.51500
H  42.57400 1.18700 29.95300
H  42.79200 -0.23400 28.95400
H  36.65600 0.50300 25.99200
H  34.67600 2.46200 25.40500
H  38.24100 2.03200 25.07200
H  37.34300 3.51400 25.59100
H  36.77000 2.34400 24.26400
H  33.02600 0.53500 25.84500
H  34.39300 -0.34600 26.58900
H  34.99700 0.44100 23.90500
H  33.37400 -0.28600 23.95500
H  34.76900 -1.22700 24.29300
H  30.50200 4.06500 27.95800
H  29.74100 4.45700 29.57600
H  29.73300 2.83700 28.85900
H  31.78200 2.92100 34.28100
H  31.39200 6.93000 35.90100
H  33.07700 6.59200 36.08300
H  32.06100 6.02100 37.40400
Mg 5.73300 54.63900 40.93000
C  5.25900 51.22200 41.21900
C  8.81000 54.15600 39.76400
C  5.74200 57.89300 39.93100
C  2.27400 55.06700 41.89700
N  6.78100 52.81600 40.18400
C  6.48100 51.54100 40.55200
C  7.62900 50.66200 40.04900
C  8.81300 51.57600 40.29300
C  8.12500 52.96000 40.16000
C  9.62700 51.40200 41.61400
C  7.49800 50.19400 38.50200
C  6.51600 50.96100 37.50000
H  7.10300 51.88800 36.42900
N  7.11900 55.90600 40.02900
C  8.39600 55.47400 39.59500
C  9.01700 56.58600 38.81500
C  8.00400 57.64000 38.73400
C  6.88800 57.19600 39.62600
C  10.31400 56.57800 38.16900
C  8.15400 58.96300 37.87700
O  9.17700 59.21200 37.28400
C  7.16800 60.06900 37.96500
N  4.26200 56.34400 41.00900
C  4.54100 57.55800 40.59700
C  3.39600 58.49400 40.86800
C  2.40900 57.63700 41.63400
C  2.95000 56.26000 41.51800
C  3.68800 59.91200 41.45900
C  0.91100 57.73900 41.03700
C  0.14000 59.14800 41.08700
N  4.02100 53.42200 41.49800
C  2.76800 53.72800 41.84900
C  2.07100 52.43400 42.08600
C  3.05800 51.46000 41.93900
C  4.21400 52.09000 41.46700
C  0.64400 52.19700 42.57900
C  3.25600 50.07500 42.12100
O  2.50400 49.20800 42.53900
C  4.64000 49.80500 41.47100
C  4.45100 49.15900 40.15200
O  3.57400 49.40700 39.33200
O  5.32500 48.10100 40.13300
C  5.03900 47.07000 39.12300
H  9.87400 54.05000 39.54200
H  5.67800 58.93400 39.60800
H  1.29100 55.31000 42.30800
H  7.69700 49.74900 40.64100
H  9.58900 51.44900 39.53800
H  9.55400 52.22300 42.32700
H  10.67000 51.19900 41.37100
H  9.26300 50.52200 42.14300
H  7.22400 49.13900 38.46700
H  8.52000 50.27000 38.13100
H  5.76900 51.52600 38.05700
H  5.88900 50.20400 37.02900
H  10.92400 57.31900 38.68700
H  10.24900 56.86100 37.11800
H  10.73200 55.57400 38.24700
H  6.29700 59.66700 37.44700
H  7.63200 60.89400 37.42400
H  7.00200 60.52600 38.94100
H  2.83600 58.73400 39.96400
H  2.29400 57.91200 42.68200
H  3.19800 60.00700 42.42700
H  3.19100 60.63800 40.81500
H  4.77500 59.99000 41.49500
H  0.30900 56.97200 41.52500
H  0.93600 57.37900 40.00800
H  -0.93200 59.02900 40.93000
H  0.60600 59.85400 40.39900
H  0.35400 59.46300 42.10800
H  0.75600 51.74300 43.56400
H  0.10200 51.54000 41.89900
H  0.04600 53.09200 42.75100
H  5.31800 49.22200 42.09400
H  5.45800 46.10700 39.41400
H  5.61300 47.34700 38.23800
H  3.96500 46.99200 38.95400

