158

Mg 48.95500 35.48000 27.25200
C  47.09700 33.97000 29.73600
C  49.38200 38.25700 29.39100
C  50.34800 37.20600 24.72200
C  47.94400 33.04300 24.86700
N  48.27400 36.09000 29.27700
C  47.69800 35.17100 30.14200
C  47.84200 35.59800 31.62300
C  48.22900 37.13700 31.44100
C  48.68900 37.24800 29.96900
C  46.96600 38.02800 31.68000
C  49.01600 34.90400 32.37600
C  48.91300 34.89500 33.93000
H  48.03900 36.03000 34.47900
N  49.85000 37.39400 27.10600
C  49.90500 38.37900 28.10700
C  50.73400 39.48900 27.66000
C  51.15700 39.18600 26.30300
C  50.47000 37.86200 26.00800
C  50.98400 40.75600 28.43500
C  52.12500 39.95800 25.38600
O  52.46300 39.50400 24.29100
C  52.67600 41.32400 25.73600
N  49.08200 35.19700 25.08500
C  49.74900 36.05300 24.24200
C  49.67000 35.69900 22.80500
C  49.14700 34.23800 22.92100
C  48.59800 34.13100 24.36900
C  48.85300 36.59400 21.93600
C  50.24100 33.21900 22.52700
C  50.08200 32.25200 21.40100
N  47.83900 33.83400 27.25100
C  47.59900 32.85500 26.21500
C  46.75100 31.83300 26.80400
C  46.50300 32.23800 28.18300
C  47.19600 33.49400 28.37100
C  46.36100 30.50700 26.13700
C  45.84100 31.86800 29.40100
O  45.20100 30.82300 29.62900
C  45.97100 33.11900 30.31700
C  46.16000 32.71400 31.74800
O  47.22400 32.30200 32.24500
O  45.01000 32.93000 32.46200
C  45.09200 33.01800 33.96200
H  49.60800 39.07000 30.08500
H  50.73800 37.67600 23.81700
H  47.68100 32.30400 24.10700
H  46.86600 35.54800 32.10400
H  49.06600 37.46800 32.05600
H  46.77200 38.43900 32.67100
H  46.12900 37.44800 31.29000
H  47.01400 38.86600 30.98500
H  49.98000 35.39100 32.22300
H  49.12100 33.89500 31.97800
H  49.94700 34.97100 34.26700
H  48.54100 33.92900 34.26900
H  51.07900 41.63300 27.79500
H  51.88500 40.87500 29.03600
H  50.11100 40.91900 29.06800
H  51.88000 42.01600 25.46100
H  53.60400 41.53700 25.20500
H  52.88500 41.32500 26.80600
H  50.65900 35.79200 22.35800
H  48.26300 34.08200 22.30200
H  48.03300 36.10000 21.41300
H  49.53300 36.91800 21.14800
H  48.38400 37.43500 22.44500
H  50.45500 32.67400 23.44600
H  51.11800 33.77900 22.20300
H  50.85800 32.26100 20.63600
H  49.14000 32.43500 20.88400
H  50.02500 31.25100 21.82900
H  45.35600 30.53900 25.71600
H  46.48900 29.65400 26.80400
H  47.01000 30.30500 25.28400
H  45.09500 33.75500 30.19300
H  46.04400 33.45700 34.25900
H  45.14700 32.02200 34.40000
H  44.20900 33.48200 34.40300
Mg 6.44500 55.33400 41.21000
C  3.97300 52.74900 41.06600
C  8.66200 53.15100 39.80900
C  8.77600 57.91900 41.07000
C  4.04300 57.56600 42.08700
N  6.22600 53.21900 40.39900
C  5.14400 52.36000 40.45700
C  5.53700 50.97500 39.87300
C  7.09100 51.14500 39.50900
C  7.34500 52.62300 39.96600
C  8.04200 50.14300 40.21500
C  4.75700 50.47600 38.63000
C  4.54300 48.88900 38.42600
H  5.10400 48.14900 37.16400
N  8.49900 55.50600 40.54900
C  9.21800 54.45400 40.00000
C  10.57500 54.91100 39.67600
C  10.57200 56.30600 39.96500
C  9.29800 56.68100 40.64200
C  11.60100 54.01700 39.09700
C  11.71300 57.23900 39.60000
O  12.83000 56.85900 39.16300
C  11.69300 58.71600 39.83400
N  6.44900 57.37200 41.54200
C  7.55200 58.24500 41.58900
C  7.12200 59.74500 41.87900
C  5.54300 59.60100 41.80300
C  5.28300 58.10100 41.74100
C  7.66600 60.26100 43.19000
C  4.76400 60.34600 40.63500
C  3.70300 61.36100 41.10600
N  4.46600 55.23100 41.68600
C  3.64300 56.24100 42.09200
C  2.39800 55.73700 42.49900
C  2.48800 54.31100 42.27100
C  3.72100 54.08700 41.59800
C  1.24000 56.65300 42.91900
C  1.75100 53.05700 42.31300
O  0.65400 52.71500 42.74000
C  2.71800 52.01300 41.57800
C  1.86900 51.37600 40.50100
O  1.18800 51.94700 39.58700
O  1.83100 50.01400 40.67300
C  0.97200 49.31100 39.76800
H  9.27700 52.32500 39.44400
H  9.49900 58.73700 41.03800
H  3.26900 58.29900 42.32200
H  5.50400 50.27200 40.70500
H  7.27200 51.07400 38.43700
H  8.63600 49.65500 39.44300
H  7.41600 49.32600 40.57300
H  8.55700 50.65000 41.03200
H  5.16400 51.02000 37.77800
H  3.77800 50.94400 38.73600
H  3.47300 48.68300 38.47000
H  5.04800 48.51300 39.31500
H  11.73700 54.29700 38.05300
H  11.33900 52.96100 39.15500
H  12.52500 54.23900 39.63200
H  12.52200 59.18400 39.30300
H  11.84100 58.83600 40.90700
H  10.77700 59.17500 39.46500
H  7.53000 60.40900 41.11800
H  5.02300 60.01800 42.66500
H  8.34800 59.53000 43.62500
H  6.90800 60.54200 43.92100
H  8.32700 61.11100 43.01900
H  4.26200 59.53500 40.10600
H  5.37100 60.94400 39.95500
H  3.23800 61.90700 40.28500
H  4.18200 61.96000 41.88000
H  2.96400 60.86000 41.73100
H  1.21000 56.79500 43.99900
H  0.33200 56.07700 42.74000
H  1.30000 57.64900 42.48000
H  3.07400 51.22500 42.24100
H  -0.04900 49.66400 39.91500
H  1.00000 48.26600 40.07800
H  1.22200 49.32500 38.70700

