158

Mg 1.58900 7.61600 25.43800
C  1.68200 9.21200 28.35300
C  1.53400 4.50600 27.10300
C  1.30300 5.83000 22.41800
C  2.34800 10.33300 23.63400
N  1.52700 6.91700 27.58500
C  1.54300 7.83500 28.61900
C  1.62500 7.04800 29.97600
C  1.79500 5.56400 29.49500
C  1.59600 5.63200 27.97000
C  3.17500 4.92400 29.79800
C  0.44400 7.32200 30.86200
C  0.53300 7.05200 32.35900
H  1.96200 6.72400 33.09700
N  1.33400 5.49600 24.84600
C  1.42700 4.42500 25.70500
C  1.40500 3.21300 24.97800
C  1.27200 3.55300 23.56200
C  1.29600 4.99400 23.54200
C  1.65800 1.83700 25.60300
C  1.07500 2.67800 22.31000
O  1.10000 3.11800 21.18600
C  1.12000 1.13600 22.62500
N  1.43400 8.01200 23.34100
C  1.36000 7.17800 22.30600
C  1.60700 7.90600 20.93700
C  1.69600 9.38900 21.34200
C  1.88500 9.24200 22.85500
C  2.89000 7.36600 20.17800
C  0.52600 10.35200 20.90000
C  -0.82500 10.13700 21.71900
N  1.94400 9.37700 25.87300
C  2.31600 10.43600 25.07000
C  2.42600 11.66600 25.76500
C  2.18300 11.31500 27.13400
C  1.87800 9.87500 27.07200
C  2.73000 13.01400 25.12200
C  2.12700 11.69000 28.46600
O  2.29900 12.85200 28.88700
C  1.78500 10.36900 29.32000
C  2.87600 10.26300 30.31600
O  3.99500 9.74800 30.10500
O  2.49700 10.83400 31.54100
C  3.63900 10.79800 32.47500
H  1.35700 3.66300 27.77400
H  1.28100 5.35600 21.43400
H  2.57900 11.27500 23.13300
H  2.38100 7.53100 30.59500
H  1.08800 5.00600 30.11000
H  3.02000 3.94000 30.24200
H  3.81500 5.53200 30.43700
H  3.65300 4.97900 28.82000
H  -0.42200 6.72500 30.57500
H  0.12000 8.34800 30.69000
H  -0.22200 6.33500 32.68200
H  0.21300 7.97100 32.84900
H  2.48800 1.36500 25.07900
H  0.73200 1.26600 25.66600
H  2.02100 1.80800 26.63100
H  0.35000 0.79400 23.31700
H  2.06100 0.87400 23.10900
H  0.99100 0.66700 21.65000
H  0.72500 7.59200 20.37900
H  2.62200 9.76300 20.90600
H  3.65300 6.88700 20.79200
H  3.37100 8.18100 19.63800
H  2.58300 6.59400 19.47200
H  0.28800 10.04000 19.88400
H  0.90400 11.37000 20.80600
H  -0.68800 9.39300 22.50400
H  -1.69700 9.96300 21.08900
H  -1.02800 11.11300 22.16000
H  3.75600 13.27600 25.38000
H  1.91500 13.57000 25.58500
H  2.50800 13.14700 24.06300
H  0.83000 10.50100 29.82800
H  4.51400 11.27000 32.02700
H  3.93600 9.75900 32.61500
H  3.54200 11.12300 33.51100
Mg 25.67600 -7.37500 47.90200
C  27.74300 -4.75300 46.85900
C  23.35500 -6.60700 45.58400
C  23.71200 -9.79700 49.33900
C  28.39900 -8.71400 49.84400
N  25.71300 -5.92800 46.26300
C  26.58300 -4.87800 46.05000
C  26.00300 -3.81500 45.10500
C  24.62100 -4.47000 44.68700
C  24.47700 -5.72600 45.62300
C  23.43100 -3.47200 44.66300
C  26.93000 -3.47600 43.89000
C  27.05900 -2.03300 43.58300
H  26.63300 -1.67000 42.20300
N  23.75900 -8.14600 47.46500
C  23.01800 -7.75400 46.42100
C  21.89400 -8.63000 46.35000
C  21.86900 -9.40900 47.48700
C  23.16000 -9.08900 48.20700
C  20.96800 -8.67600 45.17400
C  20.68300 -10.38000 47.94900
O  19.61400 -10.52400 47.35500
C  20.75100 -11.16000 49.28000
N  26.05400 -9.04500 49.32300
C  25.03800 -9.86100 49.76500
C  25.55900 -11.02400 50.64200
C  27.03200 -10.58700 50.85700
C  27.20900 -9.38000 49.93100
C  24.74800 -11.17200 51.99700
C  28.01100 -11.80400 50.58000
C  29.06600 -12.00000 51.67800
N  27.67000 -6.88000 48.32600
C  28.61900 -7.48700 49.08400
C  29.72900 -6.55100 49.11000
C  29.42700 -5.44900 48.32500
C  28.17300 -5.72000 47.80400
C  31.16700 -6.76700 49.62200
C  30.01000 -4.21400 47.74100
O  31.03800 -3.64300 47.93400
C  28.81500 -3.66200 46.90200
C  28.26100 -2.34300 47.57500
O  27.74000 -2.25000 48.66900
O  28.42700 -1.29100 46.66600
C  27.87900 0.04400 46.94300
H  22.60000 -6.40300 44.82200
H  23.04900 -10.44500 49.91600
H  29.36500 -9.00300 50.26300
H  25.89500 -2.90600 45.69700
H  24.65900 -4.81300 43.65300
H  22.53600 -3.95500 45.05400
H  23.34200 -3.18200 43.61600
H  23.62100 -2.53600 45.18900
H  26.48600 -3.97600 43.02800
H  27.88800 -3.96200 44.07200
H  28.12900 -1.82500 43.57300
H  26.40700 -1.49500 44.27100
H  21.43100 -8.07100 44.39400
H  19.97500 -8.29800 45.41900
H  20.92400 -9.73400 44.91700
H  21.60100 -11.84100 49.24300
H  19.86600 -11.78500 49.39300
H  20.84600 -10.57000 50.19200
H  25.54400 -11.97500 50.11000
H  27.17000 -10.10700 51.82600
H  24.20000 -12.11300 52.03100
H  24.04500 -10.38300 52.26600
H  25.44200 -11.26900 52.83300
H  28.55300 -11.58300 49.66100
H  27.50600 -12.75600 50.41900
H  30.04100 -11.86000 51.21200
H  29.04600 -13.03600 52.01700
H  28.85000 -11.40400 52.56500
H  31.78600 -7.20600 48.83900
H  31.26900 -7.43300 50.47800
H  31.51600 -5.81600 50.02400
H  29.14900 -3.35900 45.91000
H  26.82000 0.04300 47.20300
H  28.00900 0.66500 46.05700
H  28.46500 0.28000 47.83100

