158

Mg 47.48700 15.78000 28.91200
C  45.73900 15.23300 31.81600
C  50.02500 17.16900 30.58400
C  48.82300 16.78800 25.83000
C  44.88600 14.20300 27.06400
N  47.72400 16.34000 30.97600
C  46.89000 16.02400 31.99100
C  47.47400 16.47800 33.36800
C  48.92800 16.92900 32.94000
C  48.90400 16.82700 31.40000
C  49.32000 18.34700 33.42800
C  47.23300 15.58800 34.63500
C  48.29500 15.53400 35.73700
H  48.15000 16.66800 36.74900
N  49.24300 16.77000 28.27900
C  50.14200 17.24100 29.16500
C  51.30200 17.58500 28.40600
C  51.00600 17.49100 27.04100
C  49.64800 17.00800 26.94300
C  52.63800 17.99200 29.12600
C  51.82200 17.78900 25.85300
O  51.31400 17.65400 24.73100
C  53.29000 18.02800 26.05800
N  46.96800 15.53600 26.78300
C  47.63300 16.11200 25.73800
C  46.97200 15.79100 24.36700
C  45.90900 14.74000 24.71000
C  45.90200 14.77500 26.26700
C  46.61900 17.07400 23.57700
C  46.16700 13.28400 24.08900
C  46.61300 12.10300 25.08600
N  45.82500 14.71600 29.24400
C  44.80800 14.17900 28.43800
C  43.71600 13.69100 29.28400
C  44.09100 14.01100 30.58600
C  45.37700 14.60600 30.54600
C  42.37600 13.14100 28.78600
C  43.57500 13.93400 31.96500
O  42.56400 13.39300 32.44200
C  44.68700 14.71600 32.78300
C  44.08300 15.78600 33.57000
O  43.97700 16.96200 33.26100
O  43.74700 15.29100 34.79900
C  42.91800 16.22800 35.60400
H  50.95400 17.56300 31.00100
H  49.07900 17.23800 24.86900
H  44.11000 13.65000 26.53100
H  46.97300 17.41700 33.60500
H  49.76400 16.25600 33.13100
H  49.37500 19.01100 32.56500
H  50.25800 18.23200 33.97100
H  48.56200 18.78600 34.07600
H  47.08700 14.55000 34.33500
H  46.36000 15.97100 35.16500
H  49.27300 15.70500 35.28700
H  48.22400 14.61000 36.31200
H  53.53000 17.64000 28.60900
H  52.76900 17.46100 30.06900
H  52.66800 19.07000 29.28100
H  53.70800 18.33200 25.09900
H  53.70800 17.09300 26.43000
H  53.33200 18.88100 26.73600
H  47.63800 15.29000 23.66400
H  44.98700 15.14400 24.29200
H  47.09200 17.92100 24.07200
H  45.57000 17.35500 23.67300
H  46.78400 16.98300 22.50300
H  46.99700 13.34700 23.38500
H  45.30200 12.99800 23.49200
H  46.91400 12.50700 26.05300
H  47.49800 11.66800 24.62100
H  45.79900 11.39100 25.22000
H  41.55100 13.59600 29.33500
H  42.35600 12.05200 28.78200
H  42.20800 13.44200 27.75200
H  45.17000 13.98800 33.43300
H  43.18300 17.26800 35.41400
H  43.30400 16.03900 36.60600
H  41.84200 16.05600 35.58200
Mg 16.51500 51.81600 26.36900
C  18.41900 50.11100 28.73000
C  14.40200 52.75000 28.86300
C  14.88600 53.26900 24.09400
C  18.76100 50.46500 23.93800
N  16.50300 51.55100 28.50800
C  17.38300 50.84200 29.23900
C  17.26600 51.13500 30.74300
C  15.78800 51.54800 30.80100
C  15.53800 52.04900 29.33000
C  14.88900 50.27700 31.06700
C  18.20500 52.19800 31.29900
C  18.60700 52.01700 32.74700
H  17.44500 51.53300 33.69000
N  14.86700 52.92500 26.50600
C  14.10700 53.21800 27.58500
C  13.01500 54.06800 27.26500
C  13.23000 54.37400 25.88000
C  14.30500 53.50100 25.38300
C  12.04200 54.68200 28.18900
C  12.48400 55.32500 24.95200
O  12.79400 55.53100 23.74400
C  11.29400 56.12300 25.54900
N  16.68200 51.65600 24.20300
C  15.83600 52.46700 23.55400
C  16.22700 52.55800 22.00300
C  17.55100 51.68900 21.95100
C  17.72000 51.28600 23.43600
C  15.18000 52.15700 20.91600
C  18.79900 52.25800 21.16800
C  19.59400 53.39800 21.81000
N  18.15800 50.49000 26.28300
C  19.00900 50.05800 25.30700
C  20.20000 49.37500 25.82600
C  20.01800 49.37900 27.19800
C  18.74900 50.05100 27.41500
C  21.31800 48.71900 25.07400
C  20.50100 48.89100 28.46500
O  21.49500 48.15200 28.64100
C  19.50700 49.31600 29.52500
C  19.09300 48.18000 30.37700
O  18.15400 47.44000 30.16800
O  19.64100 48.35900 31.61200
C  19.12100 47.61900 32.72200
H  13.52200 52.85600 29.50100
H  14.52300 53.84100 23.23800
H  19.54700 50.14000 23.25400
H  17.38200 50.22600 31.33300
H  15.55800 52.31000 31.54700
H  14.14100 50.15600 30.28400
H  14.49200 50.37000 32.07800
H  15.43400 49.33500 31.11600
H  17.71500 53.16800 31.21900
H  19.14500 52.23100 30.74800
H  19.00700 52.92600 33.19800
H  19.33700 51.21200 32.82800
H  12.02100 54.29800 29.20900
H  10.99200 54.65200 27.89700
H  12.43800 55.68300 28.36300
H  10.36000 55.56200 25.58600
H  11.01000 56.82800 24.76700
H  11.63300 56.72500 26.39200
H  16.53100 53.59700 21.87000
H  17.24100 50.75600 21.47900
H  14.94000 53.02100 20.29600
H  14.32000 51.72600 21.42800
H  15.52400 51.37200 20.24300
H  18.37300 52.65300 20.24600
H  19.47200 51.43400 20.92800
H  19.12500 53.81800 22.70000
H  19.78000 54.11400 21.00900
H  20.54700 52.90900 22.01400
H  21.34400 47.65100 25.28700
H  22.27800 49.18000 25.30500
H  21.06700 48.76200 24.01400
H  19.95500 50.16000 30.04900
H  18.47100 46.79500 32.42700
H  18.63700 48.36500 33.35300
H  19.95700 47.15200 33.24200

