158

Mg 26.89500 50.26800 26.02900
C  24.78100 51.51600 28.51500
C  28.90800 49.06800 28.49900
C  28.94200 49.22600 23.57100
C  24.73500 51.84700 23.63900
N  26.83400 50.32000 28.25400
C  25.85500 50.83800 29.03100
C  26.06900 50.57500 30.55700
C  27.51000 49.98600 30.52100
C  27.81100 49.86000 29.00500
C  28.68100 50.78100 31.22800
C  25.00400 49.53400 31.13100
C  24.46400 49.93800 32.55000
H  25.46500 50.57600 33.58200
N  28.63200 49.23200 25.99300
C  29.28700 48.79500 27.13300
C  30.57100 48.28000 26.76600
C  30.56900 48.28500 25.32900
C  29.29500 48.93200 24.90300
C  31.59500 47.79800 27.75300
C  31.56100 47.71400 24.39800
O  31.48200 47.76400 23.14900
C  32.85100 47.05600 24.89400
N  26.74100 50.39500 23.94600
C  27.73000 49.86300 23.17900
C  27.41100 50.01800 21.68200
C  26.06700 50.84500 21.71700
C  25.80400 51.06700 23.20600
C  28.59800 50.85100 20.97300
C  24.75300 50.30200 20.99100
C  24.03600 49.14900 21.65900
N  25.10800 51.47600 26.02400
C  24.38600 51.97900 25.01600
C  23.22700 52.73400 25.53300
C  23.33900 52.58400 26.91700
C  24.51700 51.83000 27.18100
C  22.25900 53.44000 24.72000
C  22.69000 52.97900 28.14700
O  21.69300 53.66200 28.28600
C  23.54700 52.21600 29.21800
C  23.95900 53.24600 30.22500
O  24.95800 53.93600 30.17100
O  23.10400 53.36500 31.29700
C  23.50200 54.30800 32.36200
H  29.59800 48.82400 29.30900
H  29.56300 48.83500 22.76200
H  24.16600 52.35900 22.86000
H  26.11600 51.55400 31.03400
H  27.63400 49.01100 30.99400
H  28.40500 51.78000 31.56800
H  29.53500 50.84800 30.55500
H  29.00800 50.28800 32.14300
H  25.40800 48.52200 31.16300
H  24.16000 49.38000 30.45900
H  23.92500 49.10400 33.00000
H  23.76100 50.75700 32.40100
H  32.61500 48.09600 27.51200
H  31.51600 46.71100 27.79600
H  31.40500 48.11100 28.77900
H  33.54700 46.70000 24.13400
H  32.56300 46.28300 25.60600
H  33.38500 47.84500 25.42200
H  27.15700 49.03300 21.29200
H  26.38500 51.82100 21.35000
H  29.36000 51.29500 21.61300
H  28.25400 51.68500 20.36200
H  29.04600 50.11900 20.30000
H  25.24600 50.00500 20.06500
H  24.04200 51.11800 20.86400
H  23.13800 49.61300 22.06800
H  24.65500 48.72600 22.45100
H  23.96900 48.34500 20.92600
H  21.78300 52.83900 23.94600
H  22.72000 54.27200 24.18700
H  21.53500 53.90400 25.39000
H  22.79600 51.63000 29.74800
H  24.11900 55.15800 32.07200
H  24.19400 53.81700 33.04600
H  22.55300 54.64500 32.77800
Mg -9.40200 40.14400 39.79500
C  -8.66400 36.89000 39.26900
C  -6.01000 40.93400 38.87500
C  -10.28600 43.54100 39.25500
C  -12.72200 39.35100 40.07800
N  -7.53300 39.04500 39.18800
C  -7.54000 37.66200 39.09500
C  -6.08000 37.21400 38.68700
C  -5.25000 38.48700 39.01900
C  -6.32800 39.55400 39.01700
C  -4.45900 38.57300 40.42000
C  -6.07700 36.72500 37.20700
C  -6.22400 37.80500 36.08300
H  -7.42700 37.58600 35.21300
N  -8.31000 41.98500 39.21100
C  -6.91400 42.06500 38.95000
C  -6.66300 43.41000 38.59700
C  -7.93200 44.10400 38.43900
C  -8.89900 43.20400 39.00400
C  -5.25700 43.92700 38.18500
C  -8.11700 45.58900 37.90800
O  -7.16400 46.20300 37.62600
C  -9.42300 46.20500 37.60700
N  -11.20400 41.29500 39.63900
C  -11.31000 42.63300 39.65100
C  -12.77800 43.05600 40.09800
C  -13.41300 41.79600 40.47900
C  -12.40600 40.75600 40.07500
C  -12.75700 44.32400 41.13800
C  -14.87400 41.56700 39.89200
C  -15.78600 40.62800 40.69100
N  -10.56800 38.44900 39.78800
C  -11.85000 38.25500 39.94300
C  -12.20700 36.85100 39.81500
C  -10.96900 36.25700 39.56900
C  -10.01500 37.30200 39.51600
C  -13.62000 36.24200 39.90200
C  -10.34200 35.03200 39.21900
O  -10.79200 33.89800 39.10100
C  -8.84300 35.36000 38.87900
C  -7.95100 34.45400 39.71900
O  -8.04700 34.12500 40.88500
O  -6.90700 34.01100 38.87900
C  -5.83900 33.20900 39.43300
H  -4.95800 41.21000 38.77400
H  -10.54900 44.59900 39.30900
H  -13.77800 39.19900 40.31400
H  -5.85700 36.37200 39.34300
H  -4.58000 38.79900 38.21800
H  -3.41300 38.83800 40.26500
H  -4.62500 37.74000 41.10400
H  -4.87400 39.44200 40.93100
H  -6.92700 36.06500 37.03400
H  -5.22500 36.09200 36.95900
H  -5.35000 37.68500 35.44200
H  -6.39600 38.75300 36.59200
H  -4.90600 44.75800 38.79800
H  -5.25700 44.39700 37.20100
H  -4.52400 43.12100 38.14300
H  -9.75400 46.76100 38.48400
H  -10.12400 45.41200 37.34900
H  -9.44600 46.92900 36.79200
H  -13.25000 43.40500 39.17900
H  -13.39200 41.71100 41.56500
H  -13.41500 44.17200 41.99400
H  -12.96600 45.26000 40.62000
H  -11.74000 44.35200 41.52900
H  -14.60300 41.12700 38.93200
H  -15.26600 42.57900 39.78300
H  -16.74200 41.10300 40.91300
H  -15.25500 40.30100 41.58500
H  -16.02100 39.79100 40.03300
H  -13.61800 35.24600 40.34500
H  -13.99300 36.22200 38.87800
H  -14.18900 36.88000 40.57800
H  -8.79000 35.07900 37.82700
H  -6.19000 32.18100 39.34400
H  -5.54200 33.48500 40.44500
H  -4.95900 33.21100 38.79000

