158

Mg 25.33600 0.94500 29.61700
C  27.46100 0.98400 32.18600
C  22.69100 1.34000 31.69000
C  23.24700 0.57900 26.95100
C  28.10800 0.40400 27.40600
N  25.09800 1.01800 31.73200
C  26.12800 1.13100 32.59900
C  25.55600 1.44900 34.05100
C  24.04400 1.27600 33.86700
C  23.93300 1.21200 32.37400
C  23.47200 0.02800 34.57500
C  26.06400 2.80000 34.70800
C  26.81800 2.77000 36.11800
H  26.66700 3.74700 37.25300
N  23.25500 0.89100 29.37000
C  22.32300 1.16900 30.34500
C  20.96500 1.20200 29.83400
C  21.09100 0.98800 28.44400
C  22.61200 0.84900 28.14600
C  19.68700 1.14000 30.71300
C  20.01000 0.84200 27.37000
O  20.37900 0.60600 26.20700
C  18.54500 1.01300 27.72400
N  25.68800 0.43300 27.43600
C  24.63200 0.46400 26.56900
C  25.08900 0.63000 25.16700
C  26.63000 0.84200 25.24900
C  26.87400 0.56200 26.76800
C  24.72900 -0.56500 24.19900
C  27.11400 2.26800 24.74400
C  27.27100 3.40900 25.73600
N  27.39000 0.63100 29.70100
C  28.33000 0.34700 28.77100
C  29.60400 0.18600 29.41200
C  29.33200 0.46700 30.78000
C  27.94900 0.73600 30.90300
C  30.93200 -0.06400 28.77700
C  29.84000 0.57600 32.16100
O  30.98200 0.51900 32.57700
C  28.65300 1.01600 33.10200
C  28.58600 0.10000 34.32400
O  28.09200 -1.00500 34.32900
O  29.19400 0.62700 35.52500
C  29.31200 -0.24800 36.71800
H  21.81700 1.50900 32.32200
H  22.60600 0.70800 26.07700
H  28.99500 0.45100 26.77100
H  26.00100 0.69200 34.69700
H  23.44400 2.13800 34.15700
H  24.15000 -0.28800 35.36800
H  23.34900 -0.84900 33.94000
H  22.48700 0.24800 34.98600
H  25.16000 3.29300 35.06700
H  26.66500 3.31100 33.95700
H  27.88400 2.77200 35.89400
H  26.77900 1.80000 36.61200
H  19.82000 1.16800 31.79400
H  19.34200 0.12700 30.50300
H  18.94400 1.86100 30.37200
H  18.28900 0.12900 28.30700
H  17.94200 1.07400 26.81800
H  18.25000 1.88700 28.30600
H  24.68300 1.54500 24.73500
H  27.28000 0.13000 24.74100
H  24.27900 -0.02900 23.36300
H  24.08700 -1.36000 24.58000
H  25.61900 -1.04000 23.78500
H  26.38300 2.60200 24.00800
H  28.05000 2.09200 24.21300
H  28.28500 3.71100 25.47500
H  26.96700 3.10400 26.73800
H  26.61000 4.20800 25.40000
H  31.11700 0.15200 27.72500
H  31.24500 -1.09800 28.91900
H  31.64800 0.61700 29.23800
H  28.60700 2.05500 33.42800
H  29.29900 -1.30000 36.43300
H  28.57800 -0.13100 37.51500
H  30.29800 -0.02900 37.12900
Mg 10.04900 47.00300 26.16600
C  8.24400 46.99300 29.11200
C  12.78500 48.11900 27.86900
C  11.70400 47.10100 23.28200
C  6.94800 46.57800 24.39900
N  10.41300 47.49500 28.24500
C  9.56100 47.40000 29.28000
C  10.21000 47.76700 30.55500
C  11.43300 48.62300 29.96500
C  11.58400 48.00500 28.60800
C  11.10800 50.14400 29.91500
C  10.71800 46.54400 31.26900
C  10.89500 46.72400 32.76200
H  10.49400 45.62000 33.72200
N  11.94600 47.61700 25.60800
C  12.95000 47.95700 26.46900
C  14.22700 47.97300 25.82000
C  13.94300 47.60700 24.48700
C  12.47600 47.49600 24.34400
C  15.52000 48.35800 26.44100
C  15.03000 47.28400 23.45500
O  14.66200 47.14500 22.30000
C  16.51500 47.35400 23.77300
N  9.40100 47.07700 24.10700
C  10.39500 47.10100 23.12000
C  9.72400 46.83300 21.75200
C  8.20800 46.46200 22.13000
C  8.14100 46.81100 23.66900
C  9.87800 47.95700 20.78700
C  7.90700 45.02100 21.87300
C  8.68100 43.93700 22.69100
N  7.99000 46.79400 26.56300
C  6.86700 46.69900 25.79700
C  5.74900 46.47300 26.66600
C  6.21000 46.63900 28.00900
C  7.60500 46.78400 27.85400
C  4.37900 46.00100 26.28800
C  5.78200 46.65500 29.34900
O  4.63000 46.56500 29.84400
C  7.10800 46.85300 30.19100
C  7.33800 45.66800 31.05800
O  7.77000 44.59700 30.69000
O  6.80800 45.93500 32.32800
C  6.72900 44.75300 33.20900
H  13.68700 48.42700 28.40200
H  12.23700 46.98800 22.33500
H  6.05000 46.44000 23.79300
H  9.43400 48.13300 31.22600
H  12.34100 48.36500 30.51000
H  10.03800 50.28100 30.07200
H  11.27600 50.32400 28.85300
H  11.71600 50.71300 30.61800
H  11.65900 46.24500 30.80800
H  10.06600 45.69900 31.04400
H  10.54700 47.67200 33.17200
H  11.97800 46.73700 32.87900
H  15.48100 48.62900 27.49600
H  16.04000 49.22400 26.03100
H  16.09900 47.43500 26.47100
H  16.67500 46.50900 24.44400
H  16.89800 48.26600 24.23100
H  17.13900 47.11900 22.91100
H  10.29500 46.01300 21.31600
H  7.48300 47.10400 21.63100
H  10.38500 47.69100 19.85900
H  10.40000 48.74600 21.32800
H  8.87300 48.22200 20.45900
H  8.03700 44.74800 20.82600
H  6.81900 45.00800 21.94100
H  9.24400 44.37000 23.51800
H  9.53500 43.71600 22.05200
H  8.04100 43.09300 22.94800
H  4.33900 45.38100 25.39200
H  3.65600 46.81200 26.20200
H  4.01500 45.37200 27.10100
H  6.86500 47.72500 30.79900
H  7.54700 44.03300 33.18100
H  5.74300 44.28700 33.21900
H  6.86000 45.12000 34.22700

