158

Mg 35.91300 2.04100 30.52900
C  33.24900 3.11000 32.59400
C  38.04800 2.73000 33.10900
C  38.40500 1.02100 28.44900
C  33.61000 2.05100 27.78800
N  35.65400 2.80200 32.60600
C  34.46600 3.15800 33.28000
C  34.70300 3.26700 34.84000
C  36.25100 3.31300 34.89400
C  36.71400 2.92000 33.46400
C  36.89600 4.69100 35.35800
C  34.09000 2.10300 35.63200
C  33.80700 2.24900 37.11300
H  34.21000 3.57800 37.76000
N  37.91100 1.86800 30.72100
C  38.59300 2.09200 31.91400
C  39.90400 1.57100 31.76400
C  40.08700 1.20500 30.36300
C  38.77300 1.39900 29.76500
C  40.96900 1.50400 32.85900
C  41.29400 0.70900 29.65200
O  41.29700 0.66200 28.43700
C  42.71700 0.41200 30.32900
N  36.02200 1.60500 28.48300
C  37.16600 1.11900 27.86900
C  36.81200 0.74500 26.39900
C  35.34500 1.10900 26.21100
C  34.91800 1.60900 27.60600
C  37.76300 1.24800 25.30800
C  34.42600 -0.14100 25.76600
C  33.21400 0.11200 24.89400
N  33.75900 2.43000 30.20500
C  33.02300 2.43600 29.03400
C  31.56300 2.77200 29.37500
C  31.68100 3.02700 30.73300
C  33.01200 2.90800 31.18800
C  30.30000 2.78900 28.47000
C  30.88500 3.33900 31.94500
O  29.68800 3.51900 32.11400
C  31.89400 3.42300 33.08300
C  31.74400 4.75600 33.72200
O  32.19600 5.86000 33.34400
O  31.17900 4.49200 34.95200
C  30.88900 5.69700 35.71400
H  38.77200 2.74000 33.92600
H  39.19000 0.74300 27.74300
H  33.14900 2.18900 26.80800
H  34.39200 4.23500 35.23200
H  36.56300 2.45300 35.48600
H  36.13500 5.44100 35.57500
H  37.50000 5.12700 34.56100
H  37.66000 4.59400 36.12900
H  34.71500 1.22500 35.46700
H  33.10500 2.04300 35.16800
H  34.27500 1.46100 37.70400
H  32.74600 2.00700 37.17500
H  41.54300 0.57900 32.90800
H  40.50600 1.90000 33.76300
H  41.71100 2.25700 32.59300
H  43.39400 0.46800 29.47600
H  42.66000 -0.53600 30.86300
H  43.04500 1.19700 31.01100
H  36.84800 -0.33500 26.53900
H  35.21100 1.97600 25.56500
H  38.73900 1.68100 25.52500
H  37.17900 1.96100 24.72600
H  38.02800 0.39900 24.67800
H  34.06000 -0.67700 26.64100
H  35.09100 -0.77100 25.17600
H  33.39800 -0.37400 23.93500
H  32.95200 1.15500 24.71600
H  32.36800 -0.38900 25.36500
H  30.11500 1.84300 27.96100
H  30.36500 3.59300 27.73700
H  29.45500 2.99000 29.12900
H  31.61100 2.64600 33.79400
H  31.71200 6.41100 35.73300
H  30.63400 5.53300 36.76100
H  29.96700 6.11000 35.30500
Mg 54.33100 23.64600 45.07100
C  51.91200 25.85600 43.95700
C  52.46400 21.00300 44.00200
C  57.19400 21.65600 45.18700
C  56.24900 26.34200 46.03000
N  52.43300 23.48500 44.11400
C  51.62500 24.51700 43.82000
C  50.25400 23.95600 43.26800
C  50.33500 22.44700 43.74300
C  51.83600 22.26700 43.90900
C  49.52900 22.22100 45.07100
C  50.19400 24.13800 41.67300
C  48.93200 24.64000 40.95700
H  48.68100 24.01400 39.51800
N  54.69200 21.60600 44.76900
C  53.81400 20.68200 44.27200
C  54.41000 19.40300 44.29000
C  55.79200 19.54200 44.65100
C  55.97100 21.01800 44.84200
C  53.72500 18.15300 43.76500
C  56.82600 18.38700 44.60300
O  56.46400 17.25500 44.23900
C  58.34900 18.54300 44.88900
N  56.42600 23.95200 45.42100
C  57.34900 23.02600 45.42700
C  58.68700 23.51300 46.11800
C  58.31600 24.99800 46.47900
C  56.90500 25.12300 45.92200
C  59.05900 22.69500 47.39300
C  59.35500 26.09600 46.19100
C  59.99700 26.74900 47.41400
N  54.11700 25.75600 45.20400
C  54.97700 26.72000 45.60700
C  54.30800 28.05100 45.53500
C  53.04000 27.76600 44.91900
C  53.10000 26.37200 44.58700
C  54.86800 29.45900 46.02200
C  51.77200 28.34500 44.41200
O  51.44800 29.53400 44.36200
C  51.04000 27.18700 43.68000
C  51.14100 27.55800 42.22900
O  52.19200 27.52900 41.60400
O  49.90800 27.94000 41.74700
C  49.90400 28.54200 40.41600
H  51.84300 20.12200 43.82600
H  58.15300 21.13700 45.25000
H  56.80400 27.14300 46.52400
H  49.41600 24.49400 43.71200
H  49.93400 21.73600 43.02200
H  50.20600 21.94000 45.87700
H  48.95700 21.32700 44.82600
H  48.82500 23.03900 45.22500
H  50.36300 23.15900 41.22500
H  51.06300 24.71300 41.35300
H  48.84400 25.71500 40.80300
H  48.05100 24.29100 41.49600
H  54.02300 18.20300 42.71800
H  52.63900 18.18000 43.85200
H  54.10800 17.29800 44.32200
H  58.83600 19.08700 44.07900
H  58.79000 17.55500 45.02000
H  58.49900 19.11300 45.80600
H  59.44100 23.47100 45.33100
H  58.24000 25.02800 47.56600
H  58.45900 21.78600 47.44100
H  59.02500 23.31800 48.28700
H  60.10500 22.39600 47.32700
H  58.95900 26.80700 45.46500
H  60.08900 25.52900 45.61900
H  61.03400 26.42500 47.32700
H  59.67000 26.38800 48.38900
H  59.81200 27.82200 47.36300
H  54.33700 29.81500 46.90500
H  54.70600 30.19800 45.23700
H  55.94500 29.45500 46.19200
H  50.03800 26.97500 44.05400
H  50.02800 27.81900 39.61000
H  50.68000 29.30600 40.40300
H  48.93600 29.00800 40.22900

