158

Mg -0.33700 7.00700 26.97500
C  0.57100 9.08600 29.52700
C  -0.61200 4.35200 29.41200
C  -1.04400 4.92400 24.50000
C  0.52800 9.46000 24.63000
N  -0.09900 6.78700 29.30500
C  0.21900 7.85100 30.13500
C  0.11100 7.42700 31.60400
C  0.11300 5.86800 31.48500
C  -0.24400 5.59300 29.98500
C  1.51700 5.23400 31.77600
C  -1.18700 7.95900 32.32200
C  -1.31300 8.19800 33.84800
H  -0.06900 7.88000 34.73700
N  -0.85100 5.00000 26.96300
C  -0.95000 4.08900 28.04800
C  -1.24100 2.76700 27.51000
C  -1.29800 2.87500 26.05800
C  -1.03400 4.32800 25.80900
C  -1.30400 1.57600 28.37900
C  -1.52500 1.82400 25.04300
O  -1.49300 2.00100 23.81500
C  -1.62500 0.45000 25.50800
N  -0.14000 7.17000 24.77600
C  -0.55100 6.13100 23.99500
C  -0.54100 6.53600 22.50200
C  -0.12000 8.04800 22.55100
C  0.04100 8.28600 24.03300
C  0.20200 5.69900 21.50800
C  -0.99500 9.03900 21.84100
C  -2.03600 9.76100 22.63200
N  0.42300 8.85100 27.04500
C  0.67900 9.79800 26.03400
C  1.11700 11.02200 26.57400
C  1.05500 10.85500 27.91700
C  0.71200 9.47200 28.13300
C  1.52300 12.36300 25.78800
C  1.26700 11.46500 29.20900
O  1.71000 12.61100 29.45600
C  0.99900 10.33700 30.26700
C  2.20500 10.21900 31.09200
O  3.22900 9.72200 30.70600
O  1.93500 10.75900 32.35600
C  3.15000 10.86400 33.18800
H  -0.63000 3.62900 30.22900
H  -1.17800 4.26000 23.64400
H  0.74200 10.24800 23.90400
H  1.01700 7.82600 32.05900
H  -0.67300 5.43800 32.10600
H  1.95200 4.91100 30.83000
H  1.39800 4.31900 32.35700
H  2.02800 5.98000 32.38400
H  -2.01600 7.31600 32.02700
H  -1.52300 8.90100 31.88900
H  -2.11500 7.66900 34.36200
H  -1.57500 9.24900 33.96400
H  -1.38000 1.84700 29.43200
H  -0.48800 0.91800 28.08200
H  -2.23100 1.06400 28.12000
H  -2.47000 0.35800 26.19000
H  -0.66500 0.11400 25.89900
H  -1.76700 -0.19300 24.63900
H  -1.60000 6.41300 22.27200
H  0.93900 8.13700 22.30900
H  0.81900 5.01400 22.09000
H  0.88500 6.31600 20.92400
H  -0.46200 5.05000 20.93700
H  -1.49300 8.38100 21.12800
H  -0.41900 9.81600 21.33800
H  -2.93900 10.03800 22.08900
H  -1.54200 10.72300 22.77100
H  -2.25000 9.27800 23.58500
H  2.20200 12.22500 24.94600
H  2.07100 13.15300 26.30200
H  0.62600 12.84400 25.39800
H  0.17300 10.64500 30.90900
H  3.09300 11.61400 33.97700
H  4.07400 11.05900 32.64400
H  3.42100 9.91400 33.65000
Mg 47.44300 25.68200 27.79600
C  48.69600 27.52600 30.51100
C  46.79500 23.03600 30.01900
C  46.45700 23.72300 25.22900
C  48.60500 28.08200 25.67900
N  47.68300 25.40000 29.98900
C  48.07600 26.32500 30.88800
C  47.87600 25.85700 32.34400
C  47.41100 24.44600 32.16500
C  47.32700 24.19500 30.62500
C  48.34900 23.40800 32.87300
C  46.85600 26.82300 32.99500
C  46.12000 26.35100 34.28500
H  45.84600 27.29800 35.45000
N  46.74900 23.68300 27.69000
C  46.66700 22.72800 28.66300
C  46.20400 21.48200 28.10800
C  45.98500 21.65200 26.72400
C  46.37600 23.07900 26.47400
C  46.05200 20.24100 28.95300
C  45.36300 20.82600 25.69200
O  45.09000 21.26400 24.57000
C  44.99400 19.42100 26.07900
N  47.66500 25.80700 25.79600
C  47.07500 24.91000 24.87200
C  47.49500 25.24500 23.45800
C  47.95600 26.67900 23.58600
C  48.04600 26.93900 25.08900
C  48.48100 24.11000 22.91100
C  47.08800 27.74400 22.95800
C  47.78200 28.73000 21.92000
N  48.38500 27.48000 27.95300
C  48.77500 28.33900 27.01200
C  49.43200 29.52300 27.63500
C  49.47800 29.17500 29.00500
C  48.80200 27.92500 29.13500
C  49.88900 30.76600 27.00300
C  49.83600 29.74800 30.28200
O  50.44800 30.80600 30.50100
C  49.21300 28.66200 31.37800
C  50.24700 28.34000 32.40500
O  51.14900 27.52300 32.25300
O  49.87300 28.98900 33.58800
C  50.62100 28.54000 34.77000
H  46.56000 22.34000 30.82700
H  46.13600 23.12500 24.37400
H  49.12600 28.73000 24.97100
H  48.85000 25.92400 32.82900
H  46.36500 24.42300 32.46900
H  48.88000 22.80400 32.13800
H  47.72400 22.65600 33.35500
H  49.09300 23.68000 33.62200
H  46.05900 27.21700 32.36600
H  47.38600 27.74300 33.24100
H  46.65800 25.46000 34.60900
H  45.10600 25.98500 34.12500
H  45.02600 19.97900 29.21400
H  46.64500 20.40900 29.85200
H  46.48400 19.32300 28.55300
H  44.43100 18.96500 25.26500
H  44.46300 19.45500 27.03000
H  45.88400 18.80100 26.19000
H  46.56600 25.13400 22.89800
H  48.95000 26.73200 23.14300
H  48.00600 23.67300 22.03200
H  48.54800 23.34000 23.67900
H  49.47400 24.50700 22.70000
H  46.66100 28.49300 23.62500
H  46.27400 27.36200 22.34300
H  48.63200 28.27400 21.41300
H  48.19100 29.55400 22.50500
H  47.07100 28.96600 21.12900
H  49.09600 31.06000 26.31500
H  50.74300 30.62400 26.34000
H  50.19600 31.45800 27.78700
H  48.32300 29.15000 31.77600
H  49.98500 28.62400 35.65200
H  51.59400 29.02900 34.82100
H  50.83500 27.47300 34.69900

