158

Mg 24.96600 2.01800 30.43700
C  27.39900 1.56900 32.99300
C  22.55500 2.08900 32.86200
C  22.66000 1.88600 28.05000
C  27.41900 1.26100 28.05400
N  24.99700 1.74900 32.67100
C  26.11000 1.76000 33.51800
C  25.63400 2.13500 34.98100
C  24.10500 2.09400 34.84600
C  23.83600 1.97800 33.37800
C  23.41000 0.97200 35.69100
C  26.32400 3.47900 35.34100
C  27.25800 3.54900 36.57200
H  26.62900 4.40100 37.74700
N  22.90800 1.93700 30.49000
C  22.07400 1.94800 31.55700
C  20.70600 1.97100 31.14300
C  20.69400 1.82400 29.73000
C  22.13200 1.85800 29.34300
C  19.61400 2.08800 32.18300
C  19.56600 1.67300 28.76200
O  19.69700 1.56600 27.56100
C  18.07900 1.77800 29.15500
N  25.10600 1.61300 28.32000
C  23.97500 1.76200 27.57000
C  24.27200 1.86900 26.14100
C  25.85000 1.55600 26.07000
C  26.17600 1.47800 27.51600
C  23.53900 0.95200 25.12300
C  26.63800 2.59000 25.28300
C  27.45100 2.15300 24.00900
N  26.97200 1.63200 30.47800
C  27.86200 1.26000 29.37700
C  29.15800 0.91500 29.99700
C  28.98700 1.11600 31.39600
C  27.71600 1.46400 31.59400
C  30.39100 0.51600 29.28700
C  29.81700 1.14800 32.58600
O  31.00300 1.02600 32.75400
C  28.70400 1.40000 33.72300
C  28.62500 0.39800 34.73000
O  28.30100 -0.75700 34.54600
O  28.98600 0.89800 35.96300
C  28.76600 0.08900 37.07400
H  21.75800 2.17800 33.60300
H  22.07300 1.94100 27.13100
H  28.31700 1.13200 27.44500
H  25.94900 1.36800 35.68800
H  23.61800 2.99800 35.21100
H  23.17700 0.17100 34.98900
H  22.56200 1.40400 36.22100
H  24.07600 0.60900 36.47400
H  25.53200 4.20200 35.53700
H  26.95900 3.86900 34.54600
H  28.19700 4.00100 36.25300
H  27.46900 2.56800 36.99700
H  19.83500 2.25400 33.23700
H  19.01900 1.18500 32.04900
H  19.02400 2.92900 31.82100
H  17.72900 0.93100 29.74500
H  17.40600 1.91300 28.30900
H  18.00600 2.62500 29.83700
H  24.17400 2.94900 26.02400
H  26.19200 0.57500 25.74000
H  22.47000 1.10300 25.27800
H  23.94000 -0.03100 25.37000
H  23.77600 1.24600 24.10000
H  27.23500 3.06300 26.06300
H  25.97400 3.33500 24.84500
H  27.01500 2.65300 23.14400
H  27.38900 1.07800 23.84300
H  28.50900 2.38500 24.13200
H  30.34600 0.59700 28.20100
H  30.67000 -0.51800 29.49300
H  31.11400 1.24200 29.66000
H  28.85700 2.35200 34.23200
H  29.71000 0.20900 37.60400
H  28.76100 -0.96600 36.79800
H  27.88800 0.33700 37.67000
Mg 53.79300 24.32000 44.44800
C  51.20500 26.78800 43.71000
C  51.60300 21.88900 43.37100
C  56.44200 22.44000 44.17400
C  55.85300 27.16400 45.33700
N  51.64500 24.36300 43.53400
C  50.79600 25.44800 43.44100
C  49.44300 24.92900 43.02300
C  49.51200 23.40700 43.41200
C  50.98300 23.14400 43.46800
C  48.79600 22.95800 44.74900
C  49.23400 25.17300 41.56400
C  47.81800 25.53300 41.27800
H  47.39800 25.36700 39.85300
N  53.99100 22.48900 43.93300
C  53.00200 21.60400 43.57400
C  53.59500 20.27600 43.38700
C  54.96300 20.42200 43.77400
C  55.18700 21.87200 43.94500
C  52.93700 19.09100 42.79600
C  55.91700 19.28300 43.85400
O  55.66500 18.11000 43.50800
C  57.23600 19.43700 44.52700
N  55.95600 24.82600 44.74700
C  56.82500 23.77000 44.60500
C  58.24000 24.25400 44.77400
C  58.05900 25.71200 45.38300
C  56.54700 25.94800 45.15000
C  58.99200 23.28000 45.70200
C  58.91500 26.82100 44.66900
C  59.40100 27.84900 45.73300
N  53.55900 26.44600 44.67500
C  54.47300 27.45700 45.06300
C  53.82700 28.74200 45.10300
C  52.57000 28.50900 44.53700
C  52.49000 27.11600 44.24400
C  54.35700 30.09500 45.52700
C  51.38800 29.14400 44.13000
O  51.02000 30.33000 44.24700
C  50.48600 28.11100 43.53400
C  50.26300 28.34200 42.04300
O  51.13600 28.41900 41.19900
O  48.95100 28.78800 41.87000
C  48.54600 28.99900 40.57800
H  50.89300 21.08500 43.16500
H  57.29000 21.75900 44.07700
H  56.43600 28.05900 45.56500
H  48.65800 25.30900 43.67600
H  49.12900 22.77100 42.61400
H  49.57600 22.81800 45.49800
H  48.30000 21.99300 44.64200
H  48.04300 23.68300 45.05800
H  49.43300 24.22700 41.06000
H  49.91200 25.89300 41.10500
H  47.69800 26.58300 41.54500
H  47.12200 25.00300 41.92800
H  53.31700 18.95100 41.78400
H  51.88500 19.35300 42.68400
H  53.10800 18.11700 43.25500
H  58.02300 19.85600 43.89900
H  57.49300 18.45400 44.92000
H  57.05400 20.09600 45.37600
H  58.87900 24.24200 43.89100
H  58.18700 25.58400 46.45800
H  59.60700 23.63100 46.53000
H  59.74700 22.79000 45.08700
H  58.28600 22.53000 46.05800
H  58.26100 27.32400 43.95700
H  59.70200 26.35800 44.07300
H  59.01400 28.81900 45.42200
H  60.48300 27.95500 45.81500
H  59.07000 27.62300 46.74700
H  53.56600 30.74600 45.89700
H  54.73600 30.63800 44.66100
H  55.16700 29.98000 46.24800
H  49.56500 28.11200 44.11600
H  49.19800 28.64600 39.77900
H  48.28200 30.04700 40.43000
H  47.62900 28.45000 40.36800

