158

Mg 40.90500 9.06900 29.43400
C  42.56400 10.67800 32.06100
C  38.78600 7.55100 31.72200
C  39.44800 7.74200 26.94400
C  43.54100 10.37500 27.27300
N  40.71400 9.18700 31.67500
C  41.38900 10.02100 32.54700
C  40.89900 9.82400 34.00300
C  39.71700 8.69800 33.81500
C  39.81800 8.38000 32.36200
C  39.81000 7.42600 34.80000
C  40.42800 11.20100 34.57400
C  39.65000 11.10600 35.95200
H  40.29000 11.69800 37.20300
N  39.30800 7.82200 29.34200
C  38.51700 7.42700 30.36400
C  37.41600 6.65700 29.72400
C  37.46300 6.84900 28.30500
C  38.76000 7.56200 28.14000
C  36.35300 5.94900 30.59200
C  36.52000 6.51200 27.22900
O  36.76300 6.95900 26.07600
C  35.24600 5.75500 27.49700
N  41.37500 9.06700 27.34600
C  40.62400 8.35500 26.52800
C  41.08200 8.59900 25.08500
C  42.23500 9.66200 25.17400
C  42.41900 9.64500 26.67100
C  41.59700 7.33600 24.31300
C  41.74000 11.05700 24.68700
C  42.11500 11.57700 23.29500
N  42.71500 10.12000 29.56600
C  43.70800 10.58800 28.64400
C  44.66700 11.35200 29.31600
C  44.25800 11.40300 30.66800
C  43.10600 10.62500 30.70800
C  45.88400 11.77900 28.70200
C  44.62500 11.89600 31.99200
O  45.53600 12.64100 32.40500
C  43.55700 11.42200 32.96000
C  44.07900 10.44600 33.87500
O  44.56300 9.37300 33.53900
O  43.95400 10.91100 35.19800
C  44.55400 10.05500 36.19900
H  38.12500 6.93000 32.33100
H  38.93100 7.33800 26.07000
H  44.13500 10.86300 26.49700
H  41.73000 9.51000 34.63500
H  38.73600 9.16200 33.91600
H  38.79500 7.27800 35.16800
H  40.44900 7.68400 35.64500
H  40.23800 6.57000 34.27900
H  39.91700 11.65400 33.72400
H  41.26800 11.89500 34.60800
H  39.19900 10.13200 36.14300
H  38.84200 11.81300 35.76100
H  35.30200 6.19000 30.43000
H  36.56000 5.83500 31.65600
H  36.27900 4.90900 30.27500
H  34.85800 5.40900 26.53900
H  34.57000 6.50700 27.90600
H  35.42600 4.97900 28.24100
H  40.24300 8.91500 24.46400
H  43.08300 9.42200 24.53200
H  42.38900 6.91400 24.93300
H  42.09400 7.62400 23.38600
H  40.72700 6.68500 24.22800
H  42.30900 11.76800 25.28600
H  40.67600 11.24300 24.83200
H  42.48100 12.60100 23.22200
H  41.15300 11.56200 22.78400
H  42.84500 10.86400 22.91200
H  46.63900 11.97700 29.46300
H  45.65700 12.72700 28.21400
H  46.25600 11.03200 28.00000
H  43.18100 12.26300 33.54400
H  44.01000 9.11100 36.17100
H  44.30100 10.43900 37.18700
H  45.63500 9.95600 36.10800
Mg 5.60800 54.59200 39.79700
C  4.21200 51.25900 39.80100
C  8.60100 53.16500 39.30200
C  6.66800 57.67300 39.28800
C  2.24500 55.83900 39.93700
N  6.23000 52.44200 39.62100
C  5.54100 51.22000 39.62200
C  6.47300 50.10400 39.52300
C  7.84700 50.74900 39.90700
C  7.55300 52.22800 39.56600
C  8.20700 50.48900 41.35600
C  6.57900 49.34800 38.14700
C  6.49900 50.26300 36.90700
H  5.23600 49.98200 36.06900
N  7.41500 55.34900 39.36600
C  8.51900 54.58000 39.18200
C  9.60400 55.51100 38.88600
C  9.14800 56.88000 38.87800
C  7.72100 56.72300 39.26400
C  11.02800 55.07400 38.67200
C  9.94400 58.17400 38.80400
O  11.14400 58.09700 38.67300
C  9.28200 59.52300 38.71000
N  4.62800 56.49300 39.89200
C  5.34600 57.57900 39.56000
C  4.35700 58.78200 39.41900
C  2.93200 58.23200 39.65400
C  3.27200 56.74800 39.91800
C  4.80700 60.09300 40.03400
C  1.88300 58.58900 38.61300
C  0.44000 58.90000 39.11900
N  3.70500 53.81900 39.95200
C  2.42200 54.43900 40.02200
C  1.36400 53.43400 40.32900
C  2.05200 52.18600 40.24300
C  3.41400 52.46900 39.98100
C  -0.13600 53.55700 40.48600
C  1.89500 50.76400 40.29500
O  0.86200 50.13100 40.50900
C  3.21000 50.13500 40.00200
C  3.01200 49.13400 38.95800
O  2.46000 49.38200 37.84900
O  3.42900 47.88400 39.42300
C  3.40100 46.75500 38.45700
H  9.61800 52.83400 39.51900
H  7.07000 58.64700 39.00300
H  1.23400 56.24000 40.02500
H  6.18100 49.34300 40.24600
H  8.58900 50.23200 39.29800
H  9.11600 49.88800 41.37400
H  7.47500 49.92400 41.93300
H  8.56300 51.36700 41.89500
H  5.80800 48.57900 38.10100
H  7.53000 48.81900 38.20800
H  7.32700 50.10400 36.21600
H  6.56900 51.30400 37.22100
H  11.22500 54.03000 38.91600
H  11.61500 55.69300 39.35100
H  11.40000 55.19600 37.65500
H  10.14700 60.18700 38.72600
H  8.61400 59.79900 39.52600
H  8.70000 59.55600 37.79000
H  4.29000 58.93900 38.34300
H  2.62200 58.56600 40.64500
H  3.96000 60.77600 40.10600
H  5.63000 60.62000 39.55100
H  5.23500 59.79500 40.99100
H  1.88100 57.63600 38.08500
H  2.18300 59.35000 37.89200
H  -0.07100 59.25500 38.22400
H  0.34900 59.51500 40.01400
H  -0.04400 57.98500 39.46000
H  -0.53400 53.16200 41.42100
H  -0.68500 53.08200 39.67300
H  -0.36800 54.62000 40.54000
H  3.50100 49.62600 40.92000
H  2.49300 46.16600 38.58800
H  4.35400 46.25300 38.62000
H  3.50900 47.10400 37.43000

