158

Mg 47.52800 16.60900 29.65400
C  45.51000 16.13000 32.48700
C  49.77800 18.30600 31.65300
C  49.26900 17.64900 26.96800
C  45.12000 15.31100 27.72600
N  47.64100 17.11500 31.80900
C  46.72500 16.74800 32.74000
C  47.29000 17.10100 34.12200
C  48.51900 17.94800 33.83100
C  48.67900 17.82300 32.32900
C  48.55500 19.41000 34.57300
C  47.54400 15.76400 34.96800
C  46.94200 15.61900 36.40700
H  46.89800 16.89200 37.27700
N  49.40700 17.67500 29.40100
C  50.14900 18.26400 30.31000
C  51.42300 18.74300 29.71800
C  51.29100 18.62000 28.33200
C  49.91600 17.93800 28.17800
C  52.70900 19.30600 30.45400
C  52.19400 18.91700 27.20400
O  51.90400 18.70900 26.05600
C  53.57900 19.45600 27.50100
N  47.37400 16.21800 27.57000
C  48.15400 16.86400 26.63600
C  47.58300 16.67300 25.21500
C  46.22300 15.96900 25.50000
C  46.20300 15.78300 27.04500
C  47.38800 17.93900 24.32600
C  45.99500 14.66700 24.65100
C  45.50800 14.97200 23.18600
N  45.69500 15.79200 29.93500
C  44.79000 15.30200 29.05400
C  43.60200 14.86800 29.80100
C  43.78900 15.14200 31.14400
C  45.10300 15.69700 31.18000
C  42.36900 14.19700 29.25800
C  43.28300 15.01900 32.52800
O  42.28200 14.56500 32.98500
C  44.42900 15.56500 33.43000
C  43.70900 16.62300 34.22900
O  43.47400 17.80500 33.98700
O  43.15800 15.93500 35.32800
C  42.50300 16.86000 36.22100
H  50.37900 18.95300 32.29500
H  49.73900 18.05300 26.06900
H  44.24600 15.12300 27.09900
H  46.50500 17.71700 34.56100
H  49.31000 17.33900 34.26600
H  47.94200 19.44200 35.47400
H  48.12900 20.15700 33.90300
H  49.60000 19.65200 34.76700
H  48.61400 15.55700 34.98800
H  47.12000 14.91000 34.44000
H  47.45800 14.84200 36.97100
H  45.86900 15.42800 36.41800
H  53.47400 18.54100 30.58000
H  52.36100 19.49100 31.47000
H  52.99700 20.15800 29.83800
H  53.54400 20.50600 27.79100
H  54.27800 19.38100 26.66800
H  54.00800 18.78000 28.24000
H  48.22900 16.01000 24.63900
H  45.40200 16.62700 25.21600
H  47.63500 18.87500 24.82800
H  46.46900 18.01900 23.74500
H  48.09000 17.89800 23.49300
H  45.23100 14.09400 25.17700
H  46.85700 14.02000 24.49200
H  45.69100 16.03200 23.01200
H  44.42700 14.84500 23.12000
H  46.03200 14.33400 22.47500
H  41.45200 14.69200 29.57900
H  42.32100 13.17500 29.63300
H  42.25900 14.18300 28.17300
H  44.91600 14.79300 34.02500
H  41.90400 17.53300 35.60900
H  43.19500 17.32600 36.92300
H  41.81400 16.24400 36.80000
Mg 16.95500 51.74300 25.72400
C  18.92000 50.60100 28.41400
C  14.59300 52.53400 28.09400
C  15.16700 53.04600 23.28300
C  19.31500 50.28400 23.53900
N  16.80900 51.63800 27.93900
C  17.77500 51.25300 28.86200
C  17.46200 51.62900 30.29800
C  15.94700 52.01700 30.21000
C  15.74100 52.01700 28.64300
C  15.00100 50.91900 30.95400
C  18.40800 52.73200 30.91000
C  18.84500 52.41700 32.31500
H  17.81100 51.89200 33.25400
N  15.03900 52.68700 25.68400
C  14.24300 52.90200 26.75700
C  13.03900 53.57300 26.24600
C  13.17100 53.76500 24.81400
C  14.51700 53.21400 24.53500
C  11.98200 53.89000 27.23100
C  12.26100 54.32900 23.72500
O  12.47300 54.28800 22.51700
C  10.99700 55.09600 24.12500
N  17.24300 51.62000 23.58700
C  16.31900 52.30100 22.79600
C  16.86600 52.27300 21.29100
C  18.24700 51.53400 21.41800
C  18.28800 51.07600 22.83800
C  15.88700 51.61600 20.32700
C  19.53000 52.32600 21.19900
C  20.22100 51.93700 19.92000
N  18.66500 50.62100 25.85100
C  19.53600 50.06700 24.91300
C  20.62300 49.36400 25.57200
C  20.40800 49.58500 26.93700
C  19.26300 50.37100 27.04100
C  21.76000 48.65800 24.96900
C  20.93900 49.21000 28.22400
O  21.84900 48.48700 28.61800
C  20.07000 49.98100 29.24800
C  19.64400 48.91100 30.22100
O  18.81000 48.00300 29.93800
O  20.13000 49.18400 31.51600
C  19.48300 48.26700 32.43300
H  13.84200 52.78700 28.84500
H  14.61600 53.45200 22.43200
H  20.06600 49.76400 22.94100
H  17.56900 50.74800 30.93100
H  15.78500 52.96500 30.72200
H  15.47700 50.46000 31.82000
H  14.66100 50.21900 30.19000
H  14.11500 51.44300 31.31300
H  17.82600 53.64600 31.03300
H  19.20600 53.06700 30.24800
H  19.18400 53.27000 32.90300
H  19.68600 51.72800 32.23600
H  11.30100 54.68200 26.92000
H  12.31500 54.19900 28.22200
H  11.41300 52.97900 27.41800
H  10.34700 54.63100 24.86500
H  10.45200 55.22600 23.19000
H  11.32700 56.03900 24.56300
H  16.88700 53.34300 21.08500
H  18.15000 50.76800 20.64900
H  16.26500 51.39300 19.32900
H  14.97700 52.18700 20.14400
H  15.57000 50.63200 20.67300
H  20.30000 52.04400 21.91600
H  19.40600 53.40800 21.23000
H  20.97100 51.20000 20.20600
H  20.92300 52.68200 19.54600
H  19.54400 51.70100 19.09900
H  21.46700 48.27100 23.99400
H  21.95500 47.82700 25.64700
H  22.73000 49.15700 24.94400
H  20.68000 50.68900 29.81000
H  18.40300 48.39500 32.49500
H  19.72600 48.74800 33.38000
H  19.74600 47.21100 32.37100

