158

Mg 49.24100 46.24400 41.77500
C  45.87000 46.58100 40.72600
C  49.07200 42.93500 40.32200
C  52.31200 45.88700 42.60900
C  49.32500 49.64400 42.48800
N  47.70100 44.97500 40.60300
C  46.41300 45.36600 40.31200
C  45.57500 44.31000 39.57400
C  46.52400 43.00800 39.85700
C  47.88000 43.66400 40.25600
C  46.00400 42.02200 40.82500
C  45.60300 44.76300 38.09000
C  44.25600 45.01500 37.45800
H  44.01100 44.64600 36.03000
N  50.51300 44.70000 41.46600
C  50.28300 43.50100 40.84600
C  51.57900 42.82500 40.76900
C  52.49400 43.54400 41.57500
C  51.80900 44.80700 41.93000
C  51.78500 41.55000 39.94400
C  53.87600 43.05300 41.96300
O  54.31400 42.00800 41.43000
C  54.73400 43.79400 42.96500
N  50.64000 47.65200 42.19700
C  51.81500 47.19500 42.73600
C  52.79400 48.25200 43.26200
C  51.89300 49.48100 43.06600
C  50.55200 48.93300 42.55400
C  53.29700 48.06600 44.69300
C  52.44500 50.56200 42.09400
C  52.59000 51.99500 42.72600
N  47.88500 47.81100 41.74000
C  48.06700 49.14300 42.08600
C  46.76900 49.85900 41.88600
C  45.86100 48.84300 41.46000
C  46.60200 47.63900 41.30800
C  46.60800 51.32000 42.06800
C  44.54800 48.61200 41.01800
O  43.58900 49.31500 40.95600
C  44.49900 47.12500 40.55100
C  43.35400 46.59900 41.31900
O  43.37500 46.08700 42.45500
O  42.20700 46.73600 40.54200
C  41.01400 45.98400 41.02700
H  49.12600 42.04500 39.69200
H  53.37800 45.85600 42.84500
H  49.45000 50.72800 42.54200
H  44.64700 44.18800 40.13200
H  46.80300 42.51000 38.92800
H  45.69600 41.11700 40.30200
H  45.16000 42.45500 41.36200
H  46.76500 41.67100 41.52100
H  46.13400 43.99200 37.53100
H  46.26900 45.61500 37.95100
H  44.04900 46.08300 37.53300
H  43.45500 44.71800 38.13500
H  51.29900 41.62700 38.97200
H  51.57800 40.63600 40.50100
H  52.84000 41.44700 39.69100
H  54.18700 44.04300 43.87500
H  55.23500 44.71000 42.65200
H  55.49100 43.07600 43.27800
H  53.60200 48.21900 42.53100
H  51.68200 49.99300 44.00500
H  54.15900 47.41500 44.84200
H  52.44000 47.71200 45.26600
H  53.64900 49.00400 45.12000
H  51.66500 50.71500 41.34800
H  53.30900 50.24000 41.51400
H  53.39700 52.22200 43.42300
H  51.64300 52.28800 43.18000
H  52.71700 52.63600 41.85400
H  47.19200 51.78500 41.27400
H  46.85500 51.64400 43.07900
H  45.55900 51.58600 41.93600
H  44.24400 47.21500 39.49500
H  40.80500 46.11900 42.08800
H  41.16000 44.90800 40.93700
H  40.16100 46.35600 40.45800
Mg 48.80900 35.46900 27.57900
C  46.57500 33.79400 29.69100
C  49.13600 37.91900 29.88900
C  50.74500 37.09300 25.36300
C  47.89600 33.09200 24.97600
N  47.92500 35.77700 29.57900
C  47.09700 34.93400 30.26900
C  47.25500 35.24700 31.72100
C  47.61500 36.80700 31.61900
C  48.29500 36.89400 30.27700
C  46.41700 37.86100 31.72900
C  48.32300 34.37500 32.49800
C  48.24200 34.24600 33.99800
H  47.20700 35.08100 34.72400
N  49.92600 37.20700 27.65200
C  49.89200 38.12200 28.67500
C  50.77500 39.25400 28.26800
C  51.28800 38.98700 27.01100
C  50.59100 37.74800 26.56300
C  51.04100 40.34800 29.20200
C  52.20000 39.77900 26.08500
O  52.37600 39.61300 24.91300
C  52.96700 40.93400 26.70600
N  49.13900 35.18500 25.40900
C  50.17100 35.92000 24.79500
C  50.68000 35.21300 23.55800
C  49.66400 34.03500 23.29600
C  48.83600 34.07200 24.59200
C  50.69300 36.06900 22.25400
C  50.22900 32.65300 23.04300
C  49.67300 31.68200 21.91200
N  47.49600 33.80700 27.31700
C  47.27500 32.90200 26.23500
C  46.40600 31.81500 26.65800
C  46.11800 32.18300 28.03800
C  46.80800 33.36400 28.36800
C  45.96200 30.65200 25.81600
C  45.28200 31.73200 29.09500
O  44.54400 30.75600 29.18700
C  45.50900 32.79300 30.27600
C  45.89200 32.05100 31.57500
O  46.74600 31.16700 31.57400
O  45.08700 32.33200 32.62900
C  45.25600 31.40500 33.75000
H  49.33600 38.70300 30.62300
H  51.65200 37.39800 24.83500
H  47.63700 32.40700 24.16600
H  46.29000 35.29500 32.22500
H  48.41400 36.93600 32.35000
H  46.72400 38.62000 32.44900
H  45.46100 37.42000 32.01300
H  46.39300 38.34700 30.75400
H  49.28000 34.73800 32.12300
H  48.18200 33.36600 32.10900
H  49.28700 34.32500 34.29800
H  47.88000 33.22400 34.10900
H  51.91500 40.17300 29.82900
H  50.10900 40.46800 29.75400
H  51.18700 41.30600 28.70400
H  53.31000 40.54500 27.66500
H  52.24600 41.74400 26.80900
H  53.80700 41.22400 26.07500
H  51.60800 34.68500 23.77700
H  48.96700 34.15200 22.46700
H  50.20600 36.99200 22.57200
H  50.20100 35.62800 21.38700
H  51.74200 36.19200 21.98700
H  50.07800 32.11100 23.97600
H  51.31700 32.67500 22.97700
H  50.34100 31.63500 21.05300
H  48.63600 31.78400 21.59100
H  49.68200 30.65800 22.28400
H  46.81500 29.98100 25.71400
H  45.80800 31.05200 24.81400
H  45.06000 30.12400 26.12300
H  44.60200 33.38400 30.40000
H  45.70000 30.42900 33.55700
H  44.30700 31.24200 34.26000
H  45.92000 31.95100 34.42100

