158

Mg 2.91800 -1.71600 43.55700
C  6.35700 -0.60900 43.54300
C  2.13600 1.33300 42.30600
C  -0.08300 -2.98000 43.00900
C  4.18700 -4.84600 44.33100
N  4.14100 0.06700 43.03200
C  5.49700 0.44300 43.19900
C  5.79900 1.86200 42.92700
C  4.40000 2.41500 42.65300
C  3.50100 1.20400 42.73000
C  3.91700 3.57400 43.62400
C  6.72200 2.23600 41.68500
C  6.70800 1.30400 40.47000
H  6.27500 1.83100 39.06200
N  1.30300 -0.93900 42.61000
C  1.18700 0.30100 42.20100
C  -0.21700 0.52700 41.74500
C  -0.84000 -0.80700 41.85300
C  0.12400 -1.64400 42.51400
C  -0.82000 1.79200 41.25400
C  -2.23000 -1.17400 41.40200
O  -3.05200 -0.35000 40.98100
C  -2.73300 -2.51500 41.33700
N  2.16900 -3.69000 43.66400
C  0.84600 -3.91500 43.54600
C  0.55900 -5.43000 43.87200
C  1.98100 -6.00400 44.10100
C  2.86600 -4.76900 44.03200
C  -0.46400 -5.42500 45.11400
C  2.49400 -7.02900 43.17700
C  2.35700 -8.48600 43.69100
N  4.90800 -2.63700 43.95900
C  5.20800 -3.86400 44.26400
C  6.57900 -3.95500 44.58600
C  7.18700 -2.71200 44.23300
C  6.04800 -1.92500 43.89100
C  7.18600 -5.29000 44.99600
C  8.42000 -1.94400 44.06300
O  9.61800 -2.29900 44.20600
C  7.92700 -0.51500 43.59100
C  8.51400 0.57200 44.48300
O  9.21100 1.47600 44.07000
O  8.23600 0.33100 45.84600
C  8.99200 1.19200 46.82400
H  1.82100 2.32200 41.96800
H  -1.14000 -3.24700 43.07600
H  4.58100 -5.82100 44.62500
H  6.25800 2.17000 43.86600
H  4.21600 2.74800 41.63200
H  3.21600 3.25300 44.39500
H  3.58400 4.37400 42.96300
H  4.74600 3.99500 44.19200
H  7.65900 1.99900 42.18900
H  6.57900 3.23600 41.27600
H  6.16500 0.37200 40.62900
H  7.73500 0.94100 40.42300
H  -0.09500 2.59300 41.40000
H  -1.62000 2.14900 41.90300
H  -1.21800 1.47500 40.29000
H  -3.10300 -2.96200 42.26000
H  -1.97100 -3.19000 40.94900
H  -3.54000 -2.51400 40.60400
H  0.14100 -5.93900 43.00300
H  2.12100 -6.40400 45.10500
H  -0.31000 -6.28200 45.76900
H  -1.43900 -5.63700 44.67400
H  -0.55200 -4.42600 45.54000
H  3.57500 -6.96100 43.05200
H  1.96000 -6.99700 42.22800
H  1.83400 -9.13600 42.98900
H  1.88100 -8.50100 44.67200
H  3.35200 -8.92300 43.76800
H  8.19900 -5.11100 45.35400
H  7.31200 -5.88500 44.09100
H  6.60700 -5.77500 45.78100
H  8.34300 -0.30600 42.60500
H  10.06700 1.01200 46.80900
H  8.61800 0.88900 47.80300
H  8.72800 2.24800 46.77600
Mg 0.62600 7.21300 25.66800
C  1.64000 9.13800 28.51300
C  0.65600 4.51600 27.65500
C  0.30300 5.45600 22.85100
C  1.27700 10.21300 23.71500
N  1.19000 6.92000 27.80900
C  1.40400 7.80700 28.82100
C  1.41300 7.16200 30.19000
C  1.15500 5.63000 29.91400
C  1.03600 5.71200 28.34600
C  2.10100 4.61500 30.50700
C  0.35200 7.71000 31.23600
C  0.87600 7.91600 32.70200
H  2.03700 7.16500 33.13500
N  0.41800 5.32000 25.28400
C  0.32100 4.32300 26.30100
C  0.01700 3.08200 25.62600
C  0.03800 3.34200 24.21800
C  0.24500 4.75100 24.07400
C  -0.11800 1.78900 26.34000
C  0.04000 2.41100 23.05200
O  0.00300 2.72300 21.88400
C  0.02500 0.94500 23.30300
N  0.77500 7.75800 23.56400
C  0.53700 6.80800 22.59800
C  0.58300 7.45900 21.25500
C  0.74000 8.98800 21.53500
C  0.99200 9.00000 23.01400
C  1.71100 6.84100 20.40200
C  -0.46600 9.88400 21.18300
C  -0.13200 11.00000 20.23000
N  1.23200 9.28300 26.00200
C  1.39000 10.32200 25.17000
C  1.73800 11.51600 25.90900
C  1.96600 11.13400 27.19400
C  1.53600 9.80600 27.22300
C  2.00900 12.90300 25.29100
C  2.29200 11.54400 28.51400
O  2.71200 12.58000 28.92900
C  2.02300 10.34600 29.45100
C  3.18400 10.18000 30.48200
O  4.23000 9.55000 30.32300
O  2.75300 10.83800 31.63900
C  3.81600 11.17400 32.59500
H  0.63300 3.64500 28.31300
H  0.12900 5.01000 21.86900
H  1.49600 11.14800 23.19600
H  2.42600 7.35500 30.54300
H  0.14100 5.36500 30.21300
H  2.83600 5.13900 31.11700
H  2.52900 3.96300 29.74600
H  1.56800 3.95800 31.19500
H  -0.47300 7.01300 31.38300
H  0.00500 8.66900 30.85200
H  0.03700 7.60600 33.32600
H  1.03100 8.98500 32.84900
H  -0.86600 1.27300 25.73900
H  -0.45800 1.86700 27.37200
H  0.82000 1.23500 26.33800
H  -0.87100 0.65700 23.85200
H  0.84200 0.72300 23.99000
H  0.23900 0.32700 22.43000
H  -0.39300 7.10300 20.92600
H  1.70700 9.27600 21.12300
H  2.20500 7.64200 19.85200
H  1.24900 6.27000 19.59600
H  2.36900 6.21300 21.00200
H  -0.90500 10.41700 22.02600
H  -1.35500 9.35700 20.83800
H  -1.11700 11.37700 19.95200
H  0.50900 10.90000 19.35400
H  0.27300 11.77900 20.87600
H  2.81800 13.40700 25.81900
H  1.15300 13.57100 25.38400
H  2.16100 12.81100 24.21600
H  1.11500 10.57800 30.00700
H  3.24400 11.58900 33.42400
H  4.57000 11.88900 32.26500
H  4.43200 10.39100 33.03700

