158

Mg 34.90300 1.06800 29.34200
C  33.01000 2.21400 32.05600
C  37.77100 1.63100 31.49400
C  37.04300 0.45700 26.69900
C  32.25900 1.02600 27.38200
N  35.31500 1.63300 31.60200
C  34.35200 2.00700 32.48800
C  34.91700 2.28500 33.85800
C  36.44300 2.45600 33.58000
C  36.51700 1.95400 32.10300
C  36.99600 3.87900 33.78600
C  34.50500 1.33200 35.01600
C  33.86100 1.97100 36.31300
H  34.35800 3.30900 36.86300
N  37.05200 1.03400 29.13200
C  38.00200 1.23400 30.15600
C  39.32600 0.95800 29.58800
C  39.11300 0.53200 28.22200
C  37.68600 0.67200 27.92400
C  40.49400 1.00800 30.42400
C  40.11200 0.07700 27.17900
O  39.86200 -0.25200 26.02400
C  41.63700 -0.12700 27.51600
N  34.63800 0.82700 27.35300
C  35.61100 0.42500 26.51700
C  35.07000 0.23800 25.12800
C  33.51400 0.14900 25.36500
C  33.40700 0.65400 26.77500
C  35.52600 1.35600 24.12700
C  32.88400 -1.24000 25.11300
C  33.47300 -2.38500 25.99000
N  32.95700 1.52600 29.55700
C  31.92000 1.49300 28.68600
C  30.71800 1.83600 29.30400
C  31.06700 2.12800 30.58700
C  32.45900 1.94400 30.76100
C  29.34900 1.82400 28.70100
C  30.47300 2.47900 31.87600
O  29.32400 2.73600 32.24900
C  31.78600 2.68500 32.83400
C  31.85100 4.11300 33.29900
O  32.24000 5.06500 32.60500
O  31.42100 4.19300 34.62300
C  31.38000 5.60100 35.09400
H  38.62700 1.69200 32.16900
H  37.59400 0.22800 25.78400
H  31.45600 1.01800 26.64100
H  34.39900 3.22200 34.06200
H  36.98100 1.77000 34.23400
H  36.34300 4.53400 34.36300
H  37.37500 4.38700 32.89900
H  37.90500 3.75700 34.37500
H  35.39000 0.76600 35.30600
H  33.80100 0.65700 34.52800
H  33.68600 1.16200 37.02200
H  32.86200 2.20600 35.94500
H  40.27300 0.61600 31.41800
H  40.71300 2.06300 30.58900
H  41.40000 0.47800 30.13200
H  42.07500 0.84000 27.76300
H  42.16900 -0.66100 26.72800
H  41.73100 -0.76600 28.39400
H  35.42300 -0.71300 24.73000
H  32.85900 0.79400 24.77900
H  36.33400 1.99300 24.48600
H  34.70300 1.95300 23.73400
H  35.88800 0.83800 23.23900
H  32.81400 -1.39200 24.03600
H  31.86300 -1.29500 25.49200
H  34.51400 -2.15600 26.21600
H  33.48700 -3.30400 25.40400
H  32.93000 -2.53200 26.92500
H  29.25100 1.02300 27.96800
H  29.00400 2.79800 28.35600
H  28.65100 1.59200 29.50600
H  31.63700 2.12000 33.75500
H  31.11800 5.59900 36.15200
H  30.72400 6.21500 34.47700
H  32.42100 5.92100 35.05400
Mg -1.53000 33.98200 26.76000
C  -2.82600 32.36700 29.48100
C  0.17800 36.09300 28.99100
C  -0.61000 36.09400 24.21800
C  -3.29600 32.08700 24.57600
N  -1.37900 34.19400 29.01900
C  -1.94700 33.40000 29.91200
C  -1.65800 33.81700 31.38900
C  -0.75000 35.03400 31.14900
C  -0.66400 35.19100 29.59600
C  -1.12400 36.29900 31.95500
C  -1.03900 32.59100 32.23500
C  -0.11700 32.79900 33.43400
H  -0.53400 32.12500 34.81100
N  -0.28800 35.74000 26.57500
C  0.38100 36.33300 27.63200
C  1.16800 37.35800 27.07100
C  1.02000 37.37300 25.65600
C  0.00800 36.40000 25.39300
C  2.07900 38.19600 27.83200
C  1.68400 38.26300 24.53500
O  1.38300 38.29900 23.33200
C  2.70700 39.22700 24.92100
N  -2.08400 34.24100 24.65300
C  -1.55200 35.13800 23.80900
C  -1.75600 34.74200 22.32800
C  -2.42100 33.32400 22.54000
C  -2.61900 33.18000 24.04300
C  -2.58000 35.79500 21.48600
C  -1.55400 32.11400 21.92900
C  -0.16700 31.92000 22.64100
N  -2.86800 32.58600 26.94100
C  -3.46100 31.82400 25.94100
C  -4.19600 30.79800 26.53500
C  -4.05900 30.99200 27.96600
C  -3.21100 32.07300 28.11900
C  -4.99300 29.72300 25.72100
C  -4.32800 30.50800 29.31900
O  -5.01200 29.57900 29.60700
C  -3.60400 31.36300 30.35700
C  -4.62500 31.99300 31.22500
O  -5.52300 32.75400 30.88200
O  -4.47000 31.55700 32.54900
C  -5.36200 32.11700 33.52300
H  0.75700 36.71300 29.67800
H  -0.28900 36.74600 23.40300
H  -3.67300 31.27000 23.95700
H  -2.62900 34.08900 31.80200
H  0.26700 34.77800 31.44700
H  -2.01300 36.22100 32.58000
H  -1.44200 37.02600 31.20700
H  -0.22500 36.59000 32.49900
H  -0.61900 31.83200 31.57500
H  -1.90500 32.00700 32.54600
H  0.03200 33.86800 33.58900
H  0.86600 32.43100 33.13900
H  2.10600 37.74400 28.82400
H  1.72200 39.21900 27.95300
H  3.10600 38.12100 27.47600
H  2.89600 39.99700 24.17400
H  3.65800 38.69600 24.97200
H  2.59000 39.72700 25.88200
H  -0.78200 34.71100 21.83900
H  -3.44100 33.22900 22.16900
H  -2.77800 36.69100 22.07300
H  -3.55200 35.49900 21.09100
H  -2.00500 35.91600 20.56800
H  -1.48100 32.33600 20.86400
H  -2.12200 31.18900 22.02600
H  -0.07200 32.73900 23.35400
H  0.47000 32.15900 21.78900
H  0.06200 30.89700 22.93900
H  -4.77300 28.78700 26.23600
H  -4.88600 29.81300 24.64000
H  -6.04200 29.85500 25.98400
H  -2.93700 30.78600 30.99800
H  -4.89600 32.22400 34.50300
H  -6.04900 31.28200 33.65600
H  -5.87400 33.05600 33.31200

