158

Mg 0.70700 7.87600 25.23100
C  1.55900 9.86600 28.17600
C  1.04800 5.07900 27.17700
C  0.00000 6.32000 22.56900
C  0.88000 10.97100 23.41200
N  1.14200 7.51200 27.44000
C  1.54100 8.51200 28.42800
C  1.71400 7.77300 29.82200
C  1.76700 6.24300 29.37200
C  1.36300 6.28500 27.89100
C  3.22900 5.56800 29.60100
C  0.39600 8.07400 30.74000
C  0.65800 8.46900 32.18000
H  1.80000 7.74700 32.88100
N  0.61600 5.99100 24.85300
C  0.70600 4.91600 25.77700
C  0.36000 3.73000 25.08000
C  0.04600 4.01900 23.71600
C  0.15200 5.52200 23.62200
C  0.28400 2.39800 25.92500
C  -0.24500 3.04100 22.57900
O  -0.44700 3.34900 21.44200
C  -0.02900 1.61600 22.84800
N  0.35300 8.56800 23.32400
C  0.06000 7.74200 22.36000
C  -0.37100 8.46800 21.05100
C  -0.19700 9.97700 21.42600
C  0.39600 9.83400 22.78700
C  0.42500 8.05600 19.76100
C  -1.61100 10.74300 21.45300
C  -1.71600 12.08900 20.79500
N  1.07200 10.02100 25.64100
C  1.08800 11.10000 24.77800
C  1.38800 12.32000 25.51500
C  1.52800 11.86900 26.86000
C  1.31700 10.43300 26.88200
C  1.42200 13.61100 24.86900
C  1.81700 12.25000 28.17300
O  2.02000 13.34500 28.62200
C  1.81800 11.01600 29.12000
C  3.16500 10.86600 29.62400
O  4.27200 10.90100 29.07500
O  2.97700 10.93900 30.97200
C  4.17900 11.19700 31.86400
H  0.92900 4.15100 27.73900
H  -0.34600 5.75200 21.70200
H  0.78100 11.87100 22.80200
H  2.68900 7.96300 30.27000
H  1.05000 5.54300 29.80100
H  3.84500 6.21100 30.23000
H  3.74700 5.27400 28.68800
H  3.05100 4.61900 30.10700
H  -0.33600 7.28100 30.58800
H  -0.05400 8.93300 30.24100
H  -0.28400 8.32200 32.70800
H  0.85000 9.53900 32.25700
H  1.04200 1.67600 25.62500
H  -0.63200 1.82400 25.78800
H  0.47400 2.62400 26.97400
H  -0.13300 1.14500 21.87000
H  -0.76200 1.28400 23.58300
H  1.00200 1.34600 23.07700
H  -1.38500 8.29900 20.68600
H  0.48500 10.53600 20.78500
H  1.09400 7.25200 20.06700
H  0.96300 8.90700 19.34400
H  -0.18300 7.66700 18.94500
H  -1.96900 10.87200 22.47500
H  -2.41400 10.13800 21.03200
H  -2.56300 12.13700 20.11100
H  -0.78000 12.13800 20.23900
H  -1.65900 12.97000 21.43400
H  1.17300 14.33200 25.64800
H  0.73600 13.71600 24.02800
H  2.45100 13.79700 24.56300
H  1.03800 11.21100 29.85600
H  4.59500 12.20400 31.83700
H  4.96600 10.47200 31.65700
H  3.85200 10.95200 32.87400
Mg 23.71900 -6.79700 45.26200
C  25.95700 -4.51700 43.70400
C  21.12600 -5.13200 43.65100
C  21.66000 -9.35100 46.01000
C  26.40700 -8.32800 46.69100
N  23.56600 -5.12900 43.66000
C  24.60500 -4.31100 43.25700
C  24.13600 -3.41500 42.16000
C  22.59200 -3.34600 42.49500
C  22.36300 -4.62600 43.33000
C  22.06200 -2.08200 43.17900
C  24.55400 -4.03100 40.78600
C  25.05500 -3.05400 39.67600
H  24.91500 -3.44700 38.20700
N  21.66400 -7.17300 44.90200
C  20.75900 -6.30700 44.28400
C  19.48600 -6.94200 44.21700
C  19.64700 -8.26600 44.82800
C  21.01500 -8.31700 45.28600
C  18.19100 -6.29100 43.69400
C  18.55300 -9.12900 45.23100
O  17.46100 -8.89900 44.68300
C  18.68500 -10.23800 46.25500
N  24.06000 -8.66600 46.02700
C  23.01700 -9.47700 46.36000
C  23.56200 -10.81400 47.03200
C  24.97600 -10.28000 47.50900
C  25.20500 -9.00800 46.70700
C  22.66700 -11.37100 48.16200
C  26.04300 -11.36100 47.39500
C  26.56200 -11.74500 48.70900
N  25.76500 -6.47500 45.27000
C  26.74000 -7.20200 45.90600
C  28.03300 -6.56400 45.65600
C  27.76000 -5.53800 44.80500
C  26.38600 -5.54700 44.58000
C  29.31800 -7.00900 46.19900
C  28.40200 -4.42500 44.04400
O  29.61700 -4.11500 43.92700
C  27.17300 -3.77300 43.33200
C  27.04300 -2.24400 43.49900
O  27.52000 -1.37300 42.74800
O  26.57600 -1.92900 44.75900
C  26.55600 -0.51400 45.07600
H  20.23700 -4.62300 43.27400
H  21.14800 -10.30000 46.18400
H  27.25100 -8.77900 47.21700
H  24.51400 -2.40400 42.31500
H  22.18100 -3.50500 41.49800
H  22.88600 -1.53500 43.63900
H  21.23700 -2.31400 43.85300
H  21.76800 -1.34900 42.42800
H  23.64600 -4.37200 40.28900
H  25.26700 -4.85400 40.84100
H  26.10700 -2.86900 39.89500
H  24.50600 -2.11900 39.78400
H  17.63600 -7.02900 43.11500
H  18.35100 -5.40900 43.07500
H  17.59300 -5.92600 44.52900
H  19.28800 -9.92600 47.10800
H  19.03400 -11.12800 45.73100
H  17.67800 -10.37900 46.64700
H  23.47100 -11.53200 46.21700
H  24.87900 -9.97300 48.55100
H  21.74600 -10.79500 48.24800
H  23.24200 -11.32700 49.08700
H  22.32200 -12.39500 48.01500
H  26.74400 -10.97800 46.65300
H  25.63300 -12.25900 46.93400
H  25.96800 -11.50600 49.59000
H  27.60300 -11.48500 48.90100
H  26.78300 -12.80800 48.60600
H  29.39500 -6.76500 47.25900
H  30.16600 -6.48900 45.75400
H  29.43600 -8.08500 46.07300
H  27.36100 -3.78700 42.25900
H  26.03600 0.08700 44.33000
H  27.56000 -0.10900 45.20100
H  26.00500 -0.39500 46.01000

