158

Mg 40.58200 8.23700 29.42000
C  42.35500 9.77600 32.08400
C  38.28600 6.96900 31.66500
C  39.15500 6.57000 26.83200
C  43.27600 9.00300 27.35400
N  40.39300 8.39300 31.64000
C  41.16900 9.07400 32.47200
C  40.62900 9.03200 33.90400
C  39.26900 8.20900 33.73800
C  39.32900 7.76400 32.29900
C  39.10500 7.04200 34.75300
C  40.47600 10.44100 34.64200
C  39.54300 10.51800 35.86900
H  40.03000 11.38900 37.05400
N  38.92700 6.95200 29.20400
C  38.10900 6.63000 30.24600
C  37.02800 5.91500 29.71500
C  37.24000 5.73300 28.29100
C  38.46900 6.44100 28.05900
C  35.81600 5.52000 30.52900
C  36.31800 5.11800 27.22400
O  36.58200 5.05100 26.01600
C  34.93000 4.62100 27.62900
N  41.21500 7.78200 27.36000
C  40.33400 7.16900 26.49000
C  40.93300 7.17100 25.06900
C  42.33000 7.91200 25.27200
C  42.34500 8.22700 26.73300
C  40.98700 5.71400 24.47300
C  42.44200 9.16900 24.35900
C  42.14800 10.57400 24.98500
N  42.40100 9.28400 29.59400
C  43.37300 9.46200 28.66800
C  44.49600 10.21200 29.32600
C  44.07600 10.40700 30.64700
C  42.81400 9.78200 30.78300
C  45.70900 10.73700 28.55200
C  44.44800 11.03500 31.98600
O  45.33200 11.76400 32.35800
C  43.24200 10.69400 32.92500
C  43.79300 10.16700 34.25100
O  44.17600 9.03500 34.50700
O  43.90200 11.22400 35.17500
C  44.68800 10.89900 36.38600
H  37.60500 6.48800 32.36900
H  38.75600 6.15900 25.90200
H  44.09400 9.35600 26.72200
H  41.37500 8.50600 34.50100
H  38.39700 8.85900 33.80800
H  38.39400 7.35100 35.51800
H  40.01600 6.64900 35.20400
H  38.67700 6.14300 34.31000
H  40.03200 11.07400 33.87400
H  41.45300 10.86700 34.87200
H  39.30900 9.53300 36.27300
H  38.60800 10.98500 35.56100
H  35.86600 6.01500 31.49900
H  35.74700 4.43400 30.58600
H  34.90400 5.80500 30.00500
H  34.28600 5.49200 27.75100
H  35.00600 3.96900 28.49900
H  34.50900 4.05200 26.80000
H  40.22800 7.67700 24.40900
H  43.17500 7.22600 25.23800
H  40.86500 4.92200 25.21100
H  41.97200 5.64800 24.01100
H  40.14400 5.66000 23.78400
H  41.84000 9.08900 23.45300
H  43.50700 9.15000 24.12900
H  41.67100 10.47100 25.96000
H  41.52400 11.12000 24.27800
H  43.07100 11.11400 25.19600
H  45.31000 11.49100 27.87300
H  46.05400 9.86600 27.99500
H  46.45000 11.12900 29.24900
H  42.80300 11.66600 33.14800
H  45.76900 10.83300 36.26300
H  44.39600 9.96400 36.86400
H  44.50700 11.71200 37.08900
Mg 26.41200 50.91500 26.76700
C  24.49900 52.20100 29.44800
C  28.62100 49.81600 28.99100
C  28.48400 50.47900 24.09600
C  24.16700 52.73100 24.60300
N  26.50900 50.98600 28.96300
C  25.62600 51.49000 29.86200
C  25.90500 51.14300 31.31100
C  27.28900 50.53800 31.20600
C  27.48100 50.38700 29.66600
C  28.37100 51.44500 31.82500
C  24.83800 50.09200 31.91600
C  24.33500 50.35400 33.32500
H  25.18900 51.17800 34.35000
N  28.28300 50.17800 26.54600
C  29.02900 49.63200 27.53900
C  30.24300 48.97600 27.03100
C  30.29000 49.37500 25.66400
C  28.99000 49.99300 25.33500
C  31.35500 48.39300 27.90200
C  31.37800 49.13700 24.67100
O  31.34700 49.57900 23.56100
C  32.52200 48.38500 25.02000
N  26.40400 51.71400 24.68500
C  27.34400 51.25000 23.84600
C  27.12100 51.73100 22.40900
C  25.63600 52.24200 22.44000
C  25.38500 52.28400 24.04300
C  28.14400 52.85400 22.02900
C  24.66900 51.34100 21.65000
C  23.24800 51.69400 21.29200
N  24.63300 52.18000 26.93000
C  23.90800 52.80400 26.02400
C  22.77400 53.54500 26.64800
C  23.07300 53.34300 28.01400
C  24.12300 52.55800 28.11300
C  21.62800 54.31200 25.92700
C  22.49300 53.57400 29.35100
O  21.49000 54.16700 29.74700
C  23.48300 52.84100 30.30200
C  24.05300 53.83500 31.19300
O  24.99400 54.55800 30.85100
O  23.18300 54.01500 32.24300
C  23.53500 55.04900 33.27700
H  29.23200 49.25300 29.70000
H  29.13400 50.22200 23.25700
H  23.41600 53.17100 23.94300
H  25.89800 52.06900 31.88500
H  27.22400 49.57400 31.71200
H  28.01900 52.13600 32.59200
H  28.94800 52.01500 31.09700
H  28.94900 50.69000 32.35800
H  25.19400 49.06300 31.95300
H  23.98300 50.18400 31.24500
H  24.08400 49.44500 33.87200
H  23.39300 50.89200 33.21500
H  31.77000 47.44300 27.56700
H  30.99600 48.23800 28.92000
H  32.24700 49.01300 27.98300
H  32.34300 47.31100 25.05600
H  33.08300 48.78900 25.86300
H  33.27100 48.45200 24.23000
H  27.29400 50.85700 21.78200
H  25.52400 53.29300 22.17400
H  28.52900 53.40600 22.88600
H  27.74800 53.59600 21.33600
H  28.95700 52.32600 21.53100
H  24.49400 50.43300 22.22700
H  25.12700 51.00300 20.72100
H  22.46000 51.12400 21.78400
H  23.02200 51.41900 20.26200
H  22.98800 52.73100 21.50500
H  21.11100 54.87100 26.70800
H  20.89100 53.77300 25.33200
H  22.12000 54.97700 25.21700
H  22.91800 52.12800 30.90200
H  22.65300 55.37000 33.83100
H  23.88400 55.92800 32.73700
H  24.32100 54.66200 33.92500

