158

Mg 0.39000 7.25800 25.93800
C  1.16600 9.35800 28.73200
C  0.67500 4.55900 28.11500
C  -0.27500 5.38900 23.35200
C  0.92000 10.11900 23.85900
N  0.73300 7.04200 28.24800
C  1.06700 8.04700 29.14000
C  1.27600 7.42300 30.50500
C  1.35100 5.88900 30.25700
C  0.86100 5.75500 28.76300
C  2.76100 5.28100 30.35000
C  0.14100 7.81000 31.40200
C  0.42500 7.91800 32.88000
H  1.65500 7.08200 33.44700
N  0.09600 5.22900 25.78400
C  0.36500 4.31600 26.81800
C  0.23500 3.02700 26.23500
C  -0.10600 3.18400 24.82000
C  -0.08100 4.63000 24.55600
C  0.58900 1.85700 27.12800
C  -0.36700 2.20100 23.81900
O  -0.69700 2.47300 22.64600
C  -0.47900 0.77200 24.30500
N  0.60600 7.65300 23.86000
C  0.07900 6.73400 23.00400
C  -0.11000 7.36900 21.62500
C  0.08200 8.92900 21.81600
C  0.55700 8.91700 23.26600
C  0.85300 6.85300 20.50700
C  -1.15100 9.85300 21.63400
C  -1.41400 10.54100 20.21500
N  0.93000 9.35800 26.22500
C  1.05900 10.35800 25.25900
C  1.47900 11.55800 25.93500
C  1.50100 11.26600 27.29100
C  1.10100 9.88100 27.37400
C  1.71500 12.89000 25.21600
C  1.68800 11.83400 28.64000
O  2.13400 12.91600 28.96500
C  1.44600 10.50100 29.63700
C  2.67800 10.56600 30.44600
O  3.82700 10.27500 30.07500
O  2.30500 10.74500 31.74200
C  3.37200 10.69900 32.70000
H  1.00400 3.68400 28.67900
H  -0.74500 4.77500 22.58100
H  0.97100 11.09500 23.37300
H  2.19500 7.89000 30.86000
H  0.72100 5.27700 30.90300
H  2.73000 4.62900 31.22300
H  3.35900 6.13900 30.65400
H  3.03200 4.88800 29.37000
H  -0.58300 7.00500 31.27300
H  -0.36700 8.66900 30.96400
H  -0.47600 7.62100 33.41700
H  0.51700 8.99000 33.05200
H  0.53100 0.95700 26.51600
H  -0.12600 1.78000 27.94600
H  1.60800 1.86500 27.51600
H  0.43700 0.25000 24.58000
H  -0.89100 0.10600 23.54700
H  -1.13700 0.74100 25.17300
H  -1.16600 7.22600 21.39500
H  0.88000 9.34900 21.20400
H  1.46300 6.05000 20.92000
H  1.44800 7.67300 20.10600
H  0.30900 6.35800 19.70300
H  -1.04200 10.74000 22.25900
H  -1.98500 9.20500 21.90400
H  -2.47700 10.47500 19.98500
H  -0.84000 10.11800 19.39100
H  -1.05500 11.56500 20.32100
H  0.79700 13.47300 25.28100
H  2.05600 12.86900 24.18000
H  2.53200 13.41200 25.71500
H  0.55100 10.66500 30.23700
H  3.61600 11.75700 32.80300
H  4.28800 10.14200 32.50600
H  3.12600 10.37500 33.71100
Mg 49.92000 45.91500 43.19900
C  46.57300 46.26300 42.31800
C  49.78200 42.60900 42.26800
C  53.32700 45.73200 43.66000
C  50.15400 49.43900 43.84400
N  48.33600 44.65700 42.26000
C  47.03000 44.96400 42.17100
C  46.21500 43.79000 41.71600
C  47.20600 42.56300 41.83800
C  48.52400 43.28700 42.16300
C  46.90200 41.45800 42.93300
C  45.77000 43.94500 40.14300
C  44.39300 43.60500 39.81400
H  43.86500 44.45000 38.63100
N  51.44500 44.40500 42.87200
C  51.12300 43.07900 42.53600
C  52.32800 42.27100 42.61000
C  53.33400 43.15000 43.07200
C  52.73200 44.51100 43.19300
C  52.40500 40.77100 42.24800
C  54.84800 42.75900 43.28700
O  55.12400 41.59100 43.02100
C  55.89500 43.70200 43.79500
N  51.51700 47.41700 43.62900
C  52.74100 47.00300 43.83500
C  53.58300 48.27500 44.14800
C  52.57700 49.51800 44.17400
C  51.32900 48.76000 43.89100
C  54.49500 48.19700 45.40900
C  52.89400 50.57100 43.00700
C  53.62200 51.89300 43.48600
N  48.62000 47.53800 43.18000
C  48.88400 48.86900 43.43900
C  47.55900 49.55600 43.31600
C  46.65300 48.58300 42.89100
C  47.37400 47.39100 42.79900
C  47.20800 50.94700 43.53700
C  45.27400 48.26800 42.47300
O  44.32700 49.02900 42.33500
C  45.14900 46.81600 42.10100
C  44.14600 46.32600 43.14900
O  44.30200 46.18000 44.36200
O  42.96300 45.94000 42.49100
C  41.92100 45.21300 43.26400
H  49.58700 41.54400 42.12500
H  54.35700 45.62700 44.00800
H  50.03800 50.49500 44.09500
H  45.30900 43.58000 42.28300
H  47.19700 42.10500 40.84900
H  46.51100 40.51300 42.55500
H  46.05800 41.85800 43.49500
H  47.71100 41.25100 43.63400
H  46.35700 43.32500 39.46600
H  46.04300 44.93700 39.78200
H  43.79500 43.68600 40.72100
H  44.51800 42.56500 39.51300
H  51.45700 40.25200 42.38700
H  53.17500 40.23600 42.80400
H  52.66900 40.76900 41.19000
H  56.07000 44.45200 43.02400
H  56.84800 43.17200 43.78600
H  55.69900 44.18400 44.75300
H  54.19700 48.39800 43.25600
H  52.67600 49.95600 45.16700
H  54.24100 47.48600 46.19600
H  54.56800 49.18100 45.87200
H  55.52200 47.99500 45.10300
H  51.93600 50.78600 42.53500
H  53.48300 50.16300 42.18600
H  54.49200 52.02300 42.84300
H  53.92900 51.72900 44.51900
H  53.02600 52.80600 43.45700
H  47.67800 51.56900 42.77500
H  47.60200 51.20900 44.51900
H  46.12300 51.04200 43.57100
H  44.73500 46.84600 41.09300
H  42.08900 44.17000 42.99500
H  40.91500 45.54600 43.00700
H  41.97800 45.18600 44.35200

