158

Mg 0.59300 8.68700 27.08400
C  1.51200 10.72200 29.83200
C  1.34500 5.89200 29.16300
C  0.18400 6.63600 24.41500
C  0.89300 11.47100 24.96000
N  1.59200 8.39200 29.16900
C  1.61400 9.37600 30.14000
C  1.63900 8.73200 31.50400
C  1.89600 7.23800 31.21200
C  1.70400 7.12100 29.73600
C  3.21100 6.56900 31.73100
C  0.25400 8.86800 32.26500
C  0.21700 8.81400 33.81600
H  1.44300 8.19700 34.63100
N  0.58800 6.54100 26.86700
C  0.88200 5.62700 27.85400
C  0.72800 4.33700 27.20100
C  0.27400 4.55200 25.89500
C  0.29100 5.95500 25.68800
C  1.12300 3.12200 27.93900
C  -0.16500 3.53200 24.83100
O  -0.58800 3.82100 23.70500
C  0.09900 2.08200 25.20300
N  0.56700 9.03000 24.90300
C  0.32000 8.06100 24.02200
C  0.39100 8.63600 22.58200
C  0.18000 10.13000 22.89600
C  0.65400 10.24100 24.32100
C  1.70900 8.26800 21.91400
C  -1.32100 10.45100 22.78400
C  -1.75800 11.88700 22.58400
N  0.98900 10.69600 27.25300
C  1.17000 11.74100 26.34100
C  1.53000 12.94000 27.02400
C  1.56500 12.58900 28.42900
C  1.26700 11.22100 28.52300
C  1.74900 14.29700 26.41800
C  1.82500 13.14900 29.70900
O  2.15100 14.28100 30.08600
C  1.66100 11.95600 30.65600
C  2.71400 11.96100 31.67400
O  3.94500 12.13200 31.40900
O  2.27400 11.91600 32.95700
C  3.28200 12.28300 33.99800
H  1.35600 5.06100 29.87100
H  0.04900 6.02400 23.52000
H  0.88200 12.34900 24.31100
H  2.43100 9.20400 32.08500
H  1.10900 6.65400 31.69000
H  3.60800 7.06000 32.62000
H  3.93200 6.61800 30.91500
H  2.94900 5.56500 32.06500
H  -0.43200 8.09600 31.91600
H  -0.26600 9.74300 31.87500
H  -0.63900 8.24400 34.17700
H  0.06300 9.81700 34.21300
H  1.60000 3.38800 28.88200
H  1.74400 2.45000 27.34600
H  0.13900 2.70300 28.14900
H  -0.32000 1.70300 26.13500
H  1.18800 2.05500 25.23600
H  -0.17900 1.46800 24.34600
H  -0.40100 8.13900 22.02200
H  0.82500 10.79700 22.32500
H  1.44700 7.93400 20.91100
H  2.11700 7.43600 22.48800
H  2.32400 9.16600 21.85100
H  -1.94300 10.17300 23.63500
H  -1.68000 9.92000 21.90200
H  -0.88700 12.54200 22.58700
H  -2.34100 12.17700 23.45800
H  -2.49900 12.07900 21.80800
H  1.68700 14.25500 25.33100
H  2.66000 14.72400 26.83800
H  1.00300 14.94900 26.87200
H  0.69600 11.94300 31.16300
H  3.32800 13.37200 34.00900
H  4.30000 11.93100 33.83400
H  3.00600 11.91700 34.98700
Mg 17.06400 51.19200 25.96900
C  18.86800 49.96500 28.69700
C  14.76400 52.43600 28.16700
C  15.21500 52.23600 23.38200
C  19.50000 49.93700 23.91100
N  16.89100 51.18700 28.18200
C  17.71800 50.66400 29.09500
C  17.21100 50.94600 30.58700
C  15.73700 51.48600 30.32800
C  15.82800 51.78500 28.82700
C  14.63400 50.59400 30.79100
C  18.22900 51.92300 31.27100
C  17.90700 52.52100 32.63600
H  16.92200 51.74400 33.51600
N  15.33800 52.32600 25.80700
C  14.54100 52.75700 26.82300
C  13.40300 53.43300 26.31700
C  13.49500 53.45900 24.87900
C  14.75000 52.65000 24.59000
C  12.42900 54.01700 27.17100
C  12.71900 54.23700 23.83800
O  13.00100 54.11300 22.66200
C  11.36700 54.92900 24.16900
N  17.30400 51.07500 23.99400
C  16.35200 51.52500 23.10600
C  16.97900 51.37200 21.66700
C  18.48400 51.04900 21.83500
C  18.45600 50.69900 23.35300
C  16.10200 50.46700 20.73600
C  19.59400 52.16000 21.52600
C  20.78600 51.59300 20.72100
N  18.83200 50.12000 26.17200
C  19.66400 49.62500 25.25700
C  20.79300 48.88000 25.93000
C  20.48400 48.99900 27.31700
C  19.35500 49.78300 27.40400
C  21.98900 48.35200 25.39500
C  20.90700 48.61900 28.62800
O  21.77500 47.87400 28.96800
C  19.87700 49.32700 29.64600
C  19.29000 48.27800 30.50000
O  18.58800 47.29500 30.13800
O  19.54300 48.57300 31.80500
C  18.92200 47.76600 32.88200
H  13.95800 52.79900 28.80800
H  14.68400 52.66400 22.53000
H  20.16800 49.55500 23.13600
H  17.23800 49.98800 31.10500
H  15.53900 52.43200 30.83200
H  14.24700 50.07700 29.91300
H  13.88500 51.22100 31.27500
H  15.04500 49.73900 31.32700
H  18.75700 52.50300 30.51400
H  19.06500 51.27700 31.53900
H  17.38200 53.47100 32.53700
H  18.74700 52.55200 33.33000
H  11.48700 53.47600 27.27000
H  12.23200 55.01700 26.78400
H  12.77900 54.29700 28.16400
H  11.66600 55.80500 24.74600
H  10.81500 54.33200 24.89400
H  10.83900 55.15300 23.24200
H  17.06900 52.31700 21.13100
H  18.70000 50.17300 21.22400
H  15.70500 51.04400 19.90100
H  15.24500 50.09700 21.29900
H  16.69700 49.66100 20.30800
H  19.96100 52.64600 22.43000
H  19.06200 52.91400 20.94700
H  20.73000 51.81200 19.65400
H  20.95100 50.51700 20.67900
H  21.68800 52.10200 21.05800
H  22.84700 49.00400 25.55600
H  21.83000 48.04500 24.36100
H  22.19700 47.39800 25.87900
H  20.32400 50.12200 30.24400
H  19.53400 46.98200 33.32700
H  18.04000 47.28800 32.45400
H  18.52600 48.40900 33.66700

