158

Mg 17.03400 51.42500 26.28700
C  19.11400 49.93200 28.84200
C  14.77500 52.14600 28.69300
C  15.17600 52.33100 23.78300
C  19.40900 50.07000 24.07200
N  16.97600 51.07400 28.43900
C  17.95400 50.51200 29.35400
C  17.58200 50.71000 30.81300
C  16.09900 51.10500 30.65600
C  15.95500 51.52400 29.15400
C  15.04800 50.05400 31.09000
C  18.52600 51.81800 31.51500
C  18.69500 51.64000 33.05800
H  17.77000 50.62300 33.78200
N  15.29300 52.44700 26.27000
C  14.46700 52.58700 27.36500
C  13.21100 53.15700 26.89100
C  13.31800 53.20500 25.47300
C  14.63500 52.64500 25.12900
C  12.11000 53.76300 27.83800
C  12.38900 53.76100 24.38700
O  12.74600 53.84900 23.23800
C  10.99400 54.22700 24.80800
N  17.23000 51.18300 24.23400
C  16.35300 51.70800 23.41500
C  16.73700 51.49900 21.93600
C  18.21500 50.90700 22.06700
C  18.34100 50.79200 23.54600
C  15.69100 50.66500 21.11200
C  19.32500 51.69100 21.33400
C  20.34800 50.75600 20.52300
N  18.85300 50.14200 26.35900
C  19.66400 49.68400 25.40800
C  20.84900 49.00700 25.96000
C  20.73900 49.10300 27.31900
C  19.48000 49.76700 27.52900
C  21.92700 48.40600 25.15300
C  21.26600 48.74300 28.62400
O  22.24800 48.13400 28.93700
C  20.25200 49.34800 29.69500
C  19.86800 48.34300 30.66300
O  18.90200 47.59500 30.58100
O  20.61500 48.37200 31.80900
C  20.41900 47.25600 32.76000
H  13.96900 52.26400 29.42100
H  14.45800 52.55500 22.99100
H  20.21200 49.78600 23.38800
H  17.60700 49.77000 31.36500
H  15.91400 52.06300 31.14400
H  15.56200 49.27000 31.64700
H  14.55300 49.55000 30.25900
H  14.20300 50.43800 31.66100
H  18.00900 52.77100 31.40100
H  19.52300 51.75200 31.08100
H  18.65500 52.55700 33.64600
H  19.66500 51.14900 33.14400
H  12.53800 53.82100 28.83900
H  11.31500 53.01700 27.85500
H  11.68500 54.70200 27.48500
H  11.02400 55.13900 25.40500
H  10.59200 53.35200 25.31900
H  10.42800 54.40200 23.89300
H  16.75000 52.48300 21.46800
H  18.21800 49.85800 21.77100
H  16.06800 49.77000 20.61600
H  15.39200 51.30100 20.27800
H  14.82000 50.33600 21.67800
H  19.72100 52.48200 21.97100
H  18.84000 52.34100 20.60600
H  21.31500 51.07500 20.91300
H  20.25100 50.92800 19.45200
H  20.21800 49.68600 20.68600
H  22.81100 49.03700 25.05000
H  21.48400 48.33900 24.16000
H  22.19800 47.38800 25.43100
H  20.88300 50.10100 30.16800
H  21.24800 47.16000 33.46100
H  20.15000 46.29300 32.32500
H  19.64500 47.63300 33.42700
Mg -2.28200 34.36000 27.61300
C  -3.88900 32.54800 30.11900
C  -0.80200 36.27100 30.12300
C  -0.84800 36.26700 25.15300
C  -4.17300 32.60200 25.19500
N  -2.38000 34.37800 29.82200
C  -3.16800 33.63700 30.65000
C  -2.91700 33.91600 32.22900
C  -2.04900 35.21900 32.10400
C  -1.61800 35.27500 30.60700
C  -2.58700 36.63800 32.50100
C  -2.34500 32.67700 33.00000
C  -3.08800 32.14600 34.27600
H  -2.33200 32.14700 35.63500
N  -1.04600 36.07000 27.66700
C  -0.51600 36.66700 28.75900
C  0.38700 37.69800 28.34100
C  0.48500 37.67400 26.89500
C  -0.52200 36.66400 26.49900
C  1.15500 38.54800 29.29400
C  1.34900 38.54900 25.98900
O  1.34700 38.40600 24.75700
C  2.00400 39.74800 26.47600
N  -2.51800 34.48800 25.46900
C  -1.75700 35.28700 24.71000
C  -2.15000 35.12600 23.25400
C  -2.93000 33.78600 23.25800
C  -3.23100 33.60800 24.73700
C  -3.00700 36.36000 22.81600
C  -2.05600 32.68600 22.77500
C  -2.22400 32.27800 21.31600
N  -3.62000 32.84000 27.57500
C  -4.36800 32.26000 26.51200
C  -5.24400 31.26600 27.03500
C  -5.08100 31.31700 28.45300
C  -4.08900 32.29200 28.75100
C  -6.14000 30.39000 26.18700
C  -5.60500 30.79600 29.71800
O  -6.36600 29.89500 29.98500
C  -4.82000 31.58600 30.83800
C  -5.87400 32.19000 31.73500
O  -6.76600 32.95400 31.36800
O  -5.67100 31.73000 33.02800
C  -6.82600 31.76400 33.90900
H  -0.38900 36.90200 30.91200
H  -0.45100 36.83800 24.31000
H  -4.81200 32.21700 24.39700
H  -3.89700 34.23100 32.58600
H  -1.25900 35.08400 32.84300
H  -1.79400 37.14200 33.05400
H  -3.46000 36.61900 33.15300
H  -2.79000 37.12000 31.54400
H  -1.36600 32.91000 33.41800
H  -2.20200 31.79800 32.37100
H  -3.31000 31.10500 34.04400
H  -3.99300 32.73400 34.43200
H  0.53400 38.75800 30.16500
H  1.56700 39.50000 28.95800
H  1.97700 37.94600 29.68000
H  1.35400 40.38200 27.07900
H  2.38200 40.31200 25.62400
H  2.81100 39.34300 27.08700
H  -1.29700 35.11300 22.57600
H  -3.93100 33.87600 22.83700
H  -2.59100 36.93600 21.99000
H  -3.06500 37.01700 23.68500
H  -3.98800 35.99200 22.51500
H  -2.09200 31.87600 23.50400
H  -1.00400 32.96900 22.81800
H  -1.26700 32.56200 20.87900
H  -3.07800 32.81800 20.90700
H  -2.47500 31.22500 21.19000
H  -5.42400 29.75100 25.67100
H  -6.56700 30.94600 25.35200
H  -6.80600 29.86100 26.86900
H  -4.24200 30.78800 31.30400
H  -7.07800 30.85300 34.45200
H  -7.66900 31.98700 33.25500
H  -6.74300 32.60600 34.59600

