158

Mg -2.17100 17.12800 26.63200
C  -2.90100 14.96100 29.29000
C  -2.97500 19.81500 28.81100
C  -2.00100 19.16800 24.06000
C  -2.11000 14.38600 24.49700
N  -2.78800 17.37800 28.82000
C  -3.04800 16.27200 29.70900
C  -3.50900 16.83100 31.01900
C  -3.44600 18.35300 30.87900
C  -3.04900 18.56200 29.43000
C  -4.69900 19.14800 31.21500
C  -2.83300 15.99500 32.20300
C  -2.63800 16.78300 33.54000
H  -2.50800 15.93400 34.84200
N  -2.36800 19.25200 26.51400
C  -2.61000 20.15200 27.52800
C  -2.37900 21.46300 26.94700
C  -2.16000 21.34400 25.56200
C  -2.22000 19.89400 25.27700
C  -2.62400 22.70000 27.80000
C  -1.86600 22.32700 24.59300
O  -1.59900 22.06400 23.40500
C  -1.82000 23.82500 24.86800
N  -2.23200 16.82900 24.57700
C  -2.07300 17.82400 23.70700
C  -1.81300 17.37100 22.28400
C  -1.55600 15.86600 22.52500
C  -1.94600 15.66400 23.96500
C  -2.95800 17.64600 21.29700
C  -0.16300 15.33600 22.15200
C  0.97700 15.77400 23.12800
N  -2.37400 15.09600 26.83000
C  -2.31000 14.11300 25.84900
C  -2.67100 12.83900 26.51600
C  -2.79800 13.12100 27.86100
C  -2.63500 14.50700 27.99300
C  -2.86100 11.53000 25.92900
C  -3.09300 12.57400 29.11200
O  -3.30600 11.41000 29.41100
C  -3.00900 13.67100 30.10200
C  -1.78300 13.43400 30.90700
O  -0.62300 13.79900 30.68600
O  -2.17700 12.60400 32.03800
C  -1.14400 12.32100 33.03600
H  -3.08700 20.68100 29.46700
H  -1.93600 19.76400 23.14800
H  -1.90800 13.49400 23.90000
H  -4.56900 16.57900 31.05300
H  -2.55400 18.71300 31.39300
H  -4.61500 20.07800 31.77800
H  -5.15000 18.55400 32.00900
H  -5.38500 19.35600 30.39400
H  -1.77600 15.81900 32.00500
H  -3.37100 15.08500 32.46700
H  -3.38100 17.55700 33.73600
H  -1.63800 17.21500 33.50300
H  -1.69000 23.13200 28.16000
H  -3.24300 22.57800 28.68900
H  -3.08300 23.40500 27.10700
H  -1.75100 24.48100 24.00000
H  -1.07800 23.96900 25.65300
H  -2.80200 24.18000 25.18100
H  -0.86200 17.81100 21.98300
H  -2.19700 15.18500 21.96400
H  -2.81400 17.05500 20.39300
H  -2.78500 18.66000 20.93700
H  -3.90300 17.50100 21.82100
H  0.08100 15.54300 21.11000
H  -0.26400 14.25300 22.08900
H  0.70900 16.05200 24.14700
H  1.39200 16.65200 22.63500
H  1.62500 14.90200 23.22000
H  -2.44700 10.84200 26.66600
H  -2.43700 11.51200 24.92500
H  -3.92700 11.32700 25.82300
H  -3.85500 13.54700 30.77900
H  -1.66400 12.03100 33.94900
H  -0.43100 13.11800 33.24700
H  -0.59600 11.46500 32.64400
Mg 16.62000 51.08800 26.75100
C  18.60500 49.60200 29.40100
C  14.43500 52.25700 29.13100
C  14.62900 52.07800 24.36300
C  18.88900 49.66000 24.44100
N  16.59100 51.07200 29.04900
C  17.44700 50.35200 29.88000
C  17.11700 50.68800 31.35200
C  15.71600 51.35500 31.23700
C  15.54000 51.60100 29.73100
C  14.51100 50.54500 31.76900
C  18.23200 51.52800 32.04600
C  18.32900 51.44900 33.60300
H  17.30500 50.67500 34.42400
N  14.75200 52.05600 26.78500
C  14.05700 52.54400 27.84800
C  12.89200 53.32900 27.36700
C  12.91400 53.27600 25.93700
C  14.09100 52.42600 25.63700
C  11.92500 54.04800 28.28900
C  12.01100 54.10200 24.94700
O  12.20600 54.08700 23.79300
C  10.97600 54.93200 25.49200
N  16.76400 50.90300 24.74200
C  15.78000 51.41800 23.97300
C  16.02300 51.12100 22.42800
C  17.50900 50.57300 22.51100
C  17.72600 50.29100 23.96000
C  14.89600 50.15900 21.98800
C  18.54200 51.68000 21.88600
C  19.40900 52.66400 22.83800
N  18.32600 49.83000 26.86500
C  19.15400 49.39500 25.78700
C  20.32200 48.65400 26.39300
C  20.10700 48.75500 27.80200
C  18.92100 49.46000 28.04000
C  21.36500 47.88200 25.61900
C  20.55800 48.21000 29.03400
O  21.45700 47.43800 29.33000
C  19.71100 48.95800 30.21800
C  19.22800 48.01000 31.21000
O  18.23500 47.32000 31.10800
O  20.05200 47.99700 32.35500
C  19.58700 47.01800 33.35500
H  13.70400 52.60100 29.86600
H  14.08900 52.34700 23.45300
H  19.56500 49.35900 23.63700
H  17.25500 49.67000 31.71700
H  15.76200 52.33100 31.72000
H  14.67500 49.50500 32.05000
H  13.70300 50.48900 31.04000
H  14.09900 51.16000 32.56900
H  17.88500 52.52700 31.78100
H  19.19100 51.23800 31.61700
H  18.45800 52.39900 34.12200
H  19.26500 50.91700 33.76800
H  11.88300 55.13300 28.20200
H  12.18300 53.89800 29.33800
H  10.90200 53.68000 28.21000
H  10.13600 54.37900 25.91200
H  10.53700 55.43800 24.63200
H  11.43300 55.66900 26.15300
H  16.00600 52.03500 21.83300
H  17.62000 49.68000 21.89600
H  14.05700 50.14900 22.68300
H  15.40000 49.19400 21.93300
H  14.48300 50.57900 21.07100
H  18.13600 52.35300 21.13000
H  19.27200 51.02900 21.40400
H  18.91700 52.90200 23.78100
H  19.63000 53.57500 22.28100
H  20.33300 52.09100 22.90900
H  22.07700 47.63200 26.40500
H  21.82500 48.53500 24.87600
H  20.95200 46.96300 25.20400
H  20.42400 49.57900 30.76100
H  19.75100 45.98900 33.03700
H  18.57600 47.09200 33.75700
H  20.11500 47.23000 34.28500

