158

Mg 9.77500 48.40500 26.48000
C  7.93800 48.21500 29.43100
C  12.41500 49.63100 28.22200
C  11.22000 48.90000 23.55400
C  6.63000 47.59800 24.70800
N  10.10700 48.74400 28.57200
C  9.24100 48.56000 29.59700
C  9.81300 49.11100 30.94000
C  11.19300 49.60000 30.50700
C  11.26700 49.36700 28.96800
C  11.42200 51.09800 30.84000
C  9.79200 48.07500 32.15100
C  10.66600 48.31500 33.38300
H  10.23800 47.85400 34.77100
N  11.59200 49.17800 25.98500
C  12.61000 49.49400 26.83900
C  13.79800 49.70300 26.06900
C  13.46700 49.58700 24.72000
C  12.06100 49.27000 24.68300
C  15.14500 49.94800 26.63300
C  14.41700 49.48900 23.53300
O  13.99800 49.30900 22.39600
C  15.90000 49.49400 23.67300
N  8.97500 48.26900 24.43600
C  9.89200 48.47300 23.39100
C  9.32500 47.84600 22.14300
C  7.88300 47.52100 22.40400
C  7.77600 47.89900 23.92100
C  9.52400 48.61400 20.80500
C  7.53900 46.12000 21.99400
C  8.12600 45.00700 22.83000
N  7.66100 48.11300 26.88000
C  6.56500 47.79300 26.06700
C  5.39600 47.78100 26.87500
C  5.87000 47.76500 28.20200
C  7.23400 48.07500 28.17500
C  4.02500 47.55100 26.34100
C  5.46300 47.67600 29.61000
O  4.34000 47.55200 30.09200
C  6.77500 47.95000 30.45000
C  6.93000 46.74500 31.31200
O  7.52800 45.75100 30.91900
O  6.27200 46.81800 32.60500
C  6.53800 45.69700 33.52200
H  13.21300 49.95300 28.89500
H  11.82000 48.87000 22.64200
H  5.76200 47.21700 24.16600
H  9.08800 49.87100 31.23300
H  12.01600 49.07400 30.99000
H  12.07000 50.96200 31.70700
H  10.54400 51.66500 31.14800
H  11.95200 51.56300 30.00900
H  9.99500 47.09600 31.71500
H  8.74200 48.16700 32.43000
H  10.97800 49.34600 33.21700
H  11.57400 47.77000 33.12500
H  15.04800 50.12400 27.70400
H  15.70100 50.83900 26.34100
H  15.80000 49.08900 26.49100
H  16.34600 49.54700 22.67900
H  16.38700 48.62000 24.10700
H  16.12600 50.38300 24.26200
H  9.96100 46.96300 22.07900
H  7.26500 48.25900 21.89100
H  8.71300 49.11900 20.28000
H  10.06200 48.03100 20.05700
H  10.15200 49.46400 21.07100
H  7.83300 45.96300 20.95600
H  6.45600 46.01700 22.05500
H  8.54700 45.33000 23.78200
H  8.80200 44.39900 22.22900
H  7.33200 44.30500 23.08300
H  3.71300 48.19900 25.52200
H  3.34100 47.67600 27.18100
H  3.95800 46.56300 25.88700
H  6.71000 48.79300 31.13700
H  6.88100 46.06900 34.48800
H  7.14000 44.88100 33.12200
H  5.58400 45.21100 33.73000
Mg -11.21900 38.36700 42.42200
C  -9.22700 35.67500 41.27100
C  -8.97300 40.44700 40.76700
C  -13.51500 40.78700 42.59000
C  -13.68300 35.98000 43.15300
N  -9.43800 38.09900 41.01700
C  -8.76800 36.92000 40.80400
C  -7.49800 37.07800 39.91700
C  -7.30400 38.64100 39.88400
C  -8.61200 39.11900 40.62900
C  -5.99800 39.22500 40.53500
C  -7.58600 36.42300 38.45100
C  -6.55600 35.26400 38.06000
H  -5.36400 35.46500 37.07300
N  -11.19200 40.36300 42.00400
C  -10.15500 41.03500 41.36000
C  -10.43200 42.42700 41.41200
C  -11.76800 42.55700 41.91300
C  -12.23600 41.21900 42.15900
C  -9.50600 43.56500 40.96400
C  -12.51500 43.86600 42.09100
O  -12.02700 44.93300 41.77000
C  -13.82900 43.93000 42.80700
N  -13.31500 38.39600 42.89300
C  -14.04200 39.53200 42.89400
C  -15.47200 39.36900 43.04500
C  -15.49900 37.80800 43.35900
C  -14.12000 37.36200 43.14400
C  -16.15100 40.27100 44.20900
C  -16.58700 37.05000 42.61600
C  -16.32400 36.48900 41.20000
N  -11.35800 36.29500 42.49600
C  -12.36100 35.47900 42.86500
C  -11.90900 34.12400 43.00300
C  -10.69700 34.15100 42.34900
C  -10.41800 35.48400 42.00600
C  -12.77100 33.08600 43.68700
C  -9.60400 33.28700 41.90900
O  -9.42600 32.11900 42.01500
C  -8.59300 34.23300 41.09400
C  -7.15600 34.12700 41.61800
O  -6.37400 33.35600 41.03000
O  -6.93000 34.89700 42.69500
C  -5.58500 34.77800 43.25900
H  -8.29600 41.11300 40.22700
H  -14.35600 41.48300 42.58600
H  -14.49900 35.28700 43.36900
H  -6.63800 36.70600 40.47300
H  -7.39900 38.99600 38.85700
H  -5.29900 38.40700 40.71000
H  -6.24400 39.62400 41.51900
H  -5.54100 40.02500 39.95300
H  -7.44700 37.15400 37.65400
H  -8.56700 35.95500 38.36700
H  -7.17200 34.44000 37.70100
H  -5.97300 35.01400 38.94700
H  -9.60200 43.69800 39.88700
H  -8.46400 43.26500 41.08000
H  -9.59700 44.53900 41.44600
H  -13.90800 43.40000 43.75600
H  -14.62000 43.56400 42.15200
H  -14.07400 44.98500 42.92900
H  -15.98700 39.52900 42.09800
H  -15.57800 37.58100 44.42200
H  -15.34400 40.60600 44.86000
H  -16.86900 39.62000 44.70900
H  -16.62300 41.10700 43.69200
H  -17.53500 37.54300 42.83100
H  -16.74900 36.07600 43.07700
H  -15.73800 35.57100 41.23000
H  -15.70600 37.22900 40.69300
H  -17.30900 36.26700 40.79000
H  -13.77400 33.28700 43.30900
H  -12.76900 33.02200 44.77500
H  -12.48100 32.13700 43.23700
H  -8.51300 33.97100 40.03900
H  -4.75900 34.77500 42.54800
H  -5.59000 33.92300 43.93500
H  -5.30600 35.56800 43.95700

