158

Mg 17.22200 -1.23900 27.42700
C  16.06300 0.64600 30.16900
C  19.25100 -3.08500 29.68600
C  18.61700 -2.97700 24.92500
C  15.72900 0.94500 25.31600
N  17.49900 -1.24500 29.72500
C  17.04300 -0.34000 30.62400
C  17.49300 -0.60400 32.08600
C  18.77200 -1.56600 31.78200
C  18.49000 -2.01200 30.27800
C  20.15400 -0.95000 32.03100
C  16.41200 -1.17100 33.05900
C  16.75800 -1.15700 34.59100
H  18.05100 -0.51000 35.01600
N  18.51200 -2.93500 27.32600
C  19.15600 -3.62600 28.35600
C  19.81000 -4.80400 27.81700
C  19.62200 -4.72800 26.43300
C  18.88800 -3.46400 26.13800
C  20.39300 -5.85900 28.68400
C  19.99600 -5.71900 25.37700
O  19.67900 -5.68400 24.21700
C  20.84000 -6.89000 25.78000
N  17.23300 -0.96400 25.35400
C  17.83800 -1.83500 24.54200
C  17.64000 -1.43000 23.00700
C  16.63800 -0.19500 23.15700
C  16.44300 -0.04100 24.64700
C  19.00500 -1.12100 22.18400
C  15.26400 -0.31700 22.44900
C  14.81000 0.93500 21.66500
N  16.02200 0.34200 27.66100
C  15.47400 1.18800 26.71700
C  14.65400 2.24000 27.34400
C  14.77400 1.99300 28.69400
C  15.73300 0.93300 28.84600
C  13.90000 3.39100 26.63400
C  14.35200 2.40200 29.96600
O  13.61800 3.26100 30.35000
C  15.32000 1.61700 31.04900
C  16.18900 2.61700 31.76700
O  17.28900 2.88400 31.47000
O  15.46600 3.12900 32.88400
C  16.11700 4.01100 33.86600
H  19.83100 -3.70100 30.37600
H  19.02600 -3.44800 24.02800
H  15.18800 1.66300 24.69600
H  17.86400 0.31500 32.53900
H  18.73800 -2.45800 32.40800
H  20.72400 -0.78500 31.11600
H  20.75000 -1.77700 32.41800
H  20.12300 -0.06400 32.66400
H  16.28500 -2.21800 32.78400
H  15.46900 -0.65800 32.87200
H  16.61800 -2.14000 35.04100
H  15.97400 -0.48600 34.94200
H  19.70600 -6.70500 28.66500
H  20.59000 -5.64400 29.73500
H  21.34000 -6.19700 28.26500
H  20.35200 -7.49000 26.54800
H  21.81400 -6.53500 26.11600
H  20.90600 -7.53400 24.90300
H  17.08200 -2.25000 22.55400
H  17.09600 0.74800 22.85800
H  19.04200 -0.07100 21.89400
H  19.09000 -1.68200 21.25400
H  19.87700 -1.44800 22.75100
H  14.51300 -0.49300 23.22000
H  15.16700 -1.21900 21.84500
H  15.67500 1.52800 21.36800
H  14.21400 1.61600 22.27200
H  14.25700 0.50800 20.82800
H  12.93500 3.09300 26.22400
H  14.51400 3.61200 25.76200
H  13.84300 4.24700 27.30600
H  14.62800 1.14100 31.74300
H  16.16200 3.56300 34.85900
H  15.75600 5.03500 33.96200
H  17.18200 4.09200 33.65100
Mg 30.38600 58.09700 39.32100
C  27.46100 56.24600 38.64000
C  32.27100 55.44600 38.11600
C  33.14100 60.08000 39.46200
C  28.37700 60.87900 40.12000
N  29.89900 56.01800 38.41000
C  28.62700 55.48200 38.27900
C  28.74500 54.10300 37.67900
C  30.29700 53.88300 37.66700
C  30.88200 55.19600 38.08000
C  30.76800 52.73800 38.63800
C  27.89300 53.87300 36.39300
C  28.27900 54.88700 35.16800
H  27.66400 54.56100 33.86100
N  32.43700 57.70700 39.07600
C  32.96800 56.61500 38.46500
C  34.42600 56.75700 38.48100
C  34.70200 58.15700 38.75500
C  33.41600 58.69700 39.17100
C  35.38200 55.69000 37.98200
C  36.11400 58.83300 38.55200
O  37.07100 58.15600 38.12200
C  36.33700 60.24200 38.78400
N  30.67500 60.19800 39.70300
C  31.92100 60.74500 39.79100
C  31.87700 62.18100 40.33200
C  30.38200 62.26700 40.90900
C  29.71700 61.02500 40.21100
C  32.92400 62.69900 41.32000
C  29.78600 63.68300 40.60200
C  28.71500 64.05000 41.62500
N  28.35800 58.57700 39.35300
C  27.68400 59.73400 39.75000
C  26.23400 59.46400 39.64900
C  26.17600 58.06300 39.30000
C  27.42000 57.57700 39.11000
C  25.11300 60.53200 39.86300
C  25.17600 57.02100 38.96900
O  23.93100 57.03700 38.93600
C  25.96400 55.83300 38.46700
C  25.67000 54.65700 39.28200
O  26.15500 54.30900 40.31800
O  24.62900 54.03000 38.66500
C  23.98300 52.98600 39.45100
H  32.88100 54.70900 37.58900
H  33.98300 60.77500 39.46100
H  27.83300 61.72600 40.54300
H  28.27400 53.39800 38.36300
H  30.55900 53.57600 36.65400
H  30.06700 51.91000 38.53700
H  30.87400 53.04100 39.68000
H  31.71500 52.34600 38.26800
H  26.85700 54.11900 36.62900
H  28.00100 52.85700 36.01200
H  29.36900 54.87600 35.14200
H  28.07100 55.89800 35.51700
H  35.45800 55.71300 36.89500
H  35.00800 54.70000 38.24200
H  36.36300 55.80400 38.44500
H  36.24100 60.37900 39.86100
H  35.48500 60.69400 38.27600
H  37.25400 60.71200 38.42800
H  32.02400 62.82100 39.46200
H  30.50700 62.18500 41.98800
H  33.71400 61.95300 41.22400
H  32.61500 62.70700 42.36500
H  33.37300 63.65100 41.04000
H  29.39000 63.51100 39.60200
H  30.53200 64.47400 40.53000
H  28.95400 65.05800 41.96400
H  28.87200 63.39800 42.48500
H  27.75400 64.04300 41.11100
H  24.40000 60.29100 39.07500
H  25.52400 61.53900 39.78100
H  24.67000 60.31000 40.83400
H  25.68500 55.60300 37.43900
H  24.74000 52.20600 39.53600
H  23.09600 52.57200 38.97100
H  23.65300 53.41600 40.39600

