158

Mg 48.26900 35.03900 26.72200
C  46.40000 34.00700 29.48600
C  49.08100 37.95500 28.49300
C  49.68600 36.06600 23.83700
C  46.90900 32.32100 24.95300
N  47.94500 35.80600 28.85100
C  47.11400 35.21300 29.80500
C  47.27300 35.97700 31.16400
C  47.88200 37.37200 30.65900
C  48.36900 37.05300 29.27700
C  46.85100 38.53500 30.61000
C  48.38600 35.16400 32.00700
C  48.10500 34.71400 33.40300
H  47.15200 35.59600 34.16500
N  49.28600 36.73300 26.24800
C  49.50200 37.84700 27.12200
C  50.43000 38.64700 26.49200
C  50.86200 37.96000 25.29700
C  49.90600 36.85800 25.07200
C  50.97600 39.96400 27.18600
C  51.99800 38.30500 24.23800
O  52.16700 37.58500 23.25700
C  52.88400 39.46500 24.41700
N  48.27700 34.40000 24.70300
C  48.86000 34.96200 23.57800
C  48.87100 34.13900 22.34400
C  48.15000 32.87800 22.83000
C  47.76800 33.20900 24.26800
C  48.38500 34.72300 21.05900
C  48.97500 31.56800 22.71600
C  48.44100 30.36100 21.90800
N  47.04100 33.39900 27.12500
C  46.53000 32.39700 26.24700
C  45.54200 31.63000 26.95700
C  45.47100 32.23500 28.23500
C  46.46200 33.26000 28.31500
C  45.04100 30.33300 26.53900
C  44.79500 32.13200 29.47600
O  43.90200 31.34400 29.85100
C  45.31800 33.29000 30.35100
C  45.83000 32.78400 31.58700
O  46.84800 32.17000 31.68500
O  44.99600 33.13600 32.54700
C  45.02100 32.38400 33.79800
H  49.17700 38.91000 29.01300
H  50.36200 36.05100 22.98000
H  46.55500 31.42100 24.44600
H  46.31200 36.15100 31.64800
H  48.74900 37.66900 31.24900
H  45.85200 38.12000 30.74200
H  46.85400 38.99200 29.62000
H  46.95500 39.35800 31.31800
H  49.30500 35.74900 31.97900
H  48.56300 34.25500 31.43100
H  49.01900 34.73500 33.99600
H  47.76100 33.68100 33.44800
H  50.59500 40.20600 28.17800
H  50.54000 40.71200 26.52400
H  52.06600 39.98400 27.20400
H  52.33700 40.40500 24.34800
H  53.76500 39.44700 23.77600
H  53.32300 39.35700 25.40900
H  49.93400 33.95600 22.18500
H  47.18100 32.72100 22.35600
H  47.64700 33.99900 20.71300
H  49.16100 34.64400 20.29700
H  47.96500 35.72200 21.17600
H  49.18200 31.01100 23.63000
H  49.97200 31.84200 22.37100
H  49.29400 29.90200 21.40900
H  47.64700 30.62200 21.20800
H  48.12800 29.48900 22.48100
H  44.67300 30.36000 25.51400
H  44.11300 30.11200 27.06700
H  45.70100 29.46800 26.60800
H  44.63100 34.09300 30.61700
H  44.39000 31.49600 33.82200
H  44.54100 32.91300 34.62200
H  46.01700 32.05400 34.09000
Mg 36.24000 49.69500 24.48300
C  36.27300 47.80700 27.23100
C  35.07000 52.37800 26.16400
C  35.73400 51.29100 21.47300
C  37.26600 46.75700 22.61900
N  35.59600 50.00400 26.36900
C  35.83100 49.09300 27.41600
C  35.57900 49.74700 28.76800
C  35.07700 51.14900 28.42500
C  35.26700 51.16700 26.92100
C  33.65800 51.42000 28.87400
C  36.81600 49.75000 29.74400
C  36.63300 49.30000 31.22900
H  35.19900 49.34300 31.74300
N  35.56000 51.61600 23.89000
C  35.22600 52.63100 24.75800
C  34.94900 53.85900 23.98300
C  35.09800 53.54700 22.57200
C  35.43200 52.08400 22.57600
C  34.64600 55.12300 24.71500
C  34.99400 54.48400 21.32700
O  35.10100 54.04600 20.19600
C  34.71000 55.89000 21.47000
N  36.48400 49.06600 22.40000
C  36.21200 49.93300 21.35500
C  36.39800 49.28200 19.92100
C  36.99700 47.89300 20.34100
C  36.80300 47.83700 21.85000
C  35.13700 49.30100 19.03700
C  38.49200 47.55500 19.90600
C  39.65800 48.10300 20.73500
N  36.58600 47.56600 24.79200
C  37.12600 46.57000 23.96700
C  37.46900 45.38700 24.80400
C  37.12200 45.78900 26.11700
C  36.56900 47.11400 26.03000
C  38.08700 44.08400 24.31500
C  37.18400 45.51200 27.50200
O  37.61600 44.50700 28.00600
C  36.63700 46.74900 28.35600
C  35.47800 46.35000 29.16600
O  34.33500 46.36300 28.83500
O  36.02800 45.87900 30.31600
C  35.02100 45.32200 31.28300
H  34.74500 53.24800 26.73800
H  35.70400 51.85900 20.54100
H  37.58000 45.92500 21.98400
H  34.79000 49.17300 29.25500
H  35.68600 51.96600 28.81000
H  33.60600 52.29900 29.51700
H  33.23000 50.52800 29.33100
H  33.09600 51.50700 27.94400
H  37.10800 50.79700 29.82000
H  37.60000 49.11000 29.33700
H  37.20700 49.97700 31.86300
H  36.95000 48.25800 31.26500
H  33.63400 55.42700 24.45000
H  35.28000 55.93300 24.35400
H  34.67700 55.05500 25.80200
H  35.73000 56.27500 21.47400
H  34.33800 56.28200 22.41700
H  34.22100 56.28700 20.58000
H  37.16000 49.85500 19.39200
H  36.41500 47.08800 19.89100
H  34.92700 50.20600 18.46800
H  34.32900 49.09200 19.73800
H  35.23900 48.47200 18.33600
H  38.66400 48.00300 18.92700
H  38.62000 46.47600 19.81500
H  40.25600 48.74200 20.08500
H  40.32300 47.33900 21.13800
H  39.40300 48.78600 21.54500
H  39.16900 44.09500 24.45300
H  37.78100 43.88800 23.28800
H  37.71500 43.34700 25.02700
H  37.45400 47.13900 28.96400
H  34.02900 45.11100 30.88500
H  35.00700 46.07800 32.06800
H  35.29000 44.35900 31.71800

