158

Mg -1.89500 16.80300 25.54100
C  -2.35800 14.32400 28.07600
C  -2.68400 19.12500 27.87600
C  -1.91700 18.96800 23.01700
C  -1.69900 14.12500 23.17800
N  -2.34400 16.69900 27.77200
C  -2.43300 15.63100 28.62900
C  -2.82800 16.07200 30.02100
C  -2.94400 17.64700 29.91300
C  -2.65000 17.85500 28.42500
C  -4.20000 18.36100 30.37900
C  -1.89300 15.56800 31.13500
C  -1.84200 16.32600 32.45100
H  -1.44500 15.47700 33.68100
N  -2.32000 18.79600 25.40800
C  -2.53100 19.58500 26.53100
C  -2.53800 20.92000 25.97800
C  -2.48100 20.87200 24.51600
C  -2.24000 19.49600 24.24700
C  -2.86300 22.06400 26.95100
C  -2.66200 21.99800 23.51900
O  -2.50500 21.85700 22.32600
C  -2.70600 23.49700 24.12600
N  -1.87300 16.53900 23.39300
C  -1.77600 17.67700 22.59000
C  -1.62100 17.19200 21.13900
C  -1.41700 15.71300 21.26500
C  -1.73500 15.45300 22.67600
C  -2.73000 17.69900 20.16600
C  -0.02800 15.08900 20.81500
C  1.09800 15.54300 21.73300
N  -2.03600 14.64400 25.57300
C  -2.00300 13.76600 24.50000
C  -2.16400 12.41900 24.96500
C  -2.20000 12.55100 26.40100
C  -2.12300 13.92600 26.69100
C  -2.35200 11.13900 24.31200
C  -2.31200 11.88100 27.58300
O  -2.55600 10.68800 27.79700
C  -2.20400 12.93300 28.73300
C  -0.94700 12.80300 29.45800
O  0.08700 13.46100 29.25500
O  -1.06500 11.82400 30.36700
C  -0.07100 11.79900 31.44500
H  -2.83800 19.94900 28.57600
H  -1.83100 19.70100 22.21200
H  -1.74600 13.27700 22.49100
H  -3.80400 15.75200 30.38600
H  -2.12800 18.06500 30.50300
H  -4.66300 18.84300 29.51900
H  -3.90100 19.08400 31.13900
H  -5.02300 17.74500 30.74200
H  -0.93400 15.58800 30.61700
H  -2.15900 14.54400 31.39500
H  -2.72600 16.95700 32.54600
H  -0.99600 17.01200 32.41100
H  -3.20900 21.79900 27.94900
H  -3.62000 22.76200 26.59400
H  -1.98000 22.69700 27.04400
H  -1.79000 23.53500 24.71600
H  -3.62300 23.68900 24.68400
H  -2.42600 24.27300 23.41500
H  -0.69600 17.64800 20.78600
H  -2.17900 15.18000 20.69700
H  -2.25700 18.08200 19.26100
H  -3.27000 18.52000 20.63800
H  -3.49800 16.95500 19.95700
H  0.15700 15.24000 19.75200
H  -0.18400 14.02800 21.01300
H  1.23700 14.84500 22.55900
H  0.89900 16.55300 22.09400
H  2.00700 15.50200 21.13300
H  -1.39200 10.64100 24.17500
H  -2.82800 11.30200 23.34500
H  -2.88500 10.45400 24.97200
H  -3.12800 12.76400 29.28600
H  -0.50800 11.89700 32.43800
H  0.76100 12.49100 31.31300
H  0.44800 10.84200 31.49600
Mg 6.89200 53.46400 40.92500
C  6.61500 49.93300 40.94500
C  10.28000 53.00700 40.13600
C  6.96100 56.65300 39.86400
C  3.37300 53.59000 40.80300
N  8.16900 51.63600 40.43000
C  7.90500 50.35600 40.67400
C  9.18700 49.48600 40.69300
C  10.36600 50.56500 40.72100
C  9.56100 51.83100 40.39900
C  11.18200 50.62600 42.04600
C  9.30900 48.47800 39.51200
C  9.11700 49.03000 38.08500
H  7.81400 48.76300 37.31100
N  8.47300 54.69700 40.20400
C  9.80100 54.35400 39.94400
C  10.54400 55.54800 39.65400
C  9.58300 56.62100 39.55300
C  8.26700 56.05600 39.87900
C  12.03500 55.57100 39.53800
C  9.90700 58.12700 39.36300
O  11.07400 58.41400 39.13600
C  8.93300 59.21400 39.58400
N  5.37800 54.93000 40.39600
C  5.69500 56.15000 40.08200
C  4.52100 57.10100 40.07900
C  3.33700 56.07000 40.30900
C  4.07400 54.79600 40.56600
C  4.63900 58.22800 41.16800
C  2.21800 55.92400 39.17400
C  0.75500 56.08600 39.64300
N  5.21800 52.11900 41.09200
C  3.89400 52.29200 41.09300
C  3.18200 51.14600 41.54700
C  4.21800 50.19900 41.45500
C  5.42400 50.82600 41.09900
C  1.71900 50.95500 41.97900
C  4.52400 48.76500 41.59700
O  3.83200 47.79200 41.92900
C  6.04800 48.63200 41.37100
C  6.09700 47.60800 40.31800
O  5.72300 47.78800 39.13600
O  6.57100 46.45300 40.88400
C  6.51100 45.29300 40.01200
H  11.33800 52.79200 40.29700
H  6.86900 57.67000 39.47800
H  2.28900 53.72400 40.79000
H  9.16600 49.00600 41.67200
H  11.16600 50.31000 40.02600
H  11.70600 49.68500 42.21700
H  10.58000 50.80100 42.93800
H  11.76300 51.54800 42.02900
H  8.71700 47.57000 39.62500
H  10.30500 48.03800 39.45700
H  9.90600 48.64200 37.44100
H  9.28400 50.08700 38.29600
H  12.44400 56.18800 40.33900
H  12.35000 56.04800 38.61000
H  12.41100 54.55600 39.66500
H  8.60600 59.04300 40.60900
H  8.06700 59.21200 38.92200
H  9.43000 60.18100 39.66000
H  4.43300 57.49000 39.06400
H  2.80200 56.43500 41.18600
H  4.04600 58.14000 42.07800
H  4.57600 59.19800 40.67600
H  5.67900 58.25100 41.49600
H  2.30900 54.96900 38.65700
H  2.36800 56.69700 38.42000
H  0.23600 55.14300 39.47100
H  0.26000 56.86700 39.06600
H  0.67300 56.31500 40.70600
H  1.30700 50.17100 41.34300
H  1.10900 51.84800 41.84600
H  1.75000 50.67800 43.03300
H  6.41300 48.31600 42.34800
H  7.20300 45.51600 39.20000
H  5.50800 45.15600 39.60900
H  6.77800 44.42100 40.60900

