158

Mg 8.00500 2.98700 26.99100
C  8.94400 1.57800 29.94500
C  5.76400 5.05300 28.78100
C  6.49500 4.25900 24.10100
C  9.26000 0.29900 25.31100
N  7.37400 3.27900 29.17600
C  8.04900 2.64400 30.17500
C  7.56500 3.29300 31.57900
C  6.41200 4.31400 31.17000
C  6.43100 4.18700 29.61300
C  5.08100 4.10200 31.85800
C  8.85000 3.90500 32.24700
C  8.49000 4.79200 33.51600
H  9.28300 4.41800 34.77400
N  6.45400 4.50500 26.55500
C  5.72300 5.22500 27.42400
C  4.86000 6.19000 26.70800
C  5.10400 6.00700 25.32700
C  6.05000 4.91400 25.27100
C  3.98400 7.20500 27.35900
C  4.64200 6.84800 24.10700
O  4.62400 6.44900 22.97500
C  4.09300 8.17600 24.38100
N  8.02000 2.47800 24.97400
C  7.40700 3.18100 23.96700
C  7.59600 2.49900 22.66400
C  8.52000 1.24500 23.07400
C  8.58700 1.30600 24.57300
C  6.23200 2.14000 21.95800
C  9.94400 1.14800 22.30800
C  10.21700 -0.17700 21.62000
N  9.04100 1.35900 27.44100
C  9.70100 0.45700 26.67300
C  10.42600 -0.53800 27.46900
C  10.30800 0.01000 28.78900
C  9.38400 1.05800 28.68800
C  11.31100 -1.61500 26.95600
C  10.59500 -0.23000 30.14600
O  11.31100 -1.07900 30.75000
C  9.71000 0.76300 30.95100
C  8.74100 -0.04400 31.81400
O  7.64300 -0.56900 31.47600
O  9.31300 -0.17300 33.06100
C  8.62900 -1.01500 34.08900
H  5.08900 5.70700 29.33700
H  6.11400 4.76100 23.21000
H  9.56300 -0.54300 24.68600
H  7.22700 2.50100 32.24600
H  6.68100 5.35500 31.35100
H  4.80500 5.04500 32.33000
H  5.20700 3.41000 32.69000
H  4.27100 3.77900 31.20400
H  9.49300 4.36800 31.49800
H  9.40200 3.11100 32.75000
H  7.44000 4.68500 33.78500
H  8.61700 5.85700 33.32100
H  2.95300 7.03900 27.04600
H  4.36900 8.18600 27.08100
H  4.03600 7.27500 28.44500
H  3.15500 8.06200 24.92300
H  3.77600 8.69400 23.47600
H  4.91400 8.71900 24.85000
H  8.15200 3.15100 21.99100
H  7.90700 0.36700 22.87000
H  6.19400 2.76600 21.06600
H  5.47500 2.27300 22.73000
H  6.16200 1.07300 21.74400
H  10.77600 1.28100 23.00000
H  10.15100 2.04300 21.72000
H  11.13800 -0.48400 22.11600
H  10.50100 -0.02500 20.57900
H  9.42200 -0.90600 21.77700
H  11.91700 -1.16800 26.16800
H  10.64400 -2.41700 26.64000
H  11.94300 -1.70900 27.83900
H  10.44200 1.31400 31.54100
H  9.44700 -1.58000 34.53600
H  7.87300 -1.69100 33.69000
H  8.22700 -0.34300 34.84700
Mg 25.17000 1.11900 29.97400
C  27.23900 0.86800 32.86100
C  22.38100 1.14200 31.99900
C  23.31400 0.91500 27.18800
C  28.04900 0.61100 27.99400
N  24.88700 1.07700 32.21700
C  25.84700 1.11300 33.20900
C  25.20000 1.22500 34.62100
C  23.70400 1.14900 34.21800
C  23.63600 1.13200 32.68300
C  22.79000 0.05700 34.92100
C  25.70400 2.50100 35.42700
C  26.37700 2.19900 36.80900
H  26.16700 3.14200 37.97300
N  23.13500 1.03200 29.58900
C  22.12100 1.01200 30.56200
C  20.86100 0.70300 29.95300
C  21.12500 0.66500 28.55300
C  22.60000 0.92300 28.39000
C  19.58100 0.61100 30.65900
C  20.21500 0.30000 27.33900
O  20.56500 0.43500 26.18900
C  18.86400 -0.26200 27.62600
N  25.66400 0.91200 27.81600
C  24.72300 0.93000 26.85300
C  25.32600 0.99300 25.47900
C  26.79800 1.11600 25.81300
C  26.90200 0.91500 27.25200
C  24.97800 -0.19100 24.65200
C  27.56100 2.48100 25.38900
C  26.91000 3.80200 25.75700
N  27.16300 0.74400 30.30000
C  28.18600 0.49400 29.39400
C  29.38300 0.05600 30.12500
C  29.06700 0.29300 31.47600
C  27.72700 0.70500 31.56400
C  30.60500 -0.47000 29.53400
C  29.66300 0.21000 32.84700
O  30.81600 -0.11400 33.25600
C  28.47000 0.60900 33.81000
C  28.26700 -0.47600 34.73900
O  27.65100 -1.51300 34.47800
O  29.03200 -0.25000 35.84500
C  28.95900 -1.21400 36.82700
H  21.50000 1.00500 32.63000
H  22.71700 0.98000 26.27600
H  28.90900 0.44900 27.34100
H  25.57000 0.29800 35.06100
H  23.25700 2.09500 34.52500
H  21.90200 0.46700 35.40200
H  23.35300 -0.15800 35.83000
H  22.61000 -0.66200 34.12200
H  24.78200 3.07200 35.53100
H  26.22600 3.23900 34.81800
H  27.43300 2.16200 36.54300
H  26.07600 1.22000 37.18200
H  19.54100 0.90200 31.70900
H  19.28800 -0.43900 30.66500
H  18.90000 1.25100 30.09800
H  18.60100 -0.69800 26.66200
H  18.17200 0.56000 27.80800
H  18.99400 -0.97200 28.44300
H  24.99600 1.91600 25.00100
H  27.46300 0.33500 25.44500
H  25.79800 -0.88200 24.45900
H  24.65900 0.30800 23.73700
H  24.17300 -0.75900 25.11900
H  27.58200 2.59100 24.30400
H  28.60700 2.38800 25.68200
H  26.10700 3.63600 26.47500
H  26.51600 4.31500 24.88000
H  27.61700 4.51200 26.18600
H  31.26400 0.39300 29.43900
H  30.45500 -1.09700 28.65500
H  31.05700 -1.00400 30.37000
H  28.76500 1.51400 34.34000
H  27.95400 -1.17400 37.24800
H  29.64800 -0.86300 37.59500
H  29.17500 -2.23900 36.52400

