158

Mg 48.03600 34.16500 26.73600
C  46.32900 33.00700 29.50800
C  48.43400 37.30700 28.25100
C  49.07200 35.48200 23.85400
C  47.16000 31.25300 25.01700
N  47.57200 35.00900 28.69600
C  46.83100 34.32400 29.64800
C  46.54900 35.23700 30.93800
C  47.11300 36.64800 30.41400
C  47.72600 36.31700 29.00900
C  45.98300 37.63100 30.28800
C  47.28800 34.80500 32.24200
C  46.43200 34.68200 33.47000
H  46.16600 36.02000 34.16800
N  48.95000 36.02700 26.19800
C  49.05600 37.18600 26.95800
C  49.93800 38.11200 26.21000
C  50.08500 37.61100 24.86300
C  49.36800 36.34200 24.87300
C  50.47900 39.35000 26.95900
C  50.87200 38.21600 23.66900
O  50.93200 37.70500 22.53900
C  51.61800 39.50000 23.95600
N  48.12600 33.44700 24.70300
C  48.57300 34.16700 23.67600
C  48.56900 33.42600 22.34700
C  48.07400 31.99600 22.77700
C  47.78800 32.26700 24.21400
C  47.72300 34.19700 21.34500
C  49.01100 30.79400 22.61200
C  50.22400 30.81600 23.58900
N  46.91900 32.43300 27.10600
C  46.76700 31.30700 26.39500
C  46.01100 30.35300 27.25000
C  45.81400 30.97300 28.49300
C  46.41900 32.25500 28.37000
C  45.60800 29.01600 26.73700
C  45.22400 30.79400 29.74400
O  44.64700 29.80100 30.17400
C  45.44900 32.17600 30.44400
C  46.05700 31.74500 31.77800
O  47.24900 31.55700 31.99400
O  45.04600 31.43400 32.71300
C  45.41500 31.10800 34.05700
H  48.46200 38.26500 28.77300
H  49.53000 35.82300 22.92200
H  46.91500 30.25500 24.64600
H  45.49200 35.26900 31.20000
H  47.92600 37.03000 31.03000
H  45.72700 38.01700 29.30200
H  46.27400 38.49700 30.88300
H  45.09800 37.32000 30.84400
H  48.03500 35.54800 32.51900
H  47.98000 33.99500 32.01200
H  47.03300 33.98600 34.05400
H  45.48000 34.27800 33.12500
H  49.82700 39.53500 27.81300
H  50.55000 40.21100 26.29500
H  51.43900 39.08800 27.40300
H  52.16200 39.62800 24.89200
H  50.86500 40.27800 23.82900
H  52.24300 39.68000 23.08100
H  49.57800 33.30000 21.95500
H  47.11600 31.67500 22.37000
H  47.22400 35.06000 21.78500
H  46.98900 33.55500 20.85800
H  48.42400 34.56800 20.59700
H  49.34400 30.74600 21.57500
H  48.44500 29.86300 22.65300
H  50.42700 31.77700 24.06000
H  50.99400 30.38900 22.94600
H  49.93300 30.21300 24.44900
H  44.53100 28.98100 26.57400
H  45.84300 28.19500 27.41300
H  46.11200 28.77800 25.80000
H  44.51900 32.71000 30.63800
H  46.33500 31.63700 34.30600
H  45.58700 30.04400 34.22000
H  44.49200 31.38700 34.56400
Mg 30.45100 58.24100 40.24100
C  27.73900 56.19100 39.39400
C  32.48300 55.54300 40.08400
C  33.00000 60.37500 40.08300
C  28.11500 60.94300 40.70300
N  30.18400 56.14400 39.35600
C  28.97700 55.51500 39.29000
C  29.19400 54.05500 38.98900
C  30.51800 53.75500 39.70200
C  31.12000 55.22300 39.78200
C  30.48000 53.09600 41.06600
C  29.24600 53.80800 37.48500
C  28.04000 52.95100 37.00400
H  27.24100 53.52600 35.86000
N  32.51700 58.01800 40.04800
C  33.17100 56.79300 40.03400
C  34.60400 57.06700 39.86700
C  34.77800 58.51200 39.92900
C  33.37800 59.06000 39.95000
C  35.65500 55.99900 39.63600
C  36.09900 59.19500 40.03200
O  37.11500 58.49900 40.14200
C  36.25500 60.66800 39.99900
N  30.54200 60.35100 40.35200
C  31.73900 60.95100 40.19000
C  31.51400 62.51900 40.24800
C  30.00900 62.69000 40.67000
C  29.52100 61.24000 40.57600
C  32.54600 63.26200 41.04800
C  29.31700 63.75500 39.81400
C  28.21100 64.55700 40.54800
N  28.32300 58.57100 40.09200
C  27.53200 59.68100 40.41400
C  26.13800 59.28200 40.31000
C  26.14100 57.95300 39.91200
C  27.53400 57.50600 39.83800
C  24.89800 60.14400 40.37400
C  25.30400 56.76700 39.53300
O  24.09500 56.67700 39.36800
C  26.28700 55.55700 39.23200
C  26.04000 54.48900 40.26000
O  26.62800 54.46700 41.30200
O  25.16000 53.48500 39.77000
C  24.95000 52.49500 40.84100
H  33.14400 54.68600 40.22900
H  33.76500 61.14800 39.98500
H  27.43000 61.78200 40.84000
H  28.43300 53.39100 39.40100
H  31.21600 53.16200 39.11200
H  31.47100 53.21600 41.50500
H  30.32400 52.04000 40.84700
H  29.67100 53.41400 41.72200
H  30.09800 53.17700 37.23300
H  29.44000 54.71300 36.90900
H  27.30100 52.80900 37.79300
H  28.33500 51.92800 36.76900
H  36.32300 56.53900 38.96500
H  35.24100 55.12000 39.14300
H  36.15200 55.62100 40.52900
H  36.01900 61.21200 39.08400
H  37.20100 61.01700 40.41300
H  35.61000 61.11900 40.75300
H  31.56200 62.86600 39.21500
H  29.93100 63.02100 41.70500
H  33.49200 63.35300 40.51500
H  32.72900 62.78200 42.00900
H  32.00100 64.17500 41.29000
H  28.94900 63.22500 38.93500
H  30.09100 64.45600 39.50200
H  28.44300 65.61000 40.38800
H  28.28800 64.49500 41.63400
H  27.23800 64.37900 40.09000
H  24.62800 60.47500 39.37100
H  25.01200 60.96400 41.08300
H  24.14700 59.43100 40.71400
H  26.16300 55.16000 38.22500
H  25.84200 51.90900 41.05900
H  24.25400 51.76000 40.43800
H  24.43700 52.99800 41.66100

