158

Mg 24.03100 -5.49500 45.16800
C  26.02900 -3.11300 43.73000
C  21.59900 -4.64200 42.94400
C  22.33600 -8.33600 46.10700
C  26.74000 -6.79100 46.87800
N  23.87800 -4.09100 43.33600
C  24.74700 -3.19600 43.06500
C  24.24900 -2.26300 41.85900
C  22.73900 -2.57300 41.91200
C  22.73000 -3.83100 42.75400
C  21.87500 -1.41300 42.44900
C  24.91200 -2.71800 40.53600
C  25.70700 -1.59900 39.93000
H  25.19300 -1.11500 38.60400
N  22.18600 -6.28000 44.80600
C  21.34900 -5.74300 43.86500
C  20.18400 -6.60300 43.76100
C  20.39600 -7.69700 44.57100
C  21.69400 -7.46900 45.23300
C  18.95200 -6.17800 42.95300
C  19.36900 -8.74800 44.85800
O  18.39600 -8.87700 44.12500
C  19.50300 -9.79500 45.85300
N  24.53100 -7.49300 46.24800
C  23.59500 -8.28300 46.69700
C  24.11400 -9.28700 47.82300
C  25.55600 -8.71600 48.06400
C  25.61500 -7.67200 47.00300
C  23.14100 -9.57100 48.99500
C  26.66300 -9.80200 47.80700
C  28.00900 -9.88200 48.56400
N  25.93800 -5.07600 45.40100
C  26.86900 -5.59300 46.18100
C  28.16500 -4.86800 45.92000
C  27.81800 -3.90300 44.98300
C  26.51000 -4.07600 44.66600
C  29.48800 -5.27600 46.37600
C  28.38500 -2.78600 44.14100
O  29.55100 -2.34000 44.11700
C  27.18700 -2.20400 43.37800
C  26.95300 -0.70200 43.57000
O  26.02700 -0.14800 44.11200
O  28.01700 -0.18600 42.85400
C  27.91400 1.28200 42.88000
H  20.81600 -4.44100 42.20900
H  21.81400 -9.15800 46.60100
H  27.59800 -6.93000 47.54000
H  24.34500 -1.23800 42.21900
H  22.32300 -2.64000 40.90700
H  22.29800 -0.46800 42.10900
H  21.91400 -1.58000 43.52600
H  20.84500 -1.51700 42.10800
H  24.21300 -3.15400 39.82200
H  25.65800 -3.46700 40.79600
H  26.71400 -1.97600 39.75100
H  25.87700 -0.72800 40.56200
H  18.76400 -5.13100 42.71700
H  18.16500 -6.42400 43.66600
H  19.00700 -6.73000 42.01400
H  18.52100 -10.23500 46.03000
H  19.88900 -9.34600 46.76800
H  20.17200 -10.47600 45.32700
H  24.33500 -10.28600 47.44600
H  25.57900 -8.35500 49.09200
H  22.62400 -10.51700 48.83200
H  22.52700 -8.67500 49.08300
H  23.70800 -9.70200 49.91700
H  26.89800 -9.73100 46.74500
H  26.24000 -10.80500 47.86400
H  28.81600 -9.59100 47.89300
H  28.18100 -10.89000 48.94100
H  28.07500 -9.14100 49.36100
H  29.37800 -5.64600 47.39500
H  30.14200 -4.40700 46.30200
H  29.97700 -6.05200 45.78700
H  27.31800 -2.38300 42.31100
H  28.73900 1.50200 42.20300
H  28.07000 1.74000 43.85700
H  27.04600 1.68700 42.35900
Mg 1.12700 41.92800 24.61300
C  3.02600 41.91000 27.70100
C  -1.56800 41.02500 26.33100
C  -0.28600 41.64500 21.70700
C  4.33200 42.17100 22.99900
N  0.84600 41.43900 26.78000
C  1.63500 41.66800 27.83200
C  0.83600 41.48200 29.13700
C  -0.59600 40.94600 28.68700
C  -0.47400 41.16200 27.15900
C  -0.96100 39.48600 29.10200
C  0.78600 42.84400 29.95400
C  1.29000 42.78100 31.46800
H  0.23800 42.39100 32.59900
N  -0.70600 41.55500 24.06900
C  -1.72100 41.25400 24.96000
C  -2.96900 41.10800 24.10500
C  -2.58700 41.22500 22.76000
C  -1.12800 41.42600 22.80400
C  -4.35100 40.91400 24.70700
C  -3.47300 41.22500 21.50100
O  -2.98200 41.37900 20.42300
C  -5.02800 40.94600 21.62100
N  1.95400 41.83100 22.69800
C  1.07400 41.94700 21.68000
C  1.81400 42.12300 20.31800
C  3.18100 42.53100 20.78300
C  3.14300 42.20500 22.25700
C  1.95300 40.85100 19.36400
C  3.66500 43.96100 20.47400
C  5.14200 44.26000 19.93600
N  3.25500 41.97100 25.20300
C  4.37000 42.05000 24.40300
C  5.55900 42.25100 25.23400
C  5.11500 42.23600 26.53100
C  3.68500 42.02500 26.44800
C  6.96800 42.40200 24.75200
C  5.37200 42.27400 28.04000
O  6.45800 42.45100 28.63000
C  4.04000 42.02000 28.77000
C  4.24300 40.77800 29.60600
O  4.02100 39.61900 29.28300
O  4.78000 41.21200 30.73800
C  5.02700 40.06500 31.63800
H  -2.53100 40.95200 26.84100
H  -0.83800 41.98400 20.82800
H  5.25400 42.54400 22.54600
H  1.35000 40.74700 29.75600
H  -1.42900 41.52700 29.08300
H  -0.23500 39.20900 29.86600
H  -0.72200 38.95100 28.18300
H  -1.98800 39.33400 29.43500
H  -0.28200 43.06200 29.96600
H  1.32600 43.68600 29.52000
H  1.59300 43.78500 31.76500
H  2.14300 42.10500 31.51700
H  -4.14100 40.97800 25.77500
H  -4.70000 39.89100 24.56400
H  -5.04400 41.64500 24.29000
H  -5.32500 40.14900 22.30300
H  -5.31000 40.79900 20.57800
H  -5.39400 41.92300 21.93600
H  1.35800 42.92400 19.73600
H  3.93000 41.93800 20.25900
H  1.21700 40.11000 19.67800
H  2.93500 40.38000 19.41700
H  1.67700 41.28200 18.40200
H  3.69500 44.49400 21.42400
H  2.90000 44.50700 19.92200
H  5.68400 44.42800 20.86700
H  5.24000 45.09600 19.24300
H  5.46900 43.31700 19.50000
H  7.13400 42.00300 23.75200
H  7.55800 41.86100 25.49200
H  7.34500 43.42300 24.82600
H  3.96500 42.96300 29.31100
H  5.56800 40.49200 32.48300
H  5.76400 39.37000 31.23500
H  4.14200 39.49200 31.91300

