158

Mg 1.58900 7.61600 25.43800
C  1.68200 9.21200 28.35300
C  1.53400 4.50600 27.10300
C  1.30300 5.83000 22.41800
C  2.34800 10.33300 23.63400
N  1.52700 6.91700 27.58500
C  1.54300 7.83500 28.61900
C  1.62500 7.04800 29.97600
C  1.79500 5.56400 29.49500
C  1.59600 5.63200 27.97000
C  3.17500 4.92400 29.79800
C  0.44400 7.32200 30.86200
C  0.53300 7.05200 32.35900
H  1.96200 6.72400 33.09700
N  1.33400 5.49600 24.84600
C  1.42700 4.42500 25.70500
C  1.40500 3.21300 24.97800
C  1.27200 3.55300 23.56200
C  1.29600 4.99400 23.54200
C  1.65800 1.83700 25.60300
C  1.07500 2.67800 22.31000
O  1.10000 3.11800 21.18600
C  1.12000 1.13600 22.62500
N  1.43400 8.01200 23.34100
C  1.36000 7.17800 22.30600
C  1.60700 7.90600 20.93700
C  1.69600 9.38900 21.34200
C  1.88500 9.24200 22.85500
C  2.89000 7.36600 20.17800
C  0.52600 10.35200 20.90000
C  -0.82500 10.13700 21.71900
N  1.94400 9.37700 25.87300
C  2.31600 10.43600 25.07000
C  2.42600 11.66600 25.76500
C  2.18300 11.31500 27.13400
C  1.87800 9.87500 27.07200
C  2.73000 13.01400 25.12200
C  2.12700 11.69000 28.46600
O  2.29900 12.85200 28.88700
C  1.78500 10.36900 29.32000
C  2.87600 10.26300 30.31600
O  3.99500 9.74800 30.10500
O  2.49700 10.83400 31.54100
C  3.63900 10.79800 32.47500
H  1.35700 3.66300 27.77400
H  1.28100 5.35600 21.43400
H  2.57900 11.27500 23.13300
H  2.38100 7.53100 30.59500
H  1.08800 5.00600 30.11000
H  3.02000 3.94000 30.24200
H  3.81500 5.53200 30.43700
H  3.65300 4.97900 28.82000
H  -0.42200 6.72500 30.57500
H  0.12000 8.34800 30.69000
H  -0.22200 6.33500 32.68200
H  0.21300 7.97100 32.84900
H  2.48800 1.36500 25.07900
H  0.73200 1.26600 25.66600
H  2.02100 1.80800 26.63100
H  0.35000 0.79400 23.31700
H  2.06100 0.87400 23.10900
H  0.99100 0.66700 21.65000
H  0.72500 7.59200 20.37900
H  2.62200 9.76300 20.90600
H  3.65300 6.88700 20.79200
H  3.37100 8.18100 19.63800
H  2.58300 6.59400 19.47200
H  0.28800 10.04000 19.88400
H  0.90400 11.37000 20.80600
H  -0.68800 9.39300 22.50400
H  -1.69700 9.96300 21.08900
H  -1.02800 11.11300 22.16000
H  3.75600 13.27600 25.38000
H  1.91500 13.57000 25.58500
H  2.50800 13.14700 24.06300
H  0.83000 10.50100 29.82800
H  4.51400 11.27000 32.02700
H  3.93600 9.75900 32.61500
H  3.54200 11.12300 33.51100
Mg 43.82900 4.34800 47.17700
C  41.65100 7.07600 46.64300
C  41.22400 2.28100 46.85100
C  46.01900 1.93200 46.89300
C  46.51100 6.74300 47.29800
N  41.69600 4.64400 46.53200
C  41.06800 5.84600 46.51600
C  39.61800 5.64700 46.14400
C  39.39200 4.16400 46.65000
C  40.85900 3.63000 46.72100
C  38.75300 4.12100 48.06100
C  39.32000 5.90100 44.69400
C  38.13300 6.84300 44.36600
H  37.68000 6.80200 42.88200
N  43.66200 2.27000 46.92000
C  42.48100 1.61800 46.82400
C  42.78700 0.22900 46.79200
C  44.16200 0.09100 46.62700
C  44.72200 1.43500 46.74100
C  41.73000 -0.87600 46.80900
C  44.94600 -1.18000 46.62500
O  44.35600 -2.27400 46.57000
C  46.43500 -1.23100 46.52400
N  46.01300 4.32600 47.02000
C  46.63400 3.14000 47.10400
C  48.16600 3.30700 47.22100
C  48.27400 4.89100 47.48900
C  46.86700 5.40500 47.29000
C  48.94000 2.32900 48.27500
C  49.37200 5.53900 46.55700
C  50.46200 6.34000 47.41900
N  44.09600 6.51800 46.91600
C  45.20900 7.33600 47.11200
C  44.87100 8.74600 46.91400
C  43.44800 8.72200 46.84900
C  43.03400 7.33000 46.82900
C  45.81900 9.95400 46.77700
C  42.21200 9.47900 46.61600
O  42.00900 10.72000 46.46200
C  41.08500 8.46600 46.55100
C  40.12000 8.76600 47.62000
O  40.31600 8.57400 48.79300
O  38.90800 9.21400 47.12900
C  38.04800 9.79100 48.13500
H  40.36600 1.63600 46.64900
H  46.79600 1.25700 46.52800
H  47.32300 7.46200 47.42300
H  38.98100 6.36800 46.65600
H  38.82900 3.56300 45.93500
H  38.27300 5.09000 48.20000
H  39.46800 4.03600 48.87900
H  38.02300 3.31500 48.13700
H  39.29000 4.93800 44.18200
H  40.19900 6.37600 44.25700
H  38.32000 7.89300 44.59100
H  37.27900 6.58700 44.99300
H  41.85800 -1.51700 45.93600
H  40.72500 -0.45200 46.82200
H  41.92100 -1.42300 47.73200
H  47.07600 -0.77300 47.27700
H  46.69800 -0.88500 45.52400
H  46.73900 -2.25500 46.74000
H  48.46800 3.11900 46.19100
H  48.42600 4.96400 48.56500
H  48.32200 2.05500 49.13000
H  49.80100 2.77700 48.77300
H  49.32600 1.55800 47.60900
H  48.88600 6.35700 46.02600
H  49.77500 4.84000 45.82400
H  51.46700 6.11200 47.06400
H  50.60400 6.08100 48.46900
H  50.32200 7.41500 47.30600
H  45.95600 10.45400 47.73600
H  45.49000 10.75900 46.12000
H  46.81100 9.57300 46.53600
H  40.61500 8.70900 45.59800
H  37.11500 10.15800 47.70500
H  38.50400 10.68100 48.56900
H  37.82300 9.07200 48.92300

