158

Mg 25.29900 1.60600 29.89700
C  27.34600 1.54800 32.81200
C  22.64200 1.77600 32.02500
C  23.36900 1.55000 27.17100
C  28.16100 1.37300 28.00700
N  25.02300 1.77800 32.19700
C  26.00800 1.80700 33.14900
C  25.45300 2.08800 34.54300
C  23.89700 2.20500 34.26500
C  23.84700 1.94700 32.74000
C  22.99000 1.22700 35.02200
C  26.06700 3.35900 35.31300
C  25.46600 3.86300 36.69100
H  26.22300 3.70300 37.95900
N  23.27100 1.60300 29.66600
C  22.30800 1.56600 30.65600
C  20.99800 1.38800 30.06000
C  21.14000 1.46500 28.63200
C  22.64000 1.47400 28.44100
C  19.73400 1.37800 30.82600
C  20.14000 1.60000 27.47100
O  20.45000 1.68900 26.29400
C  18.62000 1.37300 27.81000
N  25.70800 1.22200 27.84500
C  24.78200 1.50700 26.92000
C  25.37800 1.88000 25.58500
C  26.86700 1.79800 25.90600
C  26.91600 1.48000 27.38700
C  24.81200 0.99900 24.39200
C  27.82400 2.86900 25.32200
C  27.62600 4.36500 25.71000
N  27.29200 1.20400 30.26600
C  28.35400 1.15000 29.37100
C  29.57000 1.07400 30.13700
C  29.17800 1.19000 31.49000
C  27.82500 1.29700 31.54700
C  30.91100 0.87600 29.55200
C  29.75100 1.25800 32.74900
O  30.91000 1.14100 33.13000
C  28.53600 1.55500 33.69800
C  28.42400 0.47500 34.74900
O  28.31500 -0.80100 34.59400
O  28.73600 1.07700 35.94600
C  28.88500 0.18100 37.12900
H  21.79700 1.89300 32.70700
H  22.80700 1.72900 26.25200
H  29.08700 1.50500 27.44300
H  25.81800 1.21600 35.08500
H  23.61700 3.24900 34.41100
H  22.58300 0.43300 34.39600
H  22.17700 1.84700 35.40100
H  23.59000 0.80100 35.82600
H  26.14900 4.20600 34.63300
H  27.10800 3.07400 35.46700
H  24.54700 3.34000 36.95700
H  25.30000 4.94000 36.65600
H  19.93900 1.33200 31.89500
H  19.28800 0.43800 30.50200
H  19.08000 2.18600 30.49700
H  18.36700 0.63200 28.56900
H  17.99900 1.16200 26.94000
H  18.23200 2.34500 28.11600
H  24.94500 2.87300 25.46900
H  27.13700 0.82700 25.49100
H  25.64200 0.60900 23.80400
H  24.05900 1.61400 23.89900
H  24.27000 0.14500 24.79900
H  27.77800 2.76500 24.23800
H  28.84700 2.65700 25.63400
H  28.52600 4.95300 25.88700
H  26.91400 4.50700 26.52400
H  27.10200 4.70900 24.81800
H  31.00200 1.56300 28.71100
H  31.15000 -0.17300 29.37800
H  31.60300 1.24600 30.30800
H  28.74700 2.51900 34.16300
H  29.96200 0.09000 37.26400
H  28.45700 -0.81700 37.02500
H  28.52500 0.69700 38.01900
Mg 49.04100 46.08300 42.82700
C  45.77400 46.30100 41.34100
C  49.44900 43.18500 40.99700
C  52.31000 46.33800 43.26400
C  48.67100 49.52100 43.79300
N  47.71400 45.01600 41.21500
C  46.41100 45.24400 40.85100
C  45.86800 44.23000 39.87900
C  46.97600 43.13400 40.00700
C  48.08800 43.74500 40.80900
C  46.43600 41.73800 40.50300
C  45.65300 44.74400 38.39300
C  44.26500 44.87900 37.80500
H  44.04200 44.45600 36.31100
N  50.56600 44.81100 42.49800
C  50.54700 43.69600 41.67500
C  51.85800 43.05300 41.69700
C  52.69000 43.84400 42.57300
C  51.86200 45.03200 42.83000
C  52.19500 41.82900 40.92400
C  54.06900 43.49300 43.06600
O  54.60800 42.44900 42.69900
C  54.77600 44.36500 44.13500
N  50.34500 47.63700 43.55500
C  51.71900 47.51500 43.61100
C  52.40800 48.74000 44.13600
C  51.17400 49.67300 44.41300
C  49.97700 48.99200 43.78400
C  53.44500 48.65400 45.32600
C  51.36400 51.16400 43.99100
C  51.01400 52.25100 44.98700
N  47.52600 47.51400 42.81600
C  47.55200 48.82400 43.28200
C  46.23700 49.43000 43.06400
C  45.49500 48.37800 42.48400
C  46.29000 47.29800 42.21400
C  45.94100 50.85500 43.33800
C  44.08100 48.05500 41.91600
O  43.04900 48.69100 41.97600
C  44.24200 46.69900 41.17600
C  43.33100 45.75100 41.81700
O  43.56000 45.16000 42.86300
O  42.19200 45.69200 41.03300
C  40.96000 45.27200 41.65200
H  49.50400 42.15800 40.63100
H  53.39700 46.42400 43.32500
H  48.51400 50.58000 44.00800
H  44.90900 43.89200 40.27000
H  47.34700 42.96700 38.99600
H  45.35000 41.68200 40.43200
H  46.70300 41.55600 41.54400
H  46.94800 40.98900 39.89900
H  46.22900 44.09500 37.73400
H  46.15600 45.70900 38.33500
H  43.91400 45.90700 37.89500
H  43.52800 44.34800 38.40800
H  52.66700 41.14400 41.62900
H  53.01400 41.93200 40.21200
H  51.31400 41.45200 40.40500
H  55.49300 45.07000 43.71300
H  55.26000 43.60000 44.74200
H  53.98800 44.81100 44.74100
H  52.95700 49.11700 43.27300
H  51.07000 49.61900 45.49600
H  54.40800 48.80700 44.83900
H  53.45400 47.61900 45.66900
H  53.26900 49.31000 46.17800
H  50.75800 51.49500 43.14700
H  52.40700 51.27700 43.69400
H  51.95400 52.59500 45.41800
H  50.42800 51.92900 45.84800
H  50.43000 53.12200 44.69000
H  46.60500 51.61300 42.92400
H  46.21300 51.06800 44.37200
H  44.91200 51.12500 43.10000
H  43.91000 46.79800 40.14200
H  40.30500 46.12600 41.82200
H  41.08000 44.91200 42.67400
H  40.31500 44.50900 41.21600

