158

Mg 34.97800 49.37500 26.74500
C  35.42600 46.82800 29.13200
C  34.00000 51.49000 29.29100
C  34.38900 51.60000 24.50000
C  35.80000 46.96800 24.36000
N  34.78300 49.20600 28.96500
C  35.05600 48.08400 29.73400
C  35.01000 48.37700 31.20300
C  34.18400 49.71800 31.19600
C  34.30500 50.24300 29.71000
C  32.70100 49.50100 31.55700
C  36.47000 48.54600 31.85700
C  36.55400 47.94600 33.25300
H  36.33500 48.98900 34.39300
N  34.30100 51.36100 26.84900
C  34.06300 52.10800 28.03000
C  33.91300 53.50800 27.61100
C  34.00500 53.55300 26.18900
C  34.25900 52.14100 25.76800
C  33.71100 54.64800 28.58700
C  34.03400 54.75000 25.27500
O  34.43900 54.72400 24.08100
C  33.63100 56.12600 25.90900
N  34.68900 49.16900 24.69400
C  34.56200 50.30200 23.95700
C  34.75400 49.97800 22.45600
C  35.60500 48.71800 22.60000
C  35.42200 48.27100 23.98200
C  33.40200 49.75700 21.69100
C  37.12900 48.91400 22.39200
C  37.85200 47.95200 21.52800
N  35.58100 47.36100 26.72900
C  35.87100 46.54300 25.67500
C  36.24300 45.19000 26.12900
C  36.09400 45.30500 27.53800
C  35.66800 46.61100 27.77600
C  36.62200 44.03700 25.30900
C  36.20700 44.62800 28.83000
O  36.55100 43.49500 29.09800
C  35.79000 45.62000 29.89200
C  34.59300 45.10900 30.61800
O  33.48300 44.95200 30.18300
O  35.07400 44.63800 31.83000
C  34.16300 43.77100 32.54700
H  33.64200 52.19600 30.04300
H  34.49000 52.38700 23.75000
H  36.15600 46.28300 23.58700
H  34.53900 47.59000 31.79300
H  34.58700 50.40800 31.93700
H  32.05400 49.78600 30.72700
H  32.47400 50.15100 32.40100
H  32.54200 48.46100 31.84200
H  36.72400 49.60200 31.76400
H  37.09400 47.87900 31.26300
H  37.56400 47.54900 33.35100
H  35.85200 47.13800 33.46200
H  34.48600 55.41200 28.51600
H  33.73700 54.26300 29.60700
H  32.68400 54.99600 28.48100
H  32.58400 56.08000 26.20900
H  33.69100 56.82200 25.07200
H  34.33800 56.44800 26.67300
H  35.41600 50.73300 22.03400
H  35.32700 47.95100 21.87700
H  32.65500 49.70800 22.48400
H  33.45500 48.82600 21.12700
H  33.19700 50.54400 20.96500
H  37.68300 48.88800 23.33100
H  37.44100 49.86300 21.95600
H  38.17600 48.49000 20.63700
H  37.37100 46.99900 21.30700
H  38.70300 47.60800 22.11600
H  36.09200 44.07200 24.35700
H  36.44400 43.07400 25.78900
H  37.68700 44.03200 25.07700
H  36.60000 45.78000 30.60300
H  33.49400 44.35300 33.18100
H  34.78800 43.14100 33.18000
H  33.66600 43.15700 31.79500
Mg 16.87800 53.14400 26.62700
C  18.88500 51.55100 29.05000
C  14.84400 54.15100 29.13700
C  14.75000 54.28600 24.27500
C  18.96500 51.93500 24.17200
N  16.92100 52.73200 28.82400
C  17.84700 52.29500 29.62100
C  17.57600 52.47100 31.08400
C  16.15200 53.08600 31.03900
C  15.90100 53.34500 29.53400
C  15.02200 52.32100 31.73500
C  18.62900 53.36800 31.74300
C  18.59600 53.57000 33.25500
H  17.75000 52.66100 33.98700
N  15.06400 54.11500 26.66900
C  14.45300 54.56400 27.85200
C  13.35400 55.41300 27.47300
C  13.31800 55.49500 26.02000
C  14.48500 54.67400 25.63100
C  12.58600 56.10400 28.47900
C  12.43900 56.28700 25.04500
O  12.52800 56.29000 23.77100
C  11.55700 57.37900 25.68400
N  16.76200 53.00300 24.55200
C  15.80300 53.44700 23.76800
C  16.05500 53.29400 22.25700
C  17.54600 52.73200 22.21800
C  17.80500 52.64700 23.76500
C  15.02500 52.37400 21.52900
C  18.60900 53.52800 21.50800
C  18.69600 55.03700 21.81300
N  18.60000 51.92000 26.55800
C  19.33400 51.43900 25.50600
C  20.42700 50.62500 25.96000
C  20.30600 50.58700 27.37700
C  19.16200 51.36900 27.66600
C  21.39000 49.82800 25.13900
C  20.82600 50.02400 28.56600
O  21.71900 49.18600 28.75900
C  19.97600 50.63500 29.78900
C  19.44300 49.41800 30.59000
O  18.67400 48.58800 30.12900
O  19.90900 49.34900 31.89200
C  19.21800 48.40000 32.73900
H  14.29900 54.62100 29.95800
H  13.98000 54.53600 23.54300
H  19.52400 51.60800 23.29300
H  17.44600 51.52200 31.60300
H  16.20200 53.99300 31.64100
H  15.28800 51.43800 32.31600
H  14.25200 51.97000 31.04800
H  14.65400 52.92900 32.56100
H  18.55400 54.31400 31.20700
H  19.61800 53.09300 31.37700
H  18.34300 54.61000 33.46200
H  19.58600 53.47200 33.70100
H  12.82800 56.00500 29.53700
H  11.54600 55.83900 28.28600
H  12.72600 57.17200 28.31100
H  11.19000 57.99400 24.86300
H  12.10300 57.92200 26.45500
H  10.67700 56.93400 26.14800
H  16.01200 54.23400 21.70600
H  17.56400 51.68600 21.91200
H  14.85800 52.58400 20.47200
H  14.12200 52.24700 22.12600
H  15.39300 51.34800 21.55500
H  18.54300 53.44900 20.42300
H  19.63800 53.17400 21.56600
H  18.14700 55.59800 21.05700
H  19.73000 55.30800 22.02900
H  18.16400 55.16500 22.75500
H  21.62200 48.88600 25.63500
H  22.32600 50.34800 24.93500
H  20.93200 49.61800 24.17200
H  20.66200 51.21700 30.40400
H  19.71800 48.46800 33.70400
H  19.25200 47.37100 32.38200
H  18.20900 48.74900 32.95800

