158

Mg 47.41600 24.98100 28.68400
C  48.34000 27.43700 31.14300
C  46.06000 23.17700 31.33000
C  46.97800 22.56700 26.69200
C  49.09000 26.98500 26.27600
N  47.40700 25.26200 31.04000
C  47.59200 26.37000 31.70500
C  47.19600 26.30000 33.19300
C  46.51200 24.89800 33.23800
C  46.75200 24.30500 31.79200
C  47.04500 23.85700 34.36100
C  46.25100 27.39600 33.84200
C  46.85300 28.09900 35.09800
H  47.22000 27.23500 36.31300
N  46.52900 23.15500 28.94100
C  45.97600 22.56500 30.08400
C  45.37300 21.35700 29.70200
C  45.66000 21.16400 28.33400
C  46.51400 22.21600 27.95200
C  44.60100 20.53500 30.72200
C  45.29000 19.89700 27.50800
O  45.80000 19.75600 26.36100
C  44.37100 18.84600 28.10400
N  48.19800 24.75200 26.89700
C  47.67900 23.70700 26.15700
C  48.10900 23.73100 24.67200
C  48.56800 25.17600 24.52500
C  48.66800 25.69000 26.00200
C  49.18400 22.68400 24.34400
C  47.64700 26.00000 23.55200
C  48.26400 26.33200 22.16800
N  48.49900 26.86300 28.64200
C  49.12000 27.50100 27.57400
C  49.62200 28.78300 28.09700
C  49.39200 28.78900 29.47300
C  48.69800 27.62300 29.76800
C  50.33500 29.82700 27.20000
C  49.52000 29.50400 30.71000
O  50.00000 30.58900 31.01400
C  49.00100 28.58700 31.84300
C  50.08800 28.13700 32.85300
O  50.79400 27.15300 32.81300
O  50.13000 29.09500 33.93000
C  51.00500 28.70000 35.08900
H  45.55200 22.73100 32.18800
H  46.82500 21.86100 25.87300
H  49.44500 27.57000 25.42500
H  48.14100 26.25300 33.73400
H  45.42300 24.93400 33.26100
H  47.32300 22.90200 33.91600
H  46.36500 23.60200 35.17500
H  48.02600 24.14800 34.73800
H  45.37000 26.92300 34.27800
H  45.90100 28.17800 33.16800
H  46.19900 28.91600 35.40200
H  47.76700 28.63600 34.84200
H  43.55300 20.39100 30.46100
H  44.60600 21.05100 31.68200
H  44.99200 19.53300 30.89400
H  44.84100 18.37200 28.96600
H  44.05500 18.15000 27.32700
H  43.52900 19.43700 28.46400
H  47.20000 23.55300 24.09700
H  49.62000 25.14700 24.24100
H  50.14200 23.19600 24.24900
H  49.01500 22.28800 23.34300
H  49.14400 21.81300 24.99800
H  47.32200 26.89000 24.09000
H  46.71800 25.45900 23.37100
H  47.62400 26.03900 21.33600
H  49.20300 25.78900 22.06000
H  48.47900 27.39400 22.05000
H  51.40400 29.83300 27.41500
H  49.85400 30.80200 27.27300
H  50.27400 29.53500 26.15200
H  48.23600 29.23700 32.26800
H  51.95400 28.29000 34.74300
H  50.43300 27.94200 35.62500
H  51.13000 29.53700 35.77600
Mg 48.90000 45.33300 42.86100
C  45.64600 45.15400 41.47200
C  49.24800 41.90700 42.03500
C  52.11500 45.47600 43.46800
C  48.42700 48.55100 43.43200
N  47.50900 43.73900 41.96900
C  46.28600 43.96300 41.36600
C  45.85200 42.68100 40.60500
C  46.72500 41.67600 41.32700
C  47.93500 42.45200 41.81200
C  46.05500 40.93500 42.56300
C  45.98200 42.89200 39.01000
C  44.71000 42.55400 38.13800
H  44.87100 41.77600 36.84200
N  50.46900 43.85800 42.79900
C  50.47300 42.55000 42.40700
C  51.75100 41.96100 42.56700
C  52.54200 42.91500 43.19300
C  51.71000 44.13400 43.20300
C  52.13500 40.58600 42.08900
C  53.94000 42.79100 43.79200
O  54.52300 41.73600 43.66200
C  54.64300 43.89400 44.56000
N  50.15500 46.84900 43.20100
C  51.46900 46.70800 43.53400
C  52.13200 48.05700 43.72100
C  50.93700 49.01700 44.00400
C  49.76200 48.09400 43.59400
C  53.31700 48.14500 44.79600
C  51.03100 50.34800 43.27000
C  50.86800 51.62800 44.13600
N  47.40600 46.67700 42.55700
C  47.28400 47.92700 42.93500
C  45.99000 48.45700 42.61700
C  45.29200 47.39700 42.00700
C  46.23500 46.32400 42.04500
C  45.50400 49.88800 42.82700
C  44.05100 47.04700 41.37800
O  43.05100 47.64700 40.98900
C  44.34400 45.57400 40.92800
C  43.16200 44.81000 41.35200
O  42.27100 44.33900 40.61600
O  43.22100 44.68500 42.74500
C  41.95700 44.21400 43.26700
H  49.30400 40.81700 42.07900
H  53.17900 45.66700 43.62500
H  48.29200 49.60900 43.66700
H  44.77800 42.62100 40.78000
H  46.92600 40.97100 40.52100
H  46.08400 39.85100 42.45600
H  44.99200 41.17100 42.51800
H  46.39500 41.26700 43.54400
H  46.74900 42.20200 38.65800
H  46.27900 43.92000 38.80300
H  44.24400 43.51200 37.90800
H  44.04900 41.96100 38.77000
H  52.97200 40.63000 41.39200
H  51.34500 39.96500 41.66700
H  52.46100 39.99400 42.94300
H  55.16500 44.50200 43.82200
H  55.35500 43.32700 45.15900
H  54.05400 44.52400 45.22600
H  52.58200 48.31800 42.76300
H  50.93900 49.13200 45.08800
H  53.13500 48.82900 45.62500
H  54.23500 48.43800 44.28700
H  53.40900 47.12900 45.17900
H  50.13800 50.31300 42.64600
H  51.89900 50.50700 42.63200
H  51.73800 52.26100 43.96100
H  50.73000 51.24000 45.14500
H  50.01100 52.19500 43.77100
H  45.49200 50.16100 43.88300
H  44.51400 50.05000 42.39900
H  46.27700 50.51100 42.37800
H  44.38200 45.65800 39.84200
H  42.02600 44.51400 44.31300
H  41.79500 43.13700 43.22200
H  41.09500 44.73900 42.85600

