158

Mg 44.78900 4.84000 47.06400
C  42.84500 7.72300 46.96700
C  41.84400 3.00600 46.28800
C  46.61300 1.98500 46.51400
C  47.69500 6.75300 47.21900
N  42.61600 5.36900 46.50000
C  42.03700 6.59700 46.57900
C  40.51100 6.52800 46.61000
C  40.19600 5.02900 46.28100
C  41.63700 4.45000 46.29500
C  39.28600 4.27700 47.32100
C  39.75000 7.58100 45.66400
C  40.40000 8.11300 44.38800
H  40.07200 7.37500 43.07700
N  44.30600 2.76000 46.52700
C  43.05100 2.19500 46.29000
C  43.19100 0.80100 46.13500
C  44.58000 0.48500 46.19500
C  45.26500 1.73900 46.39800
C  42.03100 -0.18500 45.83700
C  45.19400 -0.87700 46.09100
O  44.39000 -1.78300 45.92700
C  46.69000 -1.16300 45.85100
N  46.83500 4.48600 46.61400
C  47.31000 3.20400 46.63600
C  48.84900 3.12700 46.92600
C  49.17600 4.67300 47.22000
C  47.84100 5.36800 47.00400
C  49.27700 2.10500 48.06400
C  50.32000 5.29500 46.36900
C  51.31500 6.17700 47.08500
N  45.24000 6.84000 47.13200
C  46.47400 7.47200 47.15200
C  46.22900 8.90500 47.39900
C  44.82200 8.98200 47.38300
C  44.31200 7.73600 47.18100
C  47.21900 9.98600 47.70300
C  43.71500 9.94600 47.48500
O  43.81100 11.15200 47.73100
C  42.37100 9.15400 47.26900
C  41.52700 9.16600 48.50500
O  41.37400 8.22900 49.28000
O  40.64900 10.21000 48.41800
C  39.58100 10.26900 49.48400
H  40.96400 2.41700 46.02400
H  47.34600 1.17600 46.50600
H  48.57700 7.34200 47.47700
H  40.32900 6.70600 47.67000
H  39.82800 4.70500 45.30800
H  39.95500 3.70500 47.96400
H  38.62500 3.66200 46.71000
H  38.68700 5.00200 47.87100
H  39.49400 8.36300 46.37800
H  38.81300 7.05000 45.49900
H  41.48600 8.02300 44.40400
H  40.33900 9.19500 44.26800
H  42.27200 -0.83300 44.99500
H  41.08900 0.31300 45.60400
H  41.86900 -0.80700 46.71700
H  46.91400 -2.14600 45.43600
H  47.21200 -1.09300 46.80500
H  47.17100 -0.45900 45.17200
H  49.40500 2.81900 46.04100
H  49.40100 4.69400 48.28600
H  48.41400 1.53400 48.40800
H  49.73100 2.70400 48.85300
H  50.03000 1.38200 47.75100
H  49.92400 5.80000 45.48800
H  50.85500 4.41700 46.00700
H  52.30200 5.72000 47.01000
H  51.10800 6.27100 48.15100
H  51.33100 7.19200 46.68800
H  48.02800 9.71500 48.38100
H  46.80400 10.90600 48.11400
H  47.77300 10.20100 46.79000
H  41.72900 9.62300 46.52300
H  39.60700 11.25800 49.94200
H  39.53500 9.49700 50.25200
H  38.72200 10.32800 48.81600
Mg 0.11500 43.03900 26.63000
C  2.18600 42.86400 29.47500
C  -2.65700 42.44400 28.91400
C  -1.88100 42.33200 24.01900
C  2.96400 43.19200 24.61600
N  -0.25200 42.57100 28.91300
C  0.82500 42.73600 29.80900
C  0.28500 42.90700 31.24200
C  -1.17500 42.63200 31.05500
C  -1.39300 42.54600 29.52400
C  -1.75900 41.36600 31.80400
C  0.55300 44.38600 31.63200
C  1.04600 44.61400 33.07600
H  1.07500 43.43500 34.09900
N  -2.03500 42.51000 26.50500
C  -2.92800 42.44800 27.55200
C  -4.18800 42.42900 26.94800
C  -4.02600 42.38900 25.54200
C  -2.62800 42.38000 25.26200
C  -5.46600 42.34700 27.78100
C  -5.11900 42.34800 24.43100
O  -4.90100 42.23300 23.22500
C  -6.60300 42.32400 24.83700
N  0.45500 42.90000 24.68000
C  -0.48300 42.47600 23.79100
C  0.11100 42.37900 22.35900
C  1.48600 42.96600 22.52600
C  1.68600 43.03900 24.04900
C  -0.00100 40.92700 21.96900
C  1.64200 44.43900 21.97300
C  2.51300 44.61200 20.67300
N  2.07600 43.08700 26.95400
C  3.17500 43.13900 26.02000
C  4.43900 43.22900 26.71100
C  4.08600 43.09200 27.97500
C  2.62900 42.94300 28.16500
C  5.77900 43.34600 26.06900
C  4.60600 43.01400 29.31400
O  5.77500 42.96100 29.71700
C  3.42800 42.89400 30.30600
C  3.64900 41.61500 31.08500
O  3.15500 40.48300 30.98800
O  4.40200 42.13000 32.13500
C  4.50400 41.04700 33.13100
H  -3.47300 42.29800 29.62500
H  -2.46600 42.40600 23.10000
H  3.80500 43.10700 23.92400
H  0.87900 42.26400 31.89100
H  -1.83200 43.43300 31.39200
H  -1.32800 41.28800 32.80200
H  -1.39400 40.49800 31.25500
H  -2.83600 41.20000 31.83000
H  -0.38400 44.90500 31.43000
H  1.28200 44.81100 30.94300
H  0.53400 45.54300 33.32900
H  2.09700 44.87200 33.20800
H  -5.85400 43.34800 27.96600
H  -5.23300 41.88500 28.74100
H  -6.19500 41.71900 27.27000
H  -6.87700 41.34000 25.21800
H  -7.10300 42.52200 23.88900
H  -6.83400 43.12200 25.54200
H  -0.62500 42.90300 21.74800
H  2.25000 42.34500 22.05900
H  -0.31900 40.27900 22.78600
H  0.93300 40.48000 21.62800
H  -0.78500 40.92500 21.21200
H  2.01600 45.01100 22.82300
H  0.69800 44.91300 21.70400
H  3.49200 44.88500 21.06700
H  2.11200 45.42000 20.06200
H  2.66200 43.68300 20.12300
H  5.83500 42.56000 25.31700
H  6.66600 43.24300 26.69500
H  5.80500 44.27300 25.49600
H  3.38400 43.74700 30.98500
H  5.31600 40.34500 32.94000
H  3.59900 40.61000 33.55400
H  4.91300 41.56900 33.99600

