158

Mg 47.22100 44.65900 43.36200
C  43.61500 44.28800 43.06700
C  47.34600 41.24400 42.59800
C  50.42100 45.08300 42.76800
C  46.59700 48.16600 43.58900
N  45.67100 43.01000 42.73700
C  44.27300 43.09200 42.82800
C  43.61800 41.68800 42.84200
C  44.85700 40.73500 42.80400
C  46.03100 41.75100 42.70100
C  44.85300 39.71800 44.01800
C  42.53600 41.41900 41.78500
C  42.73600 42.18800 40.47000
H  42.56300 41.50300 39.04600
N  48.67800 43.37100 42.70500
C  48.54300 42.03200 42.54300
C  49.87000 41.49000 42.42000
C  50.81500 42.51000 42.31600
C  50.01800 43.77100 42.62100
C  50.14300 40.08100 42.46100
C  52.26900 42.41800 41.91300
O  52.69100 41.33100 41.59200
C  53.19300 43.62300 41.86000
N  48.31400 46.40400 43.03900
C  49.70600 46.29100 42.91400
C  50.37800 47.66500 43.17500
C  49.11900 48.67700 43.29400
C  47.92200 47.70700 43.32400
C  51.37500 47.61200 44.34300
C  49.00400 49.70600 42.17100
C  48.94600 51.14800 42.63000
N  45.50200 45.97100 43.52600
C  45.42000 47.33200 43.63700
C  43.99900 47.73000 43.64600
C  43.28600 46.59800 43.52700
C  44.23700 45.54600 43.34600
C  43.58400 49.14300 44.01100
C  41.99700 46.09400 43.44900
O  40.95600 46.72500 43.49300
C  42.10400 44.50200 43.06600
C  41.34500 43.79100 44.05100
O  40.23300 43.37700 43.83900
O  41.92100 43.92300 45.30300
C  41.23900 43.30300 46.42900
H  47.57700 40.20100 42.37500
H  51.50000 45.22200 42.86800
H  46.56300 49.25500 43.67000
H  43.16000 41.72400 43.83100
H  44.82500 40.24500 41.83100
H  45.57900 40.00100 44.78100
H  45.29100 38.77300 43.69900
H  43.82600 39.58100 44.35700
H  41.61500 41.89000 42.12600
H  42.18400 40.41200 41.56200
H  43.70200 42.69200 40.43100
H  42.06100 43.03300 40.33600
H  50.95900 39.98900 43.17700
H  50.47400 39.69500 41.49800
H  49.31800 39.45600 42.80400
H  52.82700 44.47900 41.29400
H  54.08200 43.30000 41.31900
H  53.59700 43.80100 42.85700
H  50.85000 47.92600 42.22800
H  49.21900 49.19400 44.24800
H  52.39600 47.52200 43.97200
H  51.07300 46.69600 44.85200
H  51.24700 48.44100 45.03900
H  48.07000 49.51800 41.64300
H  49.90900 49.85800 41.58200
H  48.86800 51.22000 43.71500
H  48.02900 51.68300 42.38600
H  49.85000 51.70100 42.37400
H  42.72600 49.40700 43.39200
H  44.50200 49.72100 43.90700
H  43.26700 49.05600 45.05100
H  41.63000 44.24900 42.11800
H  40.37800 42.72800 46.09000
H  40.88100 44.13800 47.03100
H  41.81000 42.62100 47.06000
Mg -9.97300 40.51100 42.76600
C  -8.92100 37.36700 41.97100
C  -6.99200 41.75600 41.50000
C  -11.20800 43.59800 43.06000
C  -13.23900 39.21100 43.39000
N  -8.26000 39.58500 41.63600
C  -7.94700 38.28400 41.61200
C  -6.55900 38.13100 41.00500
C  -5.90600 39.51200 41.09000
C  -7.12000 40.36100 41.37100
C  -4.70900 39.65300 42.14700
C  -6.50900 37.51600 39.59400
C  -5.66600 36.26000 39.46400
H  -4.52400 36.31600 38.47500
N  -9.18800 42.44900 42.40800
C  -7.93500 42.72400 41.91700
C  -7.77100 44.08300 41.88500
C  -8.93300 44.67400 42.31000
C  -9.86500 43.59100 42.69100
C  -6.46300 44.76500 41.40800
C  -9.32000 46.23000 42.27200
O  -8.47900 47.00500 41.79400
C  -10.63300 46.79000 42.81100
N  -11.98800 41.33200 43.12400
C  -12.15500 42.65000 43.35400
C  -13.62600 42.95100 43.78000
C  -14.21400 41.52600 43.81200
C  -13.06500 40.59100 43.50300
C  -13.84400 43.85800 45.00500
C  -15.56500 41.28100 43.00900
C  -16.74400 40.70400 43.84200
N  -10.92100 38.68800 42.79100
C  -12.21300 38.26400 43.08500
C  -12.34300 36.93300 42.86900
C  -11.08500 36.53700 42.54900
C  -10.20300 37.61200 42.45900
C  -13.58400 36.08100 43.08700
C  -10.29400 35.38200 42.14800
O  -10.63800 34.22700 42.04600
C  -8.85500 35.86100 41.66800
C  -7.76600 35.08000 42.42800
O  -7.43100 35.26200 43.56600
O  -7.27900 34.09200 41.55400
C  -6.32300 33.12900 42.19900
H  -6.01200 42.13100 41.19800
H  -11.63600 44.60000 43.14600
H  -14.24500 38.81700 43.54200
H  -5.97000 37.54800 41.71300
H  -5.52000 39.81800 40.11700
H  -3.75900 39.61200 41.61400
H  -4.80800 38.89200 42.92200
H  -4.79400 40.61900 42.64400
H  -6.22400 38.19300 38.78900
H  -7.54400 37.23800 39.39400
H  -6.22300 35.34800 39.24700
H  -5.21100 36.07400 40.43600
H  -6.40300 44.76400 40.32000
H  -5.57800 44.23800 41.76600
H  -6.37500 45.80700 41.71400
H  -10.54700 47.86000 42.62400
H  -10.75400 46.46000 43.84300
H  -11.35700 46.32300 42.14300
H  -14.01000 43.54600 42.95200
H  -14.29000 41.26700 44.86800
H  -13.11700 44.65900 44.86900
H  -13.81800 43.21400 45.88500
H  -14.88300 44.18400 44.97000
H  -15.31000 40.75200 42.09000
H  -16.02700 42.23300 42.74600
H  -17.35300 41.58400 44.05000
H  -16.52200 40.24500 44.80500
H  -17.34000 40.00000 43.26200
H  -13.66500 35.50700 42.16400
H  -14.46300 36.63300 43.41900
H  -13.32400 35.30600 43.80700
H  -8.67800 35.58700 40.62800
H  -5.36200 33.62000 42.35000
H  -6.22200 32.25800 41.55100
H  -6.62300 32.68500 43.14900

