158

Mg 6.60600 53.81500 41.47100
C  5.86800 50.38800 41.50100
C  9.50500 53.13900 39.72800
C  6.94000 57.13100 40.79800
C  3.52000 54.45500 42.92500
N  7.48100 51.97000 40.50800
C  6.97000 50.64700 40.70800
C  7.99500 49.67600 40.01200
C  9.30100 50.58700 39.87400
C  8.78700 52.00600 40.04500
C  10.43200 50.27500 40.90400
C  7.53800 48.94200 38.64200
C  6.14500 49.31200 37.99400
H  5.90100 48.53600 36.64400
N  7.95800 55.00600 40.33900
C  9.10100 54.53300 39.86400
C  9.95700 55.68000 39.49600
C  9.34200 56.83300 39.84600
C  7.95100 56.33400 40.32700
C  11.37500 55.38600 38.96100
C  9.94000 58.20600 39.76700
O  11.02300 58.35800 39.20800
C  9.29000 59.40400 40.35100
N  5.31100 55.45100 41.65000
C  5.68600 56.73900 41.32600
C  4.52900 57.77300 41.61700
C  3.50800 56.94100 42.42600
C  4.14900 55.55000 42.32300
C  5.00400 59.04000 42.41000
C  2.05900 56.90300 41.86700
C  0.95600 56.91500 42.88900
N  5.02400 52.69400 42.18700
C  3.94600 53.11600 42.89900
C  3.31600 51.89500 43.44300
C  4.06600 50.74200 42.94400
C  4.99100 51.30800 42.14200
C  2.20600 51.76600 44.42600
C  4.09800 49.34300 42.90100
O  3.43500 48.51200 43.53100
C  5.34600 49.04000 42.08000
C  5.10000 47.91500 41.11200
O  4.10000 47.89000 40.37800
O  6.03100 46.91500 41.32100
C  5.84200 45.78500 40.41500
H  10.39700 52.86400 39.16100
H  7.03600 58.21100 40.67000
H  2.57000 54.58800 43.44700
H  8.25600 48.91800 40.75100
H  9.74700 50.57700 38.87900
H  11.27800 50.02000 40.26600
H  10.06400 49.59200 41.67000
H  10.70300 51.16300 41.47500
H  7.44400 47.92800 39.03100
H  8.46000 49.12600 38.09100
H  6.17000 50.37900 37.77400
H  5.30300 49.07400 38.64400
H  11.70800 54.45100 38.51100
H  12.14300 55.57400 39.71100
H  11.53800 56.08500 38.14100
H  8.88200 59.13000 41.32400
H  8.56900 59.89100 39.69500
H  10.08000 60.09100 40.65500
H  3.93700 57.93600 40.71700
H  3.44500 57.29700 43.45400
H  4.98700 59.93900 41.79400
H  6.03300 58.87600 42.72800
H  4.33400 59.23100 43.24800
H  1.93600 56.00300 41.26500
H  1.92500 57.82300 41.29900
H  0.20700 56.12700 42.81000
H  0.45300 57.88200 42.87200
H  1.28300 56.90500 43.92800
H  2.12800 50.79500 44.91600
H  1.30300 51.85600 43.82200
H  2.20400 52.61000 45.11600
H  6.11500 48.60900 42.72000
H  4.75500 45.69700 40.43200
H  6.30000 44.85100 40.74000
H  6.18900 45.91500 39.39000
Mg -9.89700 39.60500 42.50900
C  -8.68700 36.52000 41.61400
C  -7.23200 41.11800 41.02300
C  -11.61100 42.60200 42.85000
C  -13.03800 37.91600 43.14700
N  -8.25100 38.86700 41.19600
C  -7.88100 37.56800 41.12300
C  -6.60200 37.39400 40.34000
C  -6.07900 38.87400 40.46300
C  -7.23800 39.71100 40.93900
C  -4.85000 38.99100 41.41800
C  -6.87400 36.85800 38.91400
C  -6.10500 35.50700 38.55500
H  -5.06400 35.59300 37.36800
N  -9.42000 41.63100 42.17400
C  -8.23100 42.01800 41.61000
C  -8.19700 43.43700 41.65400
C  -9.38700 43.91400 42.25100
C  -10.17200 42.68900 42.47800
C  -6.99900 44.24900 41.09700
C  -9.74700 45.42100 42.49500
O  -9.05800 46.37200 42.13900
C  -10.98300 45.76700 43.35100
N  -12.00200 40.18600 42.85900
C  -12.44000 41.48200 42.93900
C  -13.91500 41.56800 43.04700
C  -14.40400 40.07500 43.20300
C  -13.05800 39.35300 43.04100
C  -14.29100 42.44100 44.30300
C  -15.52100 39.51300 42.31400
C  -16.68900 38.94100 43.14100
N  -10.71800 37.65000 42.48300
C  -11.94600 37.11400 42.83800
C  -11.90700 35.70600 42.84100
C  -10.58300 35.38500 42.39000
C  -9.94900 36.59000 42.19000
C  -13.10300 34.77600 43.21000
C  -9.60000 34.33700 42.15700
O  -9.75500 33.09800 42.22300
C  -8.30400 34.98400 41.66600
C  -7.18600 34.69300 42.63000
O  -7.05000 35.23100 43.72100
O  -6.21900 33.82200 42.03600
C  -5.10000 33.63100 42.92800
H  -6.35500 41.66400 40.66900
H  -12.02800 43.60900 42.91300
H  -14.00500 37.42300 43.25900
H  -6.00200 36.68600 40.91300
H  -5.85900 39.22900 39.45700
H  -4.49000 37.96300 41.44000
H  -5.02900 39.44600 42.39300
H  -4.14200 39.57200 40.82700
H  -6.76300 37.54700 38.07700
H  -7.94000 36.65000 38.81400
H  -6.84100 34.74000 38.31500
H  -5.65000 34.96500 39.38400
H  -7.25800 45.27200 40.82200
H  -6.66500 43.82600 40.15000
H  -6.15300 44.37100 41.77400
H  -10.86200 46.76700 43.76700
H  -11.12700 45.01100 44.12300
H  -11.77500 45.68200 42.60700
H  -14.32400 41.98200 42.12600
H  -14.71500 39.91400 44.23500
H  -15.16000 42.03200 44.81900
H  -14.59400 43.45100 44.03000
H  -13.45500 42.40000 45.00200
H  -15.09800 38.63000 41.83600
H  -15.73900 40.31400 41.60700
H  -17.56200 39.11000 42.51100
H  -16.76200 39.40300 44.12600
H  -16.66800 37.85500 43.05300
H  -12.93600 34.31200 44.18200
H  -13.28100 33.93600 42.53900
H  -14.00000 35.39600 43.22500
H  -8.03200 34.65500 40.66400
H  -5.33800 33.02100 43.79900
H  -4.70100 34.58700 43.26900
H  -4.27000 33.17900 42.38400

