158

Mg 52.47600 23.66700 44.56300
C  49.51400 25.46400 44.01700
C  50.73800 20.71000 43.68300
C  55.45500 22.14100 44.19200
C  54.05400 26.60700 45.42600
N  50.32300 23.16300 43.88100
C  49.31200 24.06500 43.75200
C  48.02200 23.27500 43.49600
C  48.35300 21.76000 43.47600
C  49.91000 21.87500 43.74900
C  47.54000 20.94500 44.44100
C  47.06300 23.79400 42.34600
C  47.67500 23.93300 40.93200
H  47.55800 22.71800 39.93900
N  53.03300 21.69000 44.12700
C  52.14400 20.65100 43.78600
C  52.98900 19.42100 43.63700
C  54.33000 19.81200 43.69500
C  54.36000 21.26300 44.00500
C  52.35700 18.05800 43.32600
C  55.46600 18.91800 43.23000
O  55.27900 17.72700 43.04100
C  56.75800 19.48700 42.93700
N  54.45900 24.34100 44.59500
C  55.46700 23.45000 44.42400
C  56.75900 24.22500 44.83500
C  56.44100 25.75100 44.83100
C  54.88500 25.60100 45.03200
C  57.47300 23.65200 46.05100
C  56.77200 26.59600 43.55800
C  58.14100 27.28100 43.47200
N  51.88900 25.66200 44.74500
C  52.60500 26.69000 45.27000
C  51.75200 27.83000 45.51400
C  50.52900 27.44800 44.91900
C  50.66900 26.10500 44.46500
C  52.09100 29.20900 45.99900
C  49.14400 27.82000 44.61800
O  48.52800 28.86600 44.92400
C  48.55000 26.65400 43.88000
C  48.39100 27.09300 42.51300
O  49.19200 26.91900 41.60100
O  47.18100 27.72200 42.32700
C  46.72300 27.79300 40.92100
H  50.18800 19.78700 43.49000
H  56.48900 21.79600 44.11600
H  54.53400 27.47700 45.88100
H  47.50100 23.60700 44.39400
H  48.22900 21.42500 42.44600
H  47.30100 19.97500 44.00500
H  46.66700 21.55300 44.68000
H  48.16300 20.74100 45.31100
H  46.73100 24.78900 42.64000
H  46.12900 23.23300 42.36400
H  48.72000 24.18400 41.10900
H  47.14400 24.79700 40.53300
H  52.63900 17.22700 43.97300
H  52.53000 17.77700 42.28700
H  51.27300 17.96500 43.40200
H  57.38100 18.78700 42.37900
H  57.33400 19.52900 43.86100
H  56.69100 20.39900 42.34400
H  57.37000 24.11700 43.93800
H  56.85800 26.18700 45.73900
H  58.37400 23.11500 45.75400
H  56.83700 22.88800 46.49600
H  57.68500 24.42300 46.79200
H  56.02500 27.37400 43.40100
H  56.79400 25.97900 42.66000
H  58.60600 26.82500 42.59800
H  58.77400 27.08300 44.33800
H  58.10000 28.36900 43.42600
H  53.06600 29.56900 45.67300
H  52.02500 29.34600 47.07900
H  51.33100 29.85800 45.56500
H  47.56500 26.41900 44.28300
H  45.91000 27.06700 40.87700
H  47.49600 27.73000 40.15500
H  46.22600 28.76100 40.85800
Mg -9.14400 18.72700 43.00900
C  -5.58300 18.04400 43.22000
C  -8.35600 21.85400 42.10700
C  -12.39100 19.11000 42.15900
C  -9.69800 15.22400 43.29100
N  -7.16400 19.77500 42.89100
C  -5.83200 19.39500 42.96500
C  -4.79900 20.45000 42.60300
C  -5.72000 21.71100 42.44000
C  -7.20500 21.09500 42.57700
C  -5.55900 22.89200 43.49500
C  -3.85100 20.07800 41.36900
C  -4.47700 19.35700 40.10900
H  -3.96700 19.89800 38.70500
N  -10.28400 20.36600 42.28600
C  -9.74500 21.57500 41.95100
C  -10.85300 22.43300 41.45200
C  -12.06700 21.72900 41.68200
C  -11.64100 20.31900 42.04100
C  -10.63700 23.81500 40.97500
C  -13.42700 22.25200 41.39000
O  -13.56700 23.41100 41.07800
C  -14.60400 21.39500 41.46500
N  -10.78200 17.34100 42.79300
C  -12.04800 17.78300 42.39700
C  -13.06500 16.64600 42.39800
C  -12.17100 15.41500 42.74000
C  -10.84400 16.03700 43.05800
C  -14.35900 16.86800 43.16100
C  -11.97800 14.42300 41.53400
C  -12.60700 13.05200 41.77200
N  -7.92200 16.92400 43.10000
C  -8.31600 15.63800 43.23600
C  -7.15400 14.80100 43.39400
C  -6.09800 15.69800 43.42000
C  -6.58200 16.98700 43.25300
C  -7.16700 13.26200 43.53000
C  -4.73200 15.74300 43.64600
O  -3.89000 14.85600 43.96400
C  -4.19100 17.23800 43.49400
C  -3.35500 17.75100 44.63700
O  -2.15300 17.84400 44.52100
O  -4.07200 17.90400 45.78900
C  -3.29100 18.30300 46.83100
H  -8.13400 22.90900 41.93600
H  -13.46100 19.17700 41.95400
H  -9.85800 14.14400 43.25600
H  -4.07500 20.53800 43.41300
H  -5.53400 22.20600 41.48700
H  -6.44400 22.91600 44.12900
H  -5.52000 23.83400 42.94900
H  -4.60100 22.87700 44.01600
H  -2.97000 19.50400 41.65600
H  -3.55700 21.07300 41.03700
H  -5.56300 19.27100 40.09000
H  -4.24000 18.29700 40.02100
H  -11.00500 24.05300 39.97700
H  -9.57100 23.99100 41.11800
H  -11.12700 24.57400 41.58500
H  -14.54800 20.75800 42.34800
H  -14.65300 20.66600 40.65600
H  -15.57700 21.88500 41.48800
H  -13.44100 16.60400 41.37500
H  -12.40300 14.82300 43.62500
H  -14.49700 15.99600 43.80000
H  -15.16100 16.92500 42.42500
H  -14.57500 17.77900 43.71900
H  -10.92100 14.26400 41.32100
H  -12.39500 14.83400 40.61500
H  -13.50300 12.90100 41.17000
H  -12.93800 13.02200 42.81000
H  -11.98300 12.17500 41.59900
H  -6.42600 13.07800 44.30800
H  -6.87000 12.70800 42.64000
H  -8.15000 12.86900 43.79000
H  -3.43000 17.29100 42.71600
H  -2.46800 18.96800 46.56900
H  -2.80600 17.44200 47.29300
H  -3.78500 18.67100 47.73000

