158

Mg 0.54900 8.27300 25.13400
C  1.31200 9.92800 28.29600
C  0.75000 5.31900 26.98400
C  0.20600 6.76500 22.30500
C  1.20900 11.28700 23.54600
N  0.86700 7.69700 27.44400
C  1.10600 8.56100 28.44200
C  1.29100 7.78000 29.80000
C  1.15900 6.29800 29.37200
C  1.00200 6.42000 27.80400
C  2.30700 5.27600 29.79300
C  0.28500 8.12900 30.96700
C  0.88600 8.58200 32.28500
H  1.98400 7.68500 32.83100
N  0.48300 6.26000 24.68700
C  0.54100 5.23500 25.55400
C  0.37100 4.01900 24.80300
C  0.22600 4.37900 23.40700
C  0.33900 5.83200 23.38800
C  0.31600 2.69100 25.48600
C  0.19300 3.49600 22.19800
O  0.00000 3.94800 21.08800
C  0.32800 1.97500 22.35400
N  0.80800 8.96700 23.20900
C  0.42900 8.12500 22.23600
C  0.70200 8.81600 20.85900
C  0.76900 10.30300 21.25300
C  0.94200 10.16400 22.75400
C  1.89800 8.24600 20.09200
C  -0.39400 11.23300 20.82200
C  -1.81600 11.11000 21.38600
N  1.17500 10.26200 25.68800
C  1.40900 11.38800 24.93500
C  1.74500 12.51400 25.78800
C  1.68600 12.02300 27.09400
C  1.38800 10.61300 27.00100
C  2.02900 13.88200 25.46800
C  1.80600 12.36500 28.51800
O  2.23100 13.42700 29.02500
C  1.57400 11.04300 29.34200
C  2.84300 10.78600 30.06500
O  3.83600 10.14300 29.69900
O  2.76600 11.45100 31.22500
C  3.86600 11.58700 32.15500
H  0.84600 4.32900 27.43500
H  -0.03400 6.31800 21.33900
H  1.37200 12.28200 23.12600
H  2.30600 8.10800 30.02400
H  0.19300 5.86800 29.63500
H  3.02800 5.57700 30.55400
H  2.81100 4.82500 28.93800
H  1.79900 4.46100 30.30800
H  -0.30100 7.25500 31.25100
H  -0.41900 8.84000 30.53400
H  0.11600 8.49100 33.05100
H  1.11400 9.64600 32.22100
H  -0.42100 2.08400 24.96200
H  -0.14700 2.71700 26.47200
H  1.28600 2.19800 25.55900
H  -0.44700 1.47300 22.93300
H  1.34200 1.91400 22.74900
H  0.35700 1.42500 21.41300
H  -0.19900 8.56600 20.29800
H  1.70100 10.77100 20.93400
H  2.74500 8.93100 20.05200
H  1.57500 8.10100 19.06100
H  2.20400 7.26700 20.45800
H  -0.43200 11.25700 19.73300
H  -0.07700 12.23100 21.12400
H  -2.05100 12.08400 21.81600
H  -1.79300 10.36900 22.18400
H  -2.58200 10.80900 20.67100
H  0.99900 14.21000 25.32800
H  2.60800 13.86000 24.54400
H  2.32900 14.46200 26.34000
H  0.66000 11.08700 29.93500
H  4.74800 11.70700 31.52600
H  4.11100 10.70700 32.74900
H  3.69100 12.34100 32.92300
Mg 8.70200 3.21000 27.47200
C  10.19400 1.72300 30.15500
C  6.76800 5.08300 29.61600
C  7.36600 4.58300 24.81300
C  10.32200 0.82500 25.48600
N  8.41400 3.25800 29.67500
C  9.31600 2.70000 30.61100
C  9.06900 3.28900 32.00600
C  7.85400 4.28200 31.80000
C  7.66200 4.25600 30.24800
C  6.60100 4.08400 32.62300
C  10.32200 3.89100 32.68300
C  10.15500 4.47700 34.09500
H  11.16300 4.11200 35.15600
N  7.29700 4.59200 27.28400
C  6.61200 5.35100 28.22300
C  5.75900 6.27800 27.64900
C  5.80500 6.09900 26.22800
C  6.87000 5.06000 26.05100
C  4.90700 7.23000 28.49800
C  5.02800 6.74200 25.13800
O  5.06500 6.40000 23.96200
C  4.06900 7.88800 25.40400
N  8.91400 2.78100 25.42800
C  8.32800 3.58000 24.54200
C  8.74100 3.24400 23.05900
C  9.66700 1.95200 23.24800
C  9.68600 1.86400 24.79100
C  7.49900 3.11900 22.11000
C  11.16600 2.04500 22.57400
C  11.55300 0.88500 21.54100
N  9.92600 1.50000 27.68300
C  10.52100 0.66200 26.77300
C  11.46600 -0.16700 27.49200
C  11.34600 0.20800 28.82600
C  10.35100 1.20400 28.86800
C  12.43100 -1.22800 26.88700
C  11.75400 -0.11700 30.17600
O  12.56800 -0.86600 30.58700
C  11.13100 0.91500 31.01700
C  10.52600 0.29300 32.22800
O  9.41100 -0.16000 32.34300
O  11.36200 0.44000 33.29200
C  10.84300 0.04500 34.61700
H  6.44000 5.80700 30.36400
H  6.89600 5.02200 23.93000
H  10.80200 0.14000 24.78400
H  8.67700 2.44100 32.56700
H  8.17300 5.30100 32.02100
H  6.42800 4.89400 33.33200
H  6.65500 3.22400 33.29000
H  5.72200 4.06400 31.97900
H  10.65500 4.69200 32.02300
H  11.15200 3.18900 32.59900
H  9.14100 4.44400 34.49300
H  10.32900 5.54400 33.96000
H  5.04500 7.14900 29.57600
H  3.83700 7.05400 28.39000
H  5.24000 8.24000 28.25900
H  4.59400 8.67800 25.94100
H  3.25400 7.58700 26.06300
H  3.54100 8.22200 24.51100
H  9.29300 4.16200 22.85800
H  9.18100 1.04500 22.88900
H  7.16500 2.09800 22.29400
H  7.82400 3.29500 21.08400
H  6.60900 3.67900 22.39900
H  11.92800 2.12200 23.34900
H  11.04700 2.96100 21.99600
H  12.17100 0.14600 22.05300
H  12.02600 1.35900 20.68100
H  10.61700 0.41400 21.24200
H  11.86000 -1.50900 26.00200
H  12.55000 -1.97800 27.66900
H  13.45500 -0.93100 26.65800
H  11.93200 1.51000 31.45600
H  10.69400 0.92100 35.24800
H  11.75700 -0.42900 34.97400
H  9.97800 -0.61400 34.69300

