158

Mg 25.57200 0.46700 29.11500
C  27.50800 0.47200 31.91100
C  22.81000 1.24900 30.95600
C  23.74600 0.41700 26.29300
C  28.36100 -0.45500 27.23200
N  25.21700 0.55000 31.28900
C  26.17500 0.73800 32.23800
C  25.52300 1.27200 33.58700
C  23.95000 1.40900 33.25400
C  23.99000 1.04500 31.72800
C  23.04000 0.59500 34.20200
C  26.10200 2.56600 34.18800
C  26.82900 2.47600 35.50300
H  26.37900 3.11700 36.81700
N  23.52400 0.71700 28.64700
C  22.57700 1.10400 29.55200
C  21.30100 1.33100 28.87700
C  21.54800 1.09400 27.46100
C  23.00600 0.79400 27.40200
C  20.04800 1.83800 29.47300
C  20.56100 1.10900 26.27400
O  20.88100 0.93500 25.11700
C  19.10500 1.41700 26.51100
N  25.96600 -0.06500 26.97800
C  25.07800 0.07200 26.02700
C  25.67600 -0.12200 24.56200
C  27.19700 -0.23700 24.92200
C  27.19700 -0.25000 26.45300
C  25.24400 -1.27300 23.77500
C  28.05500 0.98300 24.40400
C  29.38100 0.71200 23.71300
N  27.46900 -0.06600 29.48400
C  28.52700 -0.34100 28.60100
C  29.79700 -0.46700 29.36300
C  29.41000 -0.08300 30.66900
C  28.01100 0.06000 30.69500
C  31.16700 -0.80200 28.85500
C  29.94100 0.14800 31.97700
O  31.10800 0.12300 32.36600
C  28.70600 0.43900 32.83900
C  28.66800 -0.64500 33.90500
O  28.00000 -1.67000 33.78200
O  29.45600 -0.30300 34.90200
C  29.32800 -1.21500 36.01100
H  21.94900 1.65100 31.49500
H  23.29400 0.28100 25.30800
H  29.21200 -0.66200 26.58000
H  25.65800 0.42100 34.25500
H  23.70900 2.46600 33.37200
H  22.04900 1.04900 34.22600
H  23.35100 0.73000 35.23800
H  22.92200 -0.47700 34.03900
H  25.37400 3.36800 34.31000
H  26.73400 2.97400 33.39900
H  27.76400 3.02100 35.37400
H  27.00500 1.46900 35.88200
H  19.16600 1.21100 29.34100
H  19.71600 2.69800 28.89300
H  20.10500 2.16600 30.51100
H  18.76800 0.60300 27.15100
H  18.59600 1.28700 25.55600
H  19.00900 2.37500 27.02200
H  25.30100 0.83800 24.20700
H  27.63700 -1.15500 24.53200
H  24.60800 -0.89300 22.97600
H  24.63100 -1.94200 24.38000
H  25.97800 -1.86100 23.22400
H  28.09600 1.68500 25.23700
H  27.37200 1.44600 23.69200
H  30.05400 0.87900 24.55400
H  29.59800 1.49300 22.98500
H  29.47600 -0.29800 23.31500
H  31.12400 -0.46800 27.81800
H  31.25600 -1.88100 28.97800
H  31.94000 -0.29800 29.43500
H  28.76000 1.41000 33.33200
H  29.13500 -2.23600 35.68300
H  28.53700 -0.82400 36.65100
H  30.25200 -1.18100 36.58700
Mg -2.75200 33.99600 26.61100
C  -3.92400 32.16500 29.44200
C  -1.17700 36.07000 28.57400
C  -2.12400 35.71000 23.83700
C  -4.76800 31.77600 24.74400
N  -2.60300 34.09100 28.80000
C  -2.98300 33.20900 29.74600
C  -2.54200 33.57100 31.13800
C  -1.63500 34.83700 30.80700
C  -1.84700 35.07700 29.29900
C  -1.96400 36.15900 31.63400
C  -1.91800 32.32500 31.94400
C  -2.52300 32.10500 33.29600
H  -1.52700 31.96200 34.43300
N  -1.70800 35.60200 26.23500
C  -1.05500 36.37700 27.21000
C  -0.30900 37.43500 26.59200
C  -0.61000 37.40200 25.17500
C  -1.52800 36.23200 25.01500
C  0.60900 38.35700 27.32800
C  -0.28500 38.32800 24.04800
O  -0.79100 38.41900 22.92000
C  0.80400 39.37600 24.34200
N  -3.46200 33.79500 24.61100
C  -2.96200 34.61700 23.59400
C  -3.28000 34.04200 22.15700
C  -3.97300 32.68200 22.54200
C  -4.08300 32.76000 24.06600
C  -4.14700 34.98900 21.26100
C  -3.17900 31.50400 22.04100
C  -1.76500 31.39700 22.71400
N  -4.16300 32.34800 26.95100
C  -4.85400 31.52800 26.13000
C  -5.64000 30.57900 26.86800
C  -5.30800 30.85400 28.15500
C  -4.34400 31.85500 28.16100
C  -6.53000 29.56400 26.28700
C  -5.59600 30.39300 29.46900
O  -6.33400 29.53600 29.95000
C  -4.64700 31.22600 30.35700
C  -5.46700 31.90000 31.38200
O  -6.06600 32.97700 31.24200
O  -5.69700 31.11800 32.48000
C  -6.57800 31.71900 33.47900
H  -0.56100 36.64100 29.27200
H  -1.92600 36.17300 22.86800
H  -5.39500 31.04900 24.22400
H  -3.38400 34.01200 31.67200
H  -0.59200 34.68000 31.08000
H  -2.59100 36.77900 30.99400
H  -1.05700 36.66500 31.96500
H  -2.48300 36.04700 32.58600
H  -0.85400 32.53400 32.04900
H  -1.91200 31.46000 31.28100
H  -3.07600 31.16700 33.24100
H  -3.20300 32.86300 33.68400
H  0.42900 38.44100 28.40000
H  0.43500 39.37700 26.98600
H  1.64500 38.09600 27.11200
H  1.67500 38.86200 24.74700
H  0.54800 40.17600 25.03800
H  1.02100 39.82900 23.37500
H  -2.32200 33.88300 21.66000
H  -5.01100 32.58800 22.22300
H  -3.89300 36.02200 21.49800
H  -5.17700 34.77200 21.54400
H  -3.91500 34.87900 20.20200
H  -2.94700 31.53500 20.97700
H  -3.70700 30.61000 22.37300
H  -1.62900 32.25000 23.37900
H  -1.06700 31.35500 21.87900
H  -1.82500 30.49100 23.31700
H  -6.37600 29.42200 25.21700
H  -7.50100 29.98600 26.54900
H  -6.47300 28.54100 26.66000
H  -3.97100 30.58800 30.92600
H  -7.49500 32.04900 32.99200
H  -6.22900 32.55200 34.08900
H  -6.72500 30.83000 34.09300

