158

Mg 45.29200 4.35800 47.64400
C  43.27200 7.11300 47.24400
C  42.48200 2.40100 46.89100
C  47.25500 1.71700 47.71400
C  48.12200 6.41600 47.42100
N  43.05100 4.75400 47.34600
C  42.50000 5.98400 47.15100
C  40.99200 5.79000 46.56100
C  40.81300 4.23500 46.69800
C  42.16000 3.74600 46.99700
C  39.73100 3.84900 47.82800
C  40.87500 6.40100 45.14700
C  39.69200 7.38500 44.92100
H  38.83700 7.07500 43.71500
N  44.92000 2.31700 47.36500
C  43.74200 1.73300 47.03300
C  44.00800 0.25200 46.88900
C  45.39800 0.02000 47.18300
C  45.90900 1.36600 47.48000
C  42.98800 -0.76900 46.42300
C  46.18200 -1.39200 47.08900
O  45.55200 -2.38300 46.78600
C  47.68200 -1.51600 47.37700
N  47.41100 4.05500 47.43800
C  47.93700 2.88800 47.72400
C  49.47300 2.89300 48.07700
C  49.63300 4.49900 48.23400
C  48.31800 5.05400 47.56800
C  49.82700 2.14000 49.33300
C  50.91800 4.99700 47.47600
C  52.26300 4.24100 47.53100
N  45.68600 6.30800 47.46000
C  46.86600 7.03500 47.39400
C  46.52500 8.50300 47.37100
C  45.16600 8.54500 47.30200
C  44.70500 7.21800 47.43200
C  47.39100 9.68200 47.10700
C  44.00100 9.46800 47.24000
O  43.94900 10.69600 47.11500
C  42.74500 8.55400 47.08500
C  41.64900 8.89700 48.00600
O  41.47700 8.45300 49.18300
O  40.61600 9.66100 47.45400
C  39.42900 9.83800 48.32200
H  41.62500 1.74400 46.72400
H  47.92600 0.85700 47.75400
H  48.99100 7.04000 47.63900
H  40.31600 6.23900 47.28800
H  40.36200 3.79000 45.81100
H  38.99800 4.65000 47.92200
H  40.20700 3.75800 48.80400
H  39.32300 2.91700 47.43700
H  40.87600 5.52600 44.49600
H  41.80800 6.92800 44.94700
H  40.01800 8.42400 44.97500
H  38.97700 7.31600 45.74100
H  43.49800 -1.11700 45.52500
H  42.07000 -0.35600 46.00600
H  42.87500 -1.63900 47.06900
H  47.97600 -2.55600 47.23100
H  47.99200 -1.29800 48.39900
H  48.13600 -0.90000 46.60100
H  49.95800 2.47100 47.19700
H  49.59500 4.72000 49.30100
H  50.11400 2.76700 50.17700
H  50.71700 1.56000 49.09200
H  49.05400 1.47100 49.71200
H  51.00400 5.99000 47.91800
H  50.70000 5.14600 46.41800
H  53.13100 4.89400 47.44100
H  52.33500 3.57500 46.67200
H  52.37600 3.71000 48.47600
H  47.83100 9.61700 46.11200
H  48.23200 9.70200 47.80000
H  46.82300 10.60800 47.20200
H  42.41800 8.68400 46.05300
H  38.85200 10.61200 47.81700
H  39.77500 10.16200 49.30400
H  38.83700 8.92800 48.41600
Mg 16.71200 53.11600 26.26800
C  18.68800 51.55200 28.78500
C  14.42900 53.84200 28.86800
C  14.42800 54.07400 24.01600
C  18.86300 51.92200 23.88200
N  16.54500 52.60300 28.49900
C  17.51200 52.02300 29.31800
C  17.10100 52.17200 30.81300
C  15.52400 52.40800 30.71700
C  15.43900 52.90300 29.27300
C  14.52600 51.26100 30.91600
C  17.87900 53.35200 31.55700
C  18.10200 53.24000 32.95400
H  17.21300 52.36800 33.80100
N  14.82700 54.02200 26.40800
C  14.10100 54.33600 27.58400
C  12.97500 55.11100 27.20300
C  13.03700 55.35700 25.81400
C  14.10400 54.47600 25.33400
C  12.10000 55.72900 28.26400
C  12.21900 56.31600 24.92700
O  12.49200 56.46900 23.80500
C  11.05900 57.25100 25.57000
N  16.64600 52.94400 24.29300
C  15.53000 53.32700 23.57300
C  15.73700 53.02000 22.16400
C  17.27300 52.73100 22.07600
C  17.69600 52.57000 23.49700
C  14.82800 51.90400 21.63400
C  18.08100 53.88900 21.38800
C  18.91300 54.89200 22.20300
N  18.42800 51.93200 26.32100
C  19.27500 51.61600 25.24000
C  20.41400 50.86600 25.74100
C  20.19100 50.84900 27.13500
C  19.06400 51.51800 27.40300
C  21.51000 50.20400 25.01200
C  20.82600 50.36300 28.36500
O  21.89800 49.75700 28.61200
C  19.87600 50.91400 29.51900
C  19.49200 49.73000 30.36500
O  18.76400 48.78400 30.17300
O  20.28000 49.80100 31.47800
C  20.17600 48.77300 32.48100
H  13.75000 54.19900 29.64400
H  13.65000 54.49400 23.37500
H  19.54900 51.55300 23.11700
H  17.17600 51.23600 31.36600
H  15.11600 53.21100 31.33000
H  13.67900 51.73300 31.41500
H  14.89200 50.42700 31.51500
H  14.18600 50.78400 29.99700
H  17.34900 54.28600 31.37000
H  18.87000 53.49200 31.12400
H  17.85700 54.21200 33.38200
H  19.13700 53.07000 33.25000
H  12.47200 56.67500 28.65800
H  11.97500 55.00000 29.06400
H  11.09000 55.89700 27.89000
H  10.10000 56.74300 25.67900
H  10.95300 58.13500 24.94100
H  11.32500 57.63400 26.55500
H  15.44200 53.81200 21.47500
H  17.58600 51.86400 21.49500
H  14.58300 52.16600 20.60500
H  13.89500 51.72700 22.16900
H  15.30500 50.92400 21.60400
H  17.43700 54.46200 20.72000
H  18.69600 53.46600 20.59400
H  18.50600 55.86000 21.91000
H  19.95600 54.73500 21.92700
H  18.87600 54.84500 23.29200
H  22.32500 49.93700 25.68500
H  21.87200 50.94500 24.29800
H  21.11500 49.38800 24.40700
H  20.33400 51.59300 30.23700
H  20.80500 49.20000 33.26100
H  20.59900 47.87700 32.02700
H  19.13000 48.70800 32.78100

