158

Mg 1.23400 -2.48100 44.31400
C  4.66600 -1.91600 43.92700
C  0.67800 0.19100 42.04400
C  -2.01400 -3.48400 43.98300
C  1.97600 -5.41100 46.01600
N  2.56700 -1.12800 42.96800
C  3.88500 -0.92800 43.18100
C  4.49100 0.24600 42.53800
C  3.21200 1.00200 42.03000
C  2.07500 -0.05100 42.38100
C  2.98000 2.42400 42.82400
C  5.37500 -0.06800 41.34800
C  6.62300 0.89500 41.09000
H  6.56300 1.81300 39.86000
N  -0.44800 -1.83200 43.13300
C  -0.45500 -0.69400 42.36500
C  -1.80000 -0.40100 41.93500
C  -2.66700 -1.42800 42.49700
C  -1.73300 -2.29000 43.26100
C  -2.13800 0.65300 40.80400
C  -4.08200 -1.59600 42.12700
O  -4.59700 -0.58600 41.62900
C  -4.93200 -2.83300 42.33600
N  0.15400 -4.13600 44.94100
C  -1.22000 -4.22300 44.83500
C  -1.77600 -5.42700 45.60200
C  -0.47000 -6.16100 46.14400
C  0.61800 -5.13700 45.74700
C  -2.81800 -5.02800 46.73300
C  -0.30300 -7.62300 45.59900
C  0.23400 -8.63100 46.64200
N  2.94800 -3.43300 44.97700
C  3.11400 -4.58000 45.67400
C  4.50100 -4.75800 45.98200
C  5.16900 -3.75100 45.28600
C  4.18100 -2.89600 44.69400
C  5.13000 -5.83100 46.76000
C  6.50900 -3.28400 44.97000
O  7.62200 -3.62000 45.33700
C  6.22500 -2.01400 44.01700
C  6.92800 -0.82100 44.66900
O  6.84100 -0.45000 45.81100
O  7.81300 -0.23100 43.76400
C  8.51100 0.91400 44.33300
H  0.64100 1.15300 41.53000
H  -3.06500 -3.76800 44.06900
H  2.33400 -6.35500 46.43100
H  5.02300 0.82800 43.29000
H  3.21500 1.24900 40.96800
H  3.69900 2.57100 43.62900
H  1.95900 2.42100 43.20600
H  3.06100 3.27100 42.14300
H  4.81600 -0.01400 40.41400
H  5.67200 -1.09800 41.54500
H  7.40300 0.15600 40.90700
H  6.87900 1.49000 41.96600
H  -2.63600 0.14900 39.97600
H  -1.29800 1.20500 40.38100
H  -2.84400 1.28400 41.34300
H  -5.38300 -2.90400 43.32500
H  -4.41600 -3.78700 42.23000
H  -5.74000 -2.93500 41.61200
H  -2.26600 -6.02300 44.83200
H  -0.47000 -6.09600 47.23200
H  -2.90300 -3.95000 46.87400
H  -2.67800 -5.47300 47.71800
H  -3.74800 -5.53900 46.48700
H  0.39900 -7.54600 44.76800
H  -1.24100 -8.04700 45.24000
H  1.23700 -8.95900 46.37100
H  -0.30700 -9.54200 46.89800
H  0.39400 -8.29100 47.66500
H  4.45100 -6.68100 46.69400
H  5.20000 -5.63900 47.83100
H  6.00300 -6.27500 46.28100
H  6.77400 -2.39500 43.15600
H  7.87500 1.75000 44.62300
H  9.22400 1.28800 43.59900
H  9.09900 0.56800 45.18300
Mg 9.48900 48.05900 25.63200
C  7.34200 48.29700 28.30600
C  11.92000 49.20100 27.67800
C  11.62500 47.89600 23.03200
C  6.77800 47.61100 23.53600
N  9.60500 48.79800 27.71500
C  8.63600 48.59400 28.70200
C  9.19700 48.85200 30.07900
C  10.58600 49.46500 29.76900
C  10.74800 49.16100 28.30300
C  10.70800 50.92200 30.15400
C  9.30800 47.55100 30.96800
C  10.21600 47.45100 32.24400
H  9.79500 46.44300 33.31300
N  11.52300 48.53100 25.37000
C  12.34800 48.85800 26.36900
C  13.73200 48.77500 25.89400
C  13.67500 48.35700 24.59700
C  12.23300 48.30400 24.21200
C  14.94700 49.05100 26.74600
C  14.76300 48.02100 23.55000
O  14.58100 47.61700 22.36200
C  16.17800 48.01700 24.09300
N  9.20400 47.83100 23.57000
C  10.28600 47.79300 22.69900
C  9.82200 47.56200 21.22300
C  8.25000 47.62100 21.35100
C  8.01700 47.63600 22.88400
C  10.39500 48.50400 20.17700
C  7.52900 46.52500 20.58700
C  6.45200 46.92900 19.61000
N  7.41100 47.98100 25.75800
C  6.43600 47.70600 24.84900
C  5.15400 47.64700 25.53100
C  5.47700 47.82000 26.88900
C  6.86100 48.12500 26.99500
C  3.76800 47.65100 24.95500
C  4.91300 47.98600 28.21500
O  3.76200 47.88100 28.60200
C  6.10000 48.16100 29.22600
C  6.14800 46.91500 30.00600
O  6.82500 45.93100 29.76100
O  5.64800 47.12300 31.20900
C  6.06700 46.15800 32.28800
H  12.80700 49.45000 28.26300
H  12.40200 47.72300 22.28400
H  5.91000 47.63000 22.87300
H  8.45500 49.53700 30.49000
H  11.24200 48.88200 30.41500
H  10.54700 51.54000 29.27100
H  11.71300 51.11000 30.53300
H  9.89000 51.13000 30.84300
H  9.56600 46.75100 30.27500
H  8.31100 47.44700 31.39600
H  10.11900 48.44500 32.68200
H  11.22900 47.23400 31.90400
H  14.86500 48.83500 27.81100
H  15.28300 50.07100 26.55900
H  15.72000 48.30100 26.57500
H  16.15200 47.22800 24.84500
H  16.44400 48.94200 24.60500
H  16.85400 47.77000 23.27500
H  10.18400 46.60000 20.85900
H  7.91200 48.57400 20.94300
H  10.88800 49.38300 20.59000
H  9.53800 48.94900 19.67000
H  11.03000 48.11400 19.38200
H  7.04100 45.93900 21.36700
H  8.17700 45.79200 20.10600
H  5.58300 46.31800 19.85500
H  6.95100 46.78100 18.65300
H  6.21700 47.98500 19.74400
H  3.03700 47.68100 25.76300
H  3.65300 46.79800 24.28700
H  3.67900 48.60700 24.44000
H  5.92800 49.08600 29.77800
H  6.47500 46.90500 32.96900
H  6.73400 45.36500 31.95000
H  5.26900 45.70500 32.87700

