158

Mg 8.95800 3.43400 27.59500
C  10.25900 1.74000 30.57400
C  7.61800 5.76100 29.64400
C  7.70300 4.77800 24.88400
C  10.39500 0.82200 25.76300
N  8.87600 3.62400 29.92900
C  9.44200 2.85600 30.91000
C  9.16700 3.43600 32.27400
C  8.18100 4.67200 31.96700
C  8.22600 4.67700 30.42700
C  6.74000 4.75400 32.60000
C  10.52500 3.82400 32.94200
C  10.39700 4.84500 34.18700
H  11.19500 4.60000 35.42500
N  7.93800 5.18400 27.27800
C  7.47700 6.03400 28.26500
C  6.82900 7.13000 27.65400
C  6.83600 6.83400 26.23500
C  7.53000 5.58500 26.04000
C  6.22800 8.25000 28.36900
C  6.22400 7.66700 25.11500
O  6.29100 7.38900 23.91900
C  5.43300 8.88400 25.47500
N  9.10600 2.86600 25.65000
C  8.42100 3.57100 24.69900
C  8.52800 2.84100 23.32200
C  9.60300 1.76400 23.57000
C  9.79300 1.81300 25.08700
C  7.24000 2.39700 22.65700
C  10.87700 1.98400 22.71200
C  11.34400 0.81700 21.81000
N  10.22200 1.71800 28.00400
C  10.63800 0.71700 27.11000
C  11.24400 -0.35200 27.87300
C  11.24600 0.08100 29.21900
C  10.50300 1.28900 29.23200
C  11.74900 -1.57200 27.41700
C  11.60800 -0.28700 30.54600
O  12.27900 -1.27400 30.95600
C  11.06400 0.81900 31.49800
C  10.25000 0.28000 32.56500
O  9.08800 -0.02400 32.44800
O  10.90900 0.24600 33.67400
C  10.11900 -0.36200 34.78500
H  7.23300 6.52000 30.32900
H  7.30200 5.19200 23.95600
H  10.83500 0.01200 25.17600
H  8.63900 2.74400 32.93100
H  8.78400 5.55800 32.16200
H  6.76900 3.88100 33.25100
H  5.94900 4.83600 31.85400
H  6.61400 5.66000 33.19200
H  11.17000 4.28300 32.19300
H  11.12300 3.00200 33.33400
H  9.33300 4.85100 34.42200
H  10.60700 5.86900 33.87700
H  6.64900 9.13500 27.89300
H  6.39500 8.31900 29.44400
H  5.16600 8.18500 28.13200
H  6.09500 9.59400 25.97100
H  4.55000 8.43600 25.93000
H  5.06100 9.31100 24.54300
H  8.96900 3.59500 22.67000
H  9.21100 0.76000 23.41000
H  7.00100 3.02400 21.79800
H  6.51000 2.56000 23.45000
H  7.25900 1.33600 22.40400
H  11.79600 2.25700 23.23100
H  10.75300 2.78400 21.98200
H  10.63900 -0.01300 21.83500
H  12.25900 0.48600 22.30300
H  11.45100 1.32300 20.85100
H  11.16300 -1.70800 26.50800
H  11.45600 -2.35300 28.11800
H  12.82400 -1.48400 27.25800
H  11.94000 1.32700 31.90000
H  9.49000 0.36900 35.29300
H  10.91500 -0.73500 35.43000
H  9.53000 -1.21600 34.45100
Mg 6.77500 53.70900 40.71700
C  6.94800 50.11900 40.56100
C  10.12100 53.71100 39.78800
C  6.44000 56.89300 40.13700
C  3.34600 53.27800 41.57100
N  8.26300 52.07400 40.23700
C  8.11200 50.72600 40.23400
C  9.49000 50.06700 39.69900
C  10.51600 51.18400 39.85300
C  9.58300 52.42800 39.95400
C  11.44500 51.16700 41.10900
C  9.44800 49.45500 38.28500
C  9.10000 50.47200 37.17600
H  7.64000 50.75100 36.72900
N  8.08600 55.11400 39.96900
C  9.46700 54.92200 39.79700
C  10.02800 56.23300 39.70400
C  8.96700 57.14500 39.58300
C  7.75100 56.39900 39.85900
C  11.58900 56.46900 39.54100
C  9.15500 58.62500 39.40300
O  10.25000 59.20600 39.31800
C  7.98100 59.63600 39.10800
N  4.95400 54.81600 40.55500
C  5.24100 56.21800 40.59000
C  3.89300 56.98000 40.83200
C  2.96500 55.90800 41.41800
C  3.76600 54.53700 41.19600
C  4.10500 58.31100 41.72900
C  1.61600 55.84500 40.69400
C  0.44300 56.80800 41.18900
N  5.37900 52.11000 41.00800
C  4.05300 52.07500 41.44900
C  3.68000 50.71300 41.82600
C  4.74300 49.93200 41.39500
C  5.75800 50.79400 40.90600
C  2.43000 50.32500 42.53300
C  5.18500 48.66700 41.32900
O  4.59700 47.62500 41.58700
C  6.48500 48.69700 40.56800
C  6.06900 48.28100 39.21900
O  5.32000 48.92200 38.46600
O  6.50500 47.00000 39.03800
C  5.82800 46.30500 37.91200
H  11.16500 53.72400 39.46700
H  6.31600 57.97800 40.15500
H  2.33800 53.17000 41.97700
H  9.75300 49.28900 40.41500
H  11.04000 51.46100 38.93800
H  11.81300 50.14300 41.04200
H  10.87100 51.31300 42.02400
H  12.34000 51.78700 41.05400
H  8.56500 48.81700 38.27800
H  10.25000 48.83000 37.89100
H  9.63800 50.33800 36.23800
H  9.48800 51.43200 37.51700
H  11.80000 56.39600 38.47500
H  12.08400 55.68600 40.11600
H  11.94700 57.43700 39.89300
H  7.14700 59.23200 38.53400
H  8.38900 60.49500 38.57400
H  7.74700 59.97200 40.11800
H  3.62400 57.21400 39.80200
H  2.71000 56.00700 42.47300
H  5.13800 58.33300 42.07900
H  3.52200 58.21700 42.64500
H  3.83200 59.19900 41.16000
H  1.29100 54.80700 40.63000
H  1.82100 56.15200 39.66900
H  -0.49600 56.40400 41.56800
H  0.19400 57.36800 40.28800
H  0.65900 57.47100 42.02700
H  2.62800 49.53500 43.25800
H  1.67800 49.95500 41.83500
H  2.08100 51.14100 43.16500
H  7.22100 48.04000 41.03100
H  6.55800 45.75000 37.32100
H  5.16100 46.88500 37.27500
H  5.02600 45.70000 38.33600

