158

Mg 35.39900 2.89900 29.87000
C  33.19400 3.50300 32.52200
C  38.05800 3.03100 32.18400
C  37.37200 2.28900 27.44100
C  32.68800 3.25200 27.63300
N  35.56900 3.44100 31.98300
C  34.56300 3.47600 32.91100
C  35.04100 3.50200 34.38500
C  36.56100 3.83400 34.10600
C  36.82300 3.42300 32.66300
C  37.05200 5.24700 34.59800
C  34.79700 2.19000 35.18500
C  34.01400 2.34000 36.45400
H  34.41800 3.51100 37.38000
N  37.44300 2.58700 29.80800
C  38.35200 2.59600 30.86200
C  39.62000 2.17600 30.34800
C  39.52700 2.05400 28.93200
C  38.08500 2.26800 28.65400
C  40.83500 2.01600 31.24300
C  40.64000 1.81700 27.87100
O  40.37900 1.90500 26.67800
C  42.04700 1.55600 28.39900
N  35.06400 2.92800 27.87200
C  36.04700 2.53200 27.09800
C  35.71200 2.60900 25.59600
C  34.20800 2.89500 25.58900
C  33.95600 3.03200 27.17600
C  36.58800 3.67400 24.82300
C  33.28900 1.92300 24.76200
C  32.79100 0.64800 25.56200
N  33.36600 3.33200 30.03600
C  32.39700 3.40300 29.03900
C  31.13900 3.67400 29.60300
C  31.35600 3.69500 31.03100
C  32.74700 3.49100 31.24400
C  29.84300 3.87300 29.00200
C  30.77400 3.84700 32.38100
O  29.64400 4.07500 32.72600
C  31.95700 3.74300 33.38400
C  31.86300 5.04000 34.18700
O  32.42000 6.08100 33.92700
O  31.12000 4.85800 35.30000
C  31.10700 5.92500 36.35300
H  38.85900 3.04300 32.92500
H  37.96900 2.16400 26.53500
H  31.83300 3.19400 26.95600
H  34.58400 4.37900 34.84400
H  37.14100 3.23500 34.80800
H  36.27100 5.71600 35.19600
H  37.20700 5.83300 33.69200
H  38.00200 5.06400 35.10100
H  35.69800 1.65200 35.47800
H  34.24800 1.54300 34.50100
H  34.01900 1.47300 37.11500
H  32.94700 2.49100 36.28600
H  40.55400 1.95900 32.29500
H  41.61500 2.77200 31.15200
H  41.35800 1.06000 31.19700
H  42.03000 0.54900 28.81500
H  42.47400 2.21200 29.15800
H  42.72100 1.64500 27.54700
H  35.83400 1.59700 25.21200
H  34.16500 3.85400 25.07200
H  37.57000 3.26900 24.58100
H  36.65800 4.58400 25.41700
H  36.06300 3.88800 23.89100
H  33.85100 1.51400 23.92200
H  32.50600 2.49900 24.26800
H  33.27800 -0.22100 25.11900
H  31.70900 0.69700 25.43600
H  33.06200 0.51500 26.60900
H  29.65400 3.15600 28.20200
H  29.71900 4.91200 28.69800
H  29.02500 3.67600 29.69400
H  31.88300 2.99300 34.17300
H  31.96400 6.59200 36.44900
H  30.89000 5.40800 37.28800
H  30.38800 6.69100 36.06500
Mg -1.91600 33.31900 25.84300
C  -3.36200 31.80700 28.62300
C  -0.15900 35.37900 27.87100
C  -0.82700 35.03200 23.11900
C  -4.09300 31.45100 23.82800
N  -1.90000 33.60000 27.97200
C  -2.48800 32.85100 28.96400
C  -1.97400 33.30300 30.32600
C  -1.19200 34.59600 30.04700
C  -1.13400 34.59200 28.51700
C  -1.98900 35.91300 30.41600
C  -1.14900 32.23400 31.19200
C  -0.97700 32.57300 32.70600
H  -1.29700 31.52000 33.74600
N  -0.57200 34.91800 25.50800
C  0.12900 35.49100 26.47300
C  1.17700 36.32800 25.84400
C  0.98400 36.39800 24.46300
C  -0.18500 35.44800 24.27900
C  2.21800 37.02900 26.74100
C  1.68300 37.08200 23.35100
O  1.51400 36.89400 22.16900
C  2.71800 37.98600 23.74600
N  -2.24300 33.15100 23.75600
C  -1.83200 34.15200 22.85600
C  -2.59500 34.09100 21.49700
C  -3.59200 32.89200 21.79600
C  -3.28700 32.42700 23.22500
C  -3.22300 35.47800 21.12300
C  -3.37900 31.80000 20.72500
C  -2.38700 30.63600 21.00900
N  -3.38100 31.95900 26.06000
C  -4.13300 31.24500 25.14700
C  -5.00100 30.30400 25.86400
C  -4.75000 30.51400 27.21800
C  -3.75800 31.49400 27.26600
C  -5.83800 29.35700 25.23300
C  -4.97000 30.05200 28.57900
O  -5.71000 29.17800 28.96000
C  -4.08900 30.87200 29.54400
C  -4.97100 31.67200 30.47900
O  -6.01200 32.25800 30.15600
O  -4.52000 31.50700 31.77600
C  -5.47300 31.82300 32.95400
H  0.54200 35.98500 28.44800
H  -0.57800 35.67500 22.27200
H  -4.77400 30.80700 23.26700
H  -2.80700 33.62900 30.95000
H  -0.24700 34.56300 30.59000
H  -2.97900 35.74500 29.99300
H  -1.67600 36.76300 29.80900
H  -2.01200 36.15300 31.47900
H  -0.16300 32.19800 30.73000
H  -1.60600 31.25000 31.08300
H  -1.73500 33.34200 32.85800
H  -0.01200 33.05400 32.86500
H  3.23400 37.17000 26.37300
H  2.50100 36.45500 27.62400
H  1.91600 38.02600 27.06000
H  2.21400 38.57800 24.51000
H  2.82400 38.66600 22.90100
H  3.66400 37.49200 23.96600
H  -1.86600 33.76200 20.75600
H  -4.62800 33.20700 21.67200
H  -4.27300 35.29300 20.89800
H  -2.77700 35.87600 20.21200
H  -3.21500 36.14500 21.98500
H  -3.08300 32.23700 19.77200
H  -4.32800 31.26800 20.64700
H  -1.97000 30.21000 20.09700
H  -2.77900 29.78100 21.56000
H  -1.62800 31.07800 21.65400
H  -5.27900 28.68400 24.58200
H  -6.62600 29.92900 24.74300
H  -6.25700 28.82600 26.08800
H  -3.27200 30.30200 29.98700
H  -5.77600 32.87000 32.96500
H  -5.05300 31.49100 33.90300
H  -6.37200 31.24100 32.74800

