158

Mg 1.03000 -2.01600 43.52100
C  4.39500 -1.29100 42.38900
C  0.00200 0.69000 41.39900
C  -2.14000 -2.99700 43.87500
C  2.27800 -5.18200 44.48000
N  2.15600 -0.57000 41.86200
C  3.51200 -0.36000 41.83000
C  3.78400 0.95700 41.08200
C  2.31500 1.65000 40.97500
C  1.43500 0.50600 41.37000
C  2.23300 3.02400 41.65300
C  4.40600 0.52700 39.71700
C  5.83000 1.09400 39.39300
H  6.04900 1.96100 38.16300
N  -0.79100 -1.14300 42.92800
C  -0.92800 -0.05600 42.19500
C  -2.36600 0.40600 42.29300
C  -3.06700 -0.71000 42.88900
C  -2.01300 -1.66500 43.27500
C  -2.86100 1.80400 41.86900
C  -4.49900 -0.72900 43.04500
O  -5.17300 0.25700 42.72700
C  -5.18800 -1.84800 43.70800
N  0.17200 -3.85900 44.14200
C  -1.19500 -4.02200 44.17400
C  -1.62100 -5.41100 44.65600
C  -0.16100 -6.01300 44.90900
C  0.87000 -4.97700 44.52100
C  -2.50000 -5.55100 45.88600
C  0.16100 -7.48500 44.39700
C  0.41600 -8.56700 45.52200
N  2.93200 -3.01600 43.58800
C  3.27000 -4.30500 44.04600
C  4.67500 -4.50400 43.90600
C  5.17000 -3.26900 43.43000
C  4.06500 -2.45600 43.11700
C  5.51800 -5.74400 44.21200
C  6.37200 -2.61400 43.06400
O  7.57200 -2.97300 43.04500
C  5.89800 -1.24700 42.38300
C  6.36200 -0.13200 43.29600
O  5.82200 0.18200 44.35100
O  7.48200 0.47600 42.76000
C  8.13900 1.43700 43.70200
H  -0.37900 1.62600 40.98400
H  -3.16100 -3.32500 44.08500
H  2.65900 -6.17100 44.74400
H  4.48000 1.59200 41.63000
H  2.10800 1.69700 39.90600
H  1.42800 3.12400 42.38100
H  1.92500 3.71800 40.87100
H  3.15900 3.30900 42.15300
H  3.69000 0.77000 38.93300
H  4.69700 -0.51600 39.58900
H  6.58000 0.30500 39.33200
H  6.08000 1.61300 40.31900
H  -3.87300 2.11200 42.13200
H  -2.74300 1.99200 40.80200
H  -2.18700 2.40400 42.48200
H  -6.22500 -1.60300 43.94100
H  -4.70100 -2.10700 44.64700
H  -5.14800 -2.75700 43.10700
H  -2.16000 -5.75500 43.77400
H  0.10400 -6.07400 45.96500
H  -3.44500 -5.94600 45.51400
H  -2.69100 -4.61900 46.41800
H  -1.99700 -6.24100 46.56300
H  1.00400 -7.51200 43.70700
H  -0.70200 -7.81900 43.82200
H  1.36500 -9.08500 45.38000
H  -0.37200 -9.32000 45.55500
H  0.44900 -8.00800 46.45700
H  6.15900 -5.74300 45.09200
H  6.10400 -5.92600 43.31100
H  4.91100 -6.64800 44.26600
H  6.34400 -1.16700 41.39100
H  7.49500 2.30900 43.82100
H  8.96300 1.92100 43.17900
H  8.55100 0.93100 44.57600
Mg 49.33500 45.46700 42.49400
C  45.84700 44.96600 42.14400
C  49.73900 41.89300 42.38300
C  52.69800 45.83400 42.24300
C  48.82600 48.90100 42.18200
N  48.07900 43.67400 42.05600
C  46.62600 43.71000 42.15100
C  45.94900 42.32700 42.28700
C  47.20600 41.44700 42.51400
C  48.45300 42.37000 42.28500
C  47.26800 40.71500 43.82300
C  45.01400 41.79300 41.13900
C  44.82200 42.65000 39.91100
H  44.71100 41.81400 38.61200
N  50.94100 44.02900 42.32400
C  50.93500 42.66100 42.35100
C  52.32800 42.21000 42.21100
C  53.20400 43.33600 42.09600
C  52.28700 44.48000 42.23100
C  52.63900 40.73400 42.20900
C  54.71600 43.26400 41.85500
O  55.23500 42.16800 41.72300
C  55.57000 44.43800 41.76400
N  50.59500 47.20600 42.22700
C  51.95500 47.07400 42.39300
C  52.64700 48.45800 42.45000
C  51.43500 49.44400 42.24000
C  50.19700 48.48500 42.19900
C  53.37000 48.64300 43.80700
C  51.44200 50.28200 40.92100
C  51.49500 51.83200 41.03000
N  47.77100 46.73800 42.19600
C  47.65600 48.10800 42.15100
C  46.18000 48.51200 42.04900
C  45.55600 47.25100 42.12900
C  46.47100 46.24100 42.18800
C  45.65000 49.85300 41.92000
C  44.26900 46.72000 42.17800
O  43.20600 47.31200 42.16000
C  44.40400 45.20800 42.26400
C  43.77700 44.70700 43.49600
O  42.99100 43.77100 43.57000
O  44.40900 45.32400 44.52800
C  43.91500 44.87900 45.84100
H  49.78600 40.82200 42.59200
H  53.75200 46.11400 42.27700
H  48.71200 49.98500 42.11400
H  45.48500 42.52000 43.25400
H  47.21500 40.67900 41.74100
H  46.28000 40.43000 44.18400
H  47.64400 41.41900 44.56600
H  48.02600 39.93200 43.82900
H  43.97400 41.61600 41.41200
H  45.36400 40.83300 40.75700
H  45.53600 43.47300 39.89200
H  43.80900 43.04100 40.00800
H  53.39800 40.37900 41.51200
H  51.73400 40.15600 42.02100
H  52.96000 40.38500 43.19100
H  55.33600 44.94800 40.83000
H  56.62400 44.16100 41.77600
H  55.37300 45.07100 42.63000
H  53.34000 48.56400 41.61600
H  51.34200 50.07100 43.12700
H  54.40700 48.58500 43.47500
H  53.30900 47.80300 44.49900
H  53.14500 49.61300 44.24900
H  50.57100 49.99700 40.33100
H  52.28900 49.98500 40.30100
H  52.47700 52.20100 40.73700
H  51.52500 52.24800 42.03700
H  50.76200 52.49500 40.56900
H  46.24100 50.62700 41.43000
H  45.46300 50.36300 42.86500
H  44.68200 49.82100 41.41900
H  43.83100 44.85700 41.40600
H  44.36200 45.42000 46.67500
H  44.10600 43.84900 46.14200
H  42.84700 45.09500 45.87100

