158

Mg 41.28900 40.82800 26.44000
C  40.68600 43.16100 29.03300
C  42.24900 38.61000 29.02400
C  42.21000 38.76000 24.04000
C  40.62600 43.33600 24.14800
N  41.44100 40.88500 28.81500
C  41.11000 41.95500 29.59400
C  40.99900 41.45200 31.05400
C  41.81200 40.11100 31.00100
C  41.88200 39.82300 29.54100
C  43.27000 40.11500 31.62800
C  39.49800 41.48200 31.50400
C  39.24800 42.47600 32.67400
H  39.56600 41.95500 34.05300
N  42.02100 38.91300 26.50700
C  42.40900 38.17100 27.65300
C  43.03600 36.88400 27.28800
C  42.98700 36.90900 25.88600
C  42.43100 38.26500 25.38500
C  43.48700 35.85300 28.24300
C  43.30300 35.77400 24.93900
O  43.32700 35.83000 23.72500
C  43.73100 34.39700 25.49900
N  41.29900 41.00600 24.38500
C  41.68700 39.98600 23.57200
C  41.49500 40.28700 22.15600
C  40.74500 41.65400 22.19000
C  40.91700 42.05400 23.62400
C  42.82400 40.19700 21.34200
C  39.27200 41.51500 21.74500
C  38.30500 40.64200 22.67700
N  40.78100 42.81400 26.55600
C  40.55900 43.77800 25.48500
C  40.24100 45.07000 26.02000
C  40.20500 44.82400 27.46300
C  40.62700 43.46800 27.69800
C  40.08300 46.32200 25.21600
C  40.02700 45.56500 28.66600
O  39.67500 46.70600 29.00500
C  40.22500 44.45900 29.80500
C  41.21600 45.04100 30.66100
O  42.44800 44.86300 30.57300
O  40.66700 45.81100 31.67400
C  41.54700 46.35700 32.71000
H  42.58300 37.86200 29.74600
H  42.50600 38.04200 23.27300
H  40.28900 44.16000 23.51700
H  41.55500 42.16900 31.65900
H  41.21800 39.37500 31.54200
H  43.97400 39.75600 30.87700
H  43.22900 39.43600 32.48000
H  43.47800 41.10000 32.04500
H  39.20400 40.50400 31.88700
H  38.82300 41.68900 30.67400
H  38.22500 42.85200 32.70200
H  39.85600 43.34700 32.42900
H  42.72800 35.09100 28.41400
H  43.64100 36.29300 29.22800
H  44.45600 35.48900 27.90000
H  44.68700 34.65800 25.95400
H  43.68700 33.65600 24.70000
H  43.10700 34.06500 26.32900
H  40.82000 39.53900 21.74000
H  41.20600 42.43900 21.58900
H  42.77900 39.36100 20.64500
H  43.60600 40.13300 22.09900
H  42.96200 41.14300 20.81700
H  39.22600 41.05600 20.75800
H  38.85600 42.52200 21.71300
H  38.25100 39.59600 22.37400
H  37.37200 41.20500 22.68900
H  38.72300 40.68800 23.68200
H  39.15900 46.59700 24.70800
H  40.78800 46.35600 24.38500
H  40.37100 47.18300 25.81800
H  39.24300 44.38600 30.27400
H  41.61500 45.56300 33.45300
H  41.22400 47.31300 33.12400
H  42.54000 46.54500 32.30200
Mg 29.84000 59.06300 39.85100
C  27.19200 57.42600 38.45200
C  31.92400 56.45700 38.95200
C  32.60100 61.06800 40.12200
C  27.82000 62.05700 39.94400
N  29.55000 57.14100 38.75900
C  28.38800 56.62800 38.34600
C  28.48700 55.17900 37.85100
C  29.96300 54.86800 38.41600
C  30.55200 56.22500 38.67300
C  29.90300 54.03900 39.71200
C  28.30800 55.18200 36.27300
C  27.23000 54.31100 35.72000
H  26.32500 54.96200 34.66600
N  31.96200 58.71000 39.74200
C  32.63300 57.62600 39.34400
C  34.02900 57.73800 39.57800
C  34.31100 59.03200 40.00900
C  32.91100 59.65400 39.99500
C  35.01700 56.66400 39.21000
C  35.73000 59.60200 40.32800
O  36.70900 58.88100 40.13500
C  35.91500 60.94800 40.88700
N  30.06000 61.22600 40.14000
C  31.37600 61.71300 40.16900
C  31.29100 63.25900 40.21900
C  29.78300 63.55600 40.38200
C  29.16500 62.21100 40.05800
C  32.09200 63.89600 41.41900
C  29.18500 64.79000 39.57600
C  28.95800 66.07300 40.37600
N  27.85100 59.55600 39.54800
C  27.11400 60.80000 39.67700
C  25.71300 60.49400 39.35300
C  25.70400 59.16900 38.94400
C  27.06200 58.68500 38.97900
C  24.59900 61.58700 39.21900
C  24.81700 58.13000 38.37700
O  23.57300 58.10900 38.18300
C  25.71200 56.89600 38.14000
C  25.43500 55.72200 39.10700
O  25.91700 55.59500 40.25300
O  24.62300 54.82900 38.46500
C  24.36600 53.62600 39.32400
H  32.45900 55.50900 38.86600
H  33.47600 61.72100 40.14300
H  27.22200 62.95800 40.09200
H  27.68400 54.60500 38.31500
H  30.53700 54.27100 37.70600
H  29.19700 54.48900 40.41000
H  30.90500 54.09500 40.13800
H  29.66500 52.97900 39.62400
H  29.27100 55.02800 35.78700
H  28.06400 56.19300 35.94700
H  26.59700 53.94100 36.52700
H  27.75700 53.51100 35.19900
H  35.74800 56.64500 40.01900
H  35.45600 56.67600 38.21300
H  34.47600 55.71800 39.22700
H  36.93800 61.05000 41.25000
H  35.26600 61.21200 41.72200
H  35.76700 61.62000 40.04100
H  31.59800 63.65200 39.25000
H  29.53700 63.74900 41.42600
H  31.55200 64.53800 42.11500
H  33.00000 64.35300 41.02300
H  32.45500 63.06600 42.02500
H  28.30000 64.48600 39.01700
H  29.88200 65.10100 38.79800
H  29.60300 66.86700 39.99800
H  29.26600 65.98500 41.41800
H  27.88000 66.20700 40.46200
H  25.07400 62.56400 39.12900
H  24.00800 61.52500 40.13300
H  23.91900 61.47200 38.37500
H  25.46400 56.58000 37.12700
H  23.82600 52.89100 38.72700
H  23.75800 53.98600 40.15400
H  25.26600 53.17700 39.74300

