158

Mg 7.34700 2.44500 28.31100
C  8.88100 0.95100 31.01200
C  5.32600 4.26800 30.40000
C  5.62800 3.66200 25.53500
C  9.17300 0.33800 26.11300
N  7.18500 2.59500 30.42200
C  7.89000 1.90700 31.35500
C  7.62600 2.51000 32.78200
C  6.28900 3.35200 32.53300
C  6.23900 3.40700 31.01000
C  4.92900 2.74800 33.16100
C  8.91900 3.20500 33.34200
C  8.82600 4.33200 34.42600
H  9.52100 4.15600 35.82400
N  5.68500 3.76300 27.99600
C  5.13700 4.51900 29.00300
C  4.26600 5.51300 28.38600
C  4.30500 5.37900 26.96000
C  5.21900 4.22600 26.77600
C  3.44200 6.48700 29.20400
C  3.64200 6.13700 25.89000
O  3.74100 5.94100 24.73500
C  2.79000 7.34000 26.25500
N  7.41000 2.03500 26.15800
C  6.65100 2.71700 25.29600
C  6.96400 2.28700 23.86800
C  8.25500 1.38300 24.00800
C  8.26900 1.22900 25.52700
C  5.70100 1.73500 23.29500
C  9.50700 2.11100 23.46900
C  10.63300 1.28100 22.78100
N  8.73600 0.85800 28.46100
C  9.38200 0.11900 27.51800
C  10.25600 -0.85000 28.14700
C  10.19800 -0.48200 29.53800
C  9.17400 0.53200 29.68600
C  11.20300 -1.88500 27.44000
C  10.70100 -0.65200 30.93500
O  11.60500 -1.36700 31.35700
C  9.86800 0.25900 31.90400
C  9.25900 -0.52000 33.05000
O  8.61900 -1.55200 32.99200
O  9.78900 0.09000 34.19100
C  9.54800 -0.70600 35.42700
H  4.85600 4.94500 31.11600
H  5.32800 4.16400 24.61300
H  9.68700 -0.29400 25.38600
H  7.44200 1.58900 33.33300
H  6.32600 4.36200 32.94400
H  5.00400 1.77800 33.65400
H  4.14700 2.75800 32.40200
H  4.53400 3.46600 33.87900
H  9.44300 3.38700 32.40300
H  9.56700 2.43600 33.76200
H  7.78600 4.56700 34.65400
H  9.07300 5.22400 33.84900
H  2.39900 6.18500 29.10300
H  3.61700 7.50700 28.86100
H  3.63800 6.36400 30.26900
H  2.07200 7.06700 27.02900
H  2.33600 7.75900 25.35700
H  3.33000 8.18200 26.68800
H  7.06000 3.19600 23.27500
H  8.04500 0.36700 23.67200
H  4.82600 1.87500 23.93000
H  5.80700 0.68000 23.04500
H  5.43700 2.30200 22.40300
H  10.07400 2.65700 24.22400
H  9.18800 2.79400 22.68200
H  10.89900 1.82100 21.87300
H  10.27100 0.29300 22.49700
H  11.62600 1.22300 23.22800
H  12.21300 -1.51800 27.25800
H  10.69600 -2.42500 26.64000
H  11.32900 -2.60700 28.24600
H  10.52400 1.03600 32.29800
H  10.49400 -1.05700 35.84000
H  8.87600 -1.56000 35.34500
H  9.06800 0.03500 36.06600
Mg -12.22700 16.75200 41.21800
C  -9.12400 14.99600 41.22300
C  -10.51400 19.66700 40.56700
C  -15.13700 18.09900 40.82700
C  -13.74300 13.56800 41.78700
N  -10.01800 17.19900 40.78300
C  -8.92800 16.35300 40.90400
C  -7.65000 17.13800 40.60500
C  -8.10700 18.68600 40.54700
C  -9.64100 18.53500 40.62900
C  -7.53800 19.43500 41.73400
C  -6.84500 16.59000 39.32600
C  -5.33700 16.94600 39.20600
H  -4.95000 17.57800 37.82900
N  -12.81000 18.69500 40.66500
C  -11.95400 19.83000 40.52400
C  -12.80500 20.93600 40.12200
C  -14.15300 20.44000 40.02000
C  -14.10300 19.02900 40.51300
C  -12.14500 22.29700 39.69600
C  -15.28800 21.20200 39.50200
O  -15.20200 22.38300 39.33600
C  -16.58600 20.49300 39.23000
N  -14.15100 15.96100 41.36100
C  -15.23200 16.79700 41.27700
C  -16.58000 16.04400 41.41500
C  -16.10700 14.61600 41.58900
C  -14.57800 14.69100 41.53800
C  -17.49500 16.78900 42.46300
C  -16.56400 13.52800 40.55200
C  -17.21900 12.30900 41.11600
N  -11.63700 14.63700 41.58000
C  -12.37700 13.48800 41.77300
C  -11.46100 12.37800 41.98600
C  -10.16700 12.95300 41.68300
C  -10.32600 14.31200 41.46500
C  -11.79500 11.04100 42.39500
C  -8.78100 12.62800 41.60100
O  -8.19700 11.54800 41.64900
C  -8.02200 13.95800 41.20200
C  -6.98600 14.26000 42.27100
O  -7.11800 13.98700 43.44700
O  -5.80300 14.82300 41.80900
C  -4.87000 15.26600 42.90000
H  -10.01800 20.63700 40.49100
H  -16.14700 18.50900 40.75800
H  -14.17700 12.59100 42.00900
H  -6.87500 17.01200 41.36200
H  -7.71700 19.16300 39.64800
H  -7.01800 20.35100 41.45400
H  -6.96500 18.79600 42.40600
H  -8.41100 19.71700 42.32500
H  -7.22400 17.06800 38.42300
H  -6.84300 15.51600 39.14000
H  -4.72700 16.07100 39.43100
H  -5.10200 17.66800 39.98800
H  -12.72500 22.76900 38.90300
H  -11.15000 22.10000 39.29700
H  -12.10900 22.95600 40.56400
H  -16.34900 19.48600 38.88700
H  -17.04400 20.96700 38.36200
H  -17.08000 20.44700 40.20100
H  -17.04000 16.12900 40.43000
H  -16.32700 14.32400 42.61600
H  -18.50200 16.91000 42.06300
H  -17.05000 17.74500 42.73700
H  -17.63300 16.12500 43.31700
H  -15.65100 13.19500 40.05700
H  -17.14900 13.95300 39.73600
H  -16.83400 12.18000 42.12700
H  -16.96000 11.40000 40.57300
H  -18.30500 12.39500 41.13200
H  -11.85100 10.43400 41.49100
H  -12.74700 10.86300 42.89600
H  -11.03600 10.55300 43.00600
H  -7.61300 13.78600 40.20700
H  -3.83400 15.48000 42.63800
H  -4.83900 14.57400 43.74200
H  -5.38300 16.11100 43.35900

