158

Mg -0.98100 7.61800 26.17100
C  -0.30300 9.68400 28.94000
C  -0.53700 4.86300 28.13300
C  -1.36200 5.84800 23.41600
C  -0.46800 10.47500 24.11300
N  -0.58700 7.38100 28.31300
C  -0.50000 8.35300 29.25900
C  -0.43900 7.72200 30.62400
C  -0.28300 6.16000 30.33800
C  -0.48500 6.11000 28.80900
C  1.02400 5.56400 30.84700
C  -1.59600 8.10600 31.53600
C  -1.34700 8.72800 32.96200
H  -0.00900 8.34200 33.76500
N  -1.16300 5.60100 25.90100
C  -1.02300 4.64000 26.77900
C  -1.17200 3.34900 26.13500
C  -1.40400 3.57400 24.70900
C  -1.46100 5.12500 24.63600
C  -1.13200 2.14800 26.99800
C  -1.53100 2.61300 23.57100
O  -1.72400 2.93700 22.43000
C  -1.34000 1.15300 23.85200
N  -0.93600 8.10600 24.01200
C  -1.10900 7.14900 23.19000
C  -1.07600 7.66400 21.68000
C  -0.93600 9.20100 21.87600
C  -0.65500 9.29700 23.39000
C  -0.05700 7.03300 20.76700
C  -2.07400 10.14700 21.47900
C  -3.28800 10.35100 22.39600
N  -0.66600 9.71600 26.41200
C  -0.43300 10.75700 25.49500
C  -0.04200 11.94000 26.19900
C  -0.12000 11.58800 27.48200
C  -0.35500 10.21300 27.66800
C  0.34200 13.25300 25.59600
C  0.15200 12.11800 28.78000
O  0.51300 13.25500 29.11200
C  0.07100 10.92200 29.74900
C  1.38400 10.72400 30.40100
O  2.41300 10.40900 29.87400
O  1.28800 11.20400 31.65800
C  2.44700 11.80900 32.35200
H  -0.55100 3.99700 28.79700
H  -1.49500 5.32800 22.46500
H  -0.23800 11.38400 23.55400
H  0.49500 8.12100 31.02100
H  -1.01300 5.54700 30.86500
H  0.76200 4.95700 31.71400
H  1.65400 6.40000 31.15100
H  1.55800 4.97900 30.09800
H  -2.06500 7.17500 31.85300
H  -2.33200 8.62800 30.92400
H  -2.23000 8.61100 33.59100
H  -1.23500 9.81000 32.89300
H  -1.58100 1.27100 26.53100
H  -1.67500 2.30100 27.93100
H  -0.10600 1.91900 27.28600
H  -1.15000 0.60700 22.92800
H  -2.23300 0.81800 24.38000
H  -0.43200 1.17800 24.45600
H  -2.01800 7.40700 21.19600
H  -0.07700 9.48600 21.26900
H  0.72300 7.77000 20.57900
H  -0.64600 6.67900 19.92100
H  0.22900 6.07800 21.20900
H  -2.44300 9.91000 20.48200
H  -1.56800 11.10700 21.37700
H  -3.00300 11.20000 23.01800
H  -3.59500 9.60900 23.13300
H  -4.11600 10.67900 21.76800
H  0.62500 13.09100 24.55600
H  1.09100 13.67200 26.26900
H  -0.56500 13.85400 25.66100
H  -0.67900 11.15800 30.50400
H  2.62700 11.13800 33.19200
H  2.02200 12.73400 32.74100
H  3.36700 11.93300 31.78100
Mg 50.12600 47.24700 43.40900
C  46.60600 47.19600 42.60200
C  50.24200 43.98500 42.53000
C  53.51200 47.37300 43.44800
C  49.82400 50.69700 43.56800
N  48.55900 45.86400 42.56600
C  47.26300 45.98400 42.38300
C  46.53700 44.70800 41.99700
C  47.64600 43.65700 42.32700
C  48.92200 44.58000 42.44700
C  47.44200 42.77200 43.58900
C  45.87500 44.57900 40.58000
C  46.68300 45.32600 39.47000
H  46.76200 44.58500 38.09600
N  51.72700 45.79200 43.15400
C  51.50300 44.48000 42.86500
C  52.73600 43.79200 42.79000
C  53.77400 44.72300 42.90900
C  53.05100 46.04000 43.27000
C  52.78800 42.34300 42.53600
C  55.29900 44.34500 42.85600
O  55.69400 43.21300 42.73100
C  56.26900 45.35000 43.32000
N  51.51400 48.79400 43.53900
C  52.83900 48.58800 43.60900
C  53.50700 49.97200 43.75400
C  52.36200 50.98800 43.91900
C  51.12600 50.09700 43.72500
C  54.71500 50.10700 44.80700
C  52.40600 52.16900 42.87700
C  52.03700 53.58500 43.39700
N  48.58300 48.75000 43.10600
C  48.58300 50.10800 43.30500
C  47.28000 50.64400 43.30000
C  46.44100 49.54900 42.98200
C  47.33000 48.41900 42.85900
C  46.84300 52.10600 43.51200
C  45.04000 49.13700 42.72600
O  43.97100 49.69300 42.73300
C  45.13600 47.58300 42.40400
C  44.19600 46.96600 43.34200
O  44.41700 46.65700 44.53600
O  42.99900 46.81200 42.68700
C  41.99100 45.91600 43.31100
H  50.08600 42.92800 42.30400
H  54.59500 47.39800 43.31300
H  49.76500 51.78200 43.68200
H  45.76500 44.57500 42.75500
H  47.66100 42.94200 41.50400
H  48.40700 42.72800 44.09300
H  47.20800 41.73600 43.34300
H  46.73700 43.15900 44.32600
H  44.81500 44.79800 40.71000
H  45.84800 43.52900 40.28900
H  47.67700 45.64200 39.78800
H  46.10200 46.22700 39.27300
H  52.04900 41.73800 43.06200
H  53.67100 41.84200 42.93400
H  52.70700 42.30100 41.45000
H  55.75400 45.60000 44.24800
H  56.38200 46.25900 42.73000
H  57.19400 44.84200 43.59300
H  54.10200 50.14600 42.85700
H  52.30900 51.44000 44.90900
H  55.09100 49.10700 45.02200
H  54.57600 50.57100 45.78400
H  55.54500 50.63400 44.33600
H  51.73100 52.03700 42.03100
H  53.39600 52.16300 42.42200
H  51.13100 53.90300 42.88100
H  52.81600 54.31900 43.19100
H  51.83000 53.60000 44.46700
H  47.34300 52.48200 44.40500
H  45.75600 52.09000 43.58800
H  47.20500 52.77800 42.73400
H  44.81400 47.35200 41.38800
H  42.21800 44.86400 43.13800
H  40.98200 46.07800 42.93000
H  41.90300 46.12200 44.37800

