158

Mg 2.14200 -1.15200 43.69100
C  5.48800 -0.05100 43.28200
C  1.17900 1.78900 42.23400
C  -0.98200 -2.47300 43.51300
C  3.38900 -4.10300 44.92100
N  3.26000 0.55900 42.77600
C  4.59100 0.83900 42.66700
C  4.86600 2.23300 42.11500
C  3.47700 2.89700 41.97800
C  2.58600 1.65500 42.37900
C  3.19700 4.15300 42.85800
C  5.70400 2.22300 40.74600
C  5.21700 1.27600 39.61000
H  6.13600 0.15400 38.98000
N  0.39900 -0.45600 42.99500
C  0.17800 0.76000 42.42000
C  -1.13800 0.90000 41.99800
C  -1.83100 -0.25300 42.52000
C  -0.81300 -1.13600 43.04100
C  -1.67300 2.08600 41.28500
C  -3.31100 -0.41000 42.39800
O  -4.04100 0.49000 41.96600
C  -4.04900 -1.72900 42.79700
N  1.36500 -3.09700 43.88900
C  -0.00000 -3.39700 43.93000
C  -0.27200 -4.73600 44.57100
C  1.16700 -5.19100 45.00100
C  2.04600 -4.03100 44.57700
C  -1.35100 -4.93400 45.73100
C  1.61700 -6.55300 44.36300
C  2.49900 -7.43500 45.22700
N  4.05600 -1.95300 44.00800
C  4.38800 -3.14100 44.63100
C  5.84800 -3.17400 44.82800
C  6.32000 -1.97600 44.37400
C  5.19500 -1.28000 43.86500
C  6.72100 -4.34900 45.39600
C  7.47000 -1.10700 44.30100
O  8.61700 -1.35400 44.62400
C  6.96600 0.16400 43.60300
C  7.02700 1.25900 44.60100
O  7.64700 2.27900 44.38200
O  6.36200 0.96800 45.73100
C  6.25400 2.07700 46.71700
H  0.85300 2.73700 41.80000
H  -2.01400 -2.81400 43.62700
H  3.73200 -4.92500 45.55200
H  5.44400 2.92600 42.72600
H  3.09900 3.24100 41.01500
H  3.20800 3.87400 43.91200
H  2.25800 4.63000 42.57800
H  4.01600 4.85600 42.70900
H  6.67100 1.86300 41.09700
H  5.75200 3.23000 40.33100
H  4.78200 1.78300 38.74800
H  4.31300 0.81200 40.00600
H  -2.00700 1.63600 40.34900
H  -0.98400 2.88400 41.00900
H  -2.58000 2.59700 41.60600
H  -3.60700 -2.60900 42.33000
H  -5.11000 -1.67200 42.55400
H  -4.05700 -1.95900 43.86200
H  -0.49300 -5.41900 43.75100
H  1.15200 -5.27700 46.08800
H  -0.87900 -5.46000 46.56100
H  -2.21400 -5.48200 45.35500
H  -1.66600 -3.91700 45.96600
H  2.15700 -6.29300 43.45300
H  0.76500 -7.13300 44.00800
H  3.53100 -7.50400 44.88200
H  2.19600 -8.47300 45.36300
H  2.56900 -7.06300 46.24900
H  7.57100 -4.72400 44.82700
H  6.11000 -5.24800 45.48400
H  7.15700 -4.12300 46.36900
H  7.56800 0.53100 42.77100
H  6.42000 3.05100 46.25800
H  6.92500 1.93500 47.56400
H  5.26400 2.10900 47.17200
Mg 35.54800 1.08000 30.00100
C  33.28600 1.68000 32.58700
C  38.02200 1.21000 32.35900
C  37.64500 0.91500 27.42500
C  32.83200 1.60000 27.74500
N  35.61000 1.41200 32.23600
C  34.53600 1.53300 33.09100
C  34.99500 1.69500 34.54100
C  36.57800 1.54700 34.41000
C  36.80000 1.45700 32.89900
C  37.28300 2.67100 35.08200
C  34.14300 0.73900 35.51300
C  33.45700 1.41600 36.69700
H  34.13600 2.56200 37.31900
N  37.51200 0.99200 29.87800
C  38.37800 0.90100 31.01400
C  39.64300 0.61300 30.46700
C  39.56800 0.58700 29.02900
C  38.19600 0.88500 28.69500
C  40.83600 0.39300 31.39000
C  40.66500 0.17500 28.05000
O  40.51800 0.04300 26.84300
C  42.00800 -0.24600 28.63500
N  35.28900 1.08200 27.91900
C  36.31800 1.07100 27.04100
C  35.82600 1.13300 25.57200
C  34.28500 1.28000 25.73400
C  34.06400 1.27000 27.23600
C  36.51600 2.11000 24.63600
C  33.41500 0.16500 25.06700
C  32.90400 -1.05200 25.87900
N  33.52600 1.48500 30.12900
C  32.52200 1.67700 29.08000
C  31.29300 1.97200 29.65400
C  31.51700 2.04600 31.03200
C  32.91700 1.66200 31.23700
C  30.05000 2.32300 28.93000
C  30.91000 2.32300 32.38700
O  29.76900 2.57400 32.74900
C  32.03000 2.16900 33.38400
C  32.26000 3.61000 33.78300
O  33.14600 4.33100 33.26400
O  31.60700 3.95100 34.99200
C  31.74700 5.30100 35.37500
H  38.83200 1.32800 33.08300
H  38.34800 0.89900 26.59000
H  32.14100 1.75200 26.91400
H  34.74500 2.73400 34.75500
H  36.85000 0.64900 34.96400
H  37.96200 3.19000 34.40400
H  37.97200 2.32800 35.85300
H  36.57800 3.39700 35.48800
H  34.87300 -0.00100 35.84000
H  33.46300 0.12200 34.92500
H  33.35500 0.72900 37.53700
H  32.49700 1.80800 36.36300
H  41.49000 1.25500 31.25800
H  41.48100 -0.47300 31.24500
H  40.52600 0.43600 32.43500
H  42.45600 0.50500 29.28500
H  42.67700 -0.30500 27.77600
H  41.80200 -1.17700 29.16300
H  36.01000 0.13900 25.16600
H  34.03300 2.25000 25.30600
H  35.82200 2.79300 24.14800
H  37.04600 1.55100 23.86500
H  37.26400 2.69200 25.17500
H  34.04900 -0.24400 24.28000
H  32.52400 0.65500 24.67400
H  33.58200 -1.22400 26.71500
H  32.82600 -2.00100 25.34800
H  31.86100 -0.91000 26.16200
H  30.29900 3.10500 28.21300
H  29.35000 2.64000 29.70400
H  29.75600 1.37800 28.47300
H  31.66600 1.56600 34.21700
H  31.55700 5.99000 34.55200
H  32.73500 5.45000 35.81000
H  31.00300 5.29300 36.17100

