158

Mg 25.45200 -6.79000 48.28600
C  26.65200 -3.97300 46.56700
C  22.64700 -6.64500 46.38500
C  24.53600 -9.72900 49.72100
C  28.51800 -6.94100 50.00400
N  24.90600 -5.59100 46.51900
C  25.46400 -4.49200 46.01500
C  24.72700 -3.89500 44.88000
C  23.35900 -4.65300 44.92500
C  23.62500 -5.64100 46.03800
C  22.08000 -3.79100 45.11600
C  25.48600 -4.04000 43.50800
C  25.78200 -2.73600 42.75500
H  24.91500 -2.43100 41.50800
N  23.68400 -8.00300 48.17000
C  22.61800 -7.71300 47.34800
C  21.69200 -8.77400 47.56700
C  22.27700 -9.73700 48.44400
C  23.57200 -9.22200 48.78800
C  20.34200 -8.94300 46.90200
C  21.58100 -10.98000 48.90500
O  20.43700 -11.29200 48.49600
C  22.29300 -11.91700 49.85300
N  26.53800 -8.33900 49.39800
C  25.88500 -9.32200 50.03100
C  26.77600 -10.04300 51.01100
C  28.03800 -9.13600 51.11800
C  27.69600 -8.08500 50.09300
C  26.08400 -10.50200 52.32800
C  29.51000 -9.69900 50.83800
C  30.47500 -9.87800 51.94500
N  27.28700 -5.75100 48.29200
C  28.43300 -5.85200 49.06900
C  29.34600 -4.77700 48.77500
C  28.70800 -4.01000 47.77800
C  27.46300 -4.63100 47.58600
C  30.62600 -4.54300 49.43400
C  28.74100 -2.79100 47.08300
O  29.58300 -1.95200 47.09500
C  27.44900 -2.76800 46.14000
C  26.83000 -1.37600 46.33000
O  27.23800 -0.35200 45.80500
O  25.72700 -1.46200 47.12000
C  24.94400 -0.26400 47.41400
H  21.72900 -6.64900 45.79300
H  24.20300 -10.58300 50.31500
H  29.35600 -6.89800 50.70300
H  24.51800 -2.87700 45.21000
H  23.22900 -5.22000 44.00300
H  21.54500 -3.69500 44.17100
H  22.32700 -2.73800 45.25100
H  21.43200 -4.14000 45.92000
H  25.08900 -4.65400 42.70000
H  26.45800 -4.49500 43.69900
H  26.83100 -2.71500 42.45800
H  25.62000 -1.93500 43.47700
H  20.36900 -8.29900 46.02300
H  19.44800 -8.70100 47.47800
H  20.31500 -9.92700 46.43400
H  23.20800 -12.35900 49.46000
H  21.55100 -12.66700 50.12800
H  22.44500 -11.36800 50.78200
H  26.98700 -10.84600 50.30500
H  28.09500 -8.71900 52.12400
H  25.16900 -9.92100 52.44200
H  26.70500 -10.43400 53.22100
H  25.86000 -11.56800 52.27300
H  30.09400 -9.21200 50.05600
H  29.31700 -10.74000 50.57900
H  31.37500 -9.29700 51.74500
H  30.77600 -10.87700 52.25900
H  30.04800 -9.36100 52.80400
H  30.69600 -4.89700 50.46200
H  30.48500 -3.47900 49.62200
H  31.53100 -4.84900 48.91000
H  27.79700 -2.82600 45.10900
H  25.49900 0.64500 47.17900
H  24.58900 -0.28700 48.44400
H  24.05200 -0.16800 46.79500
Mg 40.21600 8.12300 29.18900
C  41.92000 9.24200 31.93500
C  37.80700 6.75900 31.20500
C  38.97300 6.24300 26.52900
C  42.93100 8.94200 27.19500
N  39.93100 8.03800 31.30300
C  40.69600 8.69500 32.23700
C  40.02300 8.75400 33.59000
C  38.73000 7.82700 33.41900
C  38.78000 7.52700 31.86400
C  38.70700 6.59500 34.30900
C  39.72100 10.20700 34.10900
C  38.87800 10.25400 35.37400
H  39.29500 11.16500 36.56600
N  38.48900 6.76700 28.86900
C  37.62900 6.43600 29.86600
C  36.55700 5.65500 29.29100
C  36.86600 5.49000 27.88900
C  38.16600 6.17700 27.71100
C  35.36800 5.16500 30.15700
C  36.22000 4.61700 26.84800
O  36.61100 4.44300 25.70300
C  34.91200 3.89100 27.21400
N  40.81000 7.64700 27.14800
C  40.12400 6.96700 26.23800
C  40.74300 6.96400 24.80600
C  41.89700 7.92700 25.09000
C  41.84100 8.30400 26.54300
C  41.16400 5.53800 24.25500
C  41.87200 9.16000 24.07800
C  40.91000 10.33200 24.40300
N  42.04900 8.93200 29.46200
C  43.02700 9.23200 28.59400
C  44.16100 9.78400 29.26300
C  43.78100 9.88300 30.56200
C  42.52800 9.28800 30.63400
C  45.46000 10.26500 28.64100
C  44.15600 10.32200 31.84600
O  45.14600 10.88700 32.31400
C  42.90300 10.07900 32.79100
C  43.45200 9.19500 33.86800
O  44.18100 8.20800 33.69100
O  42.75500 9.47800 35.09600
C  43.12300 8.76800 36.26500
H  37.00700 6.40800 31.86000
H  38.54200 5.72100 25.67200
H  43.79300 9.25500 26.60300
H  40.71600 8.25500 34.26800
H  37.75600 8.29200 33.56600
H  39.38800 6.77100 35.14200
H  39.06400 5.74700 33.72500
H  37.73300 6.41800 34.76500
H  39.01600 10.59900 33.37500
H  40.62800 10.77900 34.30600
H  38.77200 9.21200 35.67700
H  37.87300 10.61100 35.14800
H  34.46200 5.38200 29.59100
H  35.18800 5.68300 31.09800
H  35.35800 4.10300 30.40400
H  34.57800 3.11100 26.52900
H  34.10100 4.55700 27.50800
H  35.16600 3.31100 28.10100
H  40.04400 7.32600 24.05200
H  42.81100 7.35700 24.92200
H  40.34100 5.12600 23.67100
H  41.21900 4.78100 25.03700
H  42.12100 5.56200 23.73300
H  41.68500 9.00700 23.01500
H  42.87800 9.56100 24.20200
H  41.42700 11.28800 24.49000
H  40.37200 10.21700 25.34400
H  40.15100 10.40800 23.62500
H  45.34000 10.74200 27.66800
H  46.14200 9.47100 28.33600
H  45.93900 10.83800 29.43400
H  42.58400 11.08500 33.06400
H  42.44200 7.93700 36.44900
H  42.83500 9.49300 37.02600
H  44.17400 8.48500 36.31900

