158

Mg 44.67800 4.34500 47.20600
C  42.82400 7.33600 47.30300
C  41.63500 2.67400 47.36300
C  46.33400 1.50700 46.55300
C  47.56400 6.25000 46.45400
N  42.48800 4.97300 47.12800
C  41.95600 6.25000 47.24300
C  40.47400 6.21500 47.15700
C  40.08900 4.70500 47.39700
C  41.47600 4.02800 47.27400
C  39.34700 4.37300 48.79200
C  39.79600 6.83700 45.86600
C  40.44400 6.89400 44.52400
H  39.80100 6.09800 43.37600
N  44.09000 2.36700 47.08200
C  42.77500 1.89200 47.23100
C  42.83500 0.49700 47.05100
C  44.10300 0.13800 46.53700
C  44.91300 1.35200 46.69600
C  41.58300 -0.45800 47.31600
C  44.47800 -1.19300 45.98100
O  43.70900 -2.14000 46.11800
C  45.82200 -1.54400 45.34300
N  46.69900 3.91200 46.53600
C  47.16100 2.64500 46.48000
C  48.67800 2.65900 46.32800
C  49.14500 4.18400 46.35400
C  47.67500 4.84700 46.46000
C  49.50900 1.82300 47.33500
C  50.04700 4.61500 45.16900
C  51.44700 3.94100 45.07000
N  45.19200 6.37400 47.01800
C  46.38200 7.00800 46.76000
C  46.14100 8.49200 46.59300
C  44.78500 8.60700 46.81500
C  44.26200 7.27300 47.08000
C  47.20300 9.55900 46.31200
C  43.74700 9.53800 46.92100
O  43.77400 10.77100 46.86500
C  42.43200 8.80200 47.24600
C  41.78400 9.20800 48.53400
O  41.88800 8.66500 49.60200
O  40.85400 10.20300 48.34300
C  40.11400 10.67100 49.49500
H  40.68400 2.13800 47.33300
H  46.79100 0.51500 46.56300
H  48.37600 6.97700 46.39000
H  40.13700 6.70100 48.07300
H  39.42800 4.34800 46.60800
H  39.04400 5.29100 49.29600
H  39.97600 3.86000 49.51900
H  38.43500 3.84500 48.51500
H  39.61600 7.89500 46.05500
H  38.85200 6.29800 45.78800
H  41.41200 6.46700 44.78600
H  40.71500 7.88600 44.16200
H  41.15200 -0.89400 46.41500
H  40.88700 0.12700 47.91600
H  41.88800 -1.34600 47.86900
H  46.51800 -1.77000 46.15100
H  46.05300 -0.73600 44.64900
H  45.83500 -2.44800 44.73500
H  48.98400 2.25000 45.36500
H  49.66900 4.45100 47.27100
H  48.97200 1.46900 48.21500
H  50.38700 2.30000 47.77100
H  49.95000 0.99900 46.77400
H  50.11400 5.70300 45.15700
H  49.44600 4.57500 44.26000
H  51.56200 3.32400 45.96100
H  52.33500 4.57000 45.11500
H  51.49100 3.31600 44.17800
H  46.79300 10.56800 46.26900
H  47.49400 9.32900 45.28700
H  47.94900 9.58900 47.10700
H  41.72900 9.02600 46.44300
H  40.14700 11.76100 49.49700
H  40.58700 10.50800 50.46300
H  39.05500 10.41800 49.44300
Mg -3.12900 35.36300 26.51400
C  -4.65000 33.59000 29.09200
C  -1.76000 37.48600 28.88300
C  -1.83200 37.27000 24.00700
C  -4.88700 33.42800 24.17500
N  -3.32200 35.63000 28.75200
C  -3.81400 34.61600 29.58100
C  -3.52500 34.95800 31.09700
C  -2.72400 36.33000 30.93600
C  -2.63800 36.49400 29.42800
C  -3.53500 37.51500 31.55900
C  -2.65800 33.78000 31.78000
C  -3.37500 33.12200 32.99300
H  -2.55800 32.93000 34.25600
N  -2.00000 37.23200 26.44900
C  -1.53400 37.86300 27.54500
C  -0.50000 38.84000 27.10800
C  -0.36300 38.63400 25.67900
C  -1.40400 37.67500 25.31800
C  0.23400 39.76900 28.12800
C  0.55600 39.30500 24.71500
O  0.54300 39.11600 23.52800
C  1.63500 40.17200 25.25300
N  -3.48800 35.48400 24.40600
C  -2.72800 36.28300 23.58600
C  -2.88000 35.94500 22.08200
C  -3.70800 34.61300 22.15500
C  -4.05900 34.46700 23.67000
C  -3.49900 37.09600 21.32700
C  -3.06900 33.34000 21.50800
C  -1.97700 32.60300 22.33500
N  -4.44100 33.77500 26.59200
C  -5.14800 33.11600 25.49400
C  -5.83100 31.97200 26.03600
C  -5.66500 32.10800 27.46800
C  -4.89800 33.26000 27.71400
C  -6.54800 30.90600 25.20300
C  -6.09300 31.58600 28.75500
O  -6.85900 30.63300 29.09200
C  -5.48400 32.59500 29.87500
C  -6.53900 33.09200 30.76600
O  -7.45900 33.85600 30.46400
O  -6.51300 32.35000 31.92200
C  -7.32700 32.75700 33.06400
H  -1.09400 37.95100 29.61300
H  -1.25100 37.78900 23.24300
H  -5.30900 32.78600 23.39900
H  -4.42300 35.17200 31.67700
H  -1.74800 36.27300 31.41800
H  -2.81900 38.04800 32.18300
H  -4.39200 37.22600 32.16800
H  -3.83700 38.25300 30.81500
H  -1.76000 34.17200 32.25600
H  -2.35800 33.01500 31.06400
H  -3.70500 32.15600 32.61200
H  -4.24300 33.68300 33.33900
H  -0.34500 39.92000 29.03900
H  0.33000 40.81900 27.85300
H  1.20300 39.29700 28.29100
H  2.30200 40.49500 24.45400
H  2.14900 39.69000 26.08400
H  1.35300 41.14300 25.65900
H  -1.98400 35.61600 21.55500
H  -4.60500 34.79400 21.56400
H  -3.57900 37.95000 21.99900
H  -4.53100 36.89700 21.03600
H  -2.82100 37.34500 20.51100
H  -2.56800 33.62100 20.58200
H  -3.89100 32.64000 21.35900
H  -1.86200 31.55500 22.05900
H  -2.25500 32.51500 23.38500
H  -1.03800 33.13900 22.19700
H  -6.25700 29.94300 25.62300
H  -6.50000 30.88400 24.11400
H  -7.57700 31.15300 25.46600
H  -4.74000 32.01500 30.42100
H  -6.79300 33.49500 33.66300
H  -7.52100 31.84100 33.62200
H  -8.28000 33.17200 32.73400

