158

Mg 23.76900 -5.00700 45.78000
C  26.04500 -2.76500 44.24400
C  21.32300 -3.83800 43.69500
C  22.07400 -7.65100 46.73300
C  26.67500 -6.60600 47.43200
N  23.76000 -3.53000 44.04100
C  24.77400 -2.68000 43.70500
C  24.28900 -1.55700 42.81800
C  22.81000 -1.79500 42.68200
C  22.56800 -3.14400 43.51500
C  21.84800 -0.71600 43.18000
C  24.95900 -1.59200 41.39900
C  24.96400 -0.26900 40.66900
H  24.45000 -0.20200 39.17600
N  21.87800 -5.60200 45.36400
C  20.99100 -5.03700 44.51000
C  19.79000 -5.76200 44.51300
C  20.02200 -6.95400 45.34600
C  21.38700 -6.79900 45.84700
C  18.64800 -5.26200 43.67900
C  18.96000 -7.95800 45.57800
O  17.78700 -7.81500 45.24700
C  19.25900 -9.21100 46.38900
N  24.34800 -6.92000 46.91100
C  23.35600 -7.73700 47.30800
C  23.94700 -8.97300 47.91400
C  25.38400 -8.64300 48.18100
C  25.53600 -7.29400 47.49200
C  23.15900 -9.44100 49.16400
C  26.39300 -9.69500 47.71300
C  27.49200 -10.04500 48.72200
N  25.89000 -4.71300 45.91300
C  26.85500 -5.42800 46.62200
C  28.05900 -4.71800 46.38900
C  27.82300 -3.71500 45.50000
C  26.47600 -3.74400 45.24700
C  29.38400 -5.15400 46.95200
C  28.40400 -2.60700 44.68400
O  29.62100 -2.22200 44.61900
C  27.28000 -1.96100 43.88100
C  27.21700 -0.54600 44.21000
O  27.26600 -0.04200 45.32700
O  27.18900 0.22200 42.98900
C  27.32100 1.63500 43.16300
H  20.47700 -3.36600 43.19100
H  21.66900 -8.61700 47.04200
H  27.55500 -7.06700 47.88500
H  24.52300 -0.59100 43.26700
H  22.47400 -2.12100 41.69800
H  21.10300 -1.21300 43.80200
H  21.36900 -0.36200 42.26700
H  22.27200 0.14200 43.70100
H  24.41400 -2.29300 40.76700
H  25.96300 -2.00700 41.48400
H  26.02800 -0.05100 40.57900
H  24.59000 0.56900 41.25800
H  17.73900 -5.82900 43.87800
H  18.81900 -5.31300 42.60300
H  18.35100 -4.25200 43.96300
H  19.99600 -9.81900 45.86600
H  18.35500 -9.82000 46.38000
H  19.61100 -8.93700 47.38400
H  23.92600 -9.75200 47.15300
H  25.58900 -8.52600 49.24500
H  23.00200 -10.50500 48.98900
H  22.15100 -9.04400 49.28600
H  23.78600 -9.33300 50.05000
H  26.88400 -9.15900 46.90100
H  26.06100 -10.63300 47.26800
H  27.48600 -11.13200 48.81100
H  27.33400 -9.70500 49.74500
H  28.49800 -9.72300 48.45600
H  29.65000 -6.09600 46.47000
H  29.25900 -5.33800 48.01900
H  30.08700 -4.35700 46.70900
H  27.55900 -2.01800 42.82900
H  26.50900 2.28100 42.82800
H  28.17500 2.05700 42.63500
H  27.55700 1.96900 44.17300
Mg 47.63400 25.16000 28.08000
C  48.17200 27.43500 30.69600
C  46.53900 22.86600 30.46900
C  47.46400 22.93800 25.60700
C  48.88700 27.47700 25.86700
N  47.39100 25.16300 30.27600
C  47.64400 26.26400 31.17400
C  47.32700 25.93500 32.65600
C  46.93900 24.41900 32.49000
C  46.90200 24.12800 30.98900
C  47.92000 23.44100 33.20900
C  46.24100 26.88900 33.18200
C  46.35900 27.32600 34.63100
H  45.11300 27.27700 35.59000
N  47.03800 23.12100 28.00500
C  46.64000 22.37500 29.10500
C  46.07200 21.16100 28.55100
C  46.45800 21.13000 27.13200
C  46.98100 22.41000 26.80800
C  45.38700 20.01400 29.33200
C  46.25000 19.98700 26.16400
O  46.75100 20.01300 25.07200
C  45.37700 18.84200 26.40000
N  48.19000 25.19400 26.08400
C  47.98500 24.15400 25.21000
C  48.32100 24.48700 23.77800
C  48.52100 25.96700 23.85700
C  48.48400 26.21500 25.35200
C  49.39200 23.65300 23.15300
C  47.48900 26.81500 23.10800
C  46.44400 27.64300 23.87400
N  48.25500 27.16100 28.22000
C  48.80700 27.96100 27.20100
C  49.23900 29.23900 27.76900
C  49.01300 29.08000 29.18500
C  48.50800 27.74600 29.38200
C  50.04100 30.32300 27.06600
C  49.14100 29.73400 30.42100
O  49.55700 30.87000 30.68100
C  48.46300 28.75500 31.46100
C  49.38500 28.69500 32.63000
O  50.39800 27.97800 32.79700
O  49.08000 29.70500 33.44300
C  49.84900 29.69600 34.72600
H  46.14900 22.16500 31.20900
H  47.42800 22.23700 24.77000
H  49.20600 28.20200 25.11500
H  48.21300 26.10700 33.26800
H  45.92900 24.26100 32.86600
H  48.31700 22.63100 32.59800
H  47.20900 23.04000 33.93100
H  48.63900 24.07800 33.72500
H  45.29400 26.40700 32.93600
H  46.15600 27.71300 32.47400
H  46.61600 28.38500 34.62800
H  47.09100 26.71400 35.15800
H  45.94500 19.07700 29.31500
H  44.39300 19.85000 28.91500
H  45.20700 20.33200 30.35800
H  45.96300 18.30300 27.14400
H  45.27700 18.22300 25.50900
H  44.42900 19.20900 26.79300
H  47.41500 24.18600 23.25100
H  49.42900 26.26600 23.33300
H  48.87500 23.16300 22.32800
H  49.65900 22.89500 23.89000
H  50.19700 24.23400 22.70400
H  46.96400 26.20200 22.37700
H  47.95000 27.48200 22.37900
H  46.49200 27.55700 24.96000
H  45.48200 27.34500 23.45800
H  46.60200 28.71200 23.73400
H  50.34000 29.89600 26.10800
H  50.80800 30.34800 27.84000
H  49.52900 31.28600 27.06700
H  47.55900 29.24300 31.82800
H  49.68900 30.51400 35.42800
H  50.92400 29.55900 34.61400
H  49.50500 28.76000 35.16600

