158

Mg 0.04900 7.77700 26.01100
C  1.15400 9.71600 28.56200
C  0.07000 4.98300 28.06300
C  -0.35000 5.85200 23.20500
C  0.60800 10.46500 23.84900
N  0.48200 7.41300 28.07300
C  0.84800 8.39500 28.95200
C  0.86500 7.78500 30.39400
C  0.74800 6.27800 30.10500
C  0.37500 6.20800 28.69900
C  2.07600 5.55000 30.42200
C  -0.42100 8.33800 31.11200
C  -0.40000 8.00800 32.62900
H  0.85700 7.95100 33.38200
N  -0.21200 5.67300 25.70300
C  -0.27300 4.73400 26.68900
C  -0.58700 3.46500 26.07400
C  -0.65500 3.63300 24.64300
C  -0.43100 5.11600 24.46900
C  -0.78500 2.18100 26.90100
C  -0.86200 2.60300 23.51000
O  -1.14600 2.80900 22.32600
C  -0.78200 1.13700 23.81700
N  0.25400 8.07900 23.77300
C  -0.00500 7.14800 22.86900
C  -0.23100 7.71600 21.44900
C  0.12200 9.22400 21.66500
C  0.31300 9.29500 23.15600
C  0.63200 7.12100 20.32500
C  -1.01400 10.23800 21.11900
C  -2.27500 10.43700 22.00400
N  0.68000 9.69300 26.09600
C  0.74800 10.70600 25.19000
C  1.12000 11.99600 25.79600
C  1.34200 11.64300 27.17700
C  1.07000 10.22800 27.29600
C  1.22900 13.30800 25.13900
C  1.64200 12.15800 28.37000
O  2.12000 13.25100 28.65200
C  1.50100 10.94700 29.40000
C  2.66600 10.76500 30.22600
O  3.75100 10.34300 29.86900
O  2.40700 11.21000 31.46000
C  3.52600 11.19900 32.42700
H  -0.07000 4.15800 28.76500
H  -0.51000 5.24900 22.30900
H  0.67500 11.29000 23.13700
H  1.76600 8.06100 30.94200
H  -0.03700 5.87200 30.74200
H  1.94300 5.02600 31.36900
H  2.84200 6.32500 30.44400
H  2.29100 4.84700 29.61800
H  -1.27200 7.86000 30.62700
H  -0.55700 9.41400 31.00100
H  -0.93000 7.06600 32.76900
H  -0.96500 8.74300 33.20200
H  -1.40100 2.36400 27.78200
H  0.18700 1.71400 27.06400
H  -1.30000 1.42800 26.30500
H  -1.61000 0.67400 24.35300
H  0.10700 0.97300 24.42600
H  -0.59500 0.60100 22.88600
H  -1.28000 7.54400 21.20700
H  1.06200 9.36900 21.13100
H  0.03200 6.45500 19.70500
H  1.46500 6.54000 20.72100
H  0.96800 7.80300 19.54300
H  -1.57900 9.91100 20.24600
H  -0.44100 11.16300 21.06200
H  -3.23700 10.38200 21.49500
H  -2.22000 11.40700 22.49900
H  -2.35300 9.67500 22.77900
H  0.60700 14.00300 25.70500
H  0.75700 13.17300 24.16600
H  2.29000 13.55200 25.17400
H  0.60100 11.23100 29.94500
H  3.41600 12.21900 32.79500
H  4.56900 11.12200 32.11800
H  3.35400 10.51500 33.25800
Mg 29.71200 58.66300 40.59600
C  26.96900 56.62200 39.72900
C  31.79200 56.16700 39.30200
C  32.26500 60.83800 40.55200
C  27.45200 61.39400 41.01000
N  29.38200 56.49200 39.87900
C  28.19300 55.94700 39.53600
C  28.40300 54.65400 38.61800
C  29.93700 54.40500 38.72000
C  30.45300 55.72700 39.43200
C  30.36200 53.09900 39.42200
C  28.00300 54.82300 37.15100
C  27.16600 53.80200 36.37400
H  27.18100 53.74200 34.79400
N  31.79200 58.45900 40.11400
C  32.44000 57.37900 39.58500
C  33.90500 57.70300 39.45200
C  34.04300 58.99200 39.99200
C  32.66500 59.47900 40.28600
C  35.00000 56.73300 39.12600
C  35.37200 59.76300 40.12100
O  36.42700 59.23000 39.87900
C  35.43700 61.24400 40.51500
N  29.86100 60.80800 40.70700
C  31.05400 61.42200 40.71700
C  30.91000 62.95600 40.96600
C  29.35400 63.15200 41.18000
C  28.81800 61.67200 41.00200
C  31.72200 63.59700 42.07400
C  28.83200 64.29600 40.21800
C  27.56700 64.99900 40.81900
N  27.63800 58.90900 40.65300
C  26.89900 60.08200 40.72600
C  25.47700 59.74300 40.72300
C  25.47700 58.43600 40.19500
C  26.79300 57.96700 40.27600
C  24.34700 60.71300 41.02300
C  24.63900 57.37600 39.58300
O  23.44500 57.40600 39.29800
C  25.54000 56.13100 39.29300
C  25.01500 54.92700 39.99900
O  25.30100 54.61500 41.18300
O  24.16300 54.27200 39.07500
C  23.68600 52.90200 39.49900
H  32.42700 55.52900 38.68400
H  32.99200 61.64600 40.45000
H  26.80500 62.25500 41.18800
H  27.89300 53.89600 39.21200
H  30.48900 54.40300 37.78000
H  31.06200 53.43100 40.18800
H  30.90500 52.32800 38.87500
H  29.58200 52.65400 40.04000
H  28.89900 55.13700 36.61700
H  27.37900 55.71400 37.21600
H  26.13300 53.89500 36.71000
H  27.52400 52.82400 36.69700
H  35.32200 56.34700 40.09400
H  35.87100 57.19900 38.66700
H  34.71400 55.97300 38.39900
H  35.08300 61.37700 41.53700
H  34.87200 61.70300 39.70400
H  36.49600 61.50100 40.48600
H  31.12800 63.45700 40.02300
H  29.14900 63.46600 42.20400
H  32.53100 64.21800 41.69100
H  32.16100 62.79200 42.66300
H  31.19100 64.26200 42.75600
H  28.56400 63.84200 39.26400
H  29.58600 65.06000 40.03300
H  27.75400 66.05300 40.61400
H  27.44400 64.85400 41.89300
H  26.69900 64.57400 40.31600
H  24.21900 61.34100 40.14100
H  24.54200 61.32400 41.90500
H  23.38900 60.26800 41.29300
H  25.53800 55.92400 38.22300
H  22.60400 52.76500 39.49000
H  24.20700 52.60100 40.40700
H  24.02500 52.42200 38.58100

