158

Mg 47.65700 25.81700 29.91500
C  48.73500 28.19100 32.12100
C  46.42400 23.86400 32.39600
C  47.05900 23.34200 27.70600
C  49.27900 27.56100 27.32800
N  47.56300 26.08900 31.95200
C  47.98100 27.16200 32.67500
C  47.46000 27.16300 34.13100
C  46.94200 25.65400 34.24200
C  46.95700 25.15800 32.76200
C  47.82800 24.71200 35.17700
C  46.26500 28.08300 34.48100
C  45.77700 28.18300 35.94400
H  46.70500 27.66100 37.06800
N  46.78900 23.83800 30.03100
C  46.32200 23.22700 31.17700
C  45.90200 21.86900 30.86600
C  45.80300 21.83100 29.49200
C  46.52000 23.06200 28.95100
C  45.21200 21.05100 31.91200
C  45.23600 20.75100 28.62100
O  45.31100 20.71900 27.35800
C  44.58100 19.58800 29.26700
N  48.06500 25.54000 27.80700
C  47.71100 24.45000 27.14900
C  47.94700 24.55000 25.66500
C  48.59700 25.93700 25.46900
C  48.59100 26.39800 26.94700
C  48.81000 23.35400 25.10500
C  47.85600 26.86900 24.43200
C  48.71900 27.34500 23.29900
N  48.77400 27.56100 29.71100
C  49.39900 28.13600 28.59600
C  50.01300 29.40500 29.07600
C  49.69200 29.49900 30.40100
C  49.06100 28.30900 30.74600
C  50.68500 30.45100 28.20900
C  49.78700 30.37800 31.58500
O  50.24200 31.52900 31.79700
C  49.26000 29.50600 32.81600
C  50.34500 29.31300 33.82900
O  51.24000 28.54000 33.68000
O  50.01400 30.01200 34.93700
C  50.74600 29.66400 36.20700
H  46.03000 23.20100 33.16900
H  46.93900 22.52000 26.99700
H  49.66000 28.11900 26.47000
H  48.23300 27.30900 34.88500
H  45.94600 25.68000 34.68300
H  48.26300 23.86400 34.64900
H  47.06300 24.17000 35.73400
H  48.61600 25.15200 35.78800
H  45.41300 27.76800 33.87800
H  46.56500 29.11900 34.32500
H  44.86700 27.59300 36.06100
H  45.53700 29.24500 35.97600
H  44.13700 20.97500 31.74700
H  45.21400 21.39400 32.94700
H  45.70700 20.08400 31.99400
H  45.18600 19.10000 30.03200
H  44.18800 18.88800 28.52900
H  43.73900 19.98700 29.83300
H  46.92300 24.54300 25.29100
H  49.65300 25.78300 25.24500
H  48.35100 22.39600 25.34800
H  49.78400 23.38800 25.59200
H  48.93600 23.57000 24.04400
H  47.50300 27.80100 24.87300
H  46.94800 26.31200 24.20000
H  48.19400 27.08200 22.38100
H  49.70800 26.89500 23.38900
H  48.75600 28.43400 23.30500
H  51.03900 29.98300 27.29000
H  51.55900 30.88400 28.69500
H  50.07400 31.26800 27.82600
H  48.38100 29.97100 33.26200
H  51.38800 30.47900 36.54100
H  51.46400 28.85000 36.10200
H  50.00900 29.37100 36.95500
Mg -12.27900 16.00600 41.69000
C  -9.46000 14.04700 40.96000
C  -10.48200 18.74600 40.39900
C  -15.12600 17.55200 41.20500
C  -13.93000 13.07900 42.69300
N  -10.19000 16.30000 40.69900
C  -9.20100 15.39000 40.57200
C  -7.89900 15.99300 39.89000
C  -8.24500 17.45900 39.82600
C  -9.71800 17.53100 40.33400
C  -7.29900 18.38500 40.69000
C  -7.66100 15.34700 38.51000
C  -6.23000 14.93300 38.13900
H  -5.51800 15.67100 37.04900
N  -12.77000 17.95000 41.10600
C  -11.88800 18.86400 40.59100
C  -12.66300 20.05500 40.38200
C  -14.00900 19.70300 40.45900
C  -14.05300 18.35700 40.93800
C  -12.00300 21.33100 40.03200
C  -15.26500 20.62700 40.12400
O  -15.05800 21.77900 39.72300
C  -16.74600 20.08200 40.16300
N  -14.19500 15.43300 42.04500
C  -15.23500 16.24800 41.74400
C  -16.59800 15.53100 41.80600
C  -16.25400 14.07300 42.39400
C  -14.71500 14.18500 42.41600
C  -17.84700 16.26800 42.61000
C  -16.87600 12.99600 41.59600
C  -17.57500 11.91500 42.54800
N  -11.80500 13.97600 41.92700
C  -12.59000 12.93800 42.43300
C  -11.75800 11.73200 42.52900
C  -10.55400 12.10500 41.88900
C  -10.65100 13.48100 41.47100
C  -12.11000 10.35300 43.00200
C  -9.28500 11.61700 41.51600
O  -8.87500 10.50600 41.61100
C  -8.55700 12.83100 40.84100
C  -7.27900 13.05800 41.50200
O  -7.11300 13.13600 42.72100
O  -6.25500 13.05800 40.64000
C  -4.86300 13.33300 41.06500
H  -9.99500 19.66900 40.07700
H  -16.14400 17.94000 41.13200
H  -14.52500 12.27800 43.13600
H  -7.05300 15.90800 40.57200
H  -8.05600 17.81600 38.81400
H  -6.69600 18.89700 39.94000
H  -6.75000 17.91700 41.50700
H  -7.96200 19.15200 41.09100
H  -7.96500 16.00300 37.69500
H  -8.22200 14.42300 38.37100
H  -6.27900 13.87300 37.89000
H  -5.61100 15.10500 39.01900
H  -11.71000 21.38000 38.98300
H  -11.11000 21.43700 40.64800
H  -12.62300 22.20000 40.24900
H  -17.53700 20.66300 39.68800
H  -16.96600 19.98700 41.22600
H  -16.75900 19.13000 39.63400
H  -17.01900 15.41700 40.80700
H  -16.43600 13.96500 43.46400
H  -17.83000 15.87100 43.62500
H  -18.70100 15.94900 42.01300
H  -17.70800 17.34600 42.52600
H  -16.04200 12.57900 41.03300
H  -17.54300 13.33000 40.80100
H  -16.90400 11.45500 43.27300
H  -17.96300 11.15700 41.86700
H  -18.42800 12.37900 43.04400
H  -12.74100 10.44200 43.88600
H  -11.24400 9.77300 43.32300
H  -12.69400 9.99200 42.15500
H  -8.44100 12.66500 39.77100
H  -4.52600 12.52000 41.70800
H  -4.81000 14.25700 41.64100
H  -4.24600 13.50300 40.18200

