158

Mg 25.57200 0.16000 28.59700
C  27.36600 -0.03100 31.59300
C  22.68100 0.04200 30.44900
C  23.65700 0.03700 25.71100
C  28.43500 -0.32100 26.81300
N  25.12800 -0.16400 30.85200
C  26.01100 0.03800 31.87000
C  25.35800 0.14900 33.23900
C  23.89400 0.03200 32.86600
C  23.88500 -0.04700 31.28700
C  23.19700 -1.14600 33.72700
C  25.69400 1.44300 34.11200
C  25.96200 1.03700 35.63500
H  26.40100 2.13800 36.58600
N  23.49600 0.13900 28.14000
C  22.48600 0.13400 29.07800
C  21.16500 0.26800 28.44700
C  21.50100 0.15200 27.01000
C  22.92600 0.05900 26.89000
C  19.90000 0.33900 29.22200
C  20.56400 0.14700 25.79400
O  20.96900 -0.18700 24.65500
C  19.12900 0.31900 26.02800
N  25.97500 -0.06200 26.55300
C  25.04500 -0.06500 25.51600
C  25.79300 -0.01700 24.16700
C  27.23700 0.16600 24.48800
C  27.29000 -0.05400 26.02300
C  25.45300 -1.28300 23.32000
C  27.99800 1.46900 24.07400
C  27.59200 2.80200 24.76100
N  27.55300 -0.15700 29.06300
C  28.62700 -0.37400 28.20400
C  29.84000 -0.57800 28.99800
C  29.41300 -0.41700 30.34100
C  28.01200 -0.13900 30.33800
C  31.16800 -0.85000 28.44100
C  29.87000 -0.36800 31.71000
O  30.96700 -0.60300 32.20800
C  28.50500 -0.05200 32.60400
C  28.30400 -1.04100 33.65500
O  27.68100 -2.10700 33.56200
O  29.02000 -0.66600 34.79200
C  29.18900 -1.70600 35.77200
H  21.75600 0.01700 31.02800
H  23.25200 0.10700 24.69900
H  29.22200 -0.30200 26.05500
H  25.62800 -0.74300 33.80500
H  23.37400 0.94300 33.16500
H  22.32900 -0.92100 34.34600
H  23.96100 -1.62000 34.34400
H  22.76400 -1.86200 33.02900
H  24.88300 2.17100 34.12400
H  26.59100 1.89700 33.69000
H  26.65500 0.19800 35.69600
H  25.01900 0.66900 36.03900
H  20.04400 0.89200 30.15000
H  19.56400 -0.66700 29.47300
H  19.12800 0.81400 28.61700
H  18.75200 -0.32000 26.82600
H  18.54800 0.17400 25.11700
H  18.89200 1.35500 26.27300
H  25.47400 0.86000 23.60400
H  27.68000 -0.67400 23.95300
H  24.73400 -1.11700 22.51700
H  25.00200 -2.14800 23.80600
H  26.31500 -1.65000 22.76200
H  27.84700 1.66500 23.01200
H  29.04900 1.23100 24.23900
H  28.36100 2.95100 25.52000
H  26.58800 2.69800 25.17200
H  27.58900 3.65300 24.08000
H  32.03000 -0.47600 28.99300
H  31.18100 -0.40000 27.44800
H  31.13100 -1.93900 28.41800
H  28.67600 0.94200 33.01800
H  28.43900 -1.53600 36.54500
H  30.09500 -1.65000 36.37400
H  29.07000 -2.73100 35.42000
Mg 47.47800 34.29700 28.31100
C  45.77400 32.40900 30.76300
C  47.34000 36.99300 30.64700
C  48.28200 36.31600 25.97100
C  46.94000 31.66800 26.04700
N  46.60300 34.64700 30.45300
C  46.09600 33.66000 31.29700
C  46.04900 34.21400 32.76900
C  45.94200 35.77300 32.49600
C  46.67500 35.84000 31.09200
C  44.64000 36.47500 32.60800
C  47.35800 33.78800 33.43500
C  47.19700 33.33600 34.93600
H  46.29100 34.30300 35.84900
N  47.93600 36.29900 28.30300
C  47.83100 37.25500 29.33300
C  48.56500 38.46600 28.90000
C  49.02700 38.18100 27.57400
C  48.37600 36.93300 27.17700
C  48.82000 39.55500 29.86900
C  49.92000 39.05100 26.61700
O  50.11400 38.78900 25.44400
C  50.45500 40.35100 27.10200
N  47.51400 33.99100 26.25300
C  47.82700 35.03500 25.47100
C  47.95900 34.67800 23.98500
C  47.66200 33.17200 24.07200
C  47.39100 32.86700 25.51400
C  47.06800 35.47700 22.93900
C  48.70500 32.18100 23.52300
C  48.59100 31.52400 22.14200
N  46.65000 32.33400 28.41800
C  46.48000 31.41800 27.36800
C  45.85000 30.23000 27.88600
C  45.45100 30.54000 29.20800
C  46.04500 31.84500 29.48300
C  45.52000 28.97100 27.11400
C  44.78000 30.10200 30.40900
O  44.06800 29.21600 30.64600
C  44.80500 31.36800 31.36100
C  44.87800 31.05100 32.79400
O  45.67300 30.33600 33.35100
O  43.81500 31.72200 33.39700
C  43.67400 31.79700 34.83300
H  47.34900 37.80900 31.37300
H  48.77100 36.76600 25.10400
H  46.82300 30.88400 25.29600
H  45.22200 33.79200 33.33900
H  46.53200 36.28700 33.25400
H  44.00900 35.79300 33.17800
H  44.25700 36.62200 31.59800
H  44.83900 37.35700 33.21600
H  48.21400 34.46100 33.38400
H  47.73200 32.88800 32.94800
H  48.17400 33.35400 35.41900
H  46.90900 32.28600 34.98300
H  49.89900 39.69200 29.81200
H  48.70300 39.38500 30.93900
H  48.29500 40.43400 29.49400
H  51.05000 40.05800 27.96700
H  49.68800 41.08600 27.34500
H  51.15300 40.65400 26.32200
H  48.94400 34.84100 23.54700
H  46.68900 32.88900 23.67200
H  46.28300 34.82300 22.55900
H  47.65000 35.81100 22.08000
H  46.54900 36.27400 23.47300
H  48.90500 31.33500 24.18200
H  49.63900 32.70800 23.72100
H  47.75000 31.96300 21.60500
H  48.58700 30.45100 22.33600
H  49.42400 31.70200 21.46300
H  46.20500 28.74700 26.29600
H  44.49600 29.07600 26.75500
H  45.65300 28.18700 27.86000
H  43.80600 31.80300 31.31500
H  42.93200 31.05300 35.12300
H  43.23000 32.78000 34.98300
H  44.51000 31.72200 35.52900

