158

Mg 55.68400 24.52300 44.67100
C  52.96600 26.45400 43.72800
C  53.89100 21.71000 43.33600
C  58.44900 22.91400 44.89900
C  57.20900 27.48700 45.97700
N  53.78000 24.15100 43.52500
C  52.87000 25.11700 43.22800
C  51.67100 24.52700 42.55800
C  51.75400 23.07600 42.99800
C  53.22000 22.93200 43.31300
C  50.81700 22.69300 44.14500
C  51.62300 24.76500 41.00100
C  50.17000 24.58200 40.48100
H  49.96400 24.81000 38.95100
N  56.08400 22.60000 44.08200
C  55.27100 21.58300 43.64600
C  55.99600 20.30500 43.55900
C  57.32700 20.64600 44.00300
C  57.34400 22.08900 44.36400
C  55.43300 18.94900 43.10500
C  58.44100 19.65300 44.13800
O  58.38400 18.60800 43.52800
C  59.65300 19.92700 44.84200
N  57.58400 25.09700 45.39900
C  58.61600 24.18000 45.38500
C  59.91400 24.83600 45.85500
C  59.50400 26.31700 46.19400
C  58.00200 26.32000 45.87800
C  60.52500 24.14500 47.12800
C  60.35300 27.50600 45.40800
C  60.80500 28.79700 46.22500
N  55.19800 26.57100 44.96500
C  55.89800 27.64200 45.51300
C  55.05400 28.80000 45.38600
C  53.84700 28.37900 44.73500
C  54.06200 27.05300 44.44300
C  55.44000 30.17900 45.88300
C  52.60500 28.79100 44.31300
O  52.11800 29.86900 44.38700
C  51.88900 27.56400 43.60700
C  51.49100 27.97000 42.24500
O  52.27600 28.20100 41.33800
O  50.08700 28.11000 42.17000
C  49.57600 28.48100 40.76300
H  53.32300 20.83600 43.01200
H  59.44100 22.46300 44.96800
H  57.68100 28.38500 46.38200
H  50.76200 24.98800 42.94200
H  51.54400 22.39600 42.17200
H  51.46300 22.61900 45.02000
H  50.47300 21.67800 43.94700
H  50.03400 23.41600 44.37500
H  52.22400 24.02100 40.47800
H  52.03100 25.74300 40.74300
H  49.56500 25.41500 40.83800
H  49.79200 23.58700 40.71800
H  55.24700 18.22700 43.90000
H  56.15400 18.45800 42.45200
H  54.49800 19.05100 42.55400
H  60.22300 20.56200 44.16500
H  60.15500 18.96800 44.97400
H  59.42300 20.42700 45.78300
H  60.69200 24.78700 45.09300
H  59.55000 26.50400 47.26600
H  60.18600 23.13400 47.35200
H  60.46200 24.66600 48.08300
H  61.59400 24.19300 46.92000
H  59.90600 27.81600 44.46300
H  61.33200 27.09700 45.16000
H  60.22400 28.83400 47.14700
H  60.69300 29.73300 45.67900
H  61.84100 28.69400 46.54800
H  56.39000 30.08900 46.41100
H  54.79900 30.66700 46.61700
H  55.58200 30.92400 45.10000
H  51.01900 27.21500 44.16300
H  49.15200 29.48300 40.68900
H  48.86600 27.69600 40.50200
H  50.34500 28.51600 39.99200
Mg -5.71300 25.61900 26.16300
C  -4.78800 27.20800 29.22400
C  -7.67800 23.61900 27.96600
C  -6.44700 24.11000 23.37600
C  -3.35400 27.64000 24.55300
N  -6.11200 25.45200 28.29900
C  -5.69100 26.17800 29.37600
C  -6.37400 25.73900 30.65900
C  -7.05600 24.34300 30.32600
C  -6.92600 24.40700 28.71900
C  -6.41600 23.12300 30.93600
C  -7.35800 26.68700 31.34700
C  -7.09800 26.97800 32.84200
H  -6.49000 25.92200 33.74900
N  -6.90700 24.05300 25.71300
C  -7.76300 23.43200 26.58400
C  -8.74400 22.56100 25.87900
C  -8.28100 22.68700 24.53900
C  -7.17400 23.63200 24.48200
C  -10.06400 21.96500 26.42500
C  -8.81500 21.99800 23.31700
O  -8.36700 22.23800 22.16900
C  -10.06500 21.13400 23.40300
N  -4.92400 25.79400 24.30200
C  -5.42600 25.08800 23.26700
C  -4.68200 25.30600 21.96900
C  -3.58200 26.43700 22.30000
C  -3.92100 26.63000 23.83600
C  -4.12000 24.03600 21.37600
C  -3.79600 27.69700 21.34800
C  -3.13300 27.46900 19.96900
N  -4.32900 27.14000 26.64600
C  -3.44400 27.94100 25.88900
C  -2.92700 28.97500 26.73900
C  -3.39200 28.77300 28.08300
C  -4.23600 27.61900 28.02000
C  -1.98000 30.12400 26.30100
C  -3.29000 29.14200 29.51500
O  -2.54800 29.99300 30.02400
C  -4.25800 28.25500 30.26300
C  -3.41200 27.65800 31.37400
O  -2.48300 26.87000 31.19200
O  -3.85100 28.10900 32.60000
C  -2.91700 27.75700 33.68400
H  -8.33500 22.92800 28.49800
H  -6.63400 23.74400 22.36400
H  -2.67100 28.38900 24.14700
H  -5.55800 25.69100 31.38000
H  -8.10000 24.22000 30.61300
H  -6.28700 22.46800 30.07400
H  -7.13100 22.80100 31.69300
H  -5.42700 23.26100 31.37300
H  -8.36700 26.28900 31.23700
H  -7.27900 27.56500 30.70600
H  -8.04200 27.27800 33.29800
H  -6.43700 27.83300 32.98300
H  -10.96900 22.35400 25.95800
H  -10.31900 22.21400 27.45500
H  -9.99700 20.87800 26.44800
H  -9.82400 20.43700 24.20600
H  -10.21600 20.64500 22.44100
H  -11.02600 21.52500 23.73500
H  -5.43400 25.84200 21.39000
H  -2.61600 25.93400 22.25000
H  -3.07400 24.26000 21.16400
H  -4.61600 23.74400 20.45000
H  -4.19500 23.19100 22.05900
H  -3.44300 28.57600 21.88600
H  -4.86000 27.89200 21.21500
H  -3.36500 28.38800 19.43000
H  -3.69600 26.64000 19.54200
H  -2.04900 27.37500 19.89800
H  -2.12600 30.32100 25.23900
H  -1.00000 29.65000 26.34900
H  -2.02700 30.99700 26.95200
H  -5.06000 28.91600 30.59400
H  -2.39900 26.80000 33.62000
H  -3.45300 27.91500 34.62000
H  -2.12500 28.50500 33.66000

