158

Mg 54.75200 23.56200 45.09700
C  52.12000 25.78200 43.87500
C  52.50900 21.11900 44.31200
C  57.31700 21.44800 45.35000
C  56.69200 26.20000 45.71600
N  52.52100 23.52200 44.08200
C  51.68600 24.51500 43.73300
C  50.34700 23.99500 43.31800
C  50.36300 22.51100 43.86800
C  51.89800 22.32700 44.05100
C  49.59300 22.27200 45.09600
C  50.18300 24.01400 41.81900
C  48.84000 24.41900 41.31100
H  48.48500 24.10800 39.85800
N  54.90500 21.52900 44.97600
C  53.86200 20.71700 44.62700
C  54.30200 19.36800 44.63500
C  55.69300 19.32100 44.94200
C  56.04900 20.80500 45.09300
C  53.41600 18.21100 44.19100
C  56.56700 18.06500 44.95700
O  56.10300 16.93800 44.81400
C  58.05200 18.14300 45.33200
N  56.72000 23.78500 45.41900
C  57.58000 22.77800 45.58500
C  58.89100 23.29700 46.13200
C  58.63800 24.81600 46.39800
C  57.24800 24.96300 45.86000
C  59.36600 22.45500 47.37300
C  59.67600 25.73200 45.67900
C  60.45100 26.67700 46.62700
N  54.58000 25.63700 44.78600
C  55.41500 26.58400 45.20800
C  54.72300 27.86800 45.16100
C  53.54500 27.57300 44.51000
C  53.41000 26.21000 44.36500
C  55.34600 29.13500 45.63200
C  52.31400 28.23300 44.08000
O  51.94100 29.38900 44.15400
C  51.32800 27.07700 43.58200
C  51.27300 27.28300 42.06500
O  52.16300 27.12400 41.27200
O  50.00100 27.74700 41.78100
C  49.83300 28.23000 40.39900
H  51.83800 20.26900 44.17800
H  58.13700 20.78500 45.63300
H  57.40600 26.99400 45.94400
H  49.59800 24.54500 43.88800
H  50.23900 21.68600 43.16700
H  49.13000 21.28500 45.07000
H  48.79700 23.00900 45.20000
H  50.24900 22.37200 45.96100
H  50.46300 23.01900 41.47300
H  50.88400 24.76000 41.44600
H  48.68700 25.49200 41.42800
H  48.17700 23.83000 41.94500
H  53.57000 18.06600 43.12200
H  52.34900 18.36100 44.35400
H  53.73100 17.24600 44.58700
H  58.77300 18.55600 44.62800
H  58.37400 17.13900 45.61100
H  58.15200 18.67800 46.27700
H  59.60000 23.17600 45.31300
H  58.55700 24.95500 47.47600
H  58.66200 21.62500 47.44400
H  59.47200 23.15000 48.20600
H  60.30200 21.97500 47.08700
H  59.22600 26.22700 44.81800
H  60.47800 25.04500 45.41000
H  60.20600 27.65900 46.22200
H  61.53800 26.59500 46.64500
H  60.18500 26.55800 47.67700
H  54.60300 29.88600 45.89700
H  56.11200 29.52500 44.96100
H  55.79400 28.93400 46.60500
H  50.38000 27.10200 44.12000
H  48.97800 28.90500 40.44100
H  49.63300 27.40000 39.72300
H  50.60600 28.83000 39.92000
Mg 47.46500 24.85300 27.74900
C  48.09300 27.26400 30.16300
C  46.65400 22.76900 30.36400
C  46.47400 22.59100 25.55600
C  48.67900 26.98100 25.24700
N  47.22300 25.07600 29.99800
C  47.51500 26.17500 30.74600
C  47.26500 25.96500 32.26700
C  47.05100 24.41500 32.32900
C  47.07900 24.04800 30.81700
C  48.07200 23.56400 33.19100
C  46.18100 26.91000 33.02300
C  45.48200 26.40000 34.31000
H  45.55400 27.37900 35.45300
N  46.81300 22.91600 27.95700
C  46.54100 22.14000 29.09400
C  46.10100 20.76800 28.80400
C  45.89900 20.84000 27.38000
C  46.44300 22.11400 26.90000
C  45.79000 19.67900 29.82600
C  45.24800 19.70100 26.49800
O  45.15700 19.82000 25.26200
C  44.60600 18.54000 27.16800
N  47.67900 24.73800 25.67900
C  47.02000 23.79500 24.99600
C  47.33700 24.02600 23.51800
C  47.83400 25.46800 23.46600
C  48.07700 25.76400 24.86400
C  48.19400 22.96900 22.74500
C  46.91900 26.50900 22.63500
C  47.64900 27.30500 21.58100
N  48.38000 26.64300 27.71300
C  48.81600 27.42500 26.59600
C  49.35900 28.70800 27.05900
C  49.04900 28.68600 28.48400
C  48.45800 27.44800 28.77400
C  50.23400 29.77400 26.24400
C  49.26200 29.43900 29.73000
O  49.90900 30.40200 29.98500
C  48.52900 28.53300 30.91300
C  49.51600 28.22500 32.01900
O  50.56100 27.67400 31.93000
O  49.07800 28.89600 33.08700
C  49.72600 28.60200 34.37000
H  46.49300 22.15500 31.25300
H  46.15800 21.99700 24.69600
H  48.99500 27.74200 24.53100
H  48.18200 26.16200 32.82300
H  46.05000 24.29900 32.74600
H  47.56700 22.96400 33.94900
H  48.82100 24.23400 33.61200
H  48.56200 22.88500 32.49300
H  45.39600 27.15000 32.30600
H  46.64600 27.85200 33.31300
H  46.00200 25.49300 34.61700
H  44.46500 26.13400 34.02000
H  46.35600 18.75300 29.72100
H  44.71100 19.52100 29.83800
H  45.86500 20.12500 30.81700
H  43.80400 18.84700 27.83900
H  45.40700 18.09400 27.75700
H  44.27500 17.83300 26.40700
H  46.29500 24.02000 23.19700
H  48.85000 25.48000 23.07000
H  48.70600 22.26500 23.40000
H  48.89500 23.43300 22.05100
H  47.63200 22.38200 22.01900
H  46.45500 27.28100 23.24900
H  46.12900 25.88100 22.22300
H  47.72900 26.80600 20.61500
H  48.66200 27.40400 21.96900
H  47.09800 28.24500 21.56100
H  49.83300 29.97200 25.25000
H  51.23100 29.35500 26.10500
H  50.24500 30.62600 26.92400
H  47.75100 29.21100 31.26400
H  49.37500 27.64100 34.74500
H  49.56200 29.42400 35.06700
H  50.79900 28.45100 34.25500

