158

Mg -1.44400 17.14300 26.19500
C  -1.55300 14.91700 28.95500
C  -1.91100 19.64200 28.50200
C  -1.61200 19.15900 23.64900
C  -1.48600 14.27900 24.11000
N  -1.63700 17.19700 28.40400
C  -1.50900 16.22200 29.38400
C  -1.79500 16.83300 30.79100
C  -2.41600 18.27000 30.46200
C  -2.00800 18.38400 29.02700
C  -3.93200 18.28300 30.62100
C  -0.63100 16.87700 31.83300
C  -1.12400 16.37900 33.29900
H  -0.05600 16.06800 34.47200
N  -1.62100 19.21300 26.03600
C  -1.73000 20.06900 27.09800
C  -1.68700 21.40200 26.61600
C  -1.61300 21.31200 25.22400
C  -1.64700 19.88300 24.90200
C  -1.69700 22.58600 27.56900
C  -1.43500 22.41900 24.13000
O  -1.30700 22.24200 22.89100
C  -1.26900 23.79400 24.69500
N  -1.40000 16.77000 24.21700
C  -1.60200 17.75800 23.29700
C  -1.69100 17.25600 21.93000
C  -1.38400 15.72000 22.05200
C  -1.34900 15.53100 23.55100
C  -3.09600 17.60200 21.18100
C  0.00900 15.20400 21.41700
C  -0.14800 14.83100 19.95900
N  -1.52100 15.07200 26.43500
C  -1.65900 14.01000 25.48500
C  -1.74600 12.71300 26.13100
C  -1.72900 12.98700 27.52900
C  -1.52100 14.43900 27.67700
C  -1.94800 11.39200 25.52200
C  -1.81600 12.37900 28.88300
O  -1.90700 11.18400 29.22600
C  -1.82900 13.63800 29.87900
C  -0.90000 13.47000 30.95900
O  0.34100 13.57700 30.98000
O  -1.56100 13.04200 32.00500
C  -0.76600 12.38900 33.06700
H  -2.00200 20.31200 29.35900
H  -1.77700 19.74300 22.74100
H  -1.62000 13.41300 23.45800
H  -2.62600 16.22700 31.15400
H  -2.05300 19.03300 31.15100
H  -4.32000 17.31600 30.94100
H  -4.44400 18.59000 29.70900
H  -4.25300 18.94000 31.43000
H  -0.35800 17.92500 31.95600
H  0.29600 16.41300 31.49600
H  -1.53100 15.39400 33.07000
H  -1.89300 17.05900 33.66300
H  -2.02100 22.40900 28.59400
H  -2.30500 23.41800 27.21300
H  -0.64000 22.85100 27.61400
H  -0.54700 23.87600 25.50700
H  -2.24300 24.07400 25.09700
H  -0.97300 24.51200 23.93000
H  -0.96800 17.71900 21.25900
H  -2.25400 15.14800 21.72900
H  -2.84600 18.00500 20.19900
H  -3.68400 18.35300 21.70900
H  -3.68500 16.69700 21.03100
H  0.39600 14.39300 22.03500
H  0.77900 15.97500 21.43900
H  0.49400 15.47100 19.35300
H  -1.14500 14.80700 19.51700
H  0.44800 13.92700 19.83800
H  -0.98700 10.98200 25.21000
H  -2.48600 11.54000 24.58600
H  -2.57300 10.85800 26.23800
H  -2.79200 13.79400 30.36600
H  -1.54200 11.97800 33.71300
H  -0.24300 13.14400 33.65300
H  -0.02200 11.70200 32.66400
Mg 17.20100 -2.25900 27.47900
C  16.54900 -0.00500 30.19100
C  19.13500 -4.09600 29.54400
C  18.51800 -3.77100 24.71700
C  15.70700 0.19900 25.36400
N  17.83600 -2.00700 29.58000
C  17.37200 -1.12000 30.58800
C  17.97400 -1.38000 31.98700
C  18.94900 -2.60200 31.64000
C  18.66200 -2.91200 30.16500
C  20.53700 -2.47600 31.88600
C  16.93100 -1.65400 33.07500
C  17.38200 -1.29500 34.47500
H  18.90200 -1.44700 34.81900
N  18.51200 -3.84200 27.16900
C  19.17500 -4.53800 28.16400
C  19.98900 -5.53900 27.57500
C  19.72600 -5.53000 26.16300
C  18.86400 -4.37700 25.96200
C  20.82100 -6.48100 28.43400
C  20.08400 -6.48700 25.06500
O  19.94700 -6.26500 23.85600
C  20.84500 -7.68100 25.37900
N  16.99200 -1.92100 25.44200
C  17.68700 -2.63600 24.46700
C  17.48100 -2.02300 23.01000
C  16.38900 -0.94800 23.32800
C  16.25700 -0.92500 24.79400
C  18.79000 -1.53600 22.28500
C  15.05300 -1.19700 22.67100
C  14.42800 0.02300 21.99800
N  16.28000 -0.34400 27.64200
C  15.64600 0.51700 26.71900
C  15.04100 1.65200 27.38900
C  15.30600 1.48700 28.73200
C  16.11500 0.28200 28.86100
C  14.03100 2.60700 26.70100
C  15.06600 2.02200 30.01200
O  14.31800 2.95900 30.35600
C  15.86500 1.04500 31.02500
C  16.75600 1.83800 31.93900
O  17.90400 2.17500 31.67600
O  16.09300 2.07600 33.14700
C  16.79700 2.96900 34.08900
H  19.72400 -4.70900 30.22900
H  19.13800 -4.11700 23.88700
H  15.16900 0.88000 24.70100
H  18.55100 -0.49400 32.25300
H  18.64200 -3.39500 32.32200
H  21.05600 -3.39700 32.15000
H  20.72300 -1.69600 32.62500
H  20.90100 -2.18500 30.90000
H  16.76000 -2.73000 33.03900
H  15.95700 -1.21400 32.86400
H  16.90600 -2.06900 35.07800
H  16.97000 -0.36500 34.86700
H  21.27900 -5.89300 29.23000
H  21.63100 -7.00900 27.93100
H  20.25800 -7.18300 29.05000
H  20.24300 -8.24600 26.09100
H  21.76700 -7.28400 25.80300
H  21.16900 -8.39300 24.62000
H  17.04500 -2.80300 22.38500
H  16.69400 0.04600 23.00100
H  18.57800 -0.56600 21.83500
H  18.98900 -2.25000 21.48500
H  19.67300 -1.43100 22.91500
H  14.31800 -1.50600 23.41400
H  15.00300 -1.99400 21.93000
H  13.72300 -0.32400 21.24200
H  15.18900 0.62800 21.50400
H  13.91800 0.65500 22.72500
H  14.36300 2.97000 25.72900
H  14.10000 3.47300 27.36000
H  13.03700 2.17300 26.58800
H  15.10400 0.60200 31.66800
H  17.70000 2.58700 34.56400
H  16.07700 3.17200 34.88200
H  16.96700 3.88600 33.52400

