158

Mg 35.56600 1.54500 28.86700
C  33.44400 2.60100 31.30400
C  38.10400 1.30900 31.12800
C  37.80600 1.22000 26.19100
C  33.02400 1.81600 26.49600
N  35.71400 1.74300 31.01000
C  34.68900 2.20700 31.84200
C  35.11600 2.28100 33.30500
C  36.69000 2.01100 33.16100
C  36.80900 1.61500 31.67400
C  37.43700 3.22900 33.43200
C  34.37900 1.30000 34.31600
C  33.81800 1.93500 35.70500
H  34.51400 3.21400 36.26600
N  37.67500 1.27600 28.67200
C  38.52700 1.08900 29.77300
C  39.75800 0.48300 29.28600
C  39.74900 0.60200 27.85300
C  38.31800 1.04400 27.48700
C  40.89800 0.00200 30.17300
C  40.86100 0.40200 26.86500
O  40.67600 0.64900 25.67700
C  42.19900 -0.18400 27.37300
N  35.40600 1.68100 26.65200
C  36.50100 1.49600 25.79300
C  36.01000 1.71300 24.36700
C  34.45100 1.50600 24.39200
C  34.24400 1.68600 25.92800
C  36.36400 3.12200 23.77000
C  34.00500 0.06000 24.02700
C  33.03300 0.01900 22.78400
N  33.61000 1.97800 28.89100
C  32.69500 2.10400 27.78600
C  31.45900 2.69500 28.24200
C  31.70500 2.93000 29.61400
C  33.02000 2.49200 29.92300
C  30.14500 2.96400 27.52900
C  31.11400 3.42000 30.88000
O  30.00100 3.74100 31.21000
C  32.24300 3.28400 32.04100
C  32.58300 4.70000 32.46200
O  33.54500 5.35500 32.10600
O  31.64900 5.13200 33.37300
C  31.98000 6.36100 34.02200
H  38.88200 1.13300 31.87300
H  38.50200 1.33200 25.35700
H  32.23200 1.88700 25.74800
H  34.96800 3.29000 33.68900
H  37.06800 1.13400 33.68700
H  36.84700 4.02500 33.88600
H  37.93800 3.68900 32.58000
H  38.18100 2.94500 34.17600
H  35.04700 0.51700 34.67400
H  33.52100 0.95400 33.74100
H  33.79700 1.10700 36.41400
H  32.78500 2.21900 35.50200
H  41.80400 0.60000 30.06900
H  41.21600 -1.02500 29.99500
H  40.70800 0.03000 31.24600
H  42.91700 0.58000 27.67200
H  42.52000 -0.71800 26.47800
H  42.23700 -1.01400 28.07900
H  36.52600 0.96300 23.76800
H  33.91800 2.28500 23.84600
H  37.38600 3.02500 23.40200
H  36.30900 3.84000 24.58800
H  35.77500 3.48000 22.92500
H  33.53900 -0.32500 24.93400
H  34.91800 -0.48600 23.79100
H  33.23800 -0.85500 22.16600
H  33.24500 0.89600 22.17300
H  31.97300 -0.02600 23.03400
H  30.01500 2.31100 26.66500
H  30.19900 4.01000 27.22900
H  29.40300 2.75200 28.29900
H  31.85800 2.69700 32.87400
H  33.00800 6.39600 34.38300
H  31.29000 6.67000 34.80700
H  31.85400 7.16600 33.29800
Mg 0.16100 43.32300 26.96900
C  2.70200 43.17900 29.07000
C  -2.08100 42.66900 29.39700
C  -2.37100 43.33100 24.54100
C  2.38600 44.05800 24.34900
N  0.28300 42.90100 29.04900
C  1.44000 42.95500 29.74700
C  1.16900 42.89800 31.25100
C  -0.24900 42.21100 31.30800
C  -0.77500 42.68800 29.86300
C  -0.23500 40.66300 31.58500
C  1.51500 44.34300 31.95400
C  1.87600 44.44800 33.43400
H  1.64500 43.25400 34.32400
N  -2.01800 43.17800 27.01100
C  -2.67700 42.91400 28.12100
C  -4.10200 42.70500 27.76400
C  -4.18200 42.70600 26.30200
C  -2.82000 43.06400 25.87500
C  -5.19100 42.43400 28.80100
C  -5.22700 42.41000 25.32900
O  -5.04400 42.39100 24.10300
C  -6.65900 42.07800 25.86200
N  -0.02000 43.74500 24.86900
C  -1.11500 43.55200 24.09600
C  -0.80900 43.64600 22.61100
C  0.62600 44.20500 22.58000
C  1.01500 44.05100 24.00000
C  -1.09900 42.32100 21.75500
C  0.77900 45.72500 22.11700
C  0.03100 46.13200 20.86100
N  2.12900 43.44200 26.68500
C  2.91200 43.76100 25.61000
C  4.33100 43.75400 25.99600
C  4.27300 43.43300 27.35800
C  2.92400 43.33400 27.72600
C  5.48300 44.07900 25.07700
C  5.13200 43.31300 28.53700
O  6.35800 43.21900 28.70600
C  4.10200 43.36400 29.66300
C  4.32700 42.20800 30.46100
O  4.51800 41.02600 30.16700
O  4.45800 42.65600 31.73600
C  5.05900 41.65000 32.67700
H  -2.71900 42.31500 30.21000
H  -2.99400 43.15500 23.66100
H  3.11700 44.32300 23.58200
H  1.93200 42.25700 31.69400
H  -0.86200 42.57300 32.13300
H  -1.17200 40.29800 31.16500
H  -0.12900 40.46200 32.65100
H  0.63700 40.20900 31.11600
H  0.75800 45.09400 31.72800
H  2.37000 44.69700 31.37900
H  1.37000 45.36200 33.74600
H  2.94400 44.66300 33.47500
H  -6.11700 43.00400 28.72300
H  -4.73800 42.54300 29.78700
H  -5.44100 41.38500 28.64500
H  -7.29300 41.79600 25.02100
H  -7.02400 42.93800 26.42400
H  -6.61600 41.18600 26.48700
H  -1.39700 44.45000 22.16900
H  1.23800 43.58900 21.92100
H  -1.44000 41.58200 22.48000
H  -0.11500 42.01000 21.40400
H  -1.79600 42.48200 20.93300
H  1.83300 45.80100 21.85000
H  0.52900 46.37000 22.95900
H  0.06600 45.16300 20.36300
H  0.45000 46.98500 20.32800
H  -0.99600 46.36100 21.14500
H  5.17200 43.96000 24.03900
H  6.31700 43.39700 25.24200
H  5.90200 45.07700 25.20200
H  4.09000 44.28200 30.25100
H  6.14000 41.70300 32.54800
H  4.81800 40.58700 32.67800
H  4.82000 41.96100 33.69300

