158

Mg 50.15300 35.38800 27.42500
C  47.93200 33.74200 29.59600
C  50.48300 37.88800 29.64300
C  52.01600 36.80000 25.15300
C  49.11400 32.97600 24.86900
N  49.24900 35.70800 29.49600
C  48.47800 34.92500 30.21500
C  48.42300 35.42500 31.68200
C  48.93000 36.90100 31.50000
C  49.63100 36.82600 30.09100
C  47.78800 38.01200 31.63200
C  49.24100 34.63200 32.67600
C  48.80800 34.56800 34.12300
H  47.63600 35.42000 34.52400
N  51.14500 37.11000 27.44400
C  51.21100 37.99800 28.45000
C  52.04800 39.11300 28.01300
C  52.42100 38.87200 26.69500
C  51.85000 37.52600 26.34500
C  52.30400 40.23900 28.99800
C  53.14500 39.75700 25.77300
O  53.37800 39.36000 24.65700
C  53.66700 41.14900 26.21700
N  50.31700 35.09400 25.14100
C  51.24200 35.76500 24.54100
C  51.66500 35.23300 23.22200
C  50.58800 34.08500 22.96100
C  49.97600 34.00900 24.40400
C  51.66900 36.34000 22.05600
C  51.11900 32.78400 22.48700
C  51.56300 31.81800 23.67300
N  48.74700 33.74200 27.21000
C  48.51000 32.89400 26.12600
C  47.54500 31.92500 26.63000
C  47.23200 32.28500 27.94600
C  48.10000 33.30200 28.30100
C  47.00400 30.78500 25.77500
C  46.49600 31.86200 29.08800
O  45.76400 30.89200 29.27400
C  46.81800 32.91600 30.17600
C  47.06500 32.11200 31.39800
O  48.12000 31.54400 31.66600
O  45.94300 32.00000 32.13600
C  46.17300 31.49300 33.49700
H  50.64700 38.56900 30.48100
H  52.68200 37.10700 24.34400
H  48.87300 32.21100 24.12700
H  47.38600 35.44600 32.01800
H  49.72600 37.10100 32.21700
H  46.83900 37.53200 31.87100
H  47.66200 38.43700 30.63600
H  48.03600 38.78300 32.36200
H  50.30100 34.87800 32.72700
H  49.29800 33.61400 32.29200
H  49.65600 34.63700 34.80500
H  48.58500 33.51700 34.30900
H  53.35300 40.27600 29.29300
H  51.76700 40.24900 29.94600
H  51.96800 41.17400 28.55100
H  52.83500 41.83400 26.38300
H  54.31700 41.56700 25.44900
H  54.22100 41.03400 27.14900
H  52.69600 34.87800 23.23500
H  49.74600 34.32200 22.31100
H  51.30900 37.29500 22.44000
H  50.97300 35.97000 21.30200
H  52.67200 36.45200 21.64600
H  52.03300 33.00500 21.93500
H  50.38400 32.28800 21.85300
H  51.76100 32.26300 24.64800
H  52.54300 31.45600 23.36200
H  50.89900 30.96400 23.80900
H  46.33200 31.28200 25.07500
H  46.44500 30.00800 26.29600
H  47.73400 30.28900 25.13600
H  45.99600 33.62600 30.26800
H  45.46900 31.95400 34.19000
H  47.13700 31.85200 33.85900
H  45.98900 30.42000 33.55400
Mg -5.44100 24.62800 25.82600
C  -4.02000 26.05900 28.66400
C  -7.18600 22.52500 27.75900
C  -6.04000 22.85800 23.05300
C  -3.23900 26.82400 23.85600
N  -5.44600 24.23400 28.01400
C  -4.93300 25.02100 28.98000
C  -5.51500 24.69500 30.38400
C  -6.43400 23.40800 30.05800
C  -6.35500 23.34500 28.52400
C  -6.00900 22.06000 30.59900
C  -6.29700 25.84900 31.02900
C  -6.00200 26.08300 32.54600
H  -5.17800 25.02300 33.35000
N  -6.72600 23.01500 25.45100
C  -7.42400 22.33500 26.41300
C  -8.23000 21.32900 25.71000
C  -7.86000 21.41800 24.26300
C  -6.77500 22.42400 24.17600
C  -9.19200 20.43200 26.43300
C  -8.33400 20.64300 23.13500
O  -7.86500 20.77400 22.01500
C  -9.35100 19.63700 23.33000
N  -4.82300 24.90200 23.67600
C  -5.15900 23.90100 22.80400
C  -4.42100 24.10500 21.45800
C  -3.49300 25.33700 21.76900
C  -3.88200 25.75400 23.15400
C  -3.47900 22.97700 20.98000
C  -3.56400 26.45500 20.62500
C  -2.20300 27.12500 20.35000
N  -3.98700 26.10900 26.15300
C  -3.33000 26.97800 25.23800
C  -2.68600 28.03800 25.98200
C  -2.93900 27.67500 27.27900
C  -3.67300 26.46400 27.35100
C  -1.87400 29.17500 25.51500
C  -2.59700 28.06800 28.59800
O  -1.88000 28.96400 29.06600
C  -3.36600 27.12100 29.63800
C  -2.29600 26.48800 30.51000
O  -1.59000 25.55400 30.25300
O  -2.20100 27.23900 31.61300
C  -1.00600 26.95200 32.48200
H  -7.87200 22.01400 28.43800
H  -6.14000 22.15800 22.22100
H  -2.64700 27.49800 23.23300
H  -4.69200 24.42500 31.04700
H  -7.41300 23.63300 30.48100
H  -5.51500 21.29200 30.00500
H  -6.95300 21.67600 30.98500
H  -5.41800 22.19500 31.50500
H  -7.37400 25.68300 30.99900
H  -6.12800 26.77300 30.47600
H  -6.89600 26.25700 33.14500
H  -5.59600 27.09000 32.64300
H  -10.13100 20.29300 25.89800
H  -9.43800 20.91400 27.38000
H  -8.73900 19.45800 26.61800
H  -9.31000 19.02000 22.43300
H  -10.29700 20.17700 23.28000
H  -9.27300 19.04300 24.24100
H  -5.18100 24.29900 20.70100
H  -2.42300 25.12700 21.79500
H  -3.44800 22.30600 21.83800
H  -2.44200 23.18700 20.71800
H  -3.83200 22.45900 20.08700
H  -4.18700 27.26200 21.01100
H  -4.12200 26.11200 19.75400
H  -1.94100 27.26600 19.30200
H  -1.29900 26.59200 20.64500
H  -2.05700 28.12500 20.75900
H  -0.85000 28.83200 25.37100
H  -1.88400 29.97300 26.25800
H  -2.29800 29.52100 24.57200
H  -4.01700 27.69800 30.29500
H  -0.12000 26.66800 31.91500
H  -1.19200 26.16700 33.21600
H  -0.68200 27.90500 32.90000

