158

Mg 9.45200 47.92600 25.43900
C  7.14400 48.33500 28.10200
C  11.81300 49.29600 27.64000
C  11.69800 47.80800 22.94300
C  6.84500 47.01800 23.28000
N  9.49700 48.44700 27.70800
C  8.46100 48.65500 28.50900
C  8.96900 49.04000 29.92400
C  10.29000 49.74500 29.60800
C  10.59100 49.09900 28.26600
C  10.20000 51.21600 29.51900
C  9.09100 47.77300 30.75300
C  8.62900 47.92200 32.17600
H  8.87700 46.79500 33.19800
N  11.47800 48.43500 25.32200
C  12.28100 48.95000 26.34700
C  13.63000 49.19200 25.84100
C  13.62300 48.73900 24.47600
C  12.20600 48.34700 24.19300
C  14.78900 49.65500 26.58000
C  14.72900 48.42700 23.53000
O  14.54900 48.05300 22.39400
C  16.14600 48.72700 23.96900
N  9.27600 47.61900 23.39900
C  10.36600 47.49500 22.53300
C  9.95300 47.18400 21.09400
C  8.41900 46.80400 21.24900
C  8.18200 47.16800 22.74700
C  10.17100 48.30400 20.08800
C  8.07900 45.32200 20.93700
C  8.57500 44.33100 21.99800
N  7.40900 47.76400 25.57600
C  6.51800 47.42400 24.61200
C  5.14100 47.44000 25.19200
C  5.39200 47.65200 26.55200
C  6.78800 47.91800 26.72700
C  3.87900 47.19300 24.51200
C  4.74200 47.84600 27.87500
O  3.57400 47.80700 28.30300
C  5.86100 48.21500 28.88800
C  5.87100 47.18200 29.94600
O  6.31600 46.04900 29.73800
O  5.37900 47.61300 31.15700
C  5.37600 46.65500 32.24600
H  12.56800 49.66000 28.34100
H  12.32100 47.69300 22.05300
H  5.96700 46.73800 22.69400
H  8.28100 49.78500 30.32300
H  11.11800 49.45600 30.25500
H  9.16900 51.56700 29.46900
H  10.56500 51.61100 28.57100
H  10.68200 51.63700 30.40000
H  10.14900 47.65900 30.98900
H  8.64500 46.89900 30.27700
H  7.61600 48.31300 32.26700
H  9.19900 48.71400 32.66300
H  15.39800 50.30600 25.95300
H  15.32000 48.75100 26.87700
H  14.33600 50.07600 27.47800
H  16.41200 49.78400 23.99900
H  16.75000 48.14700 23.27100
H  16.31100 48.27100 24.94500
H  10.50200 46.29500 20.78500
H  7.66800 47.40500 20.73800
H  9.78400 49.28100 20.37900
H  9.62000 48.11000 19.16800
H  11.20000 48.41500 19.74800
H  8.41200 45.06700 19.93200
H  6.98900 45.30700 20.92900
H  9.28100 44.67100 22.75600
H  9.04100 43.46700 21.52400
H  7.73900 43.95900 22.59000
H  3.99100 46.90000 23.46800
H  3.34800 48.14400 24.52300
H  3.22100 46.46600 24.98900
H  5.67200 49.19700 29.32100
H  5.90300 47.18900 33.03600
H  5.71500 45.67900 31.89700
H  4.31200 46.48700 32.41400
Mg -3.13500 35.31600 27.27100
C  -4.95700 33.50800 29.69700
C  -2.16400 37.38900 29.84400
C  -1.56300 37.07300 24.98300
C  -4.24400 33.11400 24.88400
N  -3.46100 35.40800 29.51000
C  -4.20900 34.53100 30.24500
C  -3.93600 34.72200 31.73700
C  -3.22700 36.12100 31.72600
C  -2.99700 36.38300 30.27100
C  -4.18400 37.21300 32.24800
C  -3.27100 33.54400 32.53600
C  -4.17600 32.98600 33.67800
H  -3.83100 33.58700 35.07000
N  -2.05700 36.98700 27.39700
C  -1.65400 37.63000 28.54500
C  -0.58700 38.60600 28.15400
C  -0.44300 38.52400 26.77200
C  -1.34600 37.45700 26.34300
C  0.06300 39.47600 29.16200
C  0.44200 39.35000 25.81700
O  0.55300 39.12500 24.63100
C  1.14800 40.55200 26.25800
N  -3.11500 35.19800 25.17400
C  -2.31800 36.04200 24.46100
C  -2.31000 35.62100 22.97400
C  -2.96200 34.25900 22.97600
C  -3.44400 34.15500 24.43200
C  -3.06200 36.70000 22.08500
C  -2.16600 33.02100 22.44900
C  -2.94000 31.87300 21.96000
N  -4.41300 33.66900 27.27000
C  -4.76300 32.85000 26.19500
C  -5.73000 31.91700 26.57800
C  -5.82800 32.11300 28.02000
C  -4.99400 33.20300 28.33000
C  -6.44000 30.85500 25.74500
C  -6.48500 31.61100 29.17000
O  -7.20500 30.64100 29.26200
C  -5.90900 32.47200 30.35400
C  -7.00700 33.08400 31.09700
O  -7.50300 34.15900 30.80600
O  -7.54400 32.10700 31.95000
C  -8.72200 32.58400 32.69100
H  -1.80900 38.11500 30.57900
H  -1.01500 37.42000 24.10400
H  -4.50700 32.31900 24.18200
H  -4.89700 34.95600 32.19600
H  -2.25700 36.07800 32.22100
H  -5.13400 37.13700 31.71800
H  -3.81100 38.19200 31.94600
H  -4.30700 37.18400 33.33100
H  -2.41000 33.95100 33.06500
H  -2.90000 32.74700 31.89200
H  -4.21200 31.89800 33.74300
H  -5.24700 33.04900 33.48700
H  1.14400 39.59600 29.22700
H  -0.31000 39.49400 30.18600
H  -0.39800 40.38100 28.76600
H  0.49300 41.27000 26.75100
H  1.69700 40.93500 25.39700
H  1.88900 40.34400 27.02900
H  -1.30000 35.46600 22.59400
H  -3.84100 34.39900 22.34600
H  -2.93200 37.67800 22.54700
H  -4.12300 36.55600 21.87600
H  -2.58500 36.63700 21.10700
H  -1.66800 32.73300 23.37500
H  -1.35000 33.36900 21.81500
H  -2.82700 30.96900 22.55900
H  -2.62400 31.55600 20.96600
H  -3.99500 32.13800 22.02700
H  -6.69400 29.94700 26.29100
H  -5.73300 30.70800 24.92800
H  -7.32900 31.25800 25.25900
H  -5.45000 31.78300 31.06300
H  -9.28000 31.70100 33.00300
H  -9.43200 33.17600 32.11500
H  -8.47100 33.20100 33.55400

