158

Mg 17.14400 -1.05600 28.80200
C  15.89700 1.17900 31.29300
C  18.61300 -2.90500 31.32200
C  18.64700 -2.91000 26.47300
C  15.43900 0.74200 26.32100
N  17.15100 -0.85200 31.06900
C  16.66900 0.17300 31.87200
C  17.07200 -0.00100 33.35300
C  17.98000 -1.26900 33.28900
C  17.91100 -1.69900 31.78600
C  19.44100 -0.96400 33.76000
C  15.85300 -0.05300 34.33300
C  15.82800 -1.03500 35.50100
H  16.81400 -0.91200 36.64200
N  18.39000 -2.71600 28.86400
C  18.92700 -3.27500 30.00100
C  19.76700 -4.46400 29.62100
C  19.86900 -4.45200 28.19900
C  18.93700 -3.36600 27.77400
C  20.54400 -5.33900 30.63400
C  20.72400 -5.20200 27.23700
O  20.85700 -5.10600 26.02100
C  21.62400 -6.20200 27.90700
N  17.23800 -0.93200 26.65500
C  17.89900 -1.84300 26.01600
C  17.85300 -1.44300 24.47000
C  16.73900 -0.40400 24.36500
C  16.37100 -0.17300 25.86000
C  19.16600 -0.87400 23.95700
C  15.50900 -0.93200 23.57400
C  15.35500 -0.31900 22.20800
N  15.96500 0.62300 28.75400
C  15.22700 1.19100 27.70800
C  14.52000 2.39400 28.23300
C  14.76100 2.37900 29.61900
C  15.56700 1.29100 29.88300
C  13.65400 3.30200 27.45100
C  14.60000 3.20600 30.78200
O  14.05400 4.26000 30.89700
C  15.28100 2.37400 31.99800
C  16.23900 3.30200 32.76400
O  17.24200 3.83500 32.41100
O  15.76500 3.43500 34.03900
C  16.70400 3.71300 35.14100
H  18.96300 -3.54200 32.13700
H  18.98700 -3.58800 25.68800
H  14.82100 1.33500 25.64400
H  17.57500 0.91400 33.66300
H  17.73800 -2.18000 33.83800
H  19.88200 -1.69400 34.43800
H  19.43700 0.09000 34.03900
H  20.00900 -0.97600 32.82900
H  14.91300 -0.25100 33.81700
H  15.67200 0.86600 34.88900
H  15.78400 -2.03800 35.07700
H  14.86700 -0.86400 35.98500
H  20.35600 -6.40600 30.52100
H  20.25200 -5.07300 31.65000
H  21.59800 -5.06200 30.67200
H  21.04100 -7.01000 28.34900
H  22.41400 -5.83800 28.56400
H  22.10400 -6.62500 27.02400
H  17.65100 -2.38900 23.96800
H  17.08000 0.55700 23.97900
H  19.60000 -1.46500 23.15100
H  19.91700 -0.78000 24.74200
H  19.09100 0.09700 23.46600
H  14.64600 -0.76000 24.21700
H  15.50900 -2.00400 23.37800
H  16.30500 0.15400 21.95900
H  14.59600 0.46100 22.15100
H  15.13300 -1.05100 21.43200
H  13.68700 4.33300 27.80400
H  12.63100 2.96100 27.61300
H  13.69900 3.16000 26.37100
H  14.54400 1.97100 32.69300
H  17.70700 3.30500 35.01800
H  16.12300 3.16800 35.88400
H  16.84300 4.78200 35.30600
Mg -2.35500 34.71200 26.64200
C  -3.42000 32.99800 29.56400
C  -1.08400 37.02600 28.61100
C  -2.14100 36.57800 23.91300
C  -4.20100 32.26200 24.73900
N  -2.17400 34.89900 28.83700
C  -2.63000 34.08400 29.83000
C  -2.18500 34.59000 31.23700
C  -1.43300 35.89700 30.82000
C  -1.62000 35.99100 29.34400
C  -1.77600 37.22500 31.61600
C  -1.38400 33.49700 32.06600
C  -1.96300 33.05100 33.46200
H  -1.03800 33.02800 34.66300
N  -1.50500 36.34100 26.26400
C  -1.03100 37.22700 27.17500
C  -0.34200 38.38300 26.60300
C  -0.74100 38.34700 25.21500
C  -1.50500 37.05300 25.05400
C  0.31900 39.40900 27.47300
C  -0.44400 39.32700 24.08200
O  -0.86900 39.27300 22.92500
C  0.50400 40.46500 24.42800
N  -3.13500 34.47100 24.60800
C  -2.96600 35.45300 23.74300
C  -3.64000 35.08300 22.38900
C  -3.99200 33.52000 22.56000
C  -3.72400 33.33900 24.06300
C  -4.86700 35.95800 21.90300
C  -3.20000 32.53600 21.67500
C  -1.90300 32.02400 22.24500
N  -3.52500 33.05500 27.01700
C  -4.14900 32.11100 26.14100
C  -4.78100 31.12500 26.93600
C  -4.52300 31.46600 28.25400
C  -3.72600 32.60400 28.24600
C  -5.50700 29.89800 26.47100
C  -4.80200 31.01700 29.56900
O  -5.44400 30.09100 29.99900
C  -4.01900 32.00300 30.47100
C  -4.95700 32.68000 31.29000
O  -5.78800 33.46400 30.84800
O  -5.03600 32.21700 32.59700
C  -5.96600 32.81000 33.52400
H  -0.62500 37.75900 29.27800
H  -2.19500 37.21500 23.02800
H  -4.71900 31.47000 24.19500
H  -3.11700 34.87000 31.72700
H  -0.38200 35.67500 31.00600
H  -0.90100 37.69900 32.06100
H  -2.43500 37.09100 32.47400
H  -2.15600 38.02100 30.97600
H  -0.36200 33.86200 32.16500
H  -1.30900 32.57400 31.49000
H  -2.43600 32.07600 33.34200
H  -2.84700 33.66200 33.64500
H  1.31500 39.04800 27.73100
H  -0.27300 39.59900 28.36800
H  0.43800 40.36100 26.95500
H  0.89800 40.90800 23.51300
H  1.30100 39.90900 24.92200
H  -0.12700 41.12100 25.02600
H  -2.83100 35.14300 21.66100
H  -5.05500 33.43700 22.33300
H  -5.11700 36.77900 22.57500
H  -5.73200 35.30600 21.78300
H  -4.76800 36.27100 20.86400
H  -2.93700 32.98100 20.71500
H  -3.83800 31.65300 21.71400
H  -1.59900 32.45700 23.19800
H  -1.03800 32.14100 21.59200
H  -1.97200 30.96000 22.47100
H  -5.20500 29.05200 27.08800
H  -5.12000 29.77500 25.45900
H  -6.56500 30.11300 26.31700
H  -3.20300 31.49600 30.98600
H  -6.49900 33.69900 33.18700
H  -5.38000 33.05500 34.40900
H  -6.71200 32.02700 33.66600

