158

Mg 16.99300 -1.23100 27.84200
C  15.78500 0.78300 30.51200
C  19.12500 -2.74600 30.01700
C  18.65100 -2.69000 25.29700
C  15.17500 0.69200 25.75700
N  17.50300 -0.83400 29.97400
C  16.84100 -0.11600 30.98400
C  17.38200 -0.38100 32.39700
C  18.54800 -1.42800 32.11500
C  18.41100 -1.75800 30.62500
C  19.95300 -1.00100 32.59800
C  16.24000 -0.96900 33.37600
C  16.10700 -0.28100 34.72900
H  17.35900 0.33500 35.29900
N  18.59300 -2.59700 27.65000
C  19.27500 -3.17800 28.69900
C  20.09300 -4.24200 28.16700
C  20.02900 -4.19500 26.76600
C  19.03200 -3.15000 26.53100
C  20.83200 -5.17900 28.96400
C  20.63800 -5.04800 25.76300
O  20.16800 -5.19300 24.60100
C  21.74400 -5.90900 26.08000
N  16.92700 -1.12100 25.87100
C  17.67900 -1.73100 24.92500
C  17.40600 -1.32300 23.52100
C  16.11500 -0.46000 23.70700
C  16.04100 -0.30100 25.23800
C  18.60100 -0.61700 22.80600
C  14.78800 -1.17100 23.24200
C  14.58400 -1.45700 21.72100
N  15.64300 0.34800 28.01100
C  14.92000 1.02200 27.11200
C  14.04100 2.02600 27.70200
C  14.32800 1.95600 29.07500
C  15.35100 0.97300 29.18900
C  13.04800 2.97900 27.04000
C  14.06800 2.55200 30.38300
O  13.39600 3.52900 30.68900
C  14.84300 1.69200 31.46600
C  15.64400 2.61500 32.33500
O  16.77700 3.02300 32.09500
O  14.91600 2.92700 33.43100
C  15.63700 3.81300 34.40900
H  19.78900 -3.23800 30.73100
H  19.22400 -3.06200 24.44500
H  14.58900 1.33000 25.09300
H  17.85200 0.54000 32.74300
H  18.48700 -2.43300 32.53300
H  20.50200 -1.90200 32.87100
H  19.87800 -0.40500 33.50800
H  20.54600 -0.52200 31.81800
H  16.28100 -2.04600 33.53600
H  15.31500 -0.78200 32.83000
H  15.59200 -0.92100 35.44500
H  15.36100 0.47900 34.49400
H  20.39200 -6.17400 28.91000
H  20.88500 -4.86400 30.00600
H  21.90400 -5.23800 28.77200
H  21.40800 -6.70600 26.74300
H  22.47400 -5.31400 26.63100
H  22.24700 -6.31000 25.20000
H  17.19200 -2.25900 23.00400
H  16.23500 0.48300 23.17300
H  19.11900 -1.31900 22.15300
H  19.37100 -0.28600 23.50400
H  18.32200 0.21100 22.15600
H  14.02000 -0.49300 23.61200
H  14.76700 -2.07400 23.85200
H  13.62000 -1.00000 21.49900
H  14.51000 -2.49200 21.38700
H  15.34700 -1.03000 21.07000
H  12.47200 2.46600 26.26900
H  13.55000 3.80500 26.53700
H  12.25600 3.34600 27.69300
H  14.06300 1.15700 32.00700
H  15.33200 4.85400 34.51500
H  16.72700 3.83800 34.41400
H  15.38200 3.30000 35.33600
Mg 43.18000 42.10400 25.82100
C  41.90800 44.36300 28.36200
C  44.18200 40.00700 28.27000
C  44.44900 40.35300 23.36000
C  42.18200 44.61000 23.39400
N  43.17100 42.28500 28.09600
C  42.59800 43.25500 28.95300
C  42.69200 42.87300 30.44400
C  43.40300 41.47900 30.28200
C  43.67100 41.20000 28.79700
C  44.51100 41.32200 31.26900
C  41.27400 42.86300 31.15900
C  41.04000 42.04400 32.48500
H  40.33000 42.78800 33.58600
N  44.13300 40.38100 25.86200
C  44.45800 39.62600 26.97100
C  45.00800 38.34200 26.48600
C  45.17200 38.42300 25.06400
C  44.64900 39.78000 24.73300
C  45.35500 37.26100 27.39100
C  45.57000 37.36500 23.98100
O  45.58300 37.59600 22.76100
C  45.87600 36.01400 24.55600
N  43.35700 42.47600 23.67600
C  43.91200 41.55600 22.89900
C  43.70800 41.84900 21.43800
C  42.74100 43.06500 21.49100
C  42.67500 43.39300 22.95200
C  45.01900 42.00000 20.56800
C  41.32500 42.63600 21.04200
C  41.03000 42.41500 19.56400
N  42.40000 44.05400 25.82100
C  42.03400 44.96800 24.78100
C  41.41800 46.22900 25.27900
C  41.36800 45.97800 26.66000
C  41.85500 44.64300 26.91500
C  40.98700 47.40900 24.51100
C  40.93600 46.69600 27.85800
O  40.44900 47.75400 28.17800
C  41.18600 45.60800 28.98000
C  42.10600 46.11100 30.07500
O  43.32600 46.06200 30.03700
O  41.38400 46.55500 31.16300
C  42.06100 46.53900 32.47700
H  44.36900 39.37000 29.13700
H  44.76700 39.71900 22.52900
H  41.89500 45.34000 22.63400
H  43.28400 43.59500 31.00700
H  42.72200 40.65600 30.50000
H  44.44400 40.32400 31.70200
H  44.52600 41.92600 32.17700
H  45.54700 41.29900 30.93000
H  40.61000 42.43300 30.41000
H  40.95900 43.90600 31.17700
H  41.98100 41.61100 32.82400
H  40.32200 41.27400 32.20000
H  45.23100 37.51500 28.44400
H  46.36400 36.89500 27.20500
H  44.71200 36.41100 27.16200
H  46.25700 35.32700 23.80100
H  44.99700 35.56300 25.01700
H  46.66400 36.18100 25.29100
H  43.22100 40.97300 21.00900
H  43.12600 43.89600 20.90000
H  45.23500 43.06800 20.53700
H  44.96700 41.65900 19.53400
H  45.79500 41.46800 21.11800
H  40.68000 43.39900 21.47800
H  41.11200 41.69300 21.54600
H  40.79500 41.36300 19.40000
H  41.94200 42.72000 19.05000
H  40.19900 43.10700 19.42600
H  41.81400 47.69000 23.85800
H  40.57300 48.24200 25.07900
H  40.14400 47.31400 23.82700
H  40.33700 45.31500 29.59800
H  42.29300 47.60300 32.51600
H  42.96800 45.93600 32.53000
H  41.37100 46.34900 33.29900

