158

Mg 30.37100 58.20700 38.95700
C  27.82000 56.05400 38.22000
C  32.63600 55.59400 38.02800
C  32.99800 60.47700 38.83200
C  28.10400 60.81100 39.14900
N  30.25700 56.09900 38.12300
C  29.05300 55.40800 38.01100
C  29.30400 53.92200 37.60200
C  30.88800 53.79400 37.99500
C  31.33200 55.26500 38.03000
C  31.12700 53.00000 39.29300
C  29.08000 53.61300 36.11900
C  29.34900 54.69400 35.03800
H  28.14700 55.13900 34.09300
N  32.49000 58.05400 38.54300
C  33.19200 56.86500 38.23900
C  34.59400 57.23400 38.24200
C  34.73500 58.63200 38.50400
C  33.36600 59.10900 38.62600
C  35.63500 56.20200 38.11500
C  36.09100 59.35200 38.66400
O  37.22000 58.80800 38.63800
C  36.17900 60.92000 38.88700
N  30.58100 60.38000 38.85500
C  31.76600 61.03000 39.00900
C  31.53800 62.50800 39.14400
C  29.97600 62.61900 39.06500
C  29.46200 61.18100 39.05000
C  32.21100 63.30200 40.27300
C  29.40600 63.40300 37.86300
C  29.30900 64.92500 38.12500
N  28.38400 58.36600 38.91600
C  27.60600 59.47500 38.99700
C  26.19900 59.03500 38.99000
C  26.19800 57.69600 38.70900
C  27.56200 57.36100 38.61400
C  25.04900 59.90700 39.14600
C  25.40300 56.53500 38.42200
O  24.19900 56.37000 38.26000
C  26.51800 55.35000 38.19500
C  26.33100 54.44100 39.33700
O  26.86500 54.51200 40.41300
O  25.47900 53.42800 38.95100
C  24.98800 52.56100 40.01400
H  33.36400 54.79600 37.86100
H  33.78600 61.22400 38.94200
H  27.41700 61.64500 39.30600
H  28.74000 53.18500 38.17300
H  31.41300 53.20500 37.24300
H  30.26700 52.74600 39.91100
H  31.88400 53.36200 39.98900
H  31.66900 52.09900 39.00600
H  28.02800 53.33500 36.05100
H  29.69900 52.75900 35.84500
H  30.14200 54.21200 34.46600
H  29.84800 55.60400 35.37200
H  35.38600 55.55000 37.27800
H  35.54000 55.65400 39.05200
H  36.66500 56.54200 38.00500
H  35.65200 61.10900 39.82200
H  35.76600 61.49600 38.05900
H  37.18700 61.33100 38.94800
H  31.84700 62.96000 38.20200
H  29.66100 63.01500 40.03000
H  32.91600 64.05400 39.91800
H  32.86000 62.69100 40.90000
H  31.46800 63.76400 40.92300
H  28.41100 63.02300 37.63100
H  30.01100 63.18300 36.98300
H  29.86800 65.09200 39.04600
H  28.24500 65.16300 38.14000
H  29.82800 65.48300 37.34600
H  24.17900 59.37600 38.76000
H  25.19700 60.82700 38.58100
H  24.98100 60.13000 40.21100
H  26.37400 54.80000 37.26400
H  25.82400 52.34500 40.67900
H  24.75400 51.54700 39.68900
H  24.10000 52.86000 40.57200
Mg -5.11700 25.41500 26.02100
C  -3.73000 26.83900 28.79600
C  -6.57100 23.03300 28.00100
C  -6.47200 24.06500 23.32700
C  -3.26600 27.70300 24.08800
N  -5.16700 25.08300 28.18900
C  -4.65200 25.88900 29.15900
C  -5.06200 25.38300 30.55800
C  -5.70200 23.98800 30.21200
C  -5.83600 24.01000 28.68400
C  -4.99700 22.74800 30.84700
C  -6.02800 26.30000 31.23800
C  -6.53500 25.80300 32.64500
H  -5.64000 24.90300 33.49800
N  -6.44100 23.81400 25.69000
C  -6.88200 22.90000 26.66300
C  -7.84800 22.10100 26.07400
C  -7.77300 22.34700 24.69300
C  -6.80500 23.40000 24.49100
C  -8.79300 21.31200 26.90100
C  -8.65900 21.68700 23.68900
O  -8.70000 22.12500 22.53600
C  -9.53600 20.46900 23.95600
N  -4.76600 25.75400 24.04300
C  -5.52300 25.06200 23.09200
C  -5.43500 25.70500 21.72600
C  -4.49000 26.95000 22.02800
C  -4.03600 26.81800 23.43800
C  -5.09900 24.86200 20.50400
C  -5.16100 28.36300 21.65400
C  -4.37900 29.11700 20.57900
N  -3.64700 26.86000 26.34900
C  -3.02400 27.73400 25.48700
C  -2.17100 28.67500 26.16900
C  -2.35100 28.40200 27.52700
C  -3.32600 27.25600 27.57100
C  -1.46300 29.80900 25.56000
C  -2.02100 28.71900 28.88400
O  -1.15100 29.41200 29.30800
C  -2.93900 27.76500 29.78900
C  -2.18300 27.02800 30.79600
O  -1.50300 26.06500 30.61300
O  -2.36400 27.67700 32.01700
C  -1.68400 26.90800 33.07400
H  -7.07900 22.41300 28.74200
H  -7.01100 23.74800 22.43200
H  -2.77400 28.42000 23.42800
H  -4.14800 25.30700 31.14800
H  -6.78100 23.94400 30.36100
H  -5.66400 22.35600 31.61500
H  -4.11700 22.95300 31.45700
H  -4.74400 21.98300 30.11300
H  -6.88300 26.37900 30.56700
H  -5.38400 27.17800 31.30000
H  -7.43300 25.27600 32.32300
H  -6.76100 26.64900 33.29500
H  -9.04400 21.83600 27.82300
H  -8.40800 20.30700 27.07600
H  -9.74900 21.11400 26.41500
H  -9.00100 19.85200 24.67900
H  -9.67800 19.88700 23.04600
H  -10.56900 20.70000 24.21600
H  -6.45900 25.98900 21.48200
H  -3.57100 26.65300 21.52300
H  -4.75200 23.88200 20.83100
H  -4.32800 25.34800 19.90600
H  -5.96900 24.66600 19.87800
H  -5.18100 29.05800 22.49400
H  -6.19000 28.21400 21.32400
H  -5.05100 29.73700 19.98500
H  -3.69400 28.47200 20.02800
H  -3.72100 29.82500 21.08300
H  -2.04400 30.03800 24.66700
H  -0.41300 29.55100 25.42400
H  -1.56400 30.71600 26.15700
H  -3.63500 28.46300 30.25500
H  -1.69200 25.82100 33.00500
H  -2.18500 27.03600 34.03300
H  -0.64500 27.22000 33.17500

