158

Mg 40.36000 41.20400 26.80300
C  39.72400 43.52000 29.38900
C  41.58500 39.06500 29.15700
C  41.63000 39.21700 24.28000
C  39.74000 43.69700 24.46500
N  40.71700 41.33100 28.95500
C  40.27100 42.32100 29.87200
C  40.48300 41.93800 31.36000
C  41.14300 40.53500 31.19200
C  41.17400 40.29600 29.65700
C  42.50400 40.37200 31.86300
C  39.18400 41.97700 32.16700
C  39.10400 42.74600 33.53200
H  38.69800 42.00400 34.79200
N  41.45100 39.39300 26.69700
C  41.81200 38.63900 27.81700
C  42.39000 37.45800 27.39100
C  42.38900 37.40100 25.97200
C  41.83200 38.71600 25.59000
C  42.96900 36.40800 28.26400
C  42.84600 36.30900 25.02500
O  42.83700 36.39000 23.78100
C  43.40200 34.98400 25.49400
N  40.73700 41.45900 24.67100
C  41.13100 40.47500 23.86300
C  40.88900 40.70300 22.33900
C  40.04900 42.03000 22.42200
C  40.17200 42.44300 23.97600
C  42.06000 40.65800 21.29600
C  38.57100 42.03700 21.96100
C  37.61400 41.27900 22.87600
N  39.84900 43.19000 26.84400
C  39.49800 44.07500 25.80800
C  38.97000 45.25200 26.42300
C  39.02800 45.04600 27.83100
C  39.56600 43.78400 28.00400
C  38.56100 46.43500 25.57100
C  38.81800 45.75300 29.04200
O  38.33800 46.90600 29.22800
C  39.24100 44.75100 30.14000
C  40.38000 45.31000 30.99900
O  41.50100 45.62700 30.63300
O  39.91300 45.47500 32.25300
C  40.85700 45.95100 33.23300
H  41.85800 38.28900 29.87500
H  42.06500 38.65700 23.45000
H  39.41500 44.51900 23.82400
H  41.18200 42.66800 31.76700
H  40.56900 39.71100 31.61600
H  42.60300 41.28800 32.44600
H  43.30600 40.37800 31.12400
H  42.60700 39.51800 32.53200
H  38.97300 40.92300 32.34900
H  38.34300 42.33500 31.57400
H  38.39300 43.57200 33.52900
H  40.09200 43.19100 33.65500
H  42.34500 35.52000 28.16300
H  42.99800 36.76400 29.29400
H  44.02400 36.26500 28.03300
H  44.13200 35.17400 26.28000
H  43.99600 34.63300 24.65000
H  42.62000 34.28000 25.78100
H  40.20900 39.88300 22.10600
H  40.61000 42.87300 22.01900
H  42.91900 40.19100 21.77600
H  42.29600 41.66200 20.94300
H  41.78300 40.10000 20.40100
H  38.58500 41.46800 21.03200
H  38.23200 43.05300 21.75800
H  36.96100 42.03300 23.31700
H  38.21600 40.65000 23.53200
H  37.07000 40.57500 22.24700
H  38.10800 47.19100 26.21400
H  37.91100 46.06600 24.77800
H  39.50100 46.77900 25.13900
H  38.53100 44.35600 30.86700
H  40.37700 46.66100 33.90700
H  41.77700 46.35000 32.80500
H  41.08200 45.08400 33.85500
Mg 30.00500 57.71400 41.34200
C  27.31100 55.94400 40.06700
C  32.15200 55.36100 40.09200
C  32.52000 59.89400 41.94500
C  27.71800 60.30000 42.19900
N  29.68300 55.80200 40.30000
C  28.52500 55.25700 39.89000
C  28.76400 53.87600 39.14700
C  30.22200 53.57800 39.63200
C  30.71800 54.99700 40.04400
C  30.51100 52.33700 40.55700
C  28.66900 53.84800 37.60700
C  29.29000 55.05800 36.84700
H  28.31700 55.97500 36.06200
N  31.99800 57.65600 41.03500
C  32.69600 56.54700 40.54500
C  34.10800 56.90200 40.51900
C  34.26500 58.21400 41.00800
C  32.88400 58.63200 41.37700
C  35.07800 55.91900 39.98800
C  35.51700 59.05300 41.08300
O  36.53700 58.48900 40.84700
C  35.58600 60.49000 41.35100
N  30.11200 59.76500 41.96500
C  31.26500 60.36800 42.25000
C  31.08100 61.84700 42.75200
C  29.53600 61.94800 42.79800
C  29.11400 60.61700 42.23200
C  31.66600 62.09100 44.18000
C  28.94400 63.18800 42.11900
C  29.22600 64.53800 42.88100
N  27.86400 58.05400 41.32400
C  27.09200 59.09300 41.70200
C  25.73200 58.84600 41.41800
C  25.74400 57.57400 40.82500
C  27.09100 57.19600 40.71500
C  24.61700 59.89800 41.58600
C  24.94900 56.54100 40.22100
O  23.71000 56.43300 40.04300
C  25.92500 55.47600 39.71300
C  25.53400 54.19500 40.37100
O  25.52200 54.06000 41.58400
O  25.13700 53.23100 39.48100
C  24.65100 51.92400 40.09000
H  32.75800 54.56200 39.66000
H  33.26600 60.61700 42.27900
H  26.93200 61.02000 42.43900
H  28.09600 53.12000 39.56100
H  30.88000 53.36800 38.78800
H  31.41400 52.46200 41.15500
H  30.90200 51.56500 39.89400
H  29.56200 52.06000 41.01500
H  27.59900 53.76500 37.41400
H  29.21400 52.97200 37.25500
H  29.91100 54.56600 36.09800
H  29.90900 55.65500 37.51700
H  36.14900 56.11000 39.92100
H  34.66900 55.29500 39.19300
H  35.09200 55.16300 40.77400
H  34.75600 60.94700 40.81100
H  36.57800 60.72500 40.96800
H  35.47300 60.72700 42.40900
H  31.49200 62.51900 41.99900
H  29.15800 61.96900 43.82000
H  32.46900 61.36500 44.30700
H  30.97600 62.13200 45.02300
H  32.14200 63.04100 43.93700
H  27.86300 63.08200 42.20700
H  29.35900 63.26100 41.11400
H  29.72300 64.44000 43.84600
H  28.25700 64.98200 43.10600
H  29.76500 65.19900 42.20200
H  23.67800 59.36800 41.74700
H  24.57600 60.59600 40.75000
H  24.68500 60.49600 42.49500
H  25.66600 55.39000 38.65700
H  25.30400 51.36300 40.75800
H  24.51400 51.24400 39.24900
H  23.71000 52.12200 40.60300

