158

Mg 1.19100 41.97100 24.79800
C  3.32100 41.65600 27.60000
C  -1.47800 41.44500 26.85300
C  -0.59900 41.77300 22.08600
C  4.18800 42.31500 22.74800
N  0.98100 41.52000 26.91400
C  2.00000 41.56200 27.95500
C  1.46300 41.56100 29.33100
C  -0.05100 41.44700 29.04100
C  -0.25400 41.49300 27.48200
C  -0.90600 40.30500 29.72600
C  1.83700 42.85000 30.17900
C  2.12300 42.58200 31.69200
H  1.72400 41.15100 32.34500
N  -0.73900 41.66800 24.53000
C  -1.71800 41.47900 25.46300
C  -3.00500 41.26000 24.83300
C  -2.78400 41.25500 23.43600
C  -1.32300 41.63800 23.29500
C  -4.29600 40.93600 25.68400
C  -3.79800 40.93700 22.33100
O  -3.41600 41.09000 21.18200
C  -5.18600 40.63800 22.62300
N  1.71100 42.11900 22.70900
C  0.75200 42.05300 21.72200
C  1.28800 42.18400 20.32900
C  2.74300 42.64000 20.56300
C  2.89900 42.27500 22.09900
C  1.26500 40.90300 19.40200
C  2.97700 44.19900 20.37400
C  3.24500 44.60300 18.97100
N  3.35600 41.95100 25.00900
C  4.41300 42.10900 24.09000
C  5.65800 42.03000 24.84500
C  5.30700 41.81300 26.18300
C  3.88100 41.76700 26.26600
C  7.05500 41.96700 24.27200
C  5.81400 41.71800 27.54700
O  6.91000 41.72100 28.03000
C  4.46500 41.65300 28.43600
C  4.63000 40.49300 29.45500
O  4.12000 39.40900 29.37100
O  5.30000 41.04900 30.52300
C  5.38700 40.38900 31.78200
H  -2.38300 41.38100 27.46000
H  -1.27300 41.86800 21.23200
H  5.11700 42.53300 22.21700
H  1.87100 40.64000 29.74700
H  -0.47000 42.42900 29.25800
H  -1.53100 40.75300 30.49800
H  -0.16500 39.71400 30.26300
H  -1.58300 39.80800 29.03100
H  0.98200 43.52500 30.21800
H  2.61500 43.41200 29.66200
H  1.51600 43.28600 32.26100
H  3.16600 42.77900 31.94000
H  -4.78500 40.01800 25.35800
H  -5.05200 41.71900 25.72400
H  -4.09600 40.74000 26.73800
H  -5.18100 39.77800 23.29300
H  -5.75700 40.54700 21.70000
H  -5.60900 41.46700 23.19100
H  0.83400 42.97000 19.72600
H  3.50400 42.01800 20.09400
H  2.18200 40.70000 18.84900
H  0.55000 41.14100 18.61400
H  1.00600 40.12500 20.12100
H  3.76000 44.58400 21.02800
H  2.01300 44.64800 20.61100
H  4.21200 45.10200 19.03600
H  2.61600 45.37800 18.53400
H  3.34300 43.78200 18.26100
H  7.18000 41.29200 23.42600
H  7.77000 41.79500 25.07600
H  7.07000 42.98800 23.89000
H  4.52300 42.58500 29.00000
H  4.95800 41.10000 32.48800
H  6.43800 40.16200 31.96000
H  5.00000 39.37000 31.80500
Mg -5.98700 25.02300 25.52200
C  -4.04700 26.23600 28.45100
C  -7.49200 22.75100 27.56600
C  -7.01400 23.33900 22.72800
C  -3.53700 26.63700 23.60300
N  -5.70300 24.55000 27.74900
C  -5.11600 25.33400 28.73500
C  -5.55900 24.89200 30.18800
C  -6.43200 23.61700 29.77700
C  -6.59600 23.63400 28.24900
C  -5.85000 22.25900 30.23500
C  -6.44400 25.90100 31.01600
C  -6.44000 25.72500 32.59300
H  -5.71700 24.58300 33.27000
N  -7.23700 23.38500 25.17100
C  -7.86900 22.62600 26.16900
C  -8.80100 21.76800 25.57200
C  -8.47700 21.70000 24.20600
C  -7.55800 22.84800 23.92700
C  -9.66500 20.75100 26.35100
C  -8.94900 20.73600 23.04500
O  -8.69700 20.96500 21.91000
C  -9.75900 19.57000 23.44400
N  -5.38500 25.05100 23.45700
C  -6.02800 24.27100 22.50200
C  -5.61500 24.74200 21.08500
C  -4.60700 25.88100 21.39100
C  -4.47700 25.88200 22.87900
C  -5.12300 23.61800 20.21500
C  -4.79900 27.36200 20.79100
C  -3.59400 28.09600 20.13800
N  -4.28200 26.30900 25.86400
C  -3.38000 26.81800 24.96400
C  -2.38000 27.54900 25.64500
C  -2.55900 27.37900 27.00100
C  -3.76100 26.62700 27.13000
C  -1.37700 28.45500 25.04600
C  -2.05300 27.77700 28.35500
O  -1.08300 28.42300 28.70200
C  -3.09400 27.09300 29.34600
C  -2.28700 26.16500 30.23700
O  -1.80900 25.06500 30.02000
O  -2.25400 26.80000 31.49200
C  -1.47400 26.08700 32.51300
H  -8.09200 22.09400 28.20000
H  -7.19100 22.66100 21.89000
H  -2.76800 27.06700 22.95900
H  -4.68200 24.67100 30.79600
H  -7.43500 23.75900 30.17900
H  -4.77400 22.38600 30.35700
H  -5.93600 21.56700 29.39700
H  -6.30000 21.90700 31.16300
H  -7.42900 25.79600 30.56100
H  -6.12300 26.92100 30.80500
H  -7.47900 25.96900 32.81500
H  -5.83400 26.56200 32.94100
H  -9.23700 19.77100 26.14000
H  -10.65000 20.96500 25.93400
H  -9.71500 20.93200 27.42400
H  -10.15600 18.94500 22.64400
H  -10.58900 19.90400 24.06600
H  -9.03900 18.86000 23.85100
H  -6.52200 25.25200 20.76200
H  -3.61000 25.67000 21.00400
H  -4.08400 23.76100 19.91600
H  -5.79200 23.57900 19.35600
H  -5.14300 22.70700 20.81400
H  -5.06500 27.96300 21.66100
H  -5.62200 27.32700 20.07800
H  -3.34200 28.93300 20.79000
H  -3.90400 28.44700 19.15400
H  -2.66400 27.52800 20.17000
H  -1.38700 28.50100 23.95700
H  -0.34500 28.25700 25.33500
H  -1.59400 29.44200 25.45500
H  -3.67000 27.90000 29.79900
H  -0.50000 25.93100 32.04800
H  -1.87300 25.20300 33.01000
H  -1.26900 26.78800 33.32200

