158

Mg 47.22900 34.30300 27.25000
C  45.58400 33.20100 30.14400
C  47.93000 37.27700 29.02100
C  48.27300 35.84900 24.46300
C  45.94500 31.69900 25.60300
N  46.88800 35.08400 29.35700
C  46.27400 34.39500 30.39200
C  46.34300 35.23500 31.70000
C  46.78100 36.61200 31.12400
C  47.19000 36.33300 29.72600
C  45.82200 37.81000 31.29000
C  47.34700 34.56900 32.63400
C  46.90200 34.50500 34.09600
H  47.99200 34.59800 35.18000
N  48.25100 36.18700 26.85100
C  48.47700 37.22400 27.73900
C  49.18100 38.26200 27.03800
C  49.21100 37.88600 25.64700
C  48.61300 36.60800 25.60100
C  49.73100 39.52000 27.67700
C  49.81800 38.55100 24.45800
O  49.97700 37.99300 23.36200
C  50.31700 39.96100 24.67800
N  47.09600 33.90100 25.29800
C  47.75800 34.58800 24.32700
C  47.58700 33.93700 23.03500
C  46.94100 32.52800 23.29200
C  46.62700 32.69400 24.79100
C  46.94500 34.64100 21.86100
C  47.77100 31.28000 22.86100
C  48.88900 30.96500 23.78900
N  46.06900 32.76500 27.77100
C  45.62200 31.71500 26.99100
C  44.95200 30.68900 27.76000
C  44.79500 31.32200 28.99100
C  45.58400 32.50900 28.95700
C  44.35200 29.40700 27.26600
C  44.17800 31.21700 30.24700
O  43.43400 30.36200 30.68800
C  44.55400 32.43300 31.03200
C  45.06400 31.94100 32.33100
O  46.14200 31.49800 32.61000
O  43.95100 31.82100 33.13200
C  44.08100 30.89900 34.28900
H  48.20300 38.17900 29.57300
H  48.71300 36.20100 23.52800
H  45.62000 30.81400 25.05300
H  45.32400 35.27500 32.08300
H  47.68200 36.94600 31.63900
H  45.29800 37.53300 32.20500
H  45.17800 37.92300 30.41800
H  46.30300 38.77900 31.42000
H  48.29900 35.09400 32.71100
H  47.57200 33.58100 32.23200
H  46.40000 33.54100 34.17600
H  46.28400 35.39000 34.25300
H  49.02500 40.29500 27.37600
H  50.75300 39.83200 27.46300
H  49.58100 39.46600 28.75500
H  49.62700 40.59300 25.23700
H  50.41200 40.34600 23.66200
H  51.29100 39.92000 25.16400
H  48.63800 33.77100 22.79700
H  45.94300 32.48000 22.85600
H  46.22300 35.28300 22.36500
H  46.47400 33.89100 21.22700
H  47.51400 35.42100 21.35400
H  48.04900 31.36000 21.81000
H  46.98300 30.52700 22.88700
H  48.94300 31.69500 24.59700
H  49.82600 30.76700 23.26900
H  48.62400 30.08000 24.36800
H  44.11000 28.84400 28.16800
H  44.87300 28.78000 26.54200
H  43.35500 29.62600 26.88300
H  43.66300 33.03100 31.22300
H  43.17700 30.34400 34.54200
H  44.14500 31.60800 35.11400
H  45.01500 30.33700 34.30400
Mg -11.36600 16.38700 42.74400
C  -7.97100 17.16500 43.15800
C  -12.09600 19.64300 42.39000
C  -14.51900 15.45400 42.58900
C  -10.44300 12.95500 43.07300
N  -10.11100 18.20900 42.50100
C  -8.77200 18.28200 42.80500
C  -8.30000 19.69600 42.62500
C  -9.68700 20.50800 42.61300
C  -10.71600 19.41000 42.50600
C  -9.82000 21.66400 43.76300
C  -7.48400 19.87700 41.31700
C  -5.98000 20.22700 41.38400
H  -5.12900 19.73400 40.17900
N  -13.05200 17.39300 42.41800
C  -13.16600 18.75900 42.26600
C  -14.62200 19.14700 42.07600
C  -15.34600 17.85100 42.07100
C  -14.31900 16.80000 42.35500
C  -15.12000 20.64100 41.87500
C  -16.80600 17.72500 41.65100
O  -17.40200 18.74200 41.47000
C  -17.56400 16.51100 41.41000
N  -12.37100 14.41500 42.67400
C  -13.69400 14.32100 42.73700
C  -14.12600 12.90200 42.79900
C  -12.82600 12.03300 42.80600
C  -11.82500 13.19400 42.82200
C  -15.08100 12.53100 44.02600
C  -12.61300 11.11900 41.57400
C  -12.87100 9.64400 41.85700
N  -9.52600 15.26500 42.91600
C  -9.34200 13.91200 43.14300
C  -7.92100 13.70200 43.34000
C  -7.31800 14.93200 43.41600
C  -8.38400 15.81700 43.10900
C  -7.21900 12.38300 43.58400
C  -6.12000 15.64100 43.58100
O  -4.94600 15.27700 43.81900
C  -6.48500 17.17700 43.47800
C  -6.13900 17.78500 44.78800
O  -6.87200 17.78700 45.77900
O  -4.80200 18.26700 44.71700
C  -4.18700 18.53900 46.03600
H  -12.26300 20.70700 42.21000
H  -15.54600 15.08500 42.62400
H  -10.10700 11.93800 43.28400
H  -7.64100 19.97100 43.44800
H  -9.84000 21.02100 41.66400
H  -8.82800 21.81100 44.19200
H  -10.50900 21.38600 44.56000
H  -10.07000 22.61700 43.29700
H  -7.90200 20.73700 40.79400
H  -7.65100 19.01900 40.66600
H  -5.69800 19.92500 42.39200
H  -5.98800 21.31500 41.44000
H  -15.42100 20.68300 40.82800
H  -14.32700 21.38200 41.97900
H  -16.01300 20.81800 42.47300
H  -17.00000 15.68200 40.98300
H  -18.34400 16.84000 40.72300
H  -17.97600 16.16100 42.35700
H  -14.67800 12.55100 41.92700
H  -12.81600 11.45300 43.72900
H  -15.58600 13.42700 44.38700
H  -14.50800 12.12100 44.85800
H  -15.89100 11.86000 43.73800
H  -11.64400 11.23500 41.09000
H  -13.39200 11.29900 40.83300
H  -12.10200 9.04000 41.37400
H  -13.84400 9.32700 41.48200
H  -12.87600 9.40000 42.91900
H  -7.54900 11.72300 42.78200
H  -7.59700 11.98700 44.52700
H  -6.14200 12.54400 43.63500
H  -5.88300 17.55300 42.65000
H  -3.10900 18.58600 45.87800
H  -4.34300 17.80100 46.82300
H  -4.48500 19.50300 46.44800

