158

Mg 27.20900 50.24600 26.01200
C  25.28900 51.49800 28.74000
C  29.47300 49.04700 28.34600
C  29.28200 49.45200 23.55100
C  25.09600 51.82600 23.80700
N  27.39400 50.35400 28.27100
C  26.43400 50.81700 29.19000
C  26.74200 50.43000 30.64500
C  28.20100 49.85800 30.51600
C  28.36600 49.67000 28.97800
C  29.29100 50.90500 30.93700
C  25.72600 49.54200 31.38000
C  24.99800 50.26300 32.60500
H  25.89800 50.38700 33.91000
N  29.09300 49.35400 25.92000
C  29.82000 48.89300 26.96000
C  31.03800 48.24300 26.46300
C  31.03400 48.38000 25.03600
C  29.77300 49.01700 24.76300
C  32.13400 47.62200 27.36800
C  32.03500 47.85300 24.04400
O  31.97500 48.11200 22.88600
C  33.02800 46.80500 24.41900
N  27.24800 50.72400 23.97500
C  28.10800 50.22700 23.17500
C  27.71600 50.32700 21.70000
C  26.43700 51.14500 21.78100
C  26.23000 51.25100 23.26900
C  28.75600 50.98100 20.75300
C  25.37800 50.53300 20.87700
C  24.23800 49.72700 21.43800
N  25.51900 51.36200 26.20800
C  24.69900 51.86200 25.17800
C  23.50000 52.44600 25.72800
C  23.68900 52.41700 27.10700
C  24.90700 51.71100 27.34900
C  22.46300 53.16100 24.97300
C  23.21000 52.78400 28.46300
O  22.20300 53.41900 28.76700
C  24.14200 52.27100 29.57100
C  24.78300 53.39400 30.22100
O  25.74400 53.97400 29.79200
O  24.17500 53.54400 31.47200
C  24.57000 54.85000 32.20000
H  30.05600 48.57500 29.13900
H  29.81700 49.12000 22.65800
H  24.35500 52.28800 23.15200
H  26.70800 51.37300 31.19000
H  28.24700 48.86400 30.96100
H  28.78000 51.86000 31.05600
H  30.01000 51.17400 30.16200
H  29.68100 50.57500 31.90000
H  26.26300 48.65100 31.70600
H  24.97600 49.24700 30.64600
H  24.11200 49.69400 32.88300
H  24.73200 51.25800 32.24900
H  32.25600 46.57400 27.09600
H  31.84900 47.65000 28.42000
H  33.02000 48.25700 27.34900
H  33.61600 47.14800 25.27000
H  33.77900 46.81300 23.63000
H  32.53900 45.84800 24.60500
H  27.61700 49.25600 21.52200
H  26.57200 52.19100 21.50600
H  28.25900 51.75400 20.16700
H  29.16700 50.22800 20.08000
H  29.55400 51.45900 21.32200
H  25.95100 49.95400 20.15300
H  24.89200 51.26100 20.22900
H  24.04500 49.83100 22.50600
H  24.42300 48.69200 21.15100
H  23.35200 50.07500 20.90700
H  21.45200 52.97400 25.33500
H  22.36700 52.74300 23.97000
H  22.69300 54.22300 25.04800
H  23.59800 51.57900 30.21400
H  24.61300 55.61500 31.42500
H  25.60400 54.84600 32.54700
H  24.04200 55.05600 33.13100
Mg 1.42600 42.53700 26.04500
C  2.62100 42.58500 29.17400
C  -1.36600 40.84500 27.26800
C  0.30600 42.16900 22.86800
C  4.32900 43.92900 24.72900
N  0.59800 41.98000 28.06400
C  1.29000 42.13400 29.17800
C  0.40600 41.86700 30.46300
C  -0.87300 41.28100 29.79000
C  -0.55200 41.33300 28.27000
C  -1.32100 39.85100 30.21900
C  0.21200 43.11600 31.39500
C  0.84700 43.17700 32.80400
H  0.72500 41.93800 33.74100
N  -0.30400 41.61400 25.22300
C  -1.26000 40.92700 25.87700
C  -2.26400 40.47500 25.01400
C  -1.85700 40.87100 23.71300
C  -0.57900 41.68000 23.88300
C  -3.57500 39.63500 25.40000
C  -2.49800 40.70600 22.34500
O  -2.09600 41.13700 21.25500
C  -3.81300 39.89000 22.18800
N  2.21500 42.95800 24.08000
C  1.50400 42.75400 22.98300
C  2.35400 42.95900 21.74200
C  3.39800 43.93200 22.31100
C  3.34400 43.66800 23.80400
C  2.84700 41.52400 21.11800
C  3.46700 45.41400 21.86100
C  2.21400 46.28700 21.88800
N  3.15600 43.00800 26.77300
C  4.22200 43.64200 26.10800
C  5.32000 43.86600 27.10200
C  4.73700 43.43500 28.34800
C  3.44600 42.91000 28.09900
C  6.64000 44.47500 26.97700
C  4.96300 43.30200 29.75100
O  6.00300 43.41400 30.39900
C  3.56900 42.75000 30.35100
C  3.84800 41.45700 31.13000
O  3.78500 40.28300 30.83600
O  4.33400 41.90100 32.36100
C  5.07700 40.86500 33.09500
H  -2.32000 40.46600 27.64100
H  0.09300 41.90600 21.83000
H  5.29000 44.26100 24.33100
H  0.94400 41.09900 31.02000
H  -1.73700 41.91800 29.97700
H  -0.60500 39.56100 30.98900
H  -1.32100 39.08800 29.44100
H  -2.29000 40.01600 30.68800
H  -0.87200 43.19800 31.48000
H  0.54400 43.99600 30.84400
H  0.40100 43.96000 33.41700
H  1.89700 43.45700 32.71200
H  -3.82400 38.95900 24.58300
H  -4.40900 40.31900 25.55400
H  -3.28000 39.17000 26.34000
H  -3.74300 38.81100 22.32500
H  -4.22100 40.13100 21.20700
H  -4.51900 40.40200 22.84200
H  1.83900 43.48100 20.93500
H  4.38500 43.60100 21.99000
H  2.10100 40.74900 21.29500
H  3.80200 41.29900 21.59300
H  2.86400 41.66000 20.03700
H  3.92000 45.38200 20.87000
H  4.16600 45.98800 22.46900
H  2.12800 46.97200 22.73100
H  1.28800 45.72200 21.77900
H  2.33800 46.88100 20.98200
H  6.47100 45.24700 26.22600
H  7.33000 43.70300 26.63600
H  6.98700 44.86500 27.93300
H  3.23400 43.41300 31.14900
H  5.74800 40.35600 32.40300
H  4.50800 40.02800 33.50000
H  5.60000 41.42700 33.86900

