158

Mg -1.32800 16.88000 26.48000
C  -1.79000 14.77400 29.23500
C  -1.90700 19.61000 28.51000
C  -1.49400 18.91900 23.73400
C  -1.33000 14.10100 24.39800
N  -1.68100 17.11100 28.68400
C  -1.73700 16.11000 29.60100
C  -2.04000 16.72800 30.99000
C  -2.29500 18.22800 30.74700
C  -1.89600 18.38100 29.18800
C  -3.77900 18.64500 31.03000
C  -0.97000 16.42100 32.05300
C  -0.95400 17.12400 33.40700
H  -0.74800 16.23500 34.68900
N  -1.64400 18.94300 26.20000
C  -1.66600 19.91100 27.19000
C  -1.59200 21.21300 26.61800
C  -1.51400 21.08100 25.21100
C  -1.61000 19.60600 24.98700
C  -1.53300 22.48600 27.53800
C  -1.35600 22.14000 24.13600
O  -1.35500 21.93400 22.91500
C  -0.94800 23.48600 24.58600
N  -1.69200 16.53800 24.28200
C  -1.51300 17.59300 23.40000
C  -1.29700 17.08100 21.98300
C  -1.19300 15.48800 22.24100
C  -1.37100 15.35900 23.74800
C  -2.55000 17.33000 21.08100
C  0.12600 14.83400 21.62600
C  1.35500 14.88900 22.56600
N  -1.50500 14.88900 26.70700
C  -1.51900 13.85300 25.73300
C  -1.56200 12.55700 26.43700
C  -1.79700 12.91200 27.78500
C  -1.74100 14.31600 27.87800
C  -1.37700 11.28600 25.74100
C  -1.92700 12.31400 29.06600
O  -1.97800 11.13600 29.47100
C  -2.14300 13.46400 30.04500
C  -1.25900 13.16600 31.15200
O  -0.02800 13.18600 31.10600
O  -2.05900 12.82600 32.23800
C  -1.40400 12.21000 33.46100
H  -2.00500 20.42100 29.23400
H  -1.25700 19.52900 22.86000
H  -1.19700 13.22900 23.75300
H  -2.96700 16.22900 31.27300
H  -1.63700 18.87900 31.32200
H  -4.20200 18.74200 30.03000
H  -3.87700 19.55600 31.62000
H  -4.40400 17.96800 31.61300
H  0.00600 16.39100 31.56800
H  -1.10700 15.42400 32.47300
H  -1.79900 17.79500 33.56400
H  -0.10800 17.78500 33.22000
H  -1.71500 22.36600 28.60600
H  -2.36800 23.13100 27.26300
H  -0.56800 22.97200 27.40000
H  -1.75400 23.93000 25.17100
H  -0.75000 24.08000 23.69300
H  0.05100 23.43000 25.01900
H  -0.33800 17.31700 21.52100
H  -2.06300 15.10300 21.70800
H  -3.19000 16.45900 20.94400
H  -2.15900 17.61600 20.10500
H  -3.14900 18.20000 21.35100
H  0.32700 15.38700 20.70900
H  -0.14100 13.81400 21.35200
H  1.50100 13.86000 22.89500
H  1.22900 15.50400 23.45700
H  2.27400 15.16500 22.04900
H  -0.64700 10.69900 26.29900
H  -0.95700 11.33900 24.73700
H  -2.31400 10.78200 25.97500
H  -3.20200 13.53100 30.29300
H  -1.39200 13.04800 34.15700
H  -0.34300 11.98100 33.36700
H  -2.05300 11.48900 33.95900
Mg 1.41400 -0.56400 43.79600
C  4.92100 0.03200 43.12600
C  0.68400 2.53100 42.76500
C  -1.70000 -1.63900 43.59300
C  2.38300 -3.98500 44.41600
N  2.72600 0.93200 42.95900
C  4.05300 1.05700 42.83500
C  4.44000 2.48900 42.42800
C  3.14600 3.27200 42.55900
C  2.04000 2.19500 42.81600
C  3.10500 4.38700 43.64500
C  5.04700 2.50100 40.97200
C  6.21800 3.51300 40.65600
H  6.66600 3.71800 39.21700
N  -0.29900 0.30600 43.12500
C  -0.40400 1.64900 42.70400
C  -1.84500 1.91300 42.44800
C  -2.50600 0.67000 42.64800
C  -1.48000 -0.37200 43.13400
C  -2.37300 3.28200 42.11200
C  -4.04900 0.58100 42.51400
O  -4.66600 1.64000 42.30600
C  -4.71900 -0.75500 42.74400
N  0.50600 -2.65200 43.58200
C  -0.84000 -2.67800 43.83800
C  -1.27700 -3.98400 44.41400
C  0.02600 -4.78900 44.44200
C  1.08700 -3.74100 44.18000
C  -2.04200 -3.91200 45.86100
C  -0.03100 -6.08600 43.52000
C  0.22700 -7.44000 44.13700
N  3.18600 -1.74400 43.91000
C  3.45300 -3.02700 44.28700
C  4.87900 -3.20000 44.51200
C  5.45700 -2.03600 43.95300
C  4.46600 -1.21300 43.60500
C  5.55200 -4.44100 45.05000
C  6.72000 -1.44700 43.64900
O  7.80800 -1.93500 43.70800
C  6.44800 -0.03200 43.05900
C  7.14500 0.96900 43.96300
O  6.67400 1.32200 45.03300
O  8.26600 1.52000 43.37800
C  8.71700 2.70900 44.16000
H  0.54200 3.59900 42.58200
H  -2.73500 -1.91600 43.80200
H  2.59200 -4.99900 44.76400
H  5.13700 2.90700 43.15400
H  2.97700 3.76700 41.60200
H  2.23100 4.28500 44.28800
H  2.92300 5.28500 43.05500
H  4.09300 4.31700 44.10100
H  4.34300 2.67100 40.15700
H  5.27400 1.46200 40.73400
H  6.99000 3.27200 41.38600
H  5.90900 4.43800 41.14400
H  -2.99400 3.11000 41.23300
H  -1.61500 3.93500 41.67900
H  -2.76100 3.80400 42.98700
H  -5.78500 -0.65500 42.53900
H  -4.69000 -1.14900 43.76000
H  -4.24900 -1.47600 42.07500
H  -2.01000 -4.44500 43.75100
H  0.32700 -5.08200 45.44800
H  -1.99200 -2.86300 46.15300
H  -1.49200 -4.50400 46.59300
H  -3.05900 -4.25500 45.67400
H  0.79600 -5.90300 42.83400
H  -0.90500 -6.09600 42.86800
H  -0.44300 -8.09600 43.58200
H  -0.04300 -7.49800 45.19200
H  1.26200 -7.77100 44.05800
H  5.43100 -5.36200 44.48000
H  5.09800 -4.80500 45.97200
H  6.56900 -4.32800 45.42500
H  6.89900 0.04300 42.07000
H  8.61000 2.54100 45.23100
H  8.26600 3.66300 43.88600
H  9.79900 2.65700 44.03400

