158

Mg 25.21700 -7.57800 46.70700
C  27.99100 -5.52500 45.91300
C  23.39000 -5.73500 44.43100
C  23.03600 -10.02100 46.72000
C  27.38100 -9.58500 48.53500
N  25.69300 -5.77800 45.31700
C  26.87000 -5.12900 45.17200
C  26.75800 -3.90600 44.26000
C  25.26700 -3.91500 43.85200
C  24.73100 -5.19700 44.62000
C  24.39500 -2.69400 44.13700
C  27.68400 -3.96800 43.03100
C  28.21100 -2.71800 42.36300
H  27.82000 -2.65600 40.93500
N  23.49800 -7.83000 45.69900
C  22.84000 -6.97600 44.82300
C  21.66800 -7.68100 44.30500
C  21.53000 -8.91900 44.97900
C  22.72800 -8.99100 45.82700
C  20.65100 -7.01500 43.36400
C  20.35500 -9.92000 44.70100
O  19.34700 -9.56700 44.10300
C  20.36100 -11.25200 45.27300
N  25.17800 -9.43700 47.61700
C  24.15900 -10.26300 47.49600
C  24.50500 -11.66500 47.85600
C  25.83500 -11.46500 48.64300
C  26.20300 -10.11000 48.15700
C  23.45300 -12.47600 48.57300
C  26.94500 -12.58000 48.33400
C  27.82500 -12.90700 49.48600
N  27.27800 -7.50400 47.27400
C  27.96200 -8.34600 48.15300
C  29.27800 -7.78400 48.46300
C  29.33200 -6.74000 47.52600
C  28.11600 -6.66300 46.80200
C  30.29300 -8.39900 49.43900
C  30.18500 -5.58900 47.17000
O  31.29700 -5.29300 47.55800
C  29.36800 -4.79700 46.03800
C  29.29700 -3.38100 46.38900
O  28.88500 -2.89900 47.43000
O  29.65100 -2.67200 45.25500
C  29.23000 -1.24700 45.24400
H  22.75000 -5.12400 43.79100
H  22.25300 -10.78000 46.79100
H  27.93400 -10.19900 49.24900
H  26.94000 -2.97700 44.80000
H  24.96200 -4.10100 42.82200
H  23.94900 -2.34700 43.20500
H  25.11300 -1.89500 44.32100
H  23.69300 -2.82700 44.96000
H  27.09300 -4.39400 42.22000
H  28.49300 -4.61000 43.37900
H  29.29700 -2.77800 42.44100
H  27.98100 -1.78100 42.87200
H  20.27900 -7.62200 42.53800
H  20.98500 -6.06500 42.94800
H  19.77400 -6.78500 43.96800
H  21.28100 -11.74500 44.95900
H  19.47400 -11.78900 44.93900
H  20.36200 -11.36000 46.35700
H  24.81900 -12.22300 46.97400
H  25.57700 -11.30000 49.68900
H  23.99800 -13.25100 49.11300
H  22.88500 -12.95600 47.77600
H  22.74100 -11.92100 49.18300
H  27.58000 -12.10900 47.58400
H  26.52600 -13.41000 47.76500
H  27.75700 -12.20900 50.32100
H  28.85600 -12.84800 49.14000
H  27.72300 -13.92600 49.86000
H  31.26400 -8.53400 48.96400
H  29.96100 -9.37300 49.80100
H  30.29200 -7.76800 50.32800
H  29.93000 -4.80500 45.10400
H  29.43800 -0.73900 44.30200
H  29.66400 -0.59000 45.99800
H  28.15700 -1.09100 45.35600
Mg 6.09500 57.12200 42.15600
C  5.30700 53.46300 41.92600
C  9.07200 56.21200 40.54000
C  6.46400 60.23800 41.84100
C  2.81000 57.53100 43.29000
N  7.01600 55.03800 41.36300
C  6.53400 53.75400 41.33900
C  7.54400 52.71100 40.72800
C  8.78500 53.65300 40.48400
C  8.30800 55.04200 40.83600
C  10.08100 53.24000 41.25500
C  7.00800 52.09200 39.50000
C  7.53900 50.67000 39.23700
H  7.05400 50.11000 37.87900
N  7.54100 58.10600 41.37600
C  8.71500 57.68900 40.77600
C  9.44500 58.77800 40.37800
C  8.74800 59.95200 40.69700
C  7.54500 59.45400 41.31100
C  10.84900 58.58800 39.70200
C  9.40300 61.36900 40.57600
O  10.43300 61.62400 39.97400
C  8.70800 62.57500 41.30800
N  4.65200 58.67600 42.22200
C  5.26600 59.87200 42.39800
C  4.23900 60.86400 42.91500
C  2.97200 60.05200 43.27300
C  3.51900 58.67600 42.94100
C  4.70500 61.87100 43.97200
C  1.67400 60.45300 42.42700
C  0.28000 60.29700 43.06200
N  4.47100 55.84100 42.72200
C  3.25400 56.22300 43.21000
C  2.54800 54.99500 43.58300
C  3.33400 53.89400 43.15900
C  4.46700 54.43600 42.55400
C  1.26400 54.99900 44.20800
C  3.43700 52.45600 43.16100
O  2.71300 51.59400 43.63900
C  4.74000 52.11900 42.36600
C  4.46200 51.02300 41.33900
O  3.68400 51.02800 40.38900
O  5.22900 49.94600 41.73600
C  4.91200 48.70100 41.04000
H  10.06300 56.07200 40.10300
H  6.75000 61.29200 41.82100
H  1.84800 57.81500 43.72300
H  7.67500 51.95700 41.50400
H  9.08500 53.66700 39.43600
H  9.94400 52.42100 41.96200
H  10.39300 54.08100 41.87400
H  10.95500 52.89700 40.70100
H  7.08400 52.67200 38.58000
H  5.92900 52.00300 39.62400
H  7.27400 49.98700 40.04400
H  8.62000 50.80800 39.22200
H  11.39400 57.80700 40.23100
H  11.44200 59.50200 39.65400
H  10.69900 58.06500 38.75800
H  8.74800 62.48600 42.39300
H  7.78400 62.68600 40.74000
H  9.39200 63.40500 41.13100
H  4.06900 61.45900 42.01800
H  2.67900 60.18000 44.31500
H  5.67300 62.22100 43.61500
H  5.03000 61.41900 44.90900
H  4.11200 62.77800 44.08900
H  1.54000 59.70000 41.65100
H  1.77500 61.43300 41.96200
H  -0.45400 60.69300 42.35900
H  0.25500 60.68200 44.08100
H  0.01200 59.25000 43.20400
H  0.77200 54.03100 44.10900
H  0.67200 55.79900 43.76300
H  1.21900 55.09500 45.29300
H  5.36900 51.71800 43.16000
H  3.84100 48.64400 40.84700
H  5.26100 47.84000 41.61100
H  5.40500 48.56100 40.07800

