158

Mg 41.06900 9.57600 29.31400
C  42.93500 10.84300 31.88400
C  38.91400 8.32900 31.62500
C  39.33100 8.36300 26.71000
C  43.50700 10.85100 27.04300
N  41.09600 9.37200 31.55600
C  41.81400 10.22900 32.40500
C  41.15700 10.21300 33.78200
C  40.04600 9.15000 33.69400
C  40.03900 8.84900 32.22900
C  40.40100 7.88400 34.60600
C  40.71500 11.61700 34.35400
C  40.07400 11.70500 35.65200
H  40.58200 12.68300 36.73300
N  39.43500 8.46100 29.17300
C  38.60900 8.03200 30.27500
C  37.42500 7.33800 29.69500
C  37.57100 7.35100 28.28100
C  38.79500 8.07900 27.98700
C  36.27500 6.74200 30.49400
C  36.60600 6.76600 27.19900
O  36.75000 6.81100 25.97700
C  35.40100 6.03100 27.64200
N  41.37100 9.60100 27.20000
C  40.44500 9.06300 26.34700
C  40.88600 9.29300 24.91400
C  42.15800 10.06200 25.01800
C  42.36500 10.25300 26.52300
C  41.05000 7.93300 24.18500
C  42.11600 11.45000 24.32500
C  41.31700 12.56600 24.98700
N  42.79900 10.65900 29.38100
C  43.71700 11.01500 28.46700
C  44.80600 11.77000 29.02600
C  44.47000 11.72300 30.33100
C  43.30500 11.02300 30.54500
C  45.85400 12.47100 28.35200
C  44.89700 12.17900 31.64000
O  45.87500 12.86000 31.90100
C  43.83200 11.76100 32.63700
C  44.32800 11.10500 33.93500
O  44.92900 10.05600 33.95900
O  44.07700 11.88100 35.07000
C  44.49600 11.44900 36.42200
H  38.15000 8.00800 32.33600
H  38.85700 7.98700 25.80100
H  44.15500 11.23300 26.25200
H  41.98000 9.99100 34.46000
H  39.06800 9.53600 33.98000
H  40.26300 7.01500 33.96400
H  39.71900 7.77100 35.44900
H  41.44600 7.87000 34.91600
H  39.98000 12.00800 33.65100
H  41.60900 12.23800 34.41100
H  40.12800 10.69400 36.05700
H  39.02200 11.84000 35.39900
H  35.26400 7.12900 30.36800
H  36.56900 6.91400 31.52900
H  36.18200 5.67100 30.31300
H  35.71300 5.11700 28.14600
H  34.85500 5.77200 26.73500
H  34.69600 6.62300 28.22700
H  40.20000 9.89900 24.32200
H  43.05400 9.59300 24.61200
H  40.62000 7.07700 24.70600
H  42.12200 7.73300 24.17400
H  40.62100 7.91500 23.18400
H  41.71700 11.43900 23.31100
H  43.18300 11.64800 24.22400
H  42.03600 13.24200 25.44900
H  40.55600 12.19500 25.67300
H  40.75200 13.11100 24.23200
H  45.54700 12.67300 27.32600
H  46.84600 12.05400 28.52700
H  45.97700 13.40000 28.90900
H  43.15000 12.59400 32.81100
H  44.27800 10.45000 36.80100
H  43.99400 12.16800 37.06900
H  45.57700 11.54600 36.51800
Mg 46.45400 25.97400 28.19600
C  47.13600 28.09100 30.85300
C  45.58000 23.50100 30.62000
C  46.02400 23.88300 25.70900
C  48.02800 28.15800 26.09000
N  46.28100 25.87100 30.50000
C  46.57600 26.91700 31.33200
C  46.30300 26.54600 32.77800
C  46.06500 25.03100 32.67400
C  45.99500 24.70600 31.20500
C  47.11100 24.15100 33.41700
C  45.13800 27.44200 33.38100
C  44.84600 27.12700 34.80500
H  44.90300 28.24400 35.80900
N  45.86500 23.97300 28.13500
C  45.58400 23.16500 29.22200
C  45.35000 21.84600 28.65000
C  45.47500 21.89900 27.21400
C  45.75600 23.30000 26.97500
C  45.12200 20.60700 29.58100
C  45.44100 20.82700 26.18900
O  45.76400 20.99200 25.00400
C  45.01600 19.50200 26.61900
N  47.00200 25.99400 26.23200
C  46.54600 25.05300 25.35500
C  46.60800 25.50100 23.86100
C  47.27000 26.95500 23.97100
C  47.37800 27.06800 25.53700
C  47.32500 24.57900 22.86900
C  46.48800 28.12100 23.27700
C  47.40800 29.07800 22.39100
N  47.34500 27.79900 28.33700
C  48.05900 28.56800 27.42000
C  48.56200 29.72800 28.03400
C  48.22900 29.65700 29.37800
C  47.54100 28.40400 29.53500
C  49.42000 30.75700 27.35000
C  48.35500 30.27200 30.67800
O  48.85200 31.31300 31.09500
C  47.69500 29.20700 31.73700
C  48.81300 28.68600 32.64000
O  49.67600 27.93400 32.28100
O  48.80400 29.39500 33.79000
C  49.95400 29.13400 34.67000
H  45.13500 22.75700 31.28400
H  45.97200 23.31500 24.77800
H  48.33600 28.85400 25.30700
H  47.18400 26.78300 33.37500
H  45.06900 24.95100 33.10900
H  47.75800 24.68300 34.11500
H  47.71000 23.65300 32.65400
H  46.56900 23.40300 33.99500
H  44.21300 27.15900 32.87800
H  45.42300 28.48900 33.27900
H  45.65100 26.47400 35.14300
H  43.91300 26.56300 34.81000
H  44.20400 20.11000 29.26700
H  44.91800 20.77600 30.63800
H  45.94100 19.89800 29.46200
H  45.83300 19.09100 27.21100
H  45.00100 18.78700 25.79700
H  44.05300 19.56200 27.12600
H  45.61600 25.64800 23.43400
H  48.26000 26.83800 23.53200
H  46.51600 23.91500 22.56600
H  48.13300 24.06600 23.39000
H  47.75800 25.10600 22.01900
H  46.12300 28.69600 24.12800
H  45.65400 27.61000 22.79700
H  47.21400 29.03000 21.32000
H  48.45700 28.78500 22.43800
H  47.33400 30.08800 22.79400
H  49.71100 30.61400 26.31000
H  50.36100 30.92600 27.87200
H  48.81900 31.65700 27.48400
H  47.05200 29.92400 32.24700
H  50.31100 28.10500 34.62700
H  49.67400 29.48500 35.66300
H  50.73600 29.86500 34.46300

