158

Mg 24.01600 -6.70400 47.58300
C  26.12200 -4.12400 46.43300
C  21.66000 -5.57000 45.39300
C  22.16700 -9.39000 48.40200
C  26.79800 -8.11600 49.23800
N  23.95700 -5.05200 46.06700
C  24.85500 -4.09400 45.87300
C  24.35200 -3.03900 44.79000
C  22.77600 -3.41600 44.65000
C  22.76300 -4.71900 45.45000
C  21.83300 -2.33000 45.32900
C  25.15300 -3.11800 43.54800
C  25.69900 -1.82400 42.93800
H  25.05700 -1.40700 41.58000
N  22.10600 -7.30400 47.12400
C  21.38000 -6.78300 46.04600
C  20.06700 -7.55500 45.92000
C  20.15100 -8.57100 46.93800
C  21.49700 -8.42200 47.58800
C  18.89700 -7.10400 45.08000
C  19.06500 -9.60200 47.26000
O  18.08000 -9.59800 46.50200
C  19.23300 -10.56900 48.42200
N  24.33300 -8.47300 48.71000
C  23.48200 -9.42000 48.92200
C  23.92500 -10.46900 49.96400
C  25.45500 -10.07300 50.15500
C  25.58800 -8.82800 49.32600
C  23.03700 -10.51000 51.27400
C  26.51800 -11.05200 49.76600
C  26.58100 -11.43100 48.29800
N  26.08700 -6.29100 47.79800
C  27.02300 -6.88300 48.59900
C  28.23100 -6.05300 48.54500
C  27.96900 -4.97200 47.70300
C  26.61000 -5.17200 47.26800
C  29.53100 -6.23600 49.17600
C  28.40100 -3.73800 47.13100
O  29.48000 -3.08600 47.23100
C  27.24900 -3.19200 46.19100
C  26.95200 -1.85700 46.62200
O  26.13600 -1.56500 47.50900
O  27.77000 -0.96100 46.00500
C  27.64000 0.48100 46.38300
H  20.97200 -5.27300 44.59800
H  21.70000 -10.37300 48.48800
H  27.49500 -8.57500 49.94200
H  24.48500 -2.07600 45.28400
H  22.40900 -3.68100 43.65800
H  22.52300 -1.67700 45.86300
H  21.16100 -2.71300 46.09700
H  21.40400 -1.65600 44.58700
H  24.53400 -3.56100 42.76900
H  25.96800 -3.83400 43.65800
H  26.75200 -2.08300 42.82400
H  25.58100 -0.95400 43.58500
H  18.40200 -7.90500 44.53000
H  19.17200 -6.39400 44.30100
H  18.14800 -6.55100 45.64700
H  18.27200 -11.05800 48.58500
H  19.40600 -10.12500 49.40200
H  19.92200 -11.36700 48.14500
H  23.98400 -11.45600 49.50600
H  25.56900 -9.95100 51.23300
H  22.68800 -11.49100 51.59400
H  22.15000 -9.88100 51.19100
H  23.62900 -10.20100 52.13500
H  26.25900 -11.98700 50.26300
H  27.49900 -10.78900 50.16100
H  26.85900 -12.48200 48.21000
H  27.40300 -10.90600 47.81300
H  25.62500 -11.21700 47.82000
H  29.92400 -5.31900 49.61500
H  30.22400 -6.62100 48.42900
H  29.59700 -6.98500 49.96500
H  27.65100 -3.13800 45.17900
H  27.79200 1.14900 45.53500
H  28.30800 0.68900 47.21800
H  26.67100 0.89800 46.65700
Mg -6.07400 24.97200 24.90700
C  -4.42900 26.22300 27.78700
C  -7.94000 22.81700 26.84600
C  -7.43400 23.55000 22.01600
C  -4.15200 27.09000 23.00000
N  -6.07800 24.46900 27.05400
C  -5.37900 25.14000 28.04100
C  -5.98900 24.81000 29.37500
C  -6.89000 23.53300 29.07400
C  -6.92000 23.52700 27.53300
C  -6.46500 22.13400 29.69100
C  -6.84100 25.96500 29.98600
C  -6.85400 26.03600 31.51100
H  -6.17600 24.91200 32.26400
N  -7.54200 23.41300 24.49700
C  -8.18800 22.68500 25.41700
C  -9.09900 21.74000 24.83300
C  -9.04100 22.01800 23.36800
C  -7.97600 23.01500 23.23300
C  -9.97000 20.80000 25.64300
C  -9.71800 21.23100 22.26600
O  -9.49600 21.35300 21.10100
C  -10.83500 20.20700 22.60600
N  -5.66800 25.12000 22.86300
C  -6.40200 24.52000 21.84600
C  -6.01900 25.02900 20.52800
C  -5.11400 26.25300 20.84600
C  -5.01500 26.18400 22.31700
C  -5.33300 23.97500 19.63500
C  -5.63400 27.67100 20.30400
C  -6.70000 28.29100 21.24200
N  -4.68900 26.39600 25.23000
C  -3.98200 27.15400 24.37200
C  -3.14800 28.11700 25.14900
C  -3.24600 27.74800 26.51700
C  -4.17700 26.72500 26.49100
C  -2.30300 29.21600 24.50700
C  -2.79800 27.98500 27.85800
O  -1.99700 28.76600 28.29700
C  -3.64900 27.07000 28.77000
C  -2.81500 26.28600 29.70500
O  -2.49100 25.13100 29.57000
O  -2.67500 27.04700 30.87100
C  -1.83400 26.59000 32.05000
H  -8.63500 22.23800 27.45700
H  -7.97300 23.29300 21.10100
H  -3.42100 27.69800 22.46200
H  -5.20200 24.46300 30.04400
H  -7.85600 23.71500 29.54700
H  -5.37700 22.17800 29.73600
H  -6.72100 21.30900 29.02600
H  -6.95700 22.02000 30.65700
H  -7.90500 25.76200 29.86200
H  -6.68700 26.95400 29.55500
H  -7.89700 25.99500 31.82700
H  -6.34500 26.98700 31.66500
H  -9.69900 19.78300 25.35800
H  -10.97200 21.08100 25.31800
H  -9.95200 20.91100 26.72700
H  -10.41100 19.33800 23.10800
H  -11.25500 19.99400 21.62300
H  -11.57700 20.73200 23.20800
H  -6.83800 25.38600 19.90400
H  -4.15700 26.03600 20.37400
H  -4.33300 23.73500 19.99500
H  -5.20900 24.31900 18.60900
H  -6.02400 23.13600 19.72000
H  -6.08800 27.58900 19.31600
H  -4.83300 28.40500 20.21600
H  -7.48900 28.78300 20.67400
H  -6.27900 29.05600 21.89600
H  -7.17000 27.55500 21.89400
H  -2.91300 29.76100 23.78700
H  -1.42000 28.71400 24.11200
H  -2.05500 29.87900 25.33600
H  -4.24500 27.75900 29.36900
H  -2.36400 26.34200 32.96900
H  -1.21300 27.44700 32.31000
H  -1.25800 25.71100 31.76200

