158

Mg 54.14500 23.79800 44.07400
C  51.32900 25.56400 43.14300
C  52.81600 20.98400 42.45100
C  57.16300 22.23200 44.18600
C  55.56600 26.76200 45.06400
N  52.25000 23.35400 42.91100
C  51.30200 24.24100 42.61800
C  50.15400 23.59500 41.74900
C  50.43400 22.06200 41.93700
C  51.91100 22.10500 42.42100
C  49.36900 21.38000 42.94000
C  50.39100 24.03300 40.33700
C  49.19300 24.54800 39.41500
H  48.74900 23.69700 38.24400
N  54.87500 21.87300 43.59000
C  54.12600 20.81100 43.02300
C  54.90400 19.65200 42.96500
C  56.04700 19.97800 43.72800
C  56.10300 21.44400 43.88800
C  54.39500 18.33700 42.38400
C  57.13000 19.04200 44.28800
O  57.07400 17.87000 43.94500
C  58.24400 19.42800 45.20700
N  56.19800 24.49900 44.25600
C  57.26000 23.61000 44.40400
C  58.53800 24.33600 44.98000
C  57.98100 25.78400 45.10800
C  56.52900 25.68000 44.80000
C  59.07700 23.75700 46.30600
C  58.78700 26.85400 44.25800
C  59.13000 28.15900 45.01200
N  53.51400 25.78000 44.38400
C  54.13400 26.87500 44.83800
C  53.19600 28.01700 45.03800
C  52.04600 27.53700 44.35600
C  52.29800 26.18400 43.96500
C  53.54300 29.42200 45.53600
C  50.70600 27.89600 43.80900
O  50.19300 29.02000 43.86400
C  50.23300 26.62000 43.09600
C  49.75700 27.00200 41.76400
O  50.47300 27.17100 40.76000
O  48.36100 27.16900 41.80700
C  47.57900 27.65400 40.63500
H  52.40000 19.99800 42.23400
H  58.16100 21.79800 44.27600
H  56.08800 27.57200 45.57800
H  49.13700 23.89200 42.00500
H  50.35400 21.46100 41.03100
H  48.90600 22.05100 43.66400
H  49.82100 20.46700 43.32700
H  48.54900 21.04300 42.30700
H  50.94600 23.29000 39.76400
H  51.06400 24.89000 40.34500
H  49.42700 25.52200 38.98400
H  48.32900 24.83000 40.01600
H  54.12400 18.66100 41.38000
H  53.53900 17.88100 42.88100
H  55.13000 17.53300 42.34600
H  59.09800 19.91800 44.74000
H  58.54000 18.48900 45.67500
H  57.92000 20.12400 45.98000
H  59.33800 24.27500 44.24300
H  58.23500 25.98900 46.14800
H  59.02500 22.67300 46.20900
H  58.39300 24.08600 47.08800
H  60.08900 24.12500 46.47800
H  58.11000 27.25800 43.50600
H  59.63800 26.31500 43.84100
H  60.15400 28.14500 45.38700
H  58.44500 28.40900 45.82200
H  59.18400 28.95000 44.26300
H  54.34700 29.87800 44.95900
H  53.80700 29.32000 46.58900
H  52.75100 30.16800 45.46700
H  49.42200 26.21000 43.69700
H  47.81300 28.68900 40.38500
H  46.51400 27.65800 40.86900
H  47.63600 27.10400 39.69600
Mg 8.96300 47.69600 26.64400
C  6.61400 47.82000 29.42900
C  11.47100 48.23100 28.81600
C  11.07800 47.54600 24.11200
C  6.24400 47.47200 24.53700
N  9.00600 47.85500 28.88400
C  7.96800 47.94600 29.82600
C  8.60300 48.38800 31.16600
C  10.02700 48.84500 30.87700
C  10.21900 48.20700 29.44100
C  10.28500 50.36400 30.95400
C  8.44500 47.30300 32.30500
C  8.22000 47.86100 33.68200
H  8.12900 46.81600 34.77100
N  11.00000 47.73500 26.49100
C  11.88000 48.11600 27.49200
C  13.18500 48.16800 26.97600
C  13.11600 47.66300 25.63600
C  11.68300 47.64700 25.33600
C  14.37100 48.56800 27.73800
C  14.18200 47.21200 24.70500
O  13.99200 46.72300 23.60700
C  15.61300 47.35700 25.23600
N  8.72400 47.85500 24.63400
C  9.69900 47.62800 23.75200
C  9.15300 47.41700 22.33400
C  7.65200 47.45000 22.44300
C  7.50800 47.53600 24.01500
C  9.80000 48.21400 21.15800
C  7.06900 46.23600 21.82500
C  5.54800 46.39900 21.43200
N  6.88800 47.63400 26.85500
C  5.92100 47.56700 25.91900
C  4.67800 47.62400 26.58300
C  4.89400 47.66400 27.95800
C  6.27400 47.67900 28.05900
C  3.51600 47.78700 25.77300
C  4.21900 47.76300 29.23300
O  3.00800 47.76900 29.46700
C  5.36900 47.65500 30.27200
C  5.31000 46.30900 30.91000
O  5.89700 45.32300 30.51000
O  4.48500 46.42700 31.98600
C  4.46000 45.25300 32.92200
H  12.31400 48.45600 29.47300
H  11.70400 47.33000 23.24300
H  5.41200 47.15600 23.90500
H  7.94500 49.17200 31.54000
H  10.69500 48.28000 31.52700
H  9.40500 50.88200 30.57300
H  11.09600 50.69900 30.30700
H  10.50100 50.76800 31.94300
H  9.26600 46.58600 32.29900
H  7.54700 46.70400 32.15500
H  7.26300 48.37200 33.78700
H  9.06900 48.53100 33.82100
H  14.19800 48.78800 28.79100
H  14.79300 49.49900 27.36000
H  14.98700 47.67200 27.82200
H  15.79100 48.41800 25.41400
H  16.32500 46.99000 24.49700
H  15.80700 46.72300 26.10100
H  9.36500 46.36000 22.16900
H  7.28200 48.38400 22.01900
H  10.04600 47.49000 20.38100
H  10.65600 48.78100 21.52600
H  9.07600 48.98000 20.88100
H  7.13100 45.34900 22.45600
H  7.44900 45.97000 20.83900
H  5.09400 45.53600 21.91800
H  5.40800 46.27000 20.35900
H  5.26200 47.42800 21.65000
H  3.19400 46.84000 25.34000
H  3.62300 48.63300 25.09400
H  2.69300 48.04700 26.43800
H  5.20200 48.33100 31.11000
H  5.16700 44.45500 32.69400
H  3.50000 44.74600 32.82700
H  4.43400 45.50100 33.98300

