158

Mg 5.96800 53.69900 40.49000
C  5.31600 50.20500 40.18200
C  9.20900 53.14400 39.56300
C  6.13600 56.92000 39.81100
C  2.39300 54.04300 40.81500
N  7.03600 51.91300 39.84200
C  6.61200 50.61800 39.79700
C  7.79100 49.70000 39.25600
C  9.01800 50.65100 39.39000
C  8.36000 52.01000 39.63600
C  9.99100 50.19500 40.42200
C  7.57400 49.03100 37.80700
C  6.77300 49.87600 36.77100
H  6.20000 49.23600 35.60500
N  7.54400 54.87400 39.94200
C  8.86500 54.49800 39.72900
C  9.63300 55.65600 39.82600
C  8.75100 56.78000 40.00600
C  7.37000 56.23800 39.84500
C  11.13700 55.54600 39.71100
C  9.17600 58.21400 40.19200
O  10.32700 58.54600 39.95800
C  8.21100 59.17700 40.77900
N  4.46100 55.23600 40.33800
C  4.82700 56.47300 39.99700
C  3.56500 57.40500 39.74400
C  2.41200 56.51200 40.10800
C  3.11600 55.17800 40.43200
C  3.47400 58.71800 40.54700
C  1.39400 56.33100 38.98600
C  0.48200 57.49400 38.67400
N  4.23700 52.46500 40.72200
C  2.91900 52.73100 40.98500
C  2.13900 51.55900 41.07800
C  3.04300 50.51600 40.78600
C  4.30700 51.16200 40.52800
C  0.64500 51.43900 41.38600
C  3.20800 49.09300 40.72400
O  2.34600 48.24300 40.84400
C  4.67500 48.83000 40.34900
C  4.74800 47.97600 39.12800
O  4.18300 48.24200 38.04500
O  5.25100 46.69900 39.48000
C  4.96200 45.77500 38.37300
H  10.25600 52.87600 39.40200
H  6.34400 57.99100 39.76200
H  1.31100 54.19100 40.84200
H  7.75200 48.85900 39.94800
H  9.58100 50.73600 38.46100
H  10.90600 50.28200 39.83600
H  9.97300 49.14100 40.69800
H  10.08400 50.71700 41.37400
H  7.10500 48.05100 37.89100
H  8.58000 48.96800 37.39100
H  7.54700 50.58100 36.47000
H  5.92200 50.35500 37.25400
H  11.63900 56.50600 39.82900
H  11.44800 55.22100 38.71900
H  11.62600 54.85800 40.40100
H  8.73000 59.99900 41.27300
H  7.59700 58.61400 41.48200
H  7.74100 59.75200 39.98100
H  3.55800 57.74800 38.70900
H  1.82900 56.82300 40.97400
H  4.32500 58.76400 41.22600
H  2.56500 58.93900 41.10600
H  3.63900 59.57800 39.89800
H  0.61400 55.64600 39.31900
H  1.84000 56.07100 38.02600
H  0.79600 58.04100 37.78500
H  0.30900 58.13700 39.53700
H  -0.51900 57.11700 38.46200
H  0.43000 51.13300 42.41000
H  0.26900 50.80400 40.58400
H  0.20200 52.42300 41.22800
H  5.14300 48.37400 41.22200
H  3.90700 45.83300 38.10600
H  5.08800 44.75500 38.73800
H  5.57000 46.06600 37.51700
Mg 16.47200 51.25200 26.17900
C  18.31900 49.75400 28.74500
C  14.19400 52.24400 28.45500
C  14.96700 52.65100 23.72400
C  19.02400 50.03300 24.07700
N  16.23800 50.97800 28.36600
C  17.16200 50.53000 29.25900
C  16.75600 50.83700 30.70300
C  15.24200 51.19800 30.61600
C  15.22400 51.52300 29.04400
C  14.17000 50.07800 30.97100
C  17.79900 51.71900 31.33000
C  17.81100 51.87800 32.82300
H  16.77500 51.12800 33.65600
N  14.75800 52.32600 26.06000
C  14.01300 52.62900 27.09400
C  13.01000 53.57100 26.63700
C  13.16800 53.75800 25.20400
C  14.30500 52.85800 24.91600
C  11.91100 54.08800 27.53100
C  12.31000 54.46600 24.17400
O  12.57000 54.48700 22.94000
C  10.93300 54.96100 24.50100
N  16.83600 51.06800 24.20700
C  16.03300 51.85400 23.37600
C  16.64300 51.92100 21.97700
C  17.95700 51.06400 22.14600
C  17.98400 50.67200 23.57900
C  15.61800 51.47800 20.95700
C  19.19500 51.79200 21.58500
C  19.69000 53.06000 22.31400
N  18.21000 49.98600 26.32500
C  19.16200 49.59800 25.38600
C  20.31000 48.90100 25.95900
C  19.94900 48.84200 27.36300
C  18.72700 49.59000 27.49300
C  21.56800 48.47300 25.23500
C  20.36200 48.44300 28.71800
O  21.34800 47.87200 29.14300
C  19.40700 49.18600 29.66700
C  18.95600 48.25000 30.68900
O  17.96200 47.51400 30.48200
O  19.61500 48.43100 31.85700
C  19.11800 47.53500 32.99100
H  13.54900 52.66400 29.23000
H  14.58500 53.36300 22.99000
H  19.85700 49.83900 23.39800
H  16.90400 49.82500 31.07900
H  15.03800 52.12500 31.15300
H  14.74700 49.17800 31.18300
H  13.58000 49.96000 30.06200
H  13.44400 50.17600 31.77900
H  17.69600 52.73700 30.95400
H  18.76900 51.38700 30.96100
H  17.74200 52.95300 32.98900
H  18.80800 51.53500 33.09900
H  11.72500 55.13200 27.28000
H  12.12400 53.84900 28.57300
H  11.00400 53.51200 27.34900
H  10.98100 55.68500 25.31400
H  10.50800 54.04100 24.90200
H  10.38100 55.22300 23.59800
H  16.94500 52.96200 21.86800
H  17.87700 50.14200 21.57100
H  15.10600 52.30600 20.46600
H  14.87100 50.87700 21.47700
H  16.08600 50.91500 20.15000
H  18.88000 52.09900 20.58800
H  20.08200 51.16200 21.52500
H  19.51000 53.95200 21.71500
H  20.70900 53.02800 22.69800
H  19.06900 53.23500 23.19300
H  21.94000 49.24600 24.56300
H  21.43600 47.51700 24.72800
H  22.33000 48.36000 26.00600
H  20.01200 50.03700 29.98200
H  18.78600 48.22200 33.76900
H  20.02000 46.96800 33.22300
H  18.21400 46.94900 32.82400

