158

Mg 46.88000 16.49400 28.23100
C  44.96700 15.74800 31.04800
C  49.23000 17.87700 30.21100
C  48.57400 17.25000 25.46400
C  44.35500 14.96000 26.16600
N  47.11400 16.74500 30.35300
C  46.18000 16.38800 31.37600
C  46.69900 16.69100 32.79600
C  48.07600 17.40100 32.44300
C  48.19800 17.29600 30.90300
C  48.18200 18.84300 33.03200
C  46.94900 15.31300 33.49600
C  46.50700 15.27200 34.97500
H  46.39500 16.54900 35.73400
N  48.68800 17.41600 27.92300
C  49.47000 17.94200 28.87500
C  50.57000 18.71200 28.22900
C  50.33500 18.55600 26.81400
C  49.17000 17.71200 26.65400
C  51.72800 19.39100 28.94100
C  51.17300 19.15800 25.67100
O  50.88900 18.97600 24.49700
C  52.37000 20.02500 25.96300
N  46.50000 16.12300 26.02200
C  47.40300 16.60200 25.19600
C  46.84400 16.41200 23.75600
C  45.70000 15.33500 24.00600
C  45.49600 15.44100 25.51600
C  46.30400 17.76600 23.14300
C  46.16200 13.83500 23.67500
C  45.13600 12.98900 22.81600
N  45.01400 15.57500 28.45000
C  44.16000 15.02800 27.57500
C  42.98700 14.45200 28.38300
C  43.24200 14.81600 29.72700
C  44.50700 15.50800 29.69900
C  41.80800 13.66700 27.93800
C  42.80400 14.67500 31.08000
O  41.80000 14.09500 31.53800
C  43.85300 15.33700 31.98400
C  43.32800 16.56000 32.59500
O  43.34800 17.69800 32.19900
O  42.85800 16.24100 33.79200
C  42.55300 17.37400 34.69900
H  50.01400 18.37800 30.78300
H  49.07300 17.72900 24.61800
H  43.60700 14.43000 25.57100
H  45.96800 17.34000 33.27700
H  48.87700 16.76600 32.82000
H  48.06000 19.55300 32.21400
H  49.08400 19.10500 33.58500
H  47.33300 18.93700 33.70900
H  47.98500 14.98400 33.57100
H  46.51700 14.48600 32.93200
H  47.19300 14.63400 35.53300
H  45.45600 14.98200 34.96700
H  52.61600 18.89300 28.55000
H  51.68800 19.24200 30.02000
H  51.71500 20.46900 28.78000
H  52.80400 20.43100 25.05000
H  53.13100 19.33500 26.32600
H  52.17800 20.78300 26.72300
H  47.58200 15.87300 23.16200
H  44.78900 15.56100 23.45200
H  47.06400 18.16300 22.46900
H  46.07500 18.53400 23.88100
H  45.47000 17.62200 22.45700
H  46.08000 13.34400 24.64500
H  47.13700 13.79400 23.19100
H  44.46800 13.59900 22.20700
H  44.43900 12.44000 23.44900
H  45.66500 12.25800 22.20500
H  41.80400 13.78000 26.85400
H  40.91800 14.11900 28.37500
H  42.14700 12.67300 28.23200
H  44.10600 14.62700 32.77200
H  43.26900 18.19300 34.62700
H  42.71900 17.09700 35.74000
H  41.55600 17.80400 34.60200
Mg -5.46000 25.40600 25.54200
C  -3.55800 26.91100 28.19500
C  -6.64800 23.09400 27.82700
C  -6.93400 23.73600 23.08700
C  -3.80100 27.52000 23.30400
N  -5.00200 24.97000 27.67100
C  -4.34100 25.81100 28.55200
C  -4.68800 25.48300 30.02100
C  -5.38200 24.10600 29.96800
C  -5.71700 23.99300 28.40500
C  -4.44500 22.87400 30.29200
C  -5.66400 26.49900 30.68600
C  -5.23600 26.96100 32.07400
H  -4.50700 25.94400 32.91600
N  -6.62000 23.71700 25.44600
C  -7.07300 22.93000 26.52100
C  -8.09200 21.95000 26.05300
C  -8.14400 22.10400 24.70500
C  -7.19700 23.19700 24.33400
C  -8.90200 21.03200 27.09600
C  -9.20900 21.56400 23.74400
O  -9.29400 21.98700 22.60700
C  -10.12500 20.45600 24.21400
N  -5.30600 25.53500 23.45100
C  -6.10700 24.77400 22.61500
C  -5.96200 25.15900 21.18200
C  -5.10100 26.44800 21.28500
C  -4.65300 26.55900 22.78000
C  -5.26400 23.93600 20.47900
C  -5.72100 27.81600 20.76800
C  -5.16300 28.48200 19.53100
N  -3.93100 26.92000 25.70000
C  -3.42200 27.66800 24.66000
C  -2.56300 28.66000 25.28500
C  -2.61200 28.43400 26.67700
C  -3.40800 27.31800 26.85600
C  -1.74100 29.68700 24.50100
C  -2.16300 28.84600 28.02100
O  -1.34200 29.65300 28.30300
C  -2.84000 27.89900 29.06700
C  -1.78100 27.25800 29.81400
O  -0.99400 26.37500 29.39300
O  -1.85400 27.62700 31.14500
C  -0.78600 27.08400 32.00600
H  -7.05000 22.36300 28.53100
H  -7.34100 23.26000 22.19300
H  -3.46500 28.26600 22.58100
H  -3.79800 25.30400 30.62300
H  -6.28200 23.97600 30.57000
H  -4.68700 22.53300 31.29800
H  -3.39900 23.18100 30.32000
H  -4.43900 22.13700 29.48900
H  -6.61300 25.98900 30.85100
H  -5.64100 27.43500 30.12900
H  -6.01700 27.38200 32.70700
H  -4.55700 27.81300 32.04600
H  -9.11300 19.98600 26.87200
H  -9.80300 21.53100 27.45200
H  -8.40700 20.89900 28.05800
H  -10.81700 20.07300 23.46400
H  -10.78000 20.93500 24.94300
H  -9.58500 19.63400 24.68300
H  -6.92300 25.44400 20.75400
H  -4.14500 26.30500 20.78200
H  -6.00500 23.66100 19.72800
H  -5.10300 23.05300 21.09900
H  -4.35700 24.24400 19.95900
H  -5.58500 28.54400 21.56800
H  -6.79600 27.82600 20.59000
H  -4.23500 28.87700 19.94600
H  -5.88400 29.22700 19.19500
H  -4.93100 27.74800 18.76000
H  -0.93300 29.20600 23.95000
H  -1.22800 30.31000 25.23300
H  -2.33800 30.29900 23.82600
H  -3.41000 28.55600 29.72400
H  0.19800 27.26400 31.57200
H  -0.93500 26.03200 32.24900
H  -0.80200 27.62600 32.95200

