158

Mg 8.48200 3.39500 27.78500
C  9.96200 1.95100 30.72200
C  6.48200 5.09800 30.17400
C  7.06200 4.68700 25.28600
C  10.40300 1.33900 25.84500
N  8.13200 3.30200 30.29300
C  8.92200 2.73300 31.22100
C  8.44800 3.02700 32.63100
C  7.34200 4.10800 32.34000
C  7.28300 4.11400 30.85600
C  5.86100 3.71300 32.94500
C  9.55800 3.39100 33.60800
C  9.26900 4.53400 34.60400
H  9.97000 4.29800 35.96100
N  6.94200 4.66600 27.70500
C  6.27300 5.27300 28.78500
C  5.31500 6.27000 28.19100
C  5.57500 6.27800 26.80100
C  6.55600 5.14100 26.58000
C  4.29400 7.12700 28.96700
C  5.04900 7.15100 25.72400
O  5.49700 7.18300 24.54300
C  3.88100 7.98600 26.01600
N  8.59500 2.95400 25.74900
C  7.93500 3.70000 24.88600
C  8.34800 3.36400 23.45900
C  9.58600 2.47000 23.70500
C  9.49300 2.17200 25.19500
C  7.20400 2.56500 22.66500
C  10.88700 3.14100 23.32600
C  11.72300 3.92100 24.32400
N  9.81700 1.90700 28.12600
C  10.49500 1.11400 27.21400
C  11.43000 0.26600 27.83600
C  11.28300 0.57500 29.21700
C  10.28900 1.58800 29.37500
C  12.30700 -0.83900 27.26100
C  11.77900 0.21000 30.52200
O  12.72700 -0.50900 30.77400
C  10.91300 1.10500 31.53600
C  10.09000 0.16700 32.30200
O  9.17800 -0.45800 31.89600
O  10.49900 0.18200 33.61000
C  9.82200 -0.67100 34.58100
H  5.87100 5.78500 30.76400
H  6.64800 5.12800 24.37800
H  11.16400 0.86200 25.22400
H  8.10200 2.02200 32.87300
H  7.58100 5.11600 32.67900
H  5.18500 3.21900 32.24700
H  5.44600 4.66100 33.28700
H  5.91800 3.09000 33.83700
H  10.42800 3.53900 32.96900
H  9.65300 2.53500 34.27700
H  8.18900 4.64700 34.70100
H  9.69000 5.47400 34.24700
H  3.33800 6.60800 28.90000
H  4.30700 8.15000 28.59300
H  4.52200 7.24700 30.02700
H  3.58800 8.40200 25.05200
H  4.27600 8.81400 26.60500
H  3.11400 7.44800 26.57400
H  8.54000 4.20600 22.79400
H  9.66300 1.52800 23.16200
H  6.40800 2.59000 23.40900
H  7.31800 1.51400 22.39900
H  6.86200 3.17900 21.83200
H  10.69800 3.85400 22.52400
H  11.53700 2.39600 22.86600
H  11.15500 4.35800 25.14400
H  12.30100 4.71000 23.84400
H  12.38100 3.09500 24.59500
H  12.20600 -1.64700 27.98600
H  13.35500 -0.57600 27.39900
H  12.06300 -1.18400 26.25600
H  11.58900 1.64300 32.20100
H  9.53900 -0.01900 35.40700
H  10.48200 -1.34900 35.12200
H  8.93500 -1.08400 34.09900
Mg 26.02600 0.55700 29.36100
C  28.08000 0.12900 32.15500
C  23.41200 1.12800 31.32600
C  24.28900 0.82200 26.56800
C  28.83000 -0.47700 27.39100
N  25.77600 0.52000 31.50900
C  26.71600 0.43800 32.47200
C  26.16600 0.79000 33.83600
C  24.65100 0.95600 33.55200
C  24.62800 0.88300 32.00400
C  23.59500 -0.02000 34.20900
C  26.79700 2.05500 34.55600
C  27.35400 1.73400 36.03000
H  27.18200 2.84400 37.07200
N  24.04900 1.01600 28.98900
C  23.13900 1.21100 30.01400
C  21.86900 1.57800 29.25700
C  22.10900 1.39600 27.84600
C  23.54800 1.01500 27.70700
C  20.60800 1.96800 29.97500
C  21.13900 1.57200 26.76600
O  21.48400 1.46400 25.58700
C  19.71300 1.76600 27.04000
N  26.43000 0.09300 27.23800
C  25.57100 0.44200 26.28200
C  26.19700 0.41800 24.87300
C  27.68200 0.20900 25.18300
C  27.64200 -0.16600 26.67600
C  25.70100 -0.76700 23.97200
C  28.43600 1.58800 24.94800
C  29.92500 1.31600 24.37100
N  28.07200 -0.04900 29.63600
C  29.02100 -0.45300 28.78600
C  30.25800 -0.65300 29.47600
C  29.96000 -0.45000 30.80200
C  28.63200 -0.07800 30.87100
C  31.66700 -0.95900 28.81800
C  30.50500 -0.41900 32.13900
O  31.61200 -0.80400 32.55000
C  29.29900 0.05100 33.07700
C  29.11000 -0.96000 34.18100
O  28.59700 -2.06200 33.99800
O  29.73900 -0.59300 35.34700
C  29.56200 -1.50900 36.46100
H  22.52800 1.30900 31.94100
H  23.72900 1.10900 25.67600
H  29.74300 -0.64700 26.81600
H  26.21200 -0.15500 34.37700
H  24.32100 1.98100 33.72300
H  24.11600 -0.29400 35.12700
H  23.52500 -0.84200 33.49700
H  22.60300 0.29400 34.53300
H  26.09700 2.89000 34.56600
H  27.72000 2.27500 34.01900
H  28.42200 1.57600 35.88000
H  26.82000 0.81900 36.28600
H  19.98000 2.74800 29.54500
H  20.93300 2.49900 30.87000
H  19.87500 1.17200 30.10800
H  19.10800 1.68600 26.13800
H  19.59200 2.80500 27.34900
H  19.29600 1.15800 27.84300
H  25.97500 1.33600 24.32800
H  28.09200 -0.59400 24.57100
H  25.70300 -0.48800 22.91800
H  24.68600 -1.00900 24.28900
H  26.24700 -1.69500 24.14100
H  28.51400 2.00400 25.95200
H  27.88500 2.32000 24.35700
H  30.05100 1.57500 23.32000
H  30.27300 0.30200 24.57000
H  30.54900 2.07300 24.84700
H  32.36500 -0.99300 29.65400
H  31.80100 -0.10500 28.15400
H  31.68400 -1.79100 28.11400
H  29.50800 1.02100 33.52900
H  30.19500 -1.10100 37.24900
H  29.87600 -2.53900 36.28900
H  28.54500 -1.58300 36.84700

