158

Mg 17.39200 -1.74600 27.93300
C  16.12300 0.39800 30.64200
C  19.14400 -3.38500 30.14600
C  18.70300 -3.29200 25.30300
C  15.59700 0.43700 25.68000
N  17.74300 -1.37200 30.11100
C  16.95100 -0.68200 31.01900
C  17.43600 -0.96500 32.42000
C  18.61800 -1.97100 32.23800
C  18.41200 -2.36000 30.73300
C  20.05800 -1.36100 32.38800
C  16.30500 -1.47800 33.32400
C  16.30400 -1.37800 34.87300
H  17.47000 -0.67200 35.52700
N  18.61000 -3.29400 27.72900
C  19.28300 -3.85100 28.78900
C  20.06600 -4.92500 28.26800
C  19.94700 -4.97600 26.85300
C  19.06800 -3.87300 26.55800
C  20.81000 -5.76500 29.33800
C  20.61800 -5.88800 25.87700
O  20.36000 -5.83500 24.65000
C  21.52300 -7.07600 26.31600
N  17.23700 -1.35600 25.87800
C  17.97200 -2.20700 24.98200
C  17.71800 -1.82400 23.55800
C  16.51500 -0.82500 23.68700
C  16.43400 -0.56900 25.20300
C  19.03000 -1.24100 22.91700
C  15.23300 -1.31800 23.02600
C  15.18700 -0.86100 21.48700
N  16.11700 -0.03000 28.06200
C  15.47200 0.64000 27.01400
C  14.94500 1.79500 27.65700
C  15.08400 1.72200 29.00100
C  15.82700 0.62900 29.26600
C  14.18100 2.88300 26.97000
C  14.76100 2.40600 30.22500
O  14.14800 3.48400 30.39200
C  15.43200 1.52200 31.36300
C  16.34400 2.38300 32.16500
O  17.52600 2.57900 31.89700
O  15.55100 2.95000 33.16300
C  16.19600 4.05900 33.85800
H  19.73200 -3.99800 30.83200
H  19.15200 -3.84000 24.47100
H  15.07100 0.98900 24.89800
H  17.86300 -0.02800 32.77600
H  18.44900 -2.77200 32.95700
H  20.82700 -1.96400 31.90600
H  20.42500 -1.36200 33.41500
H  20.06200 -0.37200 31.93000
H  15.88300 -2.45800 33.09900
H  15.46600 -0.80600 33.14700
H  16.34700 -2.38500 35.28900
H  15.41100 -1.04600 35.40200
H  20.74800 -6.79600 28.99000
H  20.49000 -5.83700 30.37800
H  21.86700 -5.49700 29.36600
H  22.15200 -6.80100 27.16200
H  22.26800 -7.24900 25.53900
H  20.98100 -8.00000 26.51800
H  17.57400 -2.69600 22.92100
H  16.78700 0.08500 23.15200
H  19.75500 -0.77200 23.58200
H  18.72900 -0.44000 22.24200
H  19.70500 -1.94800 22.43600
H  14.31600 -1.07100 23.56200
H  15.37000 -2.39500 22.92700
H  15.30900 -1.67400 20.77100
H  16.04000 -0.21900 21.26800
H  14.21600 -0.43200 21.23900
H  14.50400 3.04300 25.94200
H  14.25900 3.78900 27.57100
H  13.10500 2.71400 27.01300
H  14.66900 1.21700 32.07900
H  16.25100 4.97900 33.27600
H  17.06000 3.73100 34.43500
H  15.50300 4.33100 34.65400
Mg 54.65100 24.22800 44.89900
C  52.00800 26.46500 43.87000
C  52.50200 21.58500 44.16600
C  57.37000 22.24500 44.61700
C  56.76400 27.03100 45.30700
N  52.51500 24.10100 43.98500
C  51.65300 25.13600 43.63200
C  50.31800 24.49000 43.07000
C  50.34600 23.03200 43.71500
C  51.84500 22.87500 44.02000
C  49.46900 22.86700 45.00000
C  50.19800 24.63100 41.57400
C  48.76900 24.59100 41.02400
H  48.64000 23.87400 39.63200
N  54.91700 22.21500 44.50600
C  53.92700 21.25500 44.35600
C  54.48600 19.95900 44.31700
C  55.86300 20.14200 44.29700
C  56.09800 21.55800 44.43400
C  53.75100 18.72500 43.90700
C  56.92500 19.04300 44.02800
O  56.58100 17.86300 44.02800
C  58.37900 19.30300 43.61700
N  56.78100 24.63000 44.77200
C  57.60700 23.61000 44.79400
C  59.07100 24.01700 45.18500
C  58.84400 25.56800 45.37600
C  57.39000 25.79400 45.13000
C  59.67800 23.28000 46.38800
C  59.72200 26.47100 44.30100
C  60.59200 27.63800 44.87400
N  54.42700 26.31300 44.84400
C  55.39900 27.30400 45.07100
C  54.72400 28.52500 45.04800
C  53.41400 28.28500 44.57700
C  53.27800 26.90800 44.46200
C  55.30000 29.82000 45.41400
C  52.14600 28.86800 44.18400
O  51.83900 30.03500 44.10300
C  51.19900 27.74400 43.58000
C  51.02700 28.04600 42.17300
O  51.91800 28.01700 41.33200
O  49.68200 28.25200 41.92500
C  49.37500 28.49000 40.50600
H  51.81800 20.77900 43.89400
H  58.35400 21.77500 44.67800
H  57.45400 27.83500 45.57000
H  49.53800 25.09100 43.53700
H  50.07400 22.33900 42.92000
H  50.01800 22.54500 45.88500
H  48.72700 22.10800 44.75200
H  48.90000 23.77700 45.18900
H  50.79800 23.81400 41.17500
H  50.59400 25.59800 41.26300
H  48.50300 25.64600 40.96200
H  48.15300 24.09700 41.77600
H  53.88800 18.68800 42.82700
H  52.66900 18.78000 44.01900
H  54.19000 17.85700 44.39900
H  58.59600 18.57100 42.84000
H  58.97800 19.35900 44.52600
H  58.36600 20.20300 43.00200
H  59.64600 23.79300 44.28700
H  58.98800 25.86600 46.41500
H  59.01200 22.57700 46.88800
H  60.11600 23.96300 47.11600
H  60.55700 22.74200 46.03400
H  59.03100 26.89000 43.56900
H  60.37800 25.79400 43.75400
H  60.12200 28.61900 44.80200
H  61.55900 27.72600 44.37900
H  60.86200 27.59300 45.92900
H  55.68600 29.81600 46.43300
H  54.46000 30.51300 45.44600
H  56.07800 30.15400 44.72800
H  50.33400 27.77300 44.24200
H  49.14700 29.52200 40.23900
H  48.37900 28.07100 40.36600
H  50.12700 28.19300 39.77500

