158

Mg -1.94400 35.32100 27.12400
C  -3.98700 34.07600 29.67100
C  -1.02900 37.93900 29.07800
C  -0.34600 36.72500 24.41000
C  -3.15000 32.80400 24.97900
N  -2.46200 35.91400 29.23800
C  -3.27900 35.23100 30.06700
C  -3.30000 35.89400 31.48700
C  -2.40600 37.20700 31.23700
C  -1.95400 37.02100 29.72800
C  -3.13700 38.55900 31.44100
C  -2.68000 35.00000 32.65100
C  -3.30400 35.11300 33.99900
H  -2.70100 36.18700 34.85700
N  -0.93700 37.05400 26.77800
C  -0.67900 38.04100 27.69000
C  0.09500 39.12200 27.12800
C  0.27000 38.80500 25.73500
C  -0.32100 37.46800 25.59000
C  0.43100 40.36200 27.96000
C  0.95800 39.67600 24.66500
O  0.78700 39.46400 23.49400
C  1.82400 40.92700 25.04200
N  -1.76100 34.85600 24.95800
C  -0.97500 35.50600 24.12000
C  -0.86800 34.88200 22.73100
C  -1.91500 33.75300 22.87400
C  -2.28900 33.77700 24.36400
C  -0.93400 35.83800 21.47200
C  -1.42500 32.41700 22.35000
C  -2.14100 32.04600 21.03800
N  -3.14400 33.73100 27.25800
C  -3.59100 32.79100 26.34900
C  -4.54400 31.90400 26.92200
C  -4.64500 32.37800 28.24400
C  -3.81800 33.51200 28.39100
C  -5.28700 30.82100 26.21100
C  -5.23700 31.93700 29.48300
O  -5.92700 31.01200 29.84900
C  -4.75300 33.10000 30.44100
C  -5.95800 33.72700 31.02100
O  -6.53100 34.66900 30.50100
O  -6.28000 33.08300 32.17400
C  -7.46600 33.65800 32.78500
H  -0.81700 38.70400 29.82800
H  0.26700 37.14700 23.61100
H  -3.59300 31.99700 24.39100
H  -4.31200 36.26000 31.65900
H  -1.52700 37.16400 31.88100
H  -2.56900 39.10400 32.19500
H  -4.17300 38.41300 31.74500
H  -3.36900 39.07700 30.51000
H  -1.66200 35.28800 32.91400
H  -2.72200 33.96800 32.30200
H  -3.19800 34.15100 34.50100
H  -4.36600 35.27500 33.81900
H  1.41300 40.33400 28.43100
H  -0.36200 40.52400 28.68900
H  0.52200 41.25000 27.33500
H  2.36900 40.83900 25.98100
H  1.09000 41.72300 25.17100
H  2.55000 41.10700 24.24900
H  0.09900 34.38000 22.72900
H  -2.81300 34.16700 22.41700
H  -1.50000 36.74300 21.69700
H  -1.59600 35.35300 20.75600
H  0.05400 36.04300 21.05900
H  -1.74200 31.63400 23.03900
H  -0.36000 32.18800 22.29700
H  -2.97300 31.39400 21.30600
H  -1.36600 31.55500 20.44900
H  -2.42600 32.95400 20.50600
H  -6.20600 30.58400 26.74600
H  -4.83100 29.85300 26.00000
H  -5.57600 31.32900 25.29100
H  -4.28000 32.61800 31.29700
H  -8.16800 33.80700 31.96500
H  -7.21200 34.53700 33.37700
H  -8.02200 32.99500 33.44700
Mg -4.71800 25.95600 26.34400
C  -3.55800 27.49100 29.18300
C  -6.49300 23.67400 28.25700
C  -5.25900 24.13900 23.65000
C  -2.52700 28.04200 24.39300
N  -4.98000 25.58500 28.47700
C  -4.46100 26.42400 29.46300
C  -5.01700 26.00000 30.82200
C  -5.72100 24.68200 30.53100
C  -5.73800 24.62700 28.99900
C  -5.05400 23.38600 31.18700
C  -6.10500 27.06900 31.28600
C  -6.43300 27.49500 32.72100
H  -5.82000 26.59800 33.84500
N  -5.96800 24.31300 25.92200
C  -6.64000 23.60100 26.87800
C  -7.38700 22.56700 26.13600
C  -6.98000 22.60900 24.79000
C  -6.03400 23.69600 24.74500
C  -8.42700 21.74100 26.87700
C  -7.41100 21.63800 23.70000
O  -6.87800 21.70700 22.61300
C  -8.31400 20.52700 23.92300
N  -3.98200 26.16100 24.27900
C  -4.37500 25.22200 23.39100
C  -3.84900 25.45800 21.96500
C  -3.04300 26.77400 22.23600
C  -3.18600 27.03200 23.69100
C  -2.96100 24.26800 21.45100
C  -3.51500 27.97100 21.32600
C  -2.79300 28.26400 20.03800
N  -3.26800 27.42300 26.67900
C  -2.47200 28.18500 25.81700
C  -1.70900 29.13600 26.60600
C  -2.15700 28.95000 27.96700
C  -3.09600 27.89600 27.90800
C  -0.70000 30.12600 26.09900
C  -2.11600 29.49400 29.28800
O  -1.50700 30.52900 29.66000
C  -3.07600 28.63200 30.20100
C  -2.42000 28.14100 31.44000
O  -1.48900 27.34100 31.39900
O  -2.87000 28.77900 32.62200
C  -2.07400 28.60400 33.76900
H  -7.01900 22.93500 28.86600
H  -5.50100 23.69300 22.68300
H  -1.85500 28.65100 23.78600
H  -4.22400 25.76500 31.53200
H  -6.79000 24.68600 30.74200
H  -5.63600 22.80600 31.90300
H  -4.06000 23.62400 31.56700
H  -4.98800 22.68600 30.35400
H  -7.07300 26.84600 30.83700
H  -5.91600 28.02600 30.79900
H  -7.50000 27.30400 32.83300
H  -6.13100 28.53700 32.82700
H  -7.92900 21.38400 27.77900
H  -9.06500 20.96700 26.45200
H  -9.14900 22.43100 27.31300
H  -8.28700 19.86200 23.05900
H  -9.32900 20.91300 24.01700
H  -7.90100 20.02200 24.79600
H  -4.66400 25.55900 21.24800
H  -1.97200 26.77100 22.03400
H  -2.86300 23.43700 22.14900
H  -1.94900 24.58700 21.20000
H  -3.36400 23.88600 20.51400
H  -3.68400 28.84200 21.95900
H  -4.56200 27.74400 21.12800
H  -3.40100 28.21000 19.13500
H  -1.98600 27.54200 19.91600
H  -2.44100 29.29500 19.98400
H  -1.08800 30.66400 25.23400
H  0.27800 29.68500 25.90700
H  -0.49000 30.89700 26.84000
H  -3.72300 29.40500 30.61400
H  -2.05400 29.52900 34.34500
H  -1.00600 28.47200 33.59500
H  -2.53700 27.82600 34.37600

