158

Mg 35.07900 48.29300 25.81500
C  35.10600 46.38800 28.88900
C  33.82400 50.97000 27.67100
C  34.61900 50.02900 22.94900
C  35.54000 45.37200 24.18400
N  34.57800 48.58300 28.01100
C  34.87000 47.79000 29.06500
C  34.82700 48.53900 30.42700
C  33.99400 49.78900 29.96700
C  34.17300 49.85000 28.46700
C  32.50200 49.82200 30.49700
C  36.24000 48.56100 31.18100
C  36.36300 48.09500 32.64500
H  36.34100 49.19400 33.68800
N  34.49400 50.25500 25.37000
C  34.09800 51.18900 26.24300
C  33.81100 52.45400 25.55400
C  34.14000 52.16700 24.20500
C  34.44300 50.71900 24.13500
C  33.34400 53.73700 26.25800
C  34.14900 53.12800 23.00900
O  34.70300 52.84900 21.93500
C  33.63000 54.49400 23.09500
N  35.17800 47.78300 23.80800
C  34.91900 48.67800 22.75900
C  34.89700 47.93300 21.41400
C  35.46700 46.50000 21.85500
C  35.32800 46.52200 23.37300
C  33.57400 47.93200 20.68900
C  36.86600 46.14700 21.40100
C  37.05700 44.89300 20.49900
N  35.25000 46.21800 26.33400
C  35.51400 45.13000 25.55400
C  35.74800 43.91100 26.40600
C  35.61500 44.44400 27.73600
C  35.22800 45.76300 27.63300
C  36.10700 42.53400 25.97800
C  35.66700 44.11200 29.09800
O  36.10100 43.07500 29.57800
C  35.51500 45.38500 29.92100
C  34.45800 45.03200 30.96200
O  33.39400 44.45000 30.72700
O  34.97500 45.22700 32.20500
C  34.18500 44.87400 33.40900
H  33.35600 51.80000 28.20500
H  34.31200 50.52500 22.02500
H  35.72800 44.43200 23.66100
H  34.16600 47.94100 31.05400
H  34.36400 50.73000 30.37400
H  32.45000 50.51900 31.33400
H  32.29100 48.83700 30.91400
H  31.76300 50.05200 29.72900
H  36.51200 49.61600 31.22100
H  36.98400 47.94700 30.67300
H  37.22400 47.42700 32.64000
H  35.52300 47.46400 32.93900
H  34.03000 54.48700 25.86300
H  33.44700 53.85200 27.33700
H  32.31300 53.94500 25.97400
H  32.70400 54.45400 23.66900
H  33.54700 54.73700 22.03500
H  34.47400 54.99700 23.56700
H  35.65800 48.46200 20.84000
H  34.69900 45.77600 21.58600
H  32.80100 48.33400 21.34500
H  33.16900 46.97700 20.35400
H  33.60000 48.52600 19.77600
H  37.47400 45.83500 22.25000
H  37.42800 46.96100 20.94400
H  37.78300 44.20600 20.93500
H  37.41600 45.23400 19.52900
H  36.04400 44.50100 20.41200
H  35.21600 41.91400 26.08400
H  36.94800 42.13200 26.54300
H  36.47100 42.61600 24.95400
H  36.54300 45.50800 30.26300
H  33.20900 45.35000 33.50300
H  34.68200 45.22800 34.31200
H  34.05000 43.79200 33.37400
Mg 16.52600 52.82400 26.73100
C  18.45600 51.20300 29.15500
C  14.44200 53.96500 29.13000
C  14.33700 53.84400 24.37600
C  18.50900 51.27800 24.32900
N  16.40900 52.53400 28.88900
C  17.38800 51.92300 29.65800
C  17.15400 52.28700 31.12200
C  15.71800 52.93300 31.10300
C  15.48500 53.14800 29.63400
C  14.56900 52.00900 31.75900
C  18.16200 53.27400 31.70000
C  18.54800 53.23400 33.20200
H  17.58400 52.39700 34.05800
N  14.65500 53.75200 26.75100
C  14.04600 54.21100 27.82000
C  12.91600 55.01400 27.53000
C  12.83400 54.98300 26.09400
C  14.00600 54.21000 25.64400
C  11.93200 55.69400 28.48700
C  11.83200 55.61800 25.14800
O  11.84200 55.46700 23.93700
C  10.79200 56.55800 25.67800
N  16.35200 52.44500 24.69800
C  15.39500 52.99200 23.89700
C  15.67400 52.81900 22.40600
C  17.06400 52.02900 22.34700
C  17.36800 51.96000 23.85300
C  14.49600 52.30800 21.53400
C  18.21500 52.73400 21.47200
C  18.85800 54.00800 22.02100
N  18.27200 51.58200 26.66100
C  18.91400 51.03200 25.60900
C  19.99600 50.27100 26.07900
C  19.87200 50.32900 27.45400
C  18.77900 51.08500 27.80000
C  21.12100 49.60800 25.31500
C  20.50400 49.87400 28.71400
O  21.47900 49.17600 28.95400
C  19.57200 50.42100 29.86700
C  19.12400 49.32900 30.71600
O  18.06600 48.69100 30.65900
O  19.98000 49.23000 31.78300
C  19.71700 48.21200 32.81000
H  13.82500 54.27100 29.97700
H  13.73600 54.26900 23.57000
H  19.28300 50.86000 23.68200
H  17.16200 51.33100 31.64700
H  15.55200 53.82600 31.70500
H  13.87800 52.64700 32.31000
H  15.07200 51.35300 32.47000
H  13.97500 51.46300 31.02600
H  17.79500 54.25400 31.39800
H  19.08600 53.26600 31.12100
H  18.56300 54.20500 33.69700
H  19.51300 52.74700 33.34500
H  12.01600 56.78000 28.53400
H  11.98700 55.36000 29.52300
H  10.89400 55.44000 28.27200
H  9.93400 56.02300 26.08600
H  10.47800 57.12000 24.79800
H  11.21300 57.31300 26.34300
H  15.88100 53.76800 21.91100
H  16.84700 51.03900 21.94600
H  14.60900 51.29500 21.14900
H  14.46500 52.92700 20.63700
H  13.56900 52.52200 22.06600
H  17.90000 53.08000 20.48700
H  18.93400 51.94800 21.24400
H  18.64500 54.04800 23.08900
H  18.48600 54.84900 21.43500
H  19.93500 53.87200 21.93100
H  20.77500 48.66300 24.89500
H  21.90500 49.41600 26.04800
H  21.40100 50.21900 24.45700
H  20.17700 51.08600 30.48200
H  19.16900 48.69800 33.61700
H  20.60300 47.82100 33.31000
H  19.23800 47.31300 32.42000

