158

Mg 48.53800 35.47000 28.27900
C  46.58600 33.55200 30.65000
C  48.75700 37.88400 30.40400
C  49.42400 37.29700 25.62700
C  47.66300 32.82000 25.94600
N  47.81100 35.58500 30.33200
C  47.02900 34.74300 31.17500
C  46.92000 35.38400 32.54400
C  47.21000 36.95300 32.24200
C  48.02200 36.75000 30.92600
C  45.93600 37.92400 32.11900
C  47.60400 34.72500 33.71900
C  48.76400 35.34600 34.57400
H  48.41200 35.99400 35.94900
N  49.22300 37.29600 28.12000
C  49.28600 38.12500 29.15600
C  49.85000 39.39600 28.76500
C  50.02600 39.28000 27.28800
C  49.51900 37.93400 26.88800
C  49.99600 40.52600 29.74800
C  50.54700 40.36400 26.32100
O  50.40500 40.21600 25.11300
C  51.12800 41.67300 26.84100
N  48.56100 35.12900 26.10300
C  48.96400 36.08100 25.19300
C  48.89700 35.67700 23.69900
C  48.46400 34.16600 23.90900
C  48.12700 34.04100 25.41100
C  47.92900 36.56200 22.85200
C  49.49200 33.22600 23.38400
C  50.58400 32.62700 24.34300
N  47.56200 33.55900 28.33000
C  47.34200 32.62700 27.28900
C  46.75800 31.42100 27.83200
C  46.30200 31.80700 29.06500
C  46.81400 33.09900 29.36400
C  46.52800 30.10500 27.09600
C  45.43700 31.48800 30.13000
O  44.69300 30.53000 30.28500
C  45.47000 32.62500 31.17100
C  45.71100 32.00400 32.50200
O  46.53600 31.20500 32.69300
O  44.79900 32.38400 33.41500
C  44.86100 31.67600 34.76200
H  48.70300 38.62000 31.21000
H  49.74300 37.96200 24.82200
H  47.40800 32.12200 25.14700
H  45.86300 35.32900 32.80400
H  47.73800 37.49600 33.02500
H  46.21900 38.70800 31.41700
H  45.45600 38.32700 33.01100
H  45.17300 37.36100 31.58300
H  47.97100 33.79600 33.28200
H  46.81100 34.39800 34.39100
H  49.33900 36.05700 33.98100
H  49.36800 34.47400 34.82300
H  48.99500 40.88900 29.98100
H  50.67100 41.29500 29.37100
H  50.50500 40.07600 30.60000
H  51.89000 41.40900 27.57400
H  50.34300 42.24100 27.34100
H  51.47600 42.26600 25.99500
H  49.94000 35.80400 23.40800
H  47.60500 33.95000 23.27400
H  47.13700 35.93400 22.44300
H  48.49600 37.15500 22.13400
H  47.43900 37.22800 23.56200
H  50.01800 33.70400 22.55800
H  48.86500 32.40800 23.03000
H  50.75200 33.43000 25.06200
H  51.54800 32.55800 23.83900
H  50.25200 31.67000 24.74500
H  47.36100 29.82500 26.45100
H  45.64300 30.18200 26.46500
H  46.33100 29.29700 27.80000
H  44.52700 33.14200 31.34600
H  45.54000 30.82400 34.73500
H  43.87300 31.36100 35.09800
H  45.18900 32.35700 35.54700
Mg 17.32900 51.13400 25.96000
C  19.23800 50.27500 28.75100
C  14.80000 52.10900 28.20600
C  15.59100 52.16800 23.38700
C  19.66500 49.72200 23.84500
N  17.22300 51.32900 28.27600
C  18.07600 50.88800 29.17500
C  17.54000 51.14700 30.64800
C  16.02100 51.42500 30.46700
C  15.98300 51.64800 28.84200
C  15.09400 50.28900 30.82600
C  18.27400 52.20800 31.41300
C  17.72400 52.57200 32.83700
H  16.77900 51.65800 33.61700
N  15.41500 51.91400 25.84800
C  14.62800 52.36000 26.83200
C  13.67500 53.25000 26.32900
C  13.79700 53.28900 24.87800
C  14.99100 52.43100 24.63800
C  12.60600 53.98100 27.16200
C  13.05000 54.05500 23.78100
O  13.31700 53.87800 22.60200
C  11.78400 54.84500 24.07600
N  17.48600 50.68800 23.87900
C  16.73200 51.49500 23.06000
C  17.28500 51.35400 21.60200
C  18.79800 50.81900 21.83000
C  18.64500 50.34200 23.29100
C  16.46300 50.59600 20.55600
C  19.97300 51.86000 21.62200
C  21.18300 51.35300 20.87600
N  19.13600 50.12500 26.18100
C  19.94400 49.54000 25.27700
C  21.12000 48.97500 25.97100
C  20.88600 49.12700 27.33200
C  19.65100 49.95800 27.40600
C  22.26200 48.41700 25.29000
C  21.37000 48.92900 28.66300
O  22.37800 48.37600 29.10000
C  20.27200 49.60000 29.65600
C  19.62100 48.60400 30.57600
O  18.73600 47.84400 30.30100
O  20.06300 48.83200 31.88700
C  19.31900 48.14500 32.92500
H  13.97000 52.29300 28.89100
H  15.19500 52.66100 22.49700
H  20.44700 49.43600 23.13900
H  17.73400 50.21100 31.17200
H  15.75400 52.36700 30.94500
H  14.17100 50.64800 31.28100
H  15.63600 49.60500 31.47900
H  14.68400 49.75700 29.96800
H  18.37200 53.12800 30.83700
H  19.29100 51.81800 31.46100
H  17.24200 53.52300 32.60900
H  18.55800 52.76300 33.51200
H  12.92600 55.01200 27.30900
H  12.39800 53.48400 28.10900
H  11.62900 53.97400 26.67900
H  11.94900 55.66600 24.77400
H  11.21400 54.11600 24.65200
H  11.06100 54.92900 23.26500
H  17.37200 52.39000 21.27700
H  18.86700 49.92600 21.20900
H  16.55600 51.00900 19.55200
H  15.40200 50.64500 20.80100
H  16.83400 49.57100 20.52800
H  20.17100 52.32900 22.58600
H  19.58000 52.68300 21.02500
H  21.32500 52.01900 20.02500
H  21.24200 50.31600 20.54400
H  22.07500 51.60100 21.45100
H  22.12800 48.38600 24.20900
H  22.32200 47.38900 25.64500
H  23.21000 48.88600 25.55500
H  20.69900 50.36700 30.30200
H  19.14200 48.90700 33.68400
H  20.11800 47.52800 33.33800
H  18.42100 47.56000 32.72900

