158

Mg 6.03300 52.81100 40.79400
C  6.14000 49.32500 40.26600
C  9.15700 53.09100 39.53100
C  5.50500 56.24900 40.57700
C  2.63500 52.46400 41.86600
N  7.37900 51.35700 39.92800
C  7.30500 49.95600 39.81000
C  8.63300 49.28200 39.27100
C  9.59500 50.53400 39.36000
C  8.70200 51.73300 39.59300
C  10.69100 50.45300 40.39900
C  8.52800 48.78000 37.77500
C  7.87100 49.51900 36.62900
H  6.69400 48.80300 35.87000
N  7.16100 54.49500 40.09500
C  8.48900 54.33000 39.76600
C  9.01500 55.67200 39.56100
C  7.93200 56.55600 39.67100
C  6.73800 55.79000 40.06000
C  10.49700 55.99800 39.39200
C  8.10100 58.07900 39.41300
O  9.28200 58.48700 39.22900
C  6.92400 59.03200 39.32300
N  4.30700 54.17100 41.11600
C  4.45900 55.51200 41.05200
C  3.17100 56.18300 41.65100
C  2.26000 54.99800 41.94800
C  3.04700 53.79700 41.60500
C  3.34900 56.99000 42.99000
C  0.86000 55.09900 41.22100
C  -0.30500 55.45200 42.21200
N  4.69600 51.22500 41.08000
C  3.37600 51.22200 41.55300
C  2.93200 49.80700 41.70100
C  4.05800 49.05100 41.30400
C  5.06800 49.92800 40.89600
C  1.61500 49.27600 42.11700
C  4.44000 47.71300 41.07300
O  3.82100 46.68700 41.24500
C  5.83800 47.81100 40.44900
C  5.83700 47.04400 39.11800
O  5.20900 47.40200 38.13900
O  6.56100 45.81300 39.26700
C  6.28900 44.88800 38.11300
H  10.21200 53.14900 39.25900
H  5.48200 57.34000 40.60500
H  1.66700 52.29900 42.34400
H  8.92100 48.46800 39.93500
H  10.11000 50.70000 38.41400
H  10.85100 51.38700 40.93800
H  11.59600 50.25800 39.82500
H  10.60200 49.56800 41.02900
H  8.03300 47.81600 37.88600
H  9.59100 48.71100 37.54600
H  8.67400 49.84100 35.96600
H  7.53100 50.47600 37.02500
H  10.65000 56.57300 38.47900
H  10.95400 55.01100 39.32600
H  10.99400 56.41800 40.26700
H  7.19700 59.86800 38.68000
H  6.49500 59.20600 40.30900
H  6.28500 58.40600 38.69800
H  2.76200 56.81700 40.86400
H  2.12000 54.93000 43.02700
H  4.18800 56.58300 43.55500
H  2.48700 57.01500 43.65600
H  3.61000 58.01600 42.72900
H  0.55700 54.18500 40.71100
H  0.94600 55.91400 40.50200
H  -0.67400 54.43400 42.33800
H  -1.06700 56.10600 41.78800
H  0.05300 55.83100 43.16900
H  0.92300 50.09600 42.30900
H  1.63000 48.84100 43.11600
H  1.06600 48.59500 41.46700
H  6.53400 47.33200 41.13800
H  6.59700 45.41600 37.21000
H  5.21800 44.71800 38.00700
H  6.88500 44.02300 38.40300
Mg -2.40000 33.92100 27.68900
C  -4.09400 31.86200 29.95800
C  -1.31500 35.81000 30.26300
C  -1.28000 36.17700 25.43500
C  -3.96800 32.22800 25.08500
N  -2.72000 33.80700 29.83200
C  -3.36900 32.86800 30.57600
C  -3.17400 33.00600 32.09200
C  -2.29600 34.35500 32.15500
C  -2.07500 34.69700 30.66000
C  -2.97000 35.56200 33.00600
C  -2.55400 31.79700 32.83100
C  -3.15500 31.30400 34.17400
H  -2.14100 31.25300 35.33600
N  -1.33900 35.68700 27.85600
C  -0.86000 36.22000 28.98400
C  -0.00500 37.31600 28.63500
C  0.04400 37.41400 27.19600
C  -0.90800 36.46000 26.72100
C  0.69300 38.04100 29.68700
C  0.90900 38.30300 26.35000
O  0.83600 38.40900 25.12000
C  1.99800 39.09700 27.03300
N  -2.55700 34.07200 25.57800
C  -2.01700 35.13800 24.86500
C  -2.19500 34.93300 23.35800
C  -2.92800 33.56100 23.26800
C  -3.21900 33.28800 24.73700
C  -3.01900 36.10200 22.63400
C  -1.99200 32.40800 22.73900
C  -0.68200 31.92400 23.47900
N  -3.65100 32.27800 27.49900
C  -4.21800 31.68600 26.38300
C  -5.15800 30.70000 26.82500
C  -5.04900 30.65100 28.23100
C  -4.14600 31.66100 28.59000
C  -6.00600 29.89200 25.97100
C  -5.61200 30.02400 29.43500
O  -6.54100 29.18800 29.57700
C  -4.88000 30.69300 30.62800
C  -5.90600 31.06900 31.65900
O  -6.43400 32.17800 31.81300
O  -5.92600 29.97600 32.54300
C  -6.94700 30.05700 33.55100
H  -0.96700 36.42500 31.09600
H  -0.94800 36.92200 24.70800
H  -4.54600 31.69700 24.32500
H  -4.11600 33.15400 32.61900
H  -1.36000 34.17100 32.68300
H  -3.69500 35.93100 32.28100
H  -2.23000 36.29700 33.32200
H  -3.49600 35.12500 33.85500
H  -1.50800 32.00100 33.05900
H  -2.56100 31.06500 32.02300
H  -3.53000 30.29300 34.01500
H  -4.01500 31.87100 34.53000
H  0.47200 37.90000 30.74500
H  0.40000 39.08400 29.56300
H  1.73900 37.78200 29.52100
H  1.53900 39.72700 27.79400
H  2.46200 39.75000 26.29400
H  2.76600 38.47900 27.49900
H  -1.17500 34.85800 22.98200
H  -3.74700 33.68100 22.55800
H  -2.23900 36.83000 22.40700
H  -3.74900 36.59900 23.27300
H  -3.44800 35.79600 21.68000
H  -1.79200 32.72000 21.71400
H  -2.68200 31.56900 22.64500
H  -0.80900 30.84300 23.53500
H  -0.64900 32.29400 24.50400
H  0.29600 32.15000 23.05400
H  -5.72900 28.89100 26.30000
H  -5.79800 29.82000 24.90300
H  -7.04600 30.11800 26.20800
H  -4.04800 30.01800 30.82700
H  -7.56400 30.94500 33.40800
H  -6.45300 30.18000 34.51500
H  -7.53700 29.14100 33.55000

