158

Mg 41.48200 40.95000 26.63400
C  40.90000 43.46700 29.07600
C  42.23100 38.79500 29.41200
C  42.50000 38.71200 24.48500
C  40.92500 43.32100 24.13400
N  41.76900 41.15600 28.99900
C  41.24000 42.20700 29.68900
C  41.12000 41.80500 31.14000
C  41.82300 40.44100 31.22300
C  41.99400 40.10300 29.79100
C  43.18300 40.48300 31.98900
C  39.60000 41.83300 31.65200
C  39.28500 42.97700 32.63300
H  38.79900 42.59200 34.00500
N  42.17500 38.97700 26.89100
C  42.38500 38.26600 28.07300
C  42.73100 36.89500 27.76200
C  42.79600 36.75600 26.32600
C  42.52200 38.19800 25.79500
C  42.90200 35.81800 28.78600
C  43.09700 35.50000 25.41500
O  43.02200 35.58800 24.16100
C  43.46800 34.27500 26.09500
N  41.76200 41.04200 24.60300
C  42.08100 39.91200 23.94000
C  42.07500 40.17300 22.37400
C  41.39600 41.52600 22.35700
C  41.38000 42.02700 23.78200
C  43.47000 40.05700 21.72300
C  39.97800 41.53300 21.77200
C  38.91100 40.61500 22.42300
N  40.93600 42.95100 26.58900
C  40.78200 43.79000 25.45900
C  40.30700 45.04800 26.02600
C  40.31600 44.98900 27.36000
C  40.80500 43.72600 27.69300
C  40.18600 46.26100 25.15200
C  40.07500 45.78500 28.52900
O  39.67100 46.94000 28.66500
C  40.47000 44.82900 29.71600
C  41.58800 45.39200 30.49400
O  42.77800 45.39900 30.23600
O  41.05100 45.91300 31.63100
C  41.96100 46.78700 32.40300
H  42.35600 38.08400 30.23200
H  42.76200 38.04700 23.65900
H  40.73900 44.00100 23.30100
H  41.65300 42.53400 31.75100
H  41.23300 39.64200 31.67300
H  43.89400 40.67200 31.18500
H  43.49600 39.53600 32.42800
H  43.29900 41.32000 32.67700
H  39.27300 40.85700 32.01100
H  38.89900 42.03600 30.84200
H  38.48700 43.56800 32.18400
H  40.13600 43.63300 32.81800
H  42.18800 35.04000 28.51800
H  42.74800 36.15100 29.81200
H  43.89900 35.39700 28.65100
H  43.78400 33.56100 25.33400
H  42.76900 33.68400 26.68800
H  44.34800 34.52400 26.68800
H  41.51000 39.33000 21.97800
H  42.07300 42.17100 21.79600
H  43.90400 40.87400 21.14600
H  43.41600 39.17000 21.09100
H  44.19800 39.74200 22.47000
H  40.08700 41.36100 20.70200
H  39.59500 42.54900 21.67500
H  38.02800 41.22500 22.61200
H  39.34200 40.26800 23.36200
H  38.66100 39.76700 21.78400
H  40.61700 46.10000 24.16400
H  40.75400 46.99200 25.72900
H  39.17100 46.65700 25.19300
H  39.61000 44.67000 30.36700
H  42.67200 47.34700 31.79600
H  42.39700 46.26000 33.25200
H  41.38000 47.63500 32.76700
Mg -10.14500 40.06000 43.56000
C  -8.94600 36.98100 42.41500
C  -7.35600 41.50700 42.11500
C  -11.50600 43.18900 43.97400
C  -13.24800 38.52900 44.31000
N  -8.35300 39.29400 42.47400
C  -7.99000 37.95600 42.20100
C  -6.67200 37.84900 41.46900
C  -6.05600 39.26400 41.73500
C  -7.28400 40.11600 42.13000
C  -4.84300 39.26300 42.79500
C  -6.84600 37.47700 39.98000
C  -5.82400 36.42600 39.35000
H  -4.76700 36.94300 38.26700
N  -9.43300 42.05100 43.16100
C  -8.28300 42.42200 42.56500
C  -8.14300 43.83300 42.39700
C  -9.33900 44.37800 43.02900
C  -10.21300 43.23300 43.42000
C  -6.96700 44.50600 41.74900
C  -9.61700 45.87100 43.12600
O  -8.83800 46.71000 42.65200
C  -10.90600 46.43300 43.73600
N  -12.00300 40.73200 44.26600
C  -12.33700 42.06200 44.29900
C  -13.88500 42.17200 44.56700
C  -14.24500 40.76000 45.09100
C  -13.12500 39.94000 44.49900
C  -14.20000 43.31700 45.53300
C  -15.66500 40.36400 44.59300
C  -15.82200 39.95600 43.09700
N  -10.94600 38.13200 43.55100
C  -12.22600 37.66300 43.79700
C  -12.32700 36.23800 43.50300
C  -11.05700 35.99200 43.01000
C  -10.25100 37.14400 42.97700
C  -13.57100 35.42600 43.53400
C  -10.26800 34.94400 42.49700
O  -10.60700 33.68900 42.37600
C  -8.85400 35.53700 41.99700
C  -7.71300 34.75600 42.53900
O  -7.33800 34.57400 43.71800
O  -7.05200 34.16200 41.56200
C  -6.29300 33.00600 41.94500
H  -6.38900 41.97300 41.91500
H  -12.04600 44.13800 43.95000
H  -14.14800 37.97700 44.59000
H  -5.96400 37.09600 41.81400
H  -5.63100 39.57600 40.78200
H  -5.10800 38.53400 43.56000
H  -4.83300 40.25700 43.24300
H  -3.91900 39.06900 42.24800
H  -6.73400 38.42800 39.45900
H  -7.85900 37.10900 39.81900
H  -6.51300 35.70600 38.90900
H  -5.17300 35.87400 40.02800
H  -7.10100 45.52900 41.39800
H  -6.54500 44.07100 40.84300
H  -6.11800 44.62300 42.42300
H  -11.81600 46.19600 43.18500
H  -10.90900 47.51300 43.87700
H  -10.97700 46.12000 44.77800
H  -14.26100 42.37100 43.56400
H  -14.08800 40.60400 46.15800
H  -13.33300 43.91500 45.81400
H  -14.73600 42.89700 46.38500
H  -14.88200 44.03000 45.07100
H  -16.37400 41.13600 44.89300
H  -16.07200 39.47900 45.08100
H  -16.01400 40.89300 42.57500
H  -16.49200 39.09600 43.06800
H  -14.88000 39.52500 42.75800
H  -13.39700 34.35400 43.43700
H  -14.15100 35.70000 42.65300
H  -14.12500 35.48200 44.47100
H  -8.76900 35.52400 40.91100
H  -6.93400 32.44100 42.62200
H  -5.36500 33.23100 42.46900
H  -6.08100 32.48500 41.01200

