158

Mg 46.50200 16.16400 27.69100
C  44.62000 15.44700 30.62100
C  48.80500 17.87200 29.72100
C  47.73900 17.55200 24.99300
C  43.93000 14.74100 25.82700
N  46.59500 16.72600 29.95400
C  45.75600 16.33000 30.93500
C  46.26000 16.79400 32.33200
C  47.53600 17.67600 31.93800
C  47.69800 17.38600 30.44400
C  47.43700 19.21000 32.33200
C  46.63500 15.53900 33.22400
C  46.20700 15.62000 34.74300
H  45.73600 17.02600 35.24300
N  48.03900 17.51100 27.39300
C  48.89800 17.92500 28.34700
C  50.01100 18.66100 27.62000
C  49.67700 18.67500 26.23400
C  48.49000 17.84300 26.15200
C  51.25700 19.21800 28.38100
C  50.47100 19.24300 25.07400
O  50.11300 19.14800 23.89200
C  51.85600 19.73500 25.45100
N  45.99400 15.98400 25.61100
C  46.68700 16.72100 24.71700
C  46.01900 16.59100 23.31500
C  44.93600 15.43500 23.62200
C  44.94700 15.32400 25.07100
C  45.45100 17.94800 22.76100
C  45.31600 14.06200 22.96900
C  46.38800 13.08400 23.52800
N  44.76400 15.09300 28.09000
C  43.80100 14.63200 27.21300
C  42.66900 14.16800 27.98000
C  42.96700 14.41800 29.34000
C  44.20400 15.03200 29.36300
C  41.44800 13.47100 27.45500
C  42.49200 14.22600 30.70100
O  41.48000 13.67600 31.12600
C  43.56800 14.94800 31.64900
C  42.88200 16.04600 32.36300
O  42.42000 17.06800 31.85700
O  42.58400 15.63200 33.60700
C  41.52200 16.37700 34.25000
H  49.64700 18.16800 30.35000
H  48.14000 17.89300 24.03600
H  43.02300 14.43100 25.30300
H  45.39000 17.27400 32.77900
H  48.45200 17.42100 32.47000
H  48.34400 19.59000 32.80200
H  46.52800 19.36900 32.91300
H  47.28400 19.75200 31.39900
H  47.70100 15.35200 33.35400
H  46.10700 14.66200 32.85000
H  47.04800 15.33100 35.37500
H  45.43800 14.85700 34.86200
H  51.36200 20.26200 28.08600
H  52.16300 18.74600 28.00100
H  51.13600 19.06400 29.45300
H  51.93500 20.63500 26.06100
H  52.38500 20.06900 24.55900
H  52.48700 18.92400 25.81300
H  46.75400 16.18600 22.61900
H  43.98000 15.76400 23.21400
H  44.91700 17.79800 21.82200
H  46.13600 18.79500 22.79600
H  44.64300 18.02500 23.48900
H  45.57700 14.20000 21.91900
H  44.39800 13.47400 22.95100
H  46.94900 12.66400 22.69400
H  45.87000 12.29100 24.06800
H  47.02800 13.62100 24.22800
H  41.64600 12.45500 27.11400
H  41.13500 14.03400 26.57500
H  40.53900 13.50400 28.05400
H  44.04000 14.29100 32.37900
H  40.84600 15.66300 34.72100
H  40.84100 16.96700 33.63600
H  41.89400 16.98300 35.07500
Mg 0.91000 43.77300 25.96100
C  2.81200 43.75900 28.87300
C  -1.76000 42.95400 27.87300
C  -0.71500 43.02600 23.11400
C  3.92000 44.22200 24.19900
N  0.56100 43.40100 28.23900
C  1.44200 43.69700 29.19400
C  0.70700 43.62300 30.57700
C  -0.78000 43.34600 30.19900
C  -0.68800 43.33600 28.66300
C  -1.40000 42.06800 30.89000
C  0.87500 44.95700 31.40400
C  0.74900 44.72300 32.95700
H  0.33800 43.31300 33.52100
N  -0.97200 43.08000 25.52000
C  -1.87400 42.80700 26.48500
C  -3.12500 42.37300 25.75000
C  -2.89900 42.39800 24.37600
C  -1.46300 42.84600 24.29000
C  -4.41500 41.98300 26.41500
C  -3.65500 41.84100 23.20200
O  -3.09800 41.79300 22.09200
C  -5.00800 41.35500 23.35300
N  1.47000 43.77600 23.94200
C  0.62500 43.39200 22.98300
C  1.31800 43.40700 21.58600
C  2.73100 44.02200 21.95300
C  2.74500 44.01800 23.41400
C  1.22500 42.07800 20.73400
C  2.91500 45.45100 21.48500
C  2.94500 45.71600 20.01400
N  2.95700 43.97400 26.42300
C  4.04800 44.18100 25.61100
C  5.23900 44.04500 26.40000
C  4.83400 43.95800 27.69000
C  3.39300 43.89800 27.66300
C  6.66100 44.26400 25.96500
C  5.29700 43.89100 29.03600
O  6.44200 43.77200 29.45500
C  3.98100 43.75300 29.83600
C  4.12800 42.51600 30.65600
O  4.41400 41.39600 30.23100
O  4.07300 42.79500 31.99400
C  4.34400 41.69000 32.87800
H  -2.69800 42.81900 28.41400
H  -1.18000 42.84900 22.14200
H  4.80200 44.29200 23.55900
H  1.10200 42.81500 31.19200
H  -1.36200 44.21100 30.51600
H  -0.65600 41.49900 31.44700
H  -1.84400 41.44000 30.11700
H  -2.18300 42.39300 31.57500
H  0.09400 45.65000 31.09100
H  1.85800 45.41100 31.28000
H  0.02700 45.42300 33.37800
H  1.74900 44.88000 33.36100
H  -5.29900 42.52200 26.07400
H  -4.44700 42.18500 27.48600
H  -4.68000 40.92600 26.39000
H  -5.30700 40.90700 22.40500
H  -5.65400 42.18800 23.63000
H  -5.04700 40.51600 24.04800
H  0.73300 44.13300 21.02100
H  3.59500 43.44400 21.62400
H  0.86200 41.38900 21.49600
H  2.22400 41.76500 20.43000
H  0.54100 42.19000 19.89300
H  3.78000 45.81700 22.03900
H  2.07400 45.96400 21.95300
H  2.07200 46.26000 19.65200
H  2.85600 44.79600 19.43700
H  3.88200 46.14200 19.65700
H  7.04700 45.26200 26.17600
H  6.95000 43.98600 24.95200
H  7.24600 43.57000 26.56800
H  3.78600 44.46400 30.63900
H  3.49000 41.03300 33.04200
H  4.62600 41.99900 33.88500
H  5.20300 41.13200 32.50400

