158

Mg 44.58900 3.08000 47.76200
C  42.32700 5.70300 47.01600
C  41.90900 0.93300 47.56300
C  46.78500 0.63900 47.64600
C  47.13700 5.42000 47.10900
N  42.43100 3.28600 47.32500
C  41.73100 4.45200 47.10800
C  40.21500 4.25700 46.90900
C  40.12800 2.76500 47.58200
C  41.53700 2.29200 47.47500
C  39.40300 2.78200 48.91900
C  39.74200 4.22300 45.41600
C  38.66500 5.15500 45.00100
H  39.04500 6.05200 43.83700
N  44.42100 1.07800 47.62600
C  43.21800 0.36800 47.62300
C  43.51400 -1.05500 47.66800
C  44.91300 -1.22400 47.80400
C  45.42400 0.17500 47.75400
C  42.42700 -2.19100 47.47000
C  45.66800 -2.53000 47.97900
O  45.06900 -3.60100 48.10900
C  47.15800 -2.64800 47.99200
N  46.64800 3.04400 47.25800
C  47.33900 1.89100 47.46000
C  48.87200 2.12700 47.32600
C  48.96500 3.57900 46.97100
C  47.51000 4.06300 47.10000
C  49.73400 1.88900 48.59500
C  49.45900 3.80600 45.52200
C  50.84100 4.21800 45.48100
N  44.79800 5.21900 47.39500
C  45.86800 5.99300 47.11200
C  45.46800 7.44800 46.90800
C  44.06200 7.37000 46.90100
C  43.68800 5.97200 47.20200
C  46.33200 8.66200 46.62000
C  42.87700 8.13800 46.74300
O  42.62800 9.31400 46.53800
C  41.68500 7.08800 46.87400
C  40.82000 7.53400 47.96800
O  41.14100 7.74900 49.15300
O  39.49900 7.57000 47.55800
C  38.59300 7.99500 48.71800
H  40.98800 0.35100 47.63500
H  47.67100 0.00100 47.68700
H  48.06900 5.96200 46.93500
H  39.67400 4.97600 47.52400
H  39.44100 2.13400 47.01900
H  40.09800 2.48600 49.70600
H  38.58800 2.05900 48.94800
H  39.07700 3.76200 49.26600
H  39.35200 3.23800 45.16100
H  40.59200 4.50000 44.79400
H  38.31100 5.71300 45.86800
H  37.88400 4.49800 44.61900
H  42.22100 -2.58500 48.46500
H  42.81400 -3.01700 46.87200
H  41.52900 -1.75700 47.03000
H  47.49400 -1.83000 48.63000
H  47.58200 -2.54000 46.99400
H  47.43300 -3.65900 48.29400
H  49.26700 1.56200 46.48200
H  49.59500 4.14600 47.65600
H  49.38400 0.98600 49.09500
H  49.72200 2.81500 49.17000
H  50.73600 1.69100 48.21300
H  48.91900 4.61400 45.02700
H  49.45400 2.92200 44.88400
H  51.18900 4.73200 46.37600
H  51.05100 4.97000 44.72100
H  51.46400 3.34200 45.29800
H  45.87200 9.43500 47.23500
H  46.13000 8.98000 45.59700
H  47.35500 8.50000 46.96100
H  41.02800 7.11200 46.00400
H  37.58100 7.88100 48.32800
H  38.76900 8.98500 49.13900
H  38.67400 7.31400 49.56600
Mg -2.35500 34.49500 27.30300
C  -3.26700 32.39900 29.90700
C  -0.50200 36.35900 29.40000
C  -2.02200 36.75500 24.88000
C  -4.19900 32.48000 25.05600
N  -2.01500 34.34600 29.48700
C  -2.39000 33.36900 30.32900
C  -1.83900 33.67800 31.77100
C  -0.85700 34.96600 31.53800
C  -1.16400 35.30400 30.06500
C  -1.07600 36.09900 32.55100
C  -1.03700 32.52900 32.24200
C  -1.48500 31.93200 33.52000
H  -0.38500 32.03100 34.63000
N  -1.46400 36.30500 27.20200
C  -0.75400 36.95000 28.14100
C  0.00100 38.09000 27.62900
C  -0.60900 38.35000 26.33600
C  -1.40400 37.05000 26.06500
C  0.96300 38.89500 28.47900
C  -0.42800 39.54500 25.31400
O  -0.88800 39.50000 24.20900
C  0.29800 40.75200 25.76300
N  -2.97800 34.58000 25.26300
C  -2.75400 35.66300 24.50400
C  -3.36400 35.46300 23.09900
C  -3.66600 33.97400 23.06400
C  -3.64400 33.63400 24.57200
C  -4.59800 36.35300 22.86700
C  -2.62600 33.09900 22.18600
C  -3.29000 32.24300 21.11300
N  -3.44600 32.70900 27.43900
C  -4.17500 32.04800 26.45600
C  -4.89500 30.94500 27.01800
C  -4.58200 30.99800 28.45200
C  -3.71700 32.11400 28.59900
C  -5.69600 29.87900 26.29000
C  -4.83900 30.48400 29.75600
O  -5.62000 29.58100 30.07400
C  -3.98100 31.35500 30.72200
C  -4.91400 31.97500 31.75500
O  -5.59600 32.98900 31.61700
O  -4.75700 31.31300 32.94000
C  -5.57000 31.75700 34.05200
H  0.25100 36.64900 30.13700
H  -1.95600 37.49700 24.08200
H  -4.65600 31.73600 24.40000
H  -2.68600 33.96500 32.39500
H  0.21600 34.77200 31.51800
H  -0.14700 36.22200 33.10700
H  -1.82100 35.64500 33.20500
H  -1.32500 37.01300 32.01200
H  0.01800 32.79800 32.18800
H  -1.09800 31.74000 31.49200
H  -1.70300 30.88000 33.33800
H  -2.36600 32.48500 33.84800
H  1.48300 38.23600 29.17400
H  0.47900 39.67700 29.06400
H  1.59200 39.36900 27.72500
H  0.18300 41.47900 24.95900
H  1.38200 40.76000 25.88300
H  -0.01600 41.18100 26.71400
H  -2.64200 35.73500 22.32800
H  -4.64600 33.69900 22.67500
H  -5.11200 36.48100 23.82000
H  -5.24200 35.85500 22.14200
H  -4.46500 37.25300 22.26600
H  -2.14400 32.41700 22.88600
H  -1.79100 33.70100 21.82800
H  -4.12300 32.84400 20.75100
H  -3.55300 31.25700 21.49800
H  -2.69400 32.03100 20.22600
H  -5.27000 28.88800 26.44200
H  -5.67400 30.03300 25.21200
H  -6.69700 29.81800 26.71700
H  -3.26100 30.73000 31.25000
H  -4.92500 32.28200 34.75500
H  -5.84000 30.80400 34.50700
H  -6.40200 32.40200 33.77100

