158

Mg 47.76300 25.56400 28.41300
C  48.95000 27.78900 30.85400
C  46.63800 23.46500 30.82800
C  46.92900 23.50800 25.92600
C  49.63200 27.62900 26.01400
N  47.79500 25.64800 30.57300
C  48.34100 26.60000 31.38700
C  47.95000 26.28400 32.86100
C  47.44500 24.75700 32.80900
C  47.28300 24.57500 31.31100
C  48.38100 23.76500 33.46600
C  47.04100 27.42300 33.36500
C  47.69900 27.95400 34.74900
H  46.68400 28.29200 35.87600
N  46.75800 23.70500 28.36000
C  46.43400 23.01900 29.49800
C  45.84800 21.78700 29.05200
C  45.96800 21.74000 27.61600
C  46.59100 23.03800 27.22200
C  45.12800 20.81500 30.01700
C  45.66100 20.64400 26.62700
O  45.70500 20.78300 25.37900
C  45.09500 19.39900 27.10500
N  48.43300 25.50800 26.29500
C  47.77100 24.55400 25.51500
C  48.06300 24.83100 24.04800
C  48.85100 26.19500 24.01400
C  48.99200 26.49200 25.49500
C  48.87400 23.59100 23.29600
C  48.24600 27.38600 23.25100
C  49.24200 28.08200 22.30300
N  49.09800 27.29500 28.41700
C  49.72000 27.97600 27.39000
C  50.40600 29.14400 27.95300
C  50.12800 29.08600 29.32300
C  49.26900 28.00900 29.54300
C  51.31800 30.01700 27.24100
C  50.35300 29.70900 30.58500
O  51.08800 30.65400 30.81900
C  49.65600 28.85300 31.65400
C  50.55200 28.31300 32.68500
O  51.23700 27.30700 32.56100
O  50.50700 29.12700 33.83200
C  51.28500 28.70100 35.05200
H  46.30300 22.65700 31.48200
H  46.56800 22.88000 25.10800
H  50.18900 28.13600 25.22300
H  48.93700 26.32400 33.32300
H  46.47100 24.76400 33.29700
H  47.86200 23.21000 34.24700
H  49.28500 24.26100 33.81900
H  48.74400 22.96200 32.82500
H  45.99900 27.15700 33.54300
H  47.05200 28.18700 32.58800
H  48.22200 28.90500 34.64700
H  48.39500 27.25100 35.20600
H  44.12400 20.69500 29.61100
H  44.92200 21.20000 31.01600
H  45.77200 19.94000 30.10600
H  44.84900 18.68100 26.32300
H  44.18300 19.52100 27.68800
H  45.82400 18.87300 27.72200
H  47.07400 24.94700 23.60400
H  49.88000 26.05800 23.68100
H  49.11500 22.69400 23.86700
H  49.73200 24.10900 22.86800
H  48.16100 23.17600 22.58300
H  47.71000 28.10400 23.87200
H  47.52000 26.82200 22.66700
H  50.29000 27.81600 22.43900
H  49.09800 29.16300 22.29500
H  49.07700 27.85300 21.25000
H  50.69700 30.90600 27.12700
H  51.67900 29.55800 26.32000
H  52.17800 30.32100 27.83800
H  48.97000 29.54600 32.14000
H  52.26100 28.29300 34.78900
H  50.71100 27.86500 35.45100
H  51.25500 29.50900 35.78400
Mg 9.56600 48.47200 25.95700
C  7.68000 48.40000 28.85100
C  12.14000 49.54300 27.88600
C  11.39300 48.49700 23.14700
C  6.59700 48.01100 24.06700
N  9.88800 48.87700 28.11900
C  8.98900 48.78200 29.10100
C  9.58200 49.33900 30.36100
C  10.91700 49.90100 29.98200
C  10.97700 49.52300 28.52800
C  11.00400 51.44700 30.13800
C  9.74600 48.25700 31.49100
C  9.05800 48.66200 32.82700
H  8.96500 47.54000 33.81800
N  11.53900 48.94200 25.56300
C  12.47100 49.24400 26.51000
C  13.82800 49.35200 25.87800
C  13.56100 48.99900 24.50500
C  12.13300 48.85300 24.35000
C  15.10200 49.61200 26.58400
C  14.54700 48.91800 23.33400
O  14.26200 48.82100 22.17000
C  15.97200 48.94500 23.66500
N  9.13500 48.21700 23.91400
C  10.05100 48.26600 22.95200
C  9.51400 47.75900 21.61000
C  7.98800 47.43200 21.99800
C  7.83500 47.93800 23.40700
C  9.73200 48.73100 20.38900
C  7.73100 45.89400 21.96600
C  8.29600 45.07100 23.11900
N  7.53900 48.22200 26.29100
C  6.46200 48.07000 25.44900
C  5.26100 47.80900 26.24700
C  5.70500 48.01100 27.54600
C  7.07600 48.19500 27.57300
C  3.94400 47.42500 25.69000
C  5.22100 48.02100 28.89200
O  4.06900 47.87400 29.25300
C  6.46400 48.18400 29.83200
C  6.64100 46.89300 30.69500
O  7.25000 45.91100 30.33300
O  6.04900 47.12300 31.83900
C  6.02700 45.99500 32.76500
H  13.05100 49.83800 28.41100
H  12.02000 48.50500 22.25400
H  5.70900 47.93600 23.43700
H  8.93300 50.11400 30.76900
H  11.75100 49.40800 30.48200
H  11.04900 51.87900 29.13900
H  11.96000 51.64100 30.62500
H  10.12400 51.78500 30.68500
H  10.78000 48.14600 31.81700
H  9.37300 47.29100 31.15100
H  8.07600 49.03400 32.53500
H  9.69800 49.39300 33.32100
H  15.41200 50.65500 26.51400
H  15.97600 48.98200 26.41700
H  14.79800 49.38700 27.60600
H  16.20500 48.12500 24.34500
H  16.14100 49.86400 24.22600
H  16.55000 48.87800 22.74300
H  10.07800 46.86100 21.36100
H  7.33600 47.86100 21.23600
H  10.34600 49.59200 20.65300
H  8.76000 49.16900 20.15900
H  10.21700 48.15800 19.59900
H  8.20600 45.45000 21.09100
H  6.65000 45.90400 21.83000
H  9.11900 45.49300 23.69600
H  8.56100 44.07400 22.76600
H  7.44300 44.83900 23.75800
H  4.02200 46.45800 25.19100
H  3.55000 48.22900 25.06900
H  3.24100 47.24000 26.50200
H  6.37800 49.05300 30.48400
H  6.01500 46.62300 33.65600
H  6.92900 45.39000 32.68400
H  5.11400 45.40400 32.83500

