158

Mg 27.10300 51.41900 27.02700
C  24.89500 52.49000 29.34700
C  29.19200 50.30600 29.57000
C  29.27100 50.43000 24.67900
C  25.14100 52.96600 24.53100
N  26.96400 51.36600 29.22200
C  25.93000 51.79200 29.99900
C  26.21600 51.63200 31.50800
C  27.67800 51.06700 31.46100
C  27.99300 50.87700 29.97400
C  28.78200 51.87400 32.18800
C  25.19800 50.62800 32.18300
C  24.44300 51.14600 33.43800
H  25.26400 51.26900 34.77900
N  29.01000 50.54700 27.11300
C  29.64300 50.06000 28.19000
C  30.85300 49.42300 27.77500
C  30.85800 49.35500 26.38600
C  29.60900 50.10200 25.97500
C  31.89600 48.95500 28.81800
C  31.84900 48.70700 25.48400
O  31.66700 48.61900 24.24900
C  33.14800 48.28900 25.98700
N  27.22000 51.68500 24.93700
C  28.20800 51.16100 24.14000
C  27.88300 51.25500 22.66800
C  26.63400 52.21100 22.62200
C  26.36400 52.40300 24.09300
C  29.10600 51.87800 21.93500
C  25.41100 51.67700 21.81800
C  24.79100 50.38900 22.43100
N  25.27100 52.46900 26.89900
C  24.55100 53.00000 25.79000
C  23.34900 53.53800 26.27600
C  23.40800 53.39100 27.68100
C  24.63700 52.74500 27.98700
C  22.29200 54.27700 25.58000
C  22.71700 53.65700 29.00700
O  21.70300 54.25400 29.23100
C  23.66900 52.98100 30.08300
C  24.07900 53.98100 31.07500
O  25.04500 54.66500 31.02100
O  23.16300 54.02100 32.06500
C  23.47700 54.93800 33.22500
H  29.94600 50.08400 30.32700
H  29.88300 50.05900 23.85400
H  24.62400 53.55300 23.76900
H  26.20100 52.58900 32.02900
H  27.72000 50.04900 31.84600
H  29.30600 52.43100 31.41100
H  29.53100 51.20500 32.61200
H  28.33300 52.57700 32.89100
H  25.64500 49.68400 32.49400
H  24.41900 50.48600 31.43300
H  23.56300 50.54600 33.66700
H  24.00300 52.12100 33.22600
H  32.49500 49.83500 29.05100
H  32.52700 48.12000 28.51100
H  31.40700 48.64400 29.74100
H  33.88200 48.32400 25.18100
H  33.13400 47.27000 26.37300
H  33.45600 48.99200 26.76100
H  27.59200 50.26400 22.32100
H  26.90600 53.20000 22.25400
H  29.75500 52.23400 22.73500
H  28.80500 52.68600 21.26800
H  29.53400 51.04200 21.38300
H  25.73900 51.36500 20.82700
H  24.64000 52.44400 21.73800
H  23.70400 50.43800 22.36800
H  25.12800 50.18900 23.44800
H  25.13500 49.48200 21.93200
H  22.05500 53.82700 24.61600
H  22.54800 55.31900 25.39200
H  21.50000 54.28000 26.32900
H  23.08000 52.25200 30.64000
H  24.34100 54.57200 33.78100
H  22.58600 55.14600 33.81800
H  23.72000 55.92000 32.82100
Mg 17.12100 53.39500 26.22600
C  18.88100 51.75300 28.83100
C  14.61100 53.91700 28.55600
C  15.50400 54.92000 23.87500
C  19.47600 52.20500 24.00200
N  16.90000 53.00500 28.50800
C  17.68900 52.36700 29.31800
C  17.25200 52.54200 30.76400
C  15.75300 52.99300 30.62900
C  15.70100 53.28400 29.14700
C  14.70100 51.95800 31.17100
C  18.10700 53.65400 31.46800
C  18.29600 53.35900 32.93900
H  17.25600 52.52500 33.75200
N  15.39500 54.44000 26.26600
C  14.48400 54.53100 27.29400
C  13.49400 55.44000 26.92100
C  13.72300 55.87000 25.56000
C  14.88200 55.03200 25.16200
C  12.31400 55.85600 27.85500
C  12.88400 56.72300 24.66400
O  13.24000 56.91800 23.50600
C  11.80500 57.57700 25.31600
N  17.19600 53.21000 24.07000
C  16.53400 54.06900 23.34300
C  17.09500 54.00800 21.91300
C  18.42500 53.21300 21.97300
C  18.41100 52.84100 23.49100
C  16.08600 53.38300 20.87500
C  19.66000 54.17400 21.65800
C  20.72900 53.70900 20.73300
N  18.80600 52.13900 26.28200
C  19.69200 51.81100 25.34500
C  20.72500 50.95500 25.86600
C  20.36600 50.79200 27.20100
C  19.23800 51.63200 27.43900
C  21.89900 50.22000 25.08600
C  20.77100 50.20900 28.47300
O  21.62100 49.34600 28.74400
C  19.95300 50.94800 29.57700
C  19.45200 50.00600 30.67700
O  18.79200 49.02100 30.48300
O  19.81400 50.44800 31.91000
C  19.57400 49.43800 33.01200
H  13.79300 54.04000 29.26900
H  15.08600 55.54600 23.08500
H  20.20800 51.90400 23.25000
H  17.36500 51.61000 31.31700
H  15.47200 53.85200 31.23700
H  14.14600 51.49500 30.35500
H  13.92900 52.51000 31.70600
H  15.21400 51.27000 31.84300
H  17.52500 54.56100 31.30600
H  19.04600 53.85000 30.95000
H  18.48700 54.28600 33.48000
H  19.16500 52.73700 33.15400
H  11.35900 55.63800 27.37600
H  12.44300 56.91700 28.07200
H  12.31800 55.24500 28.75700
H  10.96900 56.98200 25.68400
H  11.39200 58.19300 24.51700
H  12.27900 58.20500 26.07000
H  17.16400 55.04200 21.57600
H  18.52800 52.28000 21.41900
H  15.90700 54.30000 20.31400
H  15.13900 53.16200 21.36700
H  16.51000 52.59200 20.25600
H  20.11700 54.58100 22.56000
H  19.25600 55.05800 21.16500
H  20.57500 52.71100 20.32200
H  21.69900 53.89600 21.19400
H  20.61000 54.25900 19.80000
H  22.68900 50.91200 24.79300
H  21.53400 49.67900 24.21300
H  22.33800 49.47400 25.74800
H  20.52800 51.59700 30.23800
H  20.01700 49.88300 33.90300
H  19.97000 48.45800 32.74700
H  18.50700 49.27500 33.16600

