158

Mg 43.35900 41.99500 26.71000
C  42.52300 44.41400 29.17400
C  44.03000 39.83200 29.26800
C  44.41200 39.99700 24.37200
C  43.00000 44.63900 24.37400
N  43.33100 42.12500 28.93700
C  42.88000 43.17300 29.72500
C  42.74300 42.71300 31.19400
C  43.50600 41.35500 31.17400
C  43.56000 41.06800 29.66900
C  44.90500 41.50800 31.89600
C  41.18900 42.64500 31.66800
C  40.85400 43.53800 32.84200
H  39.95800 43.12800 33.97500
N  44.06700 40.08300 26.79400
C  44.31200 39.33600 27.88900
C  44.66100 38.02200 27.50400
C  44.82700 38.04500 26.09900
C  44.41500 39.39700 25.67700
C  44.94500 36.91500 28.50600
C  45.30000 36.91700 25.17600
O  45.35900 37.06200 24.00400
C  45.83400 35.60700 25.80600
N  43.59100 42.29700 24.65100
C  44.01300 41.21400 23.84400
C  43.98600 41.58500 22.32400
C  43.71000 43.16600 22.44100
C  43.34800 43.37800 23.92700
C  45.18900 41.22300 21.41600
C  42.59400 43.53600 21.49100
C  42.85800 44.75800 20.62700
N  42.88500 44.13500 26.73600
C  42.81100 45.03500 25.67100
C  42.41500 46.33300 26.27100
C  42.22600 46.09800 27.65500
C  42.60300 44.79000 27.88500
C  42.15000 47.57300 25.61200
C  41.80400 46.69400 28.91000
O  41.35900 47.81800 29.23500
C  42.01500 45.62000 29.98800
C  43.00000 46.14300 30.91700
O  44.13100 46.45700 30.57400
O  42.47900 46.32700 32.13800
C  43.32900 47.05500 33.11800
H  44.24100 39.16400 30.10600
H  44.84000 39.37200 23.58500
H  42.84500 45.37900 23.58600
H  43.24700 43.44500 31.82500
H  42.93500 40.59200 31.70200
H  44.93300 40.80000 32.72500
H  44.96300 42.54600 32.22400
H  45.79300 41.38500 31.27600
H  40.97700 41.61000 31.93900
H  40.52000 42.73300 30.81300
H  40.54400 44.46100 32.35200
H  41.78500 43.79800 33.34500
H  46.00600 36.68800 28.40500
H  44.33600 36.02600 28.34300
H  44.85000 37.17000 29.56200
H  46.09700 34.94400 24.98200
H  44.99500 35.07800 26.25900
H  46.71500 35.80200 26.41700
H  43.12800 41.02100 21.95800
H  44.67400 43.66600 22.34200
H  46.13400 41.08800 21.94300
H  45.31800 42.13300 20.83100
H  44.85500 40.43500 20.74100
H  41.67800 43.65400 22.06900
H  42.24300 42.69300 20.89600
H  43.87000 45.16100 20.65500
H  42.30800 45.56600 21.11100
H  42.67000 44.62100 19.56200
H  41.10100 47.58000 25.31600
H  42.74800 47.48700 24.70500
H  42.38100 48.44600 26.22300
H  41.10000 45.28300 30.47500
H  43.33100 46.54200 34.07900
H  42.91500 48.06100 33.18900
H  44.38700 47.20600 32.90300
Mg 9.43700 47.90900 26.07400
C  7.42700 47.69900 28.90100
C  11.92500 49.01800 28.09500
C  11.15300 48.48200 23.40300
C  6.61700 46.92300 24.02400
N  9.54500 48.58600 28.27000
C  8.67500 48.26900 29.26000
C  9.23700 48.81400 30.69100
C  10.78200 49.01500 30.41500
C  10.73400 48.92900 28.78100
C  11.23000 50.50400 30.88200
C  8.94800 47.91700 31.89600
C  9.64600 48.17900 33.31200
H  8.84300 47.91100 34.56500
N  11.32600 48.58000 25.78500
C  12.23100 48.86600 26.70800
C  13.48600 49.08500 26.09700
C  13.29400 49.01200 24.70500
C  11.84600 48.72800 24.58100
C  14.78100 49.36100 26.91800
C  14.29700 49.07300 23.60500
O  13.99900 48.92600 22.45100
C  15.76200 49.16500 23.90500
N  8.89800 47.88000 24.04300
C  9.88700 48.00000 23.14700
C  9.36900 47.94000 21.71300
C  8.02600 47.14800 21.95100
C  7.85900 47.29000 23.43100
C  9.27300 49.30500 21.03700
C  7.98000 45.66300 21.49100
C  9.22600 44.68300 21.75600
N  7.44500 47.35100 26.37700
C  6.46800 46.91700 25.51000
C  5.33200 46.45600 26.22700
C  5.62100 46.80100 27.60300
C  6.97500 47.29200 27.61200
C  4.07200 46.02200 25.58300
C  5.10800 46.87500 28.96100
O  3.96400 46.73400 29.39500
C  6.30700 47.24400 29.86800
C  6.77100 46.00200 30.56600
O  7.51100 45.13900 30.10800
O  6.21800 46.01900 31.83900
C  6.61000 44.89900 32.71400
H  12.84800 49.17000 28.65800
H  11.70200 48.57900 22.46400
H  5.70600 46.57400 23.53400
H  8.75000 49.77300 30.87000
H  11.40300 48.18000 30.73700
H  10.44900 51.00000 31.45900
H  11.23200 51.15200 30.00500
H  12.21400 50.54000 31.35000
H  9.08800 46.86500 31.64700
H  7.89100 48.04800 32.12600
H  9.99300 49.20800 33.41100
H  10.59000 47.64100 33.40000
H  14.59200 48.98700 27.92400
H  15.06600 50.40900 27.00800
H  15.62500 48.77200 26.56100
H  16.01000 49.85500 24.71100
H  16.24900 49.39900 22.95900
H  15.97500 48.12600 24.15500
H  10.15100 47.37800 21.20300
H  7.19500 47.73100 21.55500
H  9.53700 50.11700 21.71400
H  8.27500 49.57900 20.69700
H  10.02200 49.22800 20.24800
H  7.82200 45.72300 20.41500
H  7.19200 45.12100 22.01500
H  10.05900 45.34700 21.98800
H  9.49200 44.13500 20.85200
H  9.00300 44.06200 22.62300
H  4.40400 45.56200 24.65200
H  3.48300 46.92500 25.42200
H  3.43700 45.36700 26.17900
H  5.94800 47.94800 30.61900
H  7.61600 45.08700 33.08800
H  6.49500 43.95100 32.18900
H  6.00500 44.88500 33.62100

