158

Mg 9.17500 4.42100 28.15500
C  10.46200 2.66200 30.90700
C  7.04600 6.03400 30.13100
C  8.05700 6.02100 25.42900
C  10.83000 2.10700 26.05800
N  8.72400 4.22900 30.26600
C  9.56000 3.69300 31.21500
C  9.13600 4.07100 32.67300
C  7.90300 4.99300 32.40600
C  7.88700 5.10200 30.81300
C  6.48200 4.58700 32.90500
C  10.27700 4.70100 33.45800
C  10.01500 4.99000 34.98300
H  11.29700 4.82800 35.87200
N  7.79300 5.87500 27.84200
C  6.98200 6.39500 28.80800
C  6.22100 7.56300 28.20500
C  6.61900 7.56600 26.85000
C  7.55300 6.47800 26.63000
C  5.36100 8.44900 29.00600
C  6.18800 8.50600 25.79600
O  6.62300 8.44000 24.65400
C  5.13000 9.52600 26.06300
N  9.27400 4.01200 26.00300
C  8.78100 4.86800 25.03300
C  9.21700 4.54900 23.55300
C  9.97900 3.18800 23.79800
C  10.07800 3.10700 25.36600
C  8.03700 4.45900 22.53000
C  11.35200 3.16200 23.02000
C  11.51700 1.98500 22.01700
N  10.44900 2.81300 28.35500
C  11.05200 1.94800 27.42100
C  11.75700 0.95500 28.10100
C  11.65200 1.19200 29.43300
C  10.84500 2.34600 29.54400
C  12.44900 -0.25100 27.43200
C  12.06900 0.83200 30.76200
O  12.83500 -0.03400 31.11500
C  11.46200 1.91200 31.73600
C  10.89100 1.14200 32.86600
O  9.97900 0.30900 32.82700
O  11.62300 1.39700 34.03100
C  11.23000 0.69600 35.25100
H  6.44800 6.70400 30.75300
H  8.00500 6.64600 24.53500
H  11.34700 1.38700 25.42100
H  8.76200 3.18100 33.18000
H  8.09200 6.01800 32.72300
H  5.67600 4.69400 32.17900
H  6.21400 5.18700 33.77400
H  6.50800 3.54200 33.21300
H  10.66900 5.60700 32.99700
H  11.11800 4.01500 33.35600
H  9.41700 4.20700 35.44900
H  9.57600 5.95700 35.23000
H  4.99700 8.09900 29.97200
H  4.43600 8.60200 28.45100
H  5.80200 9.42000 29.23300
H  5.19600 10.16500 26.94300
H  4.21800 8.97200 26.28700
H  4.89000 10.15200 25.20400
H  9.86700 5.39900 23.34500
H  9.38900 2.29500 23.59100
H  7.10200 4.81500 22.96400
H  7.95300 3.44500 22.13900
H  8.17900 5.15400 21.70200
H  12.11900 3.07900 23.79000
H  11.55600 4.06600 22.44700
H  10.62400 1.71000 21.45700
H  11.84100 1.07300 22.51800
H  12.32700 2.21500 21.32500
H  13.46600 -0.04600 27.09700
H  11.90400 -0.66900 26.58600
H  12.41600 -0.98200 28.24000
H  12.22000 2.60400 32.10400
H  12.02000 0.03300 35.60500
H  10.38600 0.00900 35.18000
H  10.96400 1.47200 35.96900
Mg 41.23400 41.16300 26.88000
C  40.27200 43.58400 29.12100
C  42.06300 38.97500 29.36200
C  42.25200 38.75300 24.59100
C  40.71000 43.42900 24.26800
N  41.13700 41.28900 28.94100
C  40.61700 42.34300 29.70200
C  40.66900 41.92700 31.24500
C  41.40100 40.57100 31.30500
C  41.55600 40.25800 29.77200
C  42.65700 40.28800 32.17200
C  39.32000 42.05100 32.01300
C  39.44200 42.66900 33.38900
H  38.65200 42.11900 34.65000
N  41.96800 39.07900 26.95100
C  42.27400 38.45800 28.08900
C  42.66800 37.12000 27.73400
C  42.77600 37.00300 26.32500
C  42.29700 38.27300 25.86900
C  43.14500 36.21800 28.80000
C  43.29300 35.85200 25.48300
O  43.36800 35.91800 24.27700
C  43.75000 34.56400 26.10400
N  41.54100 41.17100 24.76900
C  41.81500 39.98900 24.09000
C  41.78700 40.29700 22.48200
C  41.21300 41.73400 22.46200
C  41.16200 42.16600 23.94600
C  43.17900 40.17700 21.88300
C  39.84900 41.82400 21.68400
C  38.60300 41.39000 22.54100
N  40.69800 43.17700 26.65200
C  40.49300 43.94800 25.54700
C  40.10800 45.30900 25.89200
C  39.97100 45.22000 27.34000
C  40.40700 43.92800 27.74800
C  39.91900 46.47300 24.94400
C  39.59400 45.91000 28.61600
O  39.14200 47.02100 28.85700
C  39.75600 44.87200 29.75500
C  40.78000 45.41200 30.59300
O  41.88200 45.92700 30.27900
O  40.19200 45.50000 31.82500
C  41.01600 46.32700 32.75700
H  42.31100 38.32900 30.20700
H  42.51600 38.13200 23.73200
H  40.23600 44.03500 23.49300
H  41.35700 42.65200 31.68000
H  40.65600 39.84400 31.62900
H  42.64200 40.93100 33.05300
H  43.61800 40.45800 31.68700
H  42.51200 39.32800 32.66700
H  38.94200 41.05100 32.22500
H  38.55600 42.48500 31.36800
H  39.12800 43.71300 33.39000
H  40.48900 42.64200 33.69200
H  43.18800 36.63400 29.80700
H  44.14200 35.85000 28.55900
H  42.41300 35.41100 28.83000
H  43.01400 33.97200 26.65000
H  44.71600 34.75600 26.57200
H  44.17100 34.01000 25.26500
H  41.17900 39.51900 22.02000
H  41.93600 42.40800 22.00100
H  43.38200 40.98900 21.18500
H  43.26700 39.23300 21.34600
H  43.92800 40.06900 22.66900
H  39.81600 41.24000 20.76400
H  39.74100 42.87700 21.42300
H  38.78000 41.19600 23.59900
H  38.20300 40.46200 22.13400
H  37.92100 42.23400 22.43400
H  38.88300 46.62400 24.64300
H  40.50900 46.34200 24.03600
H  40.37900 47.33800 25.42200
H  38.84100 44.71100 30.32500
H  42.08500 46.43700 32.57000
H  40.80200 46.08400 33.79800
H  40.67200 47.36100 32.73200

