158

Mg 30.48300 57.63700 39.75400
C  27.68800 55.62300 38.70500
C  32.50600 55.11800 38.58500
C  32.82700 59.90700 39.58200
C  28.08400 60.19000 40.08700
N  30.13200 55.59700 38.68600
C  28.89300 55.02000 38.39100
C  29.14600 53.54900 37.87800
C  30.64900 53.41700 38.14800
C  31.18700 54.75100 38.46600
C  31.18800 52.34000 39.02300
C  28.61400 53.14200 36.43200
C  29.00100 54.09500 35.27300
H  27.94400 54.29500 34.11700
N  32.47400 57.47200 39.39300
C  33.15700 56.37800 38.87600
C  34.55700 56.68900 38.76300
C  34.71000 58.08700 39.10300
C  33.32400 58.55400 39.37000
C  35.61600 55.75100 38.24700
C  36.11400 58.77400 39.25500
O  37.17900 58.20300 38.95500
C  36.27200 60.27200 39.61500
N  30.51000 59.80000 39.87200
C  31.60500 60.50600 39.77400
C  31.39100 62.04900 40.04400
C  29.86400 62.03600 40.37100
C  29.42000 60.62600 40.07900
C  32.27100 62.69300 41.10000
C  29.07000 63.12300 39.60200
C  28.05100 64.01000 40.39500
N  28.36600 57.85900 39.60800
C  27.53400 58.94700 39.74500
C  26.14000 58.52300 39.53700
C  26.20800 57.18600 39.20400
C  27.52800 56.91600 39.21600
C  24.96200 59.34900 39.72800
C  25.42400 56.03100 38.96100
O  24.23200 55.87200 39.12200
C  26.32500 54.92900 38.53600
C  26.11000 53.82800 39.45000
O  26.37000 53.81100 40.62200
O  25.67700 52.70100 38.66900
C  25.40400 51.48000 39.45400
H  33.13800 54.24600 38.40600
H  33.60600 60.66600 39.48000
H  27.30600 60.94600 40.20900
H  28.56400 52.94900 38.57800
H  31.01900 53.27300 37.13300
H  31.84100 52.82100 39.75100
H  31.69700 51.60900 38.39400
H  30.47200 51.74900 39.59300
H  27.53100 53.01900 36.41600
H  29.10100 52.20300 36.16800
H  29.90600 53.63400 34.87900
H  29.14900 55.06800 35.74200
H  36.57900 55.70400 38.75500
H  35.80200 55.91900 37.18600
H  35.17800 54.75400 38.26900
H  37.34200 60.44700 39.73300
H  35.87000 60.26400 40.62800
H  35.71800 60.94500 38.96200
H  31.50700 62.44200 39.03400
H  29.73600 62.26600 41.42800
H  33.12400 62.02400 41.21000
H  31.77700 62.69500 42.07100
H  32.55700 63.65300 40.67100
H  28.56400 62.67400 38.74600
H  29.78900 63.81700 39.16700
H  28.27600 64.06800 41.46000
H  27.11500 63.45600 40.31700
H  28.06700 64.99800 39.93500
H  25.30300 60.07800 40.46300
H  24.20300 58.78500 40.27000
H  24.67800 59.89400 38.82700
H  26.12500 54.68800 37.49300
H  26.30000 50.86200 39.49500
H  24.55100 51.01800 38.95600
H  25.18100 51.81100 40.46900
Mg -11.70600 38.73000 42.32600
C  -9.45100 36.17400 41.25800
C  -9.87500 40.91900 40.36500
C  -14.08200 40.99600 43.00600
C  -13.81800 36.22000 43.35700
N  -9.92200 38.54500 40.99100
C  -9.10300 37.43600 40.71600
C  -7.98400 37.72200 39.77200
C  -8.05800 39.28000 39.72500
C  -9.39300 39.59000 40.32800
C  -6.94200 40.29300 40.08100
C  -8.18800 36.89900 38.41700
C  -7.12400 35.76800 38.13500
H  -6.25500 35.93400 36.91000
N  -11.87000 40.73300 41.87300
C  -11.01400 41.42100 41.01400
C  -11.49300 42.76500 40.98000
C  -12.59300 42.88600 41.85800
C  -12.86300 41.51500 42.35000
C  -10.89800 43.73900 40.06600
C  -13.33500 44.20400 42.10300
O  -12.95200 45.27600 41.62900
C  -14.57100 44.28900 42.97500
N  -13.65200 38.58700 43.16600
C  -14.39200 39.67000 43.37900
C  -15.80800 39.36800 43.67800
C  -15.80600 37.78100 43.51600
C  -14.34200 37.47700 43.35400
C  -16.40200 40.03300 45.00000
C  -16.71300 37.25400 42.35100
C  -18.19700 37.06900 42.72400
N  -11.66700 36.63700 42.46800
C  -12.57900 35.73300 42.91400
C  -12.07700 34.40000 42.98400
C  -10.80900 34.53000 42.32900
C  -10.59900 35.90200 42.08100
C  -12.67100 33.22600 43.65800
C  -9.64000 33.83900 41.89300
O  -9.37100 32.65800 41.92000
C  -8.69500 34.84400 41.21900
C  -7.32100 34.80200 41.82300
O  -6.43100 34.00300 41.69200
O  -7.18900 35.91400 42.69500
C  -6.03000 35.91300 43.56300
H  -9.28800 41.66100 39.81900
H  -14.88900 41.70500 43.20200
H  -14.59100 35.53500 43.71100
H  -7.07600 37.29500 40.19800
H  -8.15300 39.48800 38.65900
H  -6.13600 39.66100 40.45400
H  -7.31600 41.08800 40.72600
H  -6.73700 40.69900 39.09100
H  -8.20600 37.59400 37.57700
H  -9.14100 36.37200 38.45800
H  -7.65100 34.82400 37.99500
H  -6.53500 35.65200 39.04500
H  -10.29200 43.31200 39.26600
H  -10.15600 44.28400 40.64900
H  -11.52300 44.46400 39.54400
H  -15.34800 43.79500 42.39200
H  -14.71000 45.34700 43.20000
H  -14.49200 43.79700 43.94400
H  -16.42200 39.76300 42.86900
H  -16.15500 37.31100 44.43600
H  -16.94000 39.23300 45.50900
H  -17.08500 40.83000 44.70700
H  -15.52400 40.27500 45.59900
H  -16.23900 36.41400 41.84400
H  -16.63900 37.96200 41.52600
H  -18.57800 37.79300 43.44400
H  -18.34100 36.02900 43.01600
H  -18.78200 37.27000 41.82600
H  -13.35000 32.65600 43.02400
H  -13.23700 33.68500 44.46900
H  -11.83800 32.58400 43.94300
H  -8.51000 34.35400 40.26200
H  -6.28700 36.48700 44.45300
H  -5.19200 36.47100 43.14400
H  -5.54400 35.02400 43.96300

