158

Mg 26.02300 0.92800 29.15300
C  27.94600 0.97200 32.04000
C  23.17800 1.49400 31.01300
C  24.22300 0.97900 26.26100
C  28.89700 0.15800 27.26100
N  25.63500 1.19100 31.23800
C  26.54200 1.23900 32.21300
C  25.84500 1.28200 33.61700
C  24.33300 1.24300 33.32600
C  24.40400 1.36500 31.75000
C  23.42300 0.01100 33.85200
C  26.37800 2.48500 34.41100
C  26.75000 2.30900 35.83700
H  26.48100 3.47600 36.87600
N  23.99400 1.05000 28.72400
C  22.96000 1.30100 29.61000
C  21.71000 1.32900 28.86600
C  22.05500 1.31900 27.51400
C  23.49400 1.04500 27.45300
C  20.32600 1.39800 29.55600
C  21.04200 1.47700 26.31500
O  21.35800 1.42000 25.15100
C  19.59000 1.76400 26.63500
N  26.51000 0.67500 27.02200
C  25.63100 0.86700 26.02700
C  26.34800 0.68500 24.69800
C  27.84400 0.54500 25.03500
C  27.77600 0.45200 26.50300
C  25.73100 -0.51300 23.75800
C  28.75700 1.68200 24.51900
C  30.04600 1.28500 23.79400
N  28.04200 0.65600 29.51000
C  29.07600 0.25600 28.67300
C  30.22100 -0.10700 29.47800
C  29.85900 0.19500 30.79900
C  28.53100 0.66700 30.77800
C  31.54900 -0.62300 29.05400
C  30.24900 0.19200 32.16900
O  31.32900 -0.14600 32.64400
C  29.01200 0.70100 33.03700
C  28.80100 -0.34800 34.05700
O  28.11000 -1.33800 33.90300
O  29.51000 -0.03200 35.17100
C  29.40700 -0.99200 36.27200
H  22.36700 1.66300 31.72400
H  23.69000 1.18800 25.33200
H  29.79800 -0.10800 26.70400
H  26.10600 0.34200 34.10400
H  23.95200 2.23700 33.56200
H  23.97600 -0.67400 34.49400
H  23.10700 -0.64800 33.04300
H  22.47700 0.31700 34.30000
H  25.67000 3.30800 34.31200
H  27.29200 2.71700 33.86500
H  27.80900 2.10000 35.98700
H  26.27800 1.37300 36.13700
H  19.89900 2.39000 29.40800
H  20.38500 1.18500 30.62300
H  19.61700 0.68000 29.14200
H  19.58100 2.59900 27.33500
H  19.10300 0.90200 27.09000
H  19.13100 1.98400 25.67100
H  26.03100 1.62100 24.23900
H  28.19800 -0.40000 24.62200
H  26.55700 -1.04400 23.28500
H  25.03300 -0.23200 22.97000
H  25.15500 -1.10700 24.46800
H  28.97700 2.33300 25.36500
H  28.22600 2.32100 23.81300
H  30.86300 1.76100 24.33700
H  30.06000 1.55200 22.73700
H  30.23000 0.21800 23.92700
H  31.73700 -0.31200 28.02700
H  31.49100 -1.70700 29.15400
H  32.28300 -0.30500 29.79400
H  29.41100 1.59300 33.52000
H  30.24600 -0.69800 36.90400
H  29.40600 -2.03700 35.96400
H  28.52200 -0.71100 36.84300
Mg 42.21300 40.99100 27.06000
C  41.61600 43.41400 29.51200
C  43.03100 38.87100 29.56200
C  43.21100 38.73800 24.69200
C  41.71000 43.38300 24.63000
N  42.51900 41.17000 29.22900
C  41.92700 42.19400 30.00300
C  41.79300 41.66000 31.44400
C  42.60100 40.40100 31.54300
C  42.72500 40.10300 30.03300
C  43.99000 40.61400 32.31800
C  40.32200 41.59000 31.94800
C  39.98200 42.17600 33.39000
H  39.42600 41.23300 34.45000
N  42.95100 38.98300 27.11200
C  43.21400 38.27400 28.27200
C  43.77000 36.96300 27.96200
C  43.75400 36.86000 26.51800
C  43.25700 38.18700 26.05200
C  44.23400 35.87300 28.92800
C  44.21400 35.71300 25.64800
O  44.17800 35.72700 24.43700
C  44.59400 34.39200 26.23800
N  42.33900 40.95400 24.95800
C  42.83100 40.00800 24.24600
C  42.67100 40.30100 22.74900
C  42.14500 41.74300 22.71600
C  42.01400 42.06300 24.22000
C  44.03600 40.13100 21.99400
C  40.71300 41.97700 22.09800
C  40.43500 43.27300 21.39400
N  41.72700 42.98000 27.03400
C  41.56000 43.83900 25.98300
C  41.24800 45.16100 26.40600
C  41.12500 45.02100 27.80800
C  41.49500 43.66600 28.17800
C  40.91500 46.35800 25.47200
C  40.85200 45.72800 29.04000
O  40.58800 46.88700 29.30400
C  41.07900 44.70400 30.20000
C  42.19300 45.30000 30.96300
O  43.36900 45.15900 30.74100
O  41.69000 45.80100 32.09000
C  42.57800 46.23500 33.21700
H  43.31000 38.19000 30.36900
H  43.59000 37.98300 24.00000
H  41.60400 44.13100 23.84200
H  42.22900 42.43300 32.07600
H  42.12100 39.59500 32.09800
H  44.90500 40.27400 31.83200
H  43.76400 40.05300 33.22500
H  44.21200 41.64300 32.60300
H  39.93100 40.57300 31.90100
H  39.66600 42.17100 31.30100
H  39.25600 42.95800 33.16700
H  40.88800 42.64200 33.77800
H  45.27200 35.58500 28.76500
H  43.49300 35.07400 28.92000
H  44.16800 36.20700 29.96300
H  43.77300 33.93600 26.79100
H  45.41300 34.53200 26.94300
H  44.96100 33.79000 25.40600
H  42.05300 39.52800 22.29200
H  42.93700 42.38800 22.33500
H  44.14900 39.16200 21.50600
H  44.82500 40.00000 22.73400
H  44.28200 40.95000 21.31900
H  39.91400 41.99200 22.84000
H  40.63300 41.13400 21.41100
H  39.55100 43.71100 21.85800
H  40.38500 43.14000 20.31300
H  41.29300 43.94300 21.35300
H  40.81200 47.15500 26.20800
H  39.92000 46.11500 25.10000
H  41.61800 46.65300 24.69300
H  40.16500 44.68600 30.79500
H  42.87900 45.34100 33.76200
H  42.09400 46.80200 34.01300
H  43.48300 46.76100 32.91300

