158

Mg 30.36300 57.80300 39.98900
C  27.55200 56.04600 38.98600
C  32.39200 55.36600 38.70800
C  32.90500 59.99300 40.04600
C  28.18700 60.55100 40.58500
N  30.01900 55.90400 39.01300
C  28.75500 55.37800 38.76700
C  28.89400 54.11700 37.88000
C  30.42300 53.72500 38.05700
C  31.01900 55.09800 38.61800
C  30.60400 52.61400 39.04600
C  28.54000 54.45400 36.34400
C  27.37000 53.78800 35.65900
H  26.66700 54.71100 34.62200
N  32.40300 57.67500 39.56800
C  33.06500 56.59000 39.03600
C  34.47600 56.90500 39.12400
C  34.64800 58.20600 39.63800
C  33.27100 58.66400 39.81000
C  35.43500 55.89500 38.66600
C  36.00400 58.86000 39.80200
O  37.05000 58.25300 39.60300
C  36.10800 60.31200 40.36100
N  30.48600 60.03600 40.17600
C  31.71900 60.67300 40.16900
C  31.52200 62.12700 40.61000
C  29.93300 62.28200 40.83300
C  29.52600 60.90400 40.53200
C  32.26300 62.70200 41.87400
C  29.22000 63.44200 40.01800
C  28.27100 64.39000 40.76300
N  28.20800 58.21300 40.01900
C  27.49500 59.28300 40.29900
C  26.08300 58.98200 40.26300
C  26.05300 57.66100 39.76100
C  27.44500 57.31300 39.52000
C  24.96300 59.85000 40.58100
C  25.19000 56.55000 39.22400
O  23.97500 56.56500 39.01000
C  26.15100 55.41600 38.72800
C  25.96100 54.22200 39.57900
O  26.54800 54.04000 40.65400
O  25.23900 53.27900 38.84100
C  24.51400 52.33600 39.65100
H  33.00800 54.49000 38.49800
H  33.69600 60.74500 40.08600
H  27.51000 61.39200 40.74600
H  28.17000 53.35400 38.16600
H  30.91700 53.51900 37.10700
H  29.72400 52.40700 39.65500
H  31.44200 52.89100 39.68600
H  30.98100 51.73100 38.53100
H  29.48600 54.41200 35.80300
H  28.28600 55.51300 36.33300
H  26.63800 53.42700 36.38200
H  27.71100 52.93500 35.07300
H  35.91500 56.10500 37.71000
H  35.00500 54.91000 38.48400
H  36.19700 55.91700 39.44500
H  35.62500 60.95800 39.62800
H  37.17700 60.47900 40.49600
H  35.65900 60.40900 41.34900
H  31.75100 62.70100 39.71200
H  29.75700 62.31500 41.90800
H  33.04100 62.06000 42.28900
H  31.60400 63.06600 42.66200
H  32.86700 63.54800 41.54700
H  28.70300 63.20100 39.09000
H  30.05200 64.09000 39.74300
H  27.34200 64.22800 40.21700
H  28.43800 65.46600 40.71200
H  28.13300 64.15500 41.81800
H  24.06200 59.24900 40.70300
H  24.76100 60.52100 39.74600
H  25.09200 60.44800 41.48300
H  26.09800 55.08400 37.69100
H  24.46100 52.69800 40.67800
H  25.00000 51.36000 39.66700
H  23.48300 52.14800 39.34900
Mg -5.03600 26.00200 26.83100
C  -3.43800 27.53500 29.60800
C  -6.53100 23.74900 29.16800
C  -5.91400 24.04100 24.36400
C  -2.92400 27.81000 24.74400
N  -4.95800 25.76000 29.07300
C  -4.35700 26.57200 29.98800
C  -4.75800 26.14900 31.46800
C  -5.39400 24.79200 31.28000
C  -5.68900 24.80700 29.72300
C  -4.54200 23.58900 31.77300
C  -5.74400 27.22300 31.97200
C  -5.76700 27.39100 33.44800
H  -5.41700 26.23800 34.45000
N  -6.23400 24.27800 26.76700
C  -6.85300 23.56000 27.80000
C  -7.74800 22.55500 27.24300
C  -7.59800 22.64500 25.78000
C  -6.56100 23.67900 25.59400
C  -8.62200 21.70800 28.12700
C  -8.38100 21.98800 24.72500
O  -8.24400 22.24300 23.50600
C  -9.44100 21.00100 25.14100
N  -4.39800 25.81700 24.90300
C  -4.97700 24.92300 24.03500
C  -4.41200 25.19700 22.59000
C  -3.54800 26.51600 22.69100
C  -3.60600 26.70700 24.19700
C  -3.69800 24.01100 22.04100
C  -4.08900 27.65800 21.88100
C  -3.03500 28.38700 20.89100
N  -3.61200 27.50700 27.06700
C  -2.87900 28.20100 26.10300
C  -1.92500 29.13900 26.70500
C  -2.23300 28.90000 28.08700
C  -3.22500 27.91400 28.32000
C  -0.89100 29.94900 26.05600
C  -1.76900 29.29800 29.39700
O  -1.02600 30.16100 29.71700
C  -2.69300 28.53300 30.40500
C  -1.73900 27.84600 31.37700
O  -0.78300 27.15200 31.04600
O  -2.29500 28.02900 32.67500
C  -1.65400 27.56300 33.90100
H  -7.25500 23.24300 29.81000
H  -6.32800 23.36900 23.60800
H  -2.24000 28.40000 24.13100
H  -3.87600 26.02500 32.09600
H  -6.35900 24.80200 31.78800
H  -4.79200 22.73200 31.14700
H  -4.70300 23.35100 32.82400
H  -3.45900 23.71400 31.77200
H  -6.72900 26.93300 31.60600
H  -5.51200 28.16300 31.47100
H  -6.77600 27.70500 33.71700
H  -5.05500 28.17100 33.71800
H  -8.22700 20.70500 28.29000
H  -9.67400 21.60100 27.86100
H  -8.68200 22.16300 29.11500
H  -8.95600 20.08400 25.47500
H  -10.02800 20.78800 24.24700
H  -10.17400 21.46000 25.80500
H  -5.29200 25.38600 21.97500
H  -2.49500 26.27700 22.54300
H  -2.63400 24.23400 22.11900
H  -3.89700 24.02500 20.97000
H  -3.97900 23.09700 22.56500
H  -4.48100 28.45700 22.50900
H  -4.90300 27.30800 21.24600
H  -3.36000 28.29300 19.85500
H  -2.00700 28.02300 20.89700
H  -2.97200 29.46200 21.06100
H  -0.53900 30.80100 26.63800
H  -1.25800 30.18400 25.05700
H  0.04300 29.39800 25.95100
H  -3.36600 29.24400 30.88500
H  -1.00300 26.72700 33.64800
H  -2.47500 27.15400 34.48900
H  -1.21100 28.44100 34.37100

