158

Mg 43.96200 4.89400 46.96500
C  41.73200 7.75900 46.93500
C  41.09800 2.98700 46.49400
C  45.93000 2.30600 46.26000
C  46.70000 6.99000 46.92800
N  41.65500 5.37800 46.55900
C  41.01600 6.58500 46.79600
C  39.50600 6.37100 46.75100
C  39.30100 4.87500 46.66100
C  40.76400 4.33300 46.63900
C  38.50300 4.43500 47.84700
C  38.73500 7.26900 45.70300
C  39.52000 7.43600 44.40500
H  38.79400 7.41900 43.07000
N  43.58600 2.88500 46.54000
C  42.36800 2.32400 46.39300
C  42.51000 0.91400 46.02400
C  43.92600 0.69500 45.97700
C  44.57600 2.00700 46.29000
C  41.36300 -0.04200 45.62800
C  44.54300 -0.62700 45.55800
O  43.81000 -1.55100 45.31700
C  46.02600 -0.88900 45.34600
N  46.10500 4.66600 46.50500
C  46.63700 3.45000 46.50600
C  48.19700 3.52600 46.80200
C  48.45000 5.13000 46.86400
C  47.05400 5.66800 46.73400
C  48.65000 2.73600 48.06800
C  49.34400 5.73000 45.67600
C  50.66700 6.38800 46.28000
N  44.21800 6.98200 47.00800
C  45.40600 7.72200 47.01100
C  45.09200 9.10800 47.21700
C  43.62800 9.13500 47.19400
C  43.14300 7.86700 46.96100
C  46.10400 10.19100 47.43700
C  42.48800 10.03100 47.27300
O  42.44900 11.29400 47.30200
C  41.21300 9.16100 47.21900
C  40.49400 9.20600 48.50600
O  40.74900 8.45700 49.39500
O  39.48500 10.18100 48.51500
C  38.70500 10.31200 49.78900
H  40.24500 2.32400 46.33300
H  46.68300 1.53300 46.09200
H  47.49000 7.74300 46.97400
H  39.14800 6.76400 47.70300
H  38.70300 4.63600 45.78200
H  39.06500 4.80600 48.70400
H  38.46500 3.34800 47.91700
H  37.55700 4.97300 47.89600
H  38.63200 8.30000 46.04300
H  37.77400 6.85200 45.40100
H  40.26200 6.64700 44.28500
H  40.14500 8.31300 44.56800
H  41.28300 -0.89700 46.30000
H  41.57400 -0.31400 44.59400
H  40.35800 0.37900 45.66400
H  46.60900 -0.64100 46.23400
H  46.34900 -0.18700 44.57700
H  46.25500 -1.88500 44.96700
H  48.84400 3.13700 46.01600
H  48.90400 5.43000 47.80800
H  48.01000 2.95300 48.92300
H  49.70300 2.92800 48.27600
H  48.61000 1.68800 47.77100
H  48.78900 6.48600 45.12100
H  49.59600 4.86300 45.06400
H  51.05400 6.98500 45.45400
H  51.35900 5.66600 46.71300
H  50.31400 7.05300 47.06800
H  47.05900 9.88600 47.00900
H  46.36100 10.40300 48.47500
H  45.90400 11.08300 46.84300
H  40.55800 9.55400 46.44200
H  38.59900 11.33900 50.13800
H  39.03600 9.81200 50.69800
H  37.77400 9.78500 49.58200
Mg 50.34600 45.17900 42.70800
C  47.19400 46.05100 41.58800
C  50.02800 42.10100 41.70200
C  53.74800 44.90100 42.94200
C  50.85200 48.78100 43.16600
N  48.86400 44.28000 41.66900
C  47.55200 44.74200 41.37900
C  46.65500 43.67300 40.77600
C  47.64600 42.39800 40.81600
C  48.92000 42.92700 41.46100
C  47.04200 41.18300 41.64900
C  46.27000 44.03200 39.28400
C  47.31900 44.65600 38.35500
H  47.82300 43.86100 37.16100
N  51.71400 43.66900 42.48500
C  51.34400 42.38100 42.09300
C  52.50000 41.48300 41.98800
C  53.61000 42.31600 42.39200
C  53.03500 43.67800 42.67200
C  52.33200 40.02000 41.62600
C  55.04000 41.72200 42.55800
O  55.25800 40.60500 42.19800
C  56.09600 42.47500 43.34800
N  51.99300 46.69400 43.01300
C  53.29900 46.21300 43.20900
C  54.22000 47.48200 43.37600
C  53.28600 48.68100 43.65700
C  51.98300 48.02700 43.17800
C  55.33500 47.46500 44.48900
C  53.65100 50.16300 43.17700
C  53.93400 51.09000 44.33400
N  49.29900 47.11800 42.36500
C  49.57600 48.45800 42.72000
C  48.33200 49.24100 42.67300
C  47.36400 48.28400 42.26900
C  47.96700 47.05700 42.06200
C  48.18200 50.63500 43.24800
C  45.95900 48.16100 41.84700
O  45.09500 48.97300 41.63700
C  45.73500 46.66900 41.54900
C  44.76900 46.07300 42.48800
O  43.56300 45.93600 42.23400
O  45.34300 45.63700 43.68000
C  44.39000 45.07400 44.62300
H  49.82300 41.10500 41.30500
H  54.83000 44.76000 42.89700
H  50.86100 49.85600 43.36100
H  45.78400 43.45800 41.39500
H  47.84900 41.95500 39.84100
H  46.21000 41.54500 42.25200
H  47.74600 40.94100 42.44600
H  46.94900 40.38100 40.91700
H  45.48500 44.77200 39.43900
H  45.81900 43.09500 38.95600
H  48.28800 44.71700 38.85200
H  47.00300 45.61000 37.93300
H  52.95000 39.71600 40.78100
H  51.28400 39.83100 41.39300
H  52.58400 39.49200 42.54500
H  56.61900 43.20900 42.73600
H  56.82500 41.74600 43.70100
H  55.61200 42.92800 44.21400
H  54.74700 47.46600 42.42100
H  53.10000 48.72300 44.73000
H  56.22900 47.12000 43.96900
H  55.08100 46.66700 45.18800
H  55.53200 48.45300 44.90600
H  52.86900 50.55200 42.52600
H  54.54500 50.15700 42.55200
H  54.55700 50.54600 45.04400
H  52.94800 51.29700 44.75100
H  54.46300 51.93000 43.88300
H  48.75000 51.19500 42.50500
H  48.61800 50.77300 44.23700
H  47.14200 50.96100 43.29600
H  45.30600 46.52100 40.55800
H  44.97300 44.55600 45.38500
H  43.63200 44.40300 44.21700
H  43.85700 45.85300 45.16900

