158

Mg 16.80000 52.12600 26.04000
C  18.58400 50.75100 28.59500
C  14.26500 52.88600 28.22700
C  14.93700 53.44700 23.42500
C  19.05900 50.89600 23.73100
N  16.55100 51.91100 28.12500
C  17.47700 51.47400 28.98000
C  17.03200 51.83300 30.43000
C  15.48400 52.14800 30.29400
C  15.39900 52.31700 28.77500
C  14.42700 51.15300 30.89400
C  17.89800 52.94900 31.03900
C  18.44300 52.68200 32.49300
H  17.39700 52.06800 33.45000
N  14.97900 53.20500 25.82400
C  14.05500 53.34500 26.85900
C  12.93200 53.96100 26.39200
C  13.03800 54.11400 24.96700
C  14.34300 53.58400 24.67100
C  11.70300 54.20300 27.29800
C  11.98900 54.56200 23.96200
O  12.15800 54.55800 22.76200
C  10.67000 55.05500 24.44600
N  16.91200 52.11100 23.86700
C  16.04300 52.75000 23.05100
C  16.59300 52.84600 21.58900
C  17.91900 52.04900 21.74000
C  18.00200 51.70700 23.20000
C  15.58800 52.53400 20.42000
C  19.19200 52.83400 21.27400
C  19.86700 52.14300 20.03300
N  18.46900 51.07600 26.11200
C  19.30000 50.58800 25.15000
C  20.39300 49.85100 25.69300
C  20.18800 49.89900 27.06700
C  18.95700 50.59500 27.27100
C  21.50400 49.17600 24.89300
C  20.65700 49.46200 28.37300
O  21.44900 48.58300 28.64700
C  19.67900 50.12700 29.41800
C  19.17400 49.12000 30.35100
O  18.74600 48.01600 30.04800
O  19.44700 49.51100 31.64200
C  19.25300 48.47900 32.66500
H  13.38100 52.97000 28.86300
H  14.45000 53.91900 22.57000
H  19.78900 50.60500 22.97200
H  17.16600 50.93500 31.03400
H  15.38800 53.19500 30.58300
H  13.81500 50.66800 30.13300
H  13.69000 51.73700 31.44600
H  14.78300 50.38900 31.58500
H  17.53600 53.93400 30.74400
H  18.75300 52.94100 30.36300
H  18.91400 53.58300 32.88500
H  19.24000 51.95500 32.33700
H  10.95900 53.41300 27.19100
H  11.18000 55.13200 27.07000
H  11.94300 54.28100 28.35900
H  10.26000 55.28100 23.46100
H  10.72600 55.97600 25.02600
H  10.16600 54.19700 24.89100
H  16.74800 53.92400 21.53400
H  17.73100 51.09900 21.24100
H  16.05300 51.86600 19.69500
H  15.37600 53.38100 19.76900
H  14.65800 52.08500 20.76900
H  19.86400 52.98700 22.11800
H  18.80700 53.80800 20.97000
H  19.24800 52.40700 19.17600
H  20.04500 51.07700 20.17500
H  20.77700 52.62200 19.67000
H  21.89900 49.91400 24.19500
H  21.17200 48.25900 24.40400
H  22.33400 48.88300 25.53500
H  20.21100 50.88900 29.98700
H  18.20500 48.25600 32.46300
H  19.29900 48.76700 33.71500
H  19.83900 47.58700 32.44500
Mg -2.41100 35.16600 26.62200
C  -4.30500 33.30800 29.00600
C  -1.68000 37.32900 28.95900
C  -0.79300 36.97000 24.25000
C  -4.03000 33.28300 24.13500
N  -3.02000 35.32800 28.74600
C  -3.65800 34.42800 29.56300
C  -3.53900 34.73000 31.08400
C  -2.79800 36.15000 30.91000
C  -2.48400 36.30600 29.43000
C  -3.45800 37.47600 31.54100
C  -2.86500 33.63900 31.99700
C  -3.66500 33.29400 33.30700
H  -2.76100 33.15100 34.55000
N  -1.35200 36.96700 26.59400
C  -1.10500 37.66900 27.75300
C  -0.22600 38.74500 27.36900
C  0.08900 38.67200 26.00000
C  -0.64500 37.52100 25.54100
C  0.08900 39.75500 28.49500
C  0.92800 39.54100 25.21100
O  1.13600 39.31600 24.02300
C  1.60700 40.80500 25.84600
N  -2.43700 35.24900 24.53000
C  -1.59400 35.95100 23.77900
C  -1.61200 35.57000 22.30500
C  -2.63500 34.35700 22.27000
C  -3.16700 34.36700 23.74700
C  -1.98500 36.80300 21.36500
C  -1.74200 33.10500 21.82500
C  -0.95800 32.31000 22.83800
N  -3.94400 33.58600 26.51200
C  -4.45600 32.94700 25.39900
C  -5.32200 31.90600 25.85200
C  -5.31700 31.91100 27.26300
C  -4.41100 32.96900 27.60200
C  -6.09000 30.94800 25.03100
C  -5.81700 31.37300 28.51200
O  -6.50400 30.40800 28.80300
C  -5.16500 32.30000 29.68100
C  -6.30300 32.93900 30.34800
O  -7.15300 33.67100 29.86400
O  -6.51500 32.38200 31.61400
C  -7.76500 32.61100 32.33400
H  -1.53700 38.07800 29.74000
H  -0.29100 37.50900 23.44400
H  -4.48600 32.73600 23.30800
H  -4.55900 34.94100 31.40500
H  -1.86600 36.03700 31.46500
H  -4.49800 37.31600 31.82500
H  -3.42100 38.33300 30.86800
H  -2.78700 37.80300 32.33500
H  -1.79500 33.82600 32.08100
H  -2.88600 32.69100 31.46100
H  -4.20400 32.35400 33.18000
H  -4.37600 34.11200 33.41700
H  0.29200 39.25400 29.44100
H  -0.81400 40.26700 28.82500
H  0.82500 40.53900 28.31200
H  1.06700 41.46600 26.52300
H  1.89400 41.40800 24.98400
H  2.43400 40.34600 26.38800
H  -0.58400 35.32700 22.03600
H  -3.46500 34.63400 21.61900
H  -2.34000 37.62200 21.99100
H  -2.86200 36.61600 20.74500
H  -1.11400 36.99900 20.74000
H  -1.06600 33.31300 20.99600
H  -2.42300 32.38400 21.37200
H  -1.06300 32.66300 23.86400
H  0.07300 32.37400 22.49200
H  -1.29100 31.27200 22.82800
H  -5.92200 29.98600 25.51400
H  -5.75000 30.97100 23.99600
H  -7.16600 31.08400 25.14100
H  -4.66300 31.66800 30.41300
H  -8.06000 31.72100 32.89100
H  -8.56200 32.98000 31.68900
H  -7.63000 33.37900 33.09500

