158

Mg 26.86900 50.82900 25.99400
C  24.97700 52.03600 28.77000
C  29.51300 50.33000 28.08400
C  28.21800 49.57100 23.40500
C  24.26800 52.17000 23.88900
N  27.06700 50.94200 28.16600
C  26.17300 51.33900 29.10300
C  26.71700 51.17700 30.55400
C  28.25300 51.10000 30.27900
C  28.32300 50.74500 28.73500
C  29.09600 52.38900 30.65900
C  26.01100 49.91100 31.33400
C  25.43300 50.35000 32.69400
H  26.44200 50.92000 33.72800
N  28.62800 50.12400 25.75300
C  29.67500 49.99100 26.71500
C  30.69000 49.15600 26.06100
C  30.23400 48.70700 24.84300
C  28.96900 49.47700 24.58600
C  32.07100 48.85100 26.75400
C  30.84600 47.78200 23.74500
O  30.27600 47.47200 22.68100
C  32.15000 47.07300 24.08100
N  26.29500 50.96600 23.85200
C  27.02000 50.23800 23.03900
C  26.40100 50.20800 21.68000
C  25.16000 51.07900 21.78100
C  25.19900 51.37100 23.25200
C  27.33600 50.60900 20.56500
C  23.86400 50.35300 21.38900
C  22.81400 51.19200 20.54000
N  25.05000 51.93700 26.24900
C  24.17100 52.46800 25.26200
C  23.10600 53.17100 25.92400
C  23.30700 52.83700 27.33300
C  24.54200 52.19300 27.43200
C  21.91400 53.74800 25.33500
C  22.79000 53.17200 28.64400
O  21.77500 53.79900 28.91000
C  23.84800 52.59800 29.69200
C  24.10100 53.68200 30.65600
O  24.93000 54.59200 30.48100
O  23.38600 53.48200 31.83700
C  23.82200 54.32500 32.96000
H  30.31900 50.13800 28.79500
H  28.76400 49.25800 22.51300
H  23.57200 52.72600 23.25900
H  26.52600 52.09500 31.11000
H  28.72600 50.27400 30.81100
H  29.53900 52.08800 31.60900
H  28.50200 53.28300 30.84600
H  29.89700 52.65100 29.96700
H  26.69300 49.06200 31.28800
H  25.16000 49.71000 30.68400
H  24.82200 49.50500 33.01200
H  24.68000 51.12600 32.56100
H  32.87000 49.32100 26.18100
H  32.21100 47.77100 26.80300
H  32.06800 49.28300 27.75500
H  32.92100 47.84200 24.12900
H  32.49000 46.43500 23.26500
H  32.15900 46.50700 25.01200
H  26.13000 49.15900 21.56200
H  25.22500 52.01100 21.22000
H  28.21800 51.15200 20.90700
H  26.93000 51.31800 19.84400
H  27.68900 49.78800 19.94100
H  23.26200 49.92100 22.18900
H  24.11400 49.55700 20.68800
H  22.35900 50.56300 19.77500
H  23.27400 52.11100 20.17500
H  22.02600 51.39900 21.26300
H  22.23200 54.34700 24.48200
H  21.34700 54.33300 26.06000
H  21.21800 52.99800 24.95900
H  23.22300 51.81500 30.12300
H  23.82800 55.35800 32.61100
H  24.82100 53.97700 33.22500
H  23.07900 54.22600 33.75100
Mg -10.46400 38.93300 41.11600
C  -8.64300 36.04400 40.38800
C  -8.00500 40.76200 39.42000
C  -12.42700 41.57400 41.00700
C  -13.00000 36.98200 42.45400
N  -8.58200 38.56200 40.04400
C  -8.10800 37.25100 39.84800
C  -7.02100 37.21400 38.76800
C  -6.60000 38.69900 38.74200
C  -7.85300 39.42400 39.34900
C  -5.24200 39.09300 39.47900
C  -7.47300 36.61900 37.38500
C  -6.71300 35.52000 36.78500
H  -6.13100 35.70400 35.41600
N  -10.19400 40.91000 40.53300
C  -9.13600 41.43600 39.78800
C  -9.33500 42.85200 39.71700
C  -10.59900 43.13500 40.21300
C  -11.15000 41.86600 40.62200
C  -8.32800 43.69700 39.05900
C  -11.16300 44.56900 40.40500
O  -10.54900 45.50400 40.01600
C  -12.42500 44.78100 41.17300
N  -12.44300 39.22500 41.49100
C  -13.00300 40.38600 41.42000
C  -14.46000 40.35000 41.98700
C  -14.78900 38.80100 42.06900
C  -13.31700 38.26300 42.05700
C  -14.52700 41.18600 43.37900
C  -15.42400 38.12000 40.78100
C  -16.49100 37.08000 41.04000
N  -10.77400 36.90800 41.52600
C  -11.81600 36.25400 42.21400
C  -11.40900 34.88000 42.35200
C  -10.22700 34.72500 41.65300
C  -9.86700 36.01300 41.15200
C  -12.15300 33.79700 43.10800
C  -9.18100 33.81500 41.17200
O  -9.08900 32.60200 41.34500
C  -8.19200 34.59700 40.29300
C  -6.80400 34.42500 40.89300
O  -6.02800 33.55200 40.52100
O  -6.55200 35.33900 41.86600
C  -5.15800 35.44600 42.20000
H  -7.16100 41.28600 38.96700
H  -13.13400 42.40500 40.94900
H  -13.82900 36.39500 42.85500
H  -6.24600 36.59500 39.21900
H  -6.52200 39.03200 37.70700
H  -4.50200 38.29300 39.50500
H  -5.40300 39.33600 40.53000
H  -4.65000 39.88000 39.01200
H  -7.25900 37.41500 36.67200
H  -8.55500 36.49200 37.35900
H  -7.30300 34.60400 36.75100
H  -5.94200 35.23800 37.50200
H  -8.16700 44.62700 39.60400
H  -8.62100 43.94500 38.03900
H  -7.33400 43.25300 39.11900
H  -12.41200 45.82200 41.49800
H  -12.41700 44.16000 42.06800
H  -13.32100 44.63000 40.57100
H  -15.14900 40.78800 41.26500
H  -15.17600 38.63900 43.07500
H  -13.54200 41.61900 43.55100
H  -14.77200 40.58300 44.25300
H  -15.26400 41.98100 43.26300
H  -14.59200 37.67800 40.23400
H  -15.85900 38.94200 40.21300
H  -16.84800 37.27500 42.05100
H  -16.16700 36.04000 40.98200
H  -17.25700 37.23100 40.28000
H  -12.71500 33.13100 42.45300
H  -12.88000 34.31100 43.73800
H  -11.41200 33.32200 43.75000
H  -8.15700 34.20300 39.27700
H  -4.99000 36.51300 42.05200
H  -4.54200 34.84100 41.53400
H  -4.98200 35.24100 43.25600

