158

Mg 43.85100 4.21000 47.57900
C  41.52400 6.93100 47.25200
C  41.26200 2.08000 47.26800
C  45.94700 1.64600 47.55100
C  46.44500 6.53900 47.49900
N  41.60800 4.46800 47.36100
C  40.91400 5.64900 47.16800
C  39.45800 5.34000 47.21300
C  39.36900 3.82800 47.51300
C  40.86500 3.39800 47.50700
C  38.67600 3.49200 48.90000
C  38.51900 5.94700 46.04000
C  38.68900 5.34600 44.64500
H  39.51300 6.15600 43.63400
N  43.55400 2.07700 47.20500
C  42.46900 1.37800 47.14000
C  42.68000 -0.04300 46.85900
C  44.15600 -0.13900 46.83200
C  44.64600 1.24800 47.12200
C  41.77900 -1.06800 46.54300
C  44.91700 -1.39400 46.61000
O  44.29800 -2.38600 46.38200
C  46.39000 -1.55900 46.57000
N  45.92200 4.11200 47.36000
C  46.56800 2.93200 47.66600
C  48.05800 3.16400 47.93600
C  48.18400 4.69900 47.82700
C  46.78300 5.15700 47.42800
C  48.58200 2.48400 49.25600
C  49.34100 5.24800 46.86200
C  50.68300 5.63900 47.57300
N  43.97800 6.34100 47.36300
C  45.15500 7.11400 47.46000
C  44.67700 8.50500 47.55100
C  43.23900 8.44600 47.56700
C  42.87600 7.16300 47.34600
C  45.50900 9.73300 47.57900
C  42.07600 9.31200 47.63300
O  41.92500 10.49000 47.81300
C  40.88300 8.26200 47.35800
C  39.96700 8.41200 48.56100
O  40.07600 7.77700 49.56000
O  38.99900 9.40200 48.27500
C  37.87800 9.51600 49.20300
H  40.33300 1.51300 47.35300
H  46.58300 0.80400 47.83400
H  47.26200 7.23400 47.70600
H  39.09300 5.75500 48.15300
H  38.85600 3.27700 46.72500
H  39.47600 3.22500 49.59100
H  38.07900 2.60700 48.68100
H  38.00300 4.25000 49.29900
H  38.80900 6.99700 46.07800
H  37.47800 5.90200 46.36100
H  37.68600 5.25800 44.22700
H  39.12700 4.35100 44.73300
H  41.79400 -1.07500 45.45300
H  40.77900 -0.78400 46.87000
H  42.01400 -2.02400 47.00900
H  46.85100 -1.13900 47.46300
H  46.72900 -1.04500 45.67100
H  46.72600 -2.59600 46.57900
H  48.63600 2.71600 47.12700
H  48.35800 5.16800 48.79600
H  49.57600 2.08100 49.06000
H  47.80700 1.89100 49.74300
H  48.92100 3.23600 49.96800
H  48.89500 6.09100 46.33500
H  49.45000 4.44700 46.13200
H  50.52400 6.61000 48.04300
H  51.45800 5.73300 46.81200
H  50.97100 4.86700 48.28600
H  46.50600 9.50200 47.20300
H  45.68700 10.12600 48.58000
H  44.98900 10.52800 47.04400
H  40.30200 8.50400 46.46800
H  37.18300 10.30800 48.92600
H  38.21100 9.78600 50.20500
H  37.22400 8.65000 49.09900
Mg 1.30700 42.65000 26.80800
C  2.63600 42.44400 30.07800
C  -1.73100 41.88300 28.14700
C  0.26300 42.36600 23.78200
C  4.64000 43.24800 25.66100
N  0.50200 42.42400 28.86300
C  1.22500 42.45300 30.00900
C  0.25000 42.26400 31.21200
C  -0.96700 41.66600 30.57100
C  -0.75100 42.06900 29.13200
C  -1.21900 40.16900 30.79600
C  0.06000 43.59300 31.92500
C  0.36200 43.72100 33.47200
H  0.14500 42.60000 34.44100
N  -0.52000 42.37000 26.02400
C  -1.68300 42.04300 26.73700
C  -2.77600 41.82100 25.80700
C  -2.20200 41.95300 24.51100
C  -0.77900 42.21400 24.74300
C  -4.19700 41.63900 26.20900
C  -2.78300 41.63600 23.12800
O  -2.11100 41.63200 22.09800
C  -4.20700 41.07800 23.02700
N  2.37000 42.65300 25.03800
C  1.66100 42.57300 23.85800
C  2.58300 42.53600 22.63700
C  3.88900 43.07000 23.22900
C  3.62600 43.05900 24.76700
C  2.60600 41.13200 22.00100
C  4.55800 44.44600 22.71100
C  3.65900 45.72200 22.54600
N  3.25700 42.91100 27.65900
C  4.55800 43.13400 27.04100
C  5.55900 43.17300 28.04800
C  4.87500 42.82100 29.28200
C  3.49900 42.66000 28.94900
C  6.98800 43.60500 27.97500
C  5.03300 42.62200 30.73300
O  6.07400 42.57000 31.41000
C  3.50400 42.50700 31.31300
C  3.53600 41.25000 32.20000
O  3.45100 40.08400 31.83500
O  3.62600 41.66000 33.48700
C  3.89000 40.63400 34.52100
H  -2.64300 41.49700 28.60600
H  -0.02000 42.33200 22.72800
H  5.58800 43.50700 25.18500
H  0.69200 41.57400 31.93000
H  -1.92600 42.12600 30.81100
H  -0.45500 39.69500 31.41300
H  -1.33000 39.62900 29.85600
H  -2.10500 40.12900 31.43000
H  -0.99100 43.88100 31.89600
H  0.45400 44.40100 31.30900
H  -0.24100 44.51500 33.91200
H  1.41800 43.98600 33.42200
H  -4.44400 40.57900 26.16200
H  -4.96500 42.18300 25.65800
H  -4.18400 41.95600 27.25200
H  -4.45700 40.67900 22.04400
H  -4.85400 41.92500 23.25700
H  -4.28000 40.38800 23.86700
H  2.15000 43.25800 21.94400
H  4.52900 42.18900 23.18000
H  1.84400 40.51800 22.48100
H  3.56700 40.61900 22.04200
H  2.39100 41.32200 20.95000
H  5.27700 44.28000 21.90800
H  5.19700 44.68500 23.56100
H  3.93600 46.36300 23.38400
H  2.60000 45.50300 22.68700
H  3.84000 46.22800 21.59800
H  7.16800 44.01300 26.98100
H  7.69800 42.84400 28.29800
H  7.05600 44.55400 28.50700
H  3.35000 43.47900 31.78100
H  4.67000 39.94600 34.19600
H  2.94600 40.09200 34.57200
H  4.09000 41.06200 35.50300

