158

Mg 25.79100 0.90900 28.81400
C  27.62600 0.38100 31.77800
C  23.03000 1.16600 30.78800
C  24.01800 1.19500 26.02500
C  28.59900 0.12900 26.97700
N  25.40100 0.70100 31.08400
C  26.30300 0.52200 32.11700
C  25.58100 0.57600 33.49600
C  24.09300 0.67100 33.05200
C  24.13500 0.90200 31.57600
C  23.29800 -0.61500 33.45700
C  26.10400 1.85100 34.26700
C  25.39100 2.27800 35.58300
H  26.24000 2.12300 36.85300
N  23.81400 1.14200 28.40900
C  22.77100 1.23200 29.36700
C  21.51700 1.30600 28.57700
C  21.84000 1.52400 27.24300
C  23.25600 1.28100 27.19900
C  20.21300 1.36100 29.28100
C  20.92800 1.74900 26.00300
O  21.38600 1.72100 24.86500
C  19.48800 1.91400 26.18800
N  26.27400 0.67200 26.76900
C  25.34000 0.85700 25.80900
C  25.90600 0.68600 24.39900
C  27.37200 0.29000 24.65100
C  27.41000 0.34600 26.24300
C  25.11400 -0.32000 23.51700
C  28.48900 1.13900 23.98600
C  29.67300 0.40200 23.35100
N  27.76600 0.28700 29.23700
C  28.79300 0.12000 28.38000
C  30.04200 -0.00000 29.11000
C  29.65900 0.14100 30.45900
C  28.25100 0.32300 30.48300
C  31.40000 -0.07700 28.55500
C  30.12400 0.23000 31.89900
O  31.29100 0.12000 32.31600
C  28.81200 0.37500 32.79100
C  28.76900 -0.76200 33.74600
O  28.37600 -1.87600 33.53400
O  29.13200 -0.40900 35.00800
C  28.93900 -1.38700 36.05700
H  22.10800 1.20300 31.37200
H  23.47200 1.04200 25.09100
H  29.46100 0.02400 26.31400
H  25.90500 -0.24100 34.14000
H  23.48500 1.44200 33.52500
H  22.74800 -0.90300 32.56100
H  22.62000 -0.45100 34.29500
H  23.97500 -1.43800 33.68600
H  26.18200 2.73000 33.62800
H  27.13200 1.66000 34.57700
H  24.54800 1.61300 35.77500
H  25.05300 3.30300 35.43300
H  19.85400 2.35500 29.01300
H  20.29800 1.24900 30.36200
H  19.50200 0.60700 28.94300
H  18.98800 0.98000 26.44500
H  18.98400 2.15300 25.25100
H  19.42200 2.73500 26.90200
H  25.91300 1.70700 24.01700
H  27.57800 -0.75400 24.41600
H  24.58100 0.25200 22.75700
H  24.32700 -0.93000 23.96100
H  25.85800 -0.94600 23.02400
H  28.84300 1.89700 24.68400
H  27.90100 1.62500 23.20700
H  29.47000 -0.16400 22.44200
H  30.00700 -0.31300 24.10300
H  30.44800 1.13700 23.13200
H  32.12300 -0.17300 29.36400
H  31.72800 0.78500 27.97400
H  31.58900 -0.92000 27.89000
H  29.00300 1.32100 33.29800
H  27.98500 -1.15300 36.52900
H  29.75900 -1.23100 36.75700
H  29.02300 -2.43700 35.77700
Mg 6.59600 53.99400 40.29400
C  6.16600 50.49400 40.01900
C  9.74800 53.56900 39.09800
C  6.64800 57.24800 39.86400
C  3.09300 54.13600 40.85700
N  7.70800 52.23300 39.45200
C  7.33600 50.92800 39.44200
C  8.56300 50.06600 39.27000
C  9.77000 51.04800 39.23200
C  9.06200 52.36300 39.29700
C  10.76600 50.80600 40.36000
C  8.55500 49.32300 37.92600
C  8.45200 50.13900 36.66900
H  7.48300 49.74100 35.51000
N  8.06200 55.27700 39.71200
C  9.32800 54.88400 39.25500
C  10.09800 56.06400 39.05300
C  9.20900 57.15600 39.27500
C  7.92300 56.59200 39.60900
C  11.54800 56.11300 38.58200
C  9.64300 58.60400 39.32200
O  10.75500 58.89900 38.92400
C  8.74300 59.71900 39.80200
N  5.03500 55.42800 40.29500
C  5.40200 56.76400 40.20800
C  4.18600 57.67500 40.38200
C  3.00400 56.61000 40.51800
C  3.73800 55.28000 40.53100
C  4.42600 58.60900 41.70600
C  1.85000 56.62200 39.39900
C  0.57900 57.41700 39.64600
N  4.89400 52.65100 40.43100
C  3.58800 52.83200 40.96100
C  3.05200 51.53100 41.31800
C  3.99700 50.60400 40.91500
C  5.07700 51.32100 40.42300
C  1.75100 51.29200 42.01400
C  4.29100 49.23300 40.82700
O  3.49900 48.30700 41.10900
C  5.66000 49.02700 40.26100
C  5.44900 48.11400 39.08900
O  4.77000 48.33700 38.06500
O  6.25700 47.05700 39.13500
C  6.06700 46.05500 38.05800
H  10.78000 53.43500 38.76900
H  6.50700 58.33000 39.83000
H  2.03800 54.29700 41.08700
H  8.72200 49.38900 40.10900
H  10.39800 51.10600 38.34300
H  10.74600 49.76900 40.69300
H  10.54500 51.58000 41.09600
H  11.79400 50.97600 40.04000
H  7.65700 48.71200 37.83600
H  9.40200 48.64800 37.80300
H  9.47700 50.31500 36.34500
H  8.08800 51.11600 36.98700
H  11.91300 55.22100 38.07300
H  12.23700 56.46100 39.35100
H  11.64000 56.85600 37.78900
H  7.81600 59.83500 39.24200
H  9.28500 60.62400 39.52800
H  8.54100 59.56500 40.86200
H  4.07700 58.27100 39.47500
H  2.55500 56.68900 41.50800
H  4.37300 59.63700 41.34700
H  5.33500 58.40300 42.27100
H  3.61300 58.42200 42.40800
H  1.52500 55.60500 39.17800
H  2.26100 56.92700 38.43700
H  0.32800 58.18600 38.91600
H  0.57900 58.04700 40.53600
H  -0.17900 56.64600 39.51400
H  1.09700 50.76400 41.32000
H  1.33000 52.20400 42.43600
H  1.96100 50.72700 42.92200
H  6.19500 48.45500 41.02000
H  6.73000 46.20700 37.20600
H  5.08600 46.07400 37.58400
H  6.29400 45.05600 38.43200

