158

Mg 35.83100 49.16900 25.98500
C  36.30200 47.27900 28.98600
C  34.54800 51.66300 27.88900
C  35.36700 50.83300 23.11100
C  36.63200 46.25200 24.10200
N  35.52400 49.36200 28.20300
C  35.80300 48.52700 29.26300
C  35.57100 49.14000 30.65400
C  34.86600 50.49500 30.24100
C  34.91700 50.51400 28.65200
C  33.39700 50.71700 30.85900
C  36.90200 49.40100 31.43100
C  36.72400 49.49300 32.95800
H  35.32900 49.30000 33.61800
N  35.01300 50.99100 25.51300
C  34.54000 51.90300 26.42300
C  34.18100 53.14300 25.76200
C  34.35000 52.86600 24.36100
C  34.92600 51.50900 24.28000
C  33.71100 54.35900 26.45300
C  34.24100 53.79500 23.21700
O  34.48500 53.48400 22.02200
C  33.73800 55.17700 23.43700
N  35.76900 48.53000 23.85300
C  35.72800 49.50700 22.87000
C  35.89500 48.86000 21.44200
C  36.54800 47.47300 21.74400
C  36.43100 47.39600 23.34300
C  34.49100 48.84000 20.69600
C  37.95500 47.31100 21.13600
C  39.20100 47.63000 22.05400
N  36.48700 47.23100 26.41200
C  36.68200 46.14600 25.57200
C  37.14600 45.01400 26.41400
C  36.96800 45.37400 27.74600
C  36.51500 46.73200 27.66900
C  37.89300 43.81200 25.87000
C  37.13300 44.91200 29.08600
O  37.61500 43.83600 29.46000
C  36.61400 46.14100 29.97000
C  35.51600 45.67400 30.82400
O  34.32500 45.77700 30.59200
O  36.10000 45.18300 32.00100
C  35.19800 44.61800 33.01200
H  34.21100 52.51500 28.48400
H  35.11400 51.39700 22.21100
H  37.19000 45.51900 23.51600
H  34.96800 48.51400 31.31300
H  35.39900 51.41800 30.46900
H  33.23900 50.00400 31.66900
H  32.59400 50.31100 30.24400
H  33.14100 51.75300 31.08100
H  37.26900 50.36700 31.08400
H  37.62500 48.60300 31.26200
H  37.31400 50.35900 33.25800
H  37.14600 48.64900 33.50400
H  33.51300 54.21800 27.51600
H  32.73700 54.71300 26.11500
H  34.41200 55.19200 26.41200
H  32.87700 55.27800 24.09800
H  33.48000 55.66900 22.49900
H  34.59200 55.69300 23.87400
H  36.56800 49.50300 20.87400
H  36.07000 46.62700 21.25000
H  34.15100 47.81500 20.54700
H  34.59900 49.28700 19.70800
H  33.75100 49.29500 21.35400
H  37.96600 47.86200 20.19500
H  38.03400 46.25100 20.89300
H  38.97800 48.13100 22.99500
H  40.04700 48.11500 21.56800
H  39.62000 46.64500 22.25800
H  38.69100 43.64500 26.59300
H  38.26300 43.95200 24.85400
H  37.26900 42.92300 25.77900
H  37.47600 46.38600 30.59000
H  35.69900 43.72900 33.39400
H  34.23400 44.41200 32.54700
H  35.17400 45.45500 33.70900
Mg -5.13000 25.03600 25.53900
C  -3.89700 26.71700 28.19800
C  -6.87100 22.71300 27.65200
C  -5.87500 22.95900 22.82000
C  -3.03600 26.78400 23.45100
N  -5.19100 24.67800 27.59600
C  -4.81400 25.62000 28.49700
C  -5.23400 25.25300 29.97600
C  -5.92100 23.85200 29.70100
C  -6.06500 23.77700 28.20500
C  -5.16600 22.62100 30.30900
C  -6.11500 26.34800 30.53100
C  -6.31700 26.39400 32.08600
H  -5.53700 25.39500 32.99300
N  -6.37500 23.23100 25.23600
C  -6.96200 22.45800 26.23600
C  -7.93600 21.47700 25.59500
C  -7.61000 21.50700 24.15900
C  -6.53100 22.57300 24.02300
C  -8.88900 20.59000 26.40200
C  -8.23400 20.78900 23.03800
O  -7.84500 20.97200 21.87700
C  -9.33200 19.82900 23.29800
N  -4.39800 24.77200 23.48300
C  -4.93500 23.91400 22.58000
C  -4.21900 24.03300 21.25100
C  -3.25500 25.21200 21.40900
C  -3.58800 25.67800 22.81600
C  -3.61700 22.77900 20.61100
C  -3.38400 26.32700 20.29900
C  -2.14800 27.03200 19.94300
N  -3.82700 26.56700 25.70100
C  -3.04600 27.23400 24.81000
C  -2.30000 28.27600 25.46700
C  -2.67100 28.15700 26.78800
C  -3.54000 27.06100 26.91100
C  -1.27800 29.20200 24.67900
C  -2.35000 28.57200 28.13700
O  -1.53800 29.38900 28.59500
C  -3.19100 27.68300 29.12400
C  -2.23400 27.03500 30.08000
O  -1.44000 26.12800 29.84700
O  -2.36700 27.78700 31.24500
C  -1.62500 27.32500 32.30600
H  -7.31400 22.04600 28.39400
H  -6.08900 22.34200 21.94500
H  -2.20200 27.16500 22.85900
H  -4.40100 25.19300 30.67600
H  -6.95700 23.88500 30.03800
H  -5.03200 21.82800 29.57300
H  -5.79900 22.32100 31.14400
H  -4.24700 22.95200 30.79300
H  -7.10900 26.20900 30.10700
H  -5.90500 27.34400 30.14100
H  -7.35900 26.24100 32.36700
H  -5.92700 27.36000 32.40500
H  -9.31200 19.85300 25.71900
H  -9.67400 21.25100 26.76900
H  -8.45900 20.13300 27.29300
H  -10.20200 20.34600 23.70400
H  -8.89200 19.02900 23.89400
H  -9.51900 19.30000 22.36300
H  -4.99200 24.38800 20.57100
H  -2.26100 24.78800 21.54800
H  -2.60800 22.94900 20.23400
H  -4.26100 22.33500 19.85200
H  -3.64100 21.99900 21.37200
H  -4.09300 27.05000 20.70300
H  -3.78200 25.81900 19.42000
H  -2.17900 27.11100 18.85600
H  -1.25800 26.49400 20.26900
H  -2.07200 28.07900 20.23700
H  -1.81000 29.71000 23.87400
H  -0.50500 28.60700 24.19400
H  -1.00300 30.06300 25.28800
H  -3.78900 28.39200 29.69700
H  -1.11800 28.18300 32.74800
H  -0.80500 26.60900 32.24400
H  -2.30100 26.93400 33.06600

