158

Mg 39.95400 8.20500 29.25200
C  41.74800 9.85300 31.86300
C  37.48400 7.35300 31.52600
C  38.38200 6.80700 26.71300
C  42.75300 8.84400 27.17000
N  39.78600 8.52900 31.51800
C  40.59000 9.23800 32.33400
C  39.92700 9.34300 33.73200
C  38.67300 8.36000 33.63900
C  38.59500 8.13100 32.07500
C  38.89900 7.08200 34.49200
C  39.69300 10.76800 34.30800
C  38.68400 10.83600 35.48300
H  39.07200 11.64600 36.73600
N  38.15600 7.22800 29.16400
C  37.30300 6.97100 30.18400
C  36.17300 6.29900 29.56700
C  36.37400 6.16300 28.16800
C  37.66600 6.77900 27.93900
C  34.88200 6.06600 30.28600
C  35.53700 5.43900 27.16600
O  35.89200 5.33200 25.99000
C  34.38300 4.57600 27.62900
N  40.50400 7.82200 27.23300
C  39.60800 7.27000 26.38200
C  40.12700 7.33200 24.87200
C  41.60300 7.96600 25.15400
C  41.69600 8.17700 26.63100
C  40.31500 5.94100 24.28600
C  41.66800 9.34900 24.32900
C  40.55300 10.39600 24.69500
N  41.85000 9.03400 29.49100
C  42.78200 9.25600 28.49500
C  43.89200 10.00200 29.11100
C  43.48100 10.35600 30.39800
C  42.22900 9.71000 30.58000
C  45.19800 10.28100 28.41600
C  43.84900 11.11300 31.58600
O  44.86300 11.72500 31.85000
C  42.70500 10.82400 32.62900
C  43.44200 10.23300 33.79700
O  44.19600 9.30000 33.78700
O  43.26200 11.19700 34.77300
C  44.06600 10.93800 36.01300
H  36.70700 7.12000 32.25800
H  37.93300 6.47800 25.77300
H  43.49900 9.16200 26.43900
H  40.77200 8.91600 34.27200
H  37.76000 8.87500 33.93600
H  39.68300 7.28500 35.22200
H  39.26500 6.25300 33.88600
H  37.92700 6.95500 34.96700
H  39.28100 11.39700 33.51900
H  40.63700 11.14300 34.70500
H  38.44700 9.81900 35.79400
H  37.71000 11.15400 35.10900
H  34.72300 6.57400 31.23700
H  34.76300 5.00200 30.48900
H  34.05000 6.36500 29.64900
H  34.77700 4.01700 28.47900
H  34.16300 3.95500 26.76100
H  33.52900 5.18800 27.91800
H  39.55200 7.89000 24.13300
H  42.43200 7.36800 24.77700
H  39.92000 5.21500 24.99600
H  41.39000 5.77900 24.20500
H  39.74400 5.80400 23.36700
H  41.78500 9.08600 23.27800
H  42.60500 9.78900 24.66900
H  39.85200 10.04900 25.45500
H  39.95900 10.63000 23.81200
H  41.13200 11.27700 24.97300
H  46.03200 10.14100 29.10400
H  45.10900 11.25900 27.94400
H  45.25700 9.51600 27.64200
H  42.13700 11.73800 32.80000
H  43.59000 11.36100 36.89700
H  45.08500 11.32400 35.96500
H  44.11100 9.87000 36.22200
Mg 53.71300 24.50200 43.92700
C  50.83900 26.34700 43.23300
C  52.19000 21.73300 42.54800
C  56.67000 22.99100 43.59200
C  55.27900 27.54200 44.88800
N  51.76000 24.15500 42.95900
C  50.76200 25.03100 42.73200
C  49.59200 24.42200 41.90800
C  49.85700 22.92700 42.10000
C  51.34300 22.89300 42.51200
C  48.85000 22.12100 43.04700
C  49.54600 24.90500 40.44300
C  48.08100 24.99100 39.96700
H  47.43500 23.67900 39.37300
N  54.33700 22.55500 43.33400
C  53.49900 21.55200 42.89900
C  54.24300 20.33800 42.64800
C  55.57100 20.70000 42.86100
C  55.57900 22.12600 43.30100
C  53.62000 19.04300 42.19100
C  56.79300 19.78600 42.64900
O  56.62900 18.61100 42.34600
C  58.23500 20.17700 42.86500
N  55.60700 25.14500 44.23100
C  56.68800 24.32800 44.01800
C  58.00100 25.12700 44.25000
C  57.55600 26.60000 44.53500
C  56.07200 26.39200 44.58900
C  59.04300 24.47000 45.20200
C  58.16200 27.68800 43.63800
C  58.26900 29.10200 44.24400
N  53.15000 26.56800 44.18400
C  53.84200 27.56500 44.70500
C  52.95400 28.68300 44.94900
C  51.73600 28.30000 44.30200
C  51.96400 26.97600 43.87500
C  53.33100 30.07200 45.62800
C  50.36300 28.63700 43.97200
O  49.66200 29.58700 44.20000
C  49.73600 27.38800 43.21900
C  49.36200 27.93600 41.87700
O  50.05800 28.30500 40.98400
O  47.99700 27.93600 41.83700
C  47.46000 28.22200 40.57600
H  51.75300 20.83000 42.11600
H  57.61700 22.45300 43.66100
H  55.63800 28.51500 45.22700
H  48.65700 24.60800 42.43700
H  49.86000 22.42100 41.13400
H  48.74300 21.08900 42.71100
H  47.87600 22.60800 42.99300
H  49.06100 21.99700 44.10900
H  50.03000 24.18400 39.78400
H  50.14000 25.81600 40.37300
H  48.01000 25.71100 39.15200
H  47.43000 25.30700 40.78200
H  53.06600 19.03200 41.25200
H  52.98800 18.76000 43.03300
H  54.28900 18.18300 42.14300
H  58.41800 21.05600 42.24700
H  58.77300 19.30900 42.48300
H  58.46400 20.26100 43.92700
H  58.58000 25.08700 43.32700
H  57.80200 26.75800 45.58500
H  58.57500 23.55100 45.55500
H  59.29600 25.05300 46.08700
H  59.94400 24.16000 44.67200
H  57.51600 27.86600 42.77800
H  59.13100 27.39800 43.23200
H  59.32200 29.10100 44.52800
H  57.67700 29.27500 45.14300
H  58.07700 29.80600 43.43500
H  54.29800 29.95400 46.11700
H  52.61200 30.13500 46.44400
H  53.21300 31.01200 45.08900
H  48.92000 26.91600 43.76500
H  47.20300 29.28100 40.55000
H  46.63800 27.51700 40.45100
H  47.98900 27.96800 39.65700

