158

Mg 24.20600 -6.07900 44.78400
C  26.50200 -3.68500 43.59200
C  21.69600 -4.54500 43.27600
C  22.30800 -8.83900 45.40000
C  27.04200 -7.61700 46.35000
N  24.17900 -4.36000 43.44500
C  25.19100 -3.48700 43.11500
C  24.69300 -2.39700 42.12400
C  23.13000 -2.62500 42.35100
C  22.94500 -3.92800 43.08400
C  22.42300 -1.50300 43.15300
C  25.26600 -2.64100 40.68200
C  25.44800 -1.37000 39.77400
H  24.73900 -1.35200 38.36600
N  22.26500 -6.58000 44.34200
C  21.38800 -5.80000 43.76700
C  20.07900 -6.39500 43.69400
C  20.29500 -7.68000 44.29500
C  21.67700 -7.74400 44.71000
C  18.86100 -5.70200 43.09400
C  19.16000 -8.81000 44.39400
O  18.04500 -8.69200 43.84900
C  19.41600 -10.10100 45.20400
N  24.62400 -7.92300 45.62200
C  23.62200 -8.86600 45.81200
C  24.20600 -10.14200 46.38100
C  25.55600 -9.65100 47.02700
C  25.79900 -8.32200 46.24200
C  23.32800 -10.88900 47.44800
C  26.75600 -10.65200 46.97900
C  27.35600 -10.91000 48.35600
N  26.39800 -5.69100 45.10700
C  27.36900 -6.35100 45.74900
C  28.59800 -5.72200 45.63400
C  28.29700 -4.59900 44.78100
C  26.92500 -4.59900 44.51900
C  29.98700 -6.22300 46.05400
C  28.90100 -3.56300 44.02700
O  30.05300 -3.17200 44.02700
C  27.79800 -2.86200 43.28000
C  27.67600 -1.43700 43.73200
O  27.49600 -1.06200 44.86400
O  27.78300 -0.61100 42.65200
C  27.77900 0.80200 43.00100
H  20.85600 -4.01800 42.81800
H  21.76800 -9.76700 45.60100
H  27.80000 -8.06000 47.00000
H  25.14800 -1.48600 42.51200
H  22.63000 -2.63100 41.38300
H  23.07900 -0.63400 43.21100
H  22.20800 -1.85200 44.16300
H  21.48100 -1.14200 42.74100
H  24.48500 -3.20800 40.17600
H  26.17800 -3.23900 40.67900
H  26.52200 -1.30100 39.59700
H  25.22200 -0.43300 40.28200
H  19.06000 -5.20700 42.14300
H  18.53400 -4.99900 43.86000
H  18.03400 -6.37300 42.86500
H  18.54800 -10.74800 45.33100
H  19.76400 -9.67400 46.14400
H  20.23600 -10.71000 44.82400
H  24.52300 -10.81800 45.58600
H  25.50300 -9.22900 48.03100
H  22.55000 -10.23200 47.83500
H  23.90600 -11.25700 48.29600
H  22.85600 -11.72500 46.93300
H  27.55100 -10.35400 46.29500
H  26.34100 -11.61300 46.67400
H  27.53400 -11.98400 48.40900
H  26.60700 -10.68900 49.11700
H  28.25700 -10.33100 48.55500
H  30.44300 -6.62500 45.14900
H  29.89300 -7.00200 46.81000
H  30.68400 -5.46700 46.41700
H  28.05500 -2.81400 42.22200
H  28.80900 1.08900 43.21500
H  27.09700 1.08500 43.80200
H  27.49100 1.32200 42.08700
Mg 49.29000 35.56200 28.86200
C  46.78200 34.12500 31.04500
C  49.71500 37.96600 31.09000
C  51.30700 36.86100 26.56800
C  48.07700 33.27200 26.34700
N  48.55200 35.84700 30.97700
C  47.56200 35.12000 31.64700
C  47.20700 35.89900 32.91600
C  47.89100 37.26900 32.75600
C  48.79400 37.01200 31.55100
C  46.92300 38.41800 32.55700
C  47.69700 35.14000 34.16900
C  49.27900 34.96700 34.27100
H  49.90300 34.79300 35.70900
N  50.39300 37.17000 28.86900
C  50.50400 38.05000 29.88400
C  51.57800 38.98700 29.58400
C  52.09000 38.65800 28.24500
C  51.26300 37.55600 27.83800
C  51.94200 40.02900 30.54500
C  53.12300 39.34500 27.41200
O  53.49300 38.91000 26.35400
C  53.75100 40.68100 27.74100
N  49.51700 35.22700 26.70000
C  50.42800 35.89600 26.00500
C  50.61800 35.25800 24.59600
C  49.70300 34.02000 24.61700
C  49.03400 34.18400 25.96000
C  50.27400 36.26000 23.45700
C  50.49300 32.72200 24.35600
C  50.07000 32.09300 23.05000
N  47.81200 33.93900 28.70400
C  47.46700 33.13400 27.64800
C  46.50800 32.09000 28.14100
C  46.13800 32.50800 29.43500
C  47.01200 33.62000 29.74800
C  45.91500 30.99600 27.38500
C  45.19500 32.27700 30.51100
O  44.30800 31.48400 30.75200
C  45.61700 33.42400 31.61200
C  45.89500 32.56900 32.84500
O  46.62400 31.55000 32.87200
O  45.01000 33.02500 33.87900
C  45.08900 32.25800 35.11200
H  49.82600 38.85500 31.71500
H  52.05200 37.21800 25.85400
H  47.76500 32.42000 25.73900
H  46.13000 36.06500 32.87500
H  48.56400 37.60200 33.54600
H  45.92800 38.11400 32.88300
H  46.85400 38.89800 31.58100
H  47.20500 39.23900 33.21600
H  47.33300 34.11300 34.18900
H  47.20000 35.72900 34.94100
H  49.90200 35.55600 33.59800
H  49.34200 33.98700 33.79700
H  51.05400 40.66100 30.50300
H  52.72600 40.68300 30.16400
H  52.25400 39.70100 31.53600
H  52.98200 41.38300 28.06500
H  54.03200 41.02800 26.74700
H  54.55600 40.58100 28.46900
H  51.66300 34.97200 24.47500
H  48.82700 34.06600 23.97000
H  49.71200 37.12600 23.80600
H  49.69100 35.73100 22.70300
H  51.20800 36.64700 23.05100
H  50.23700 31.93600 25.06600
H  51.57600 32.80800 24.44400
H  49.53900 32.77900 22.38900
H  49.53400 31.15900 23.21800
H  50.93200 31.75600 22.47600
H  46.60500 30.65100 26.61500
H  45.04300 31.40000 26.86900
H  45.63000 30.12900 27.98000
H  44.75700 34.06600 31.80400
H  45.97300 32.53500 35.68600
H  45.05200 31.19000 34.89200
H  44.23700 32.58100 35.70900

