158

Mg 35.36300 3.01500 29.92100
C  33.13500 4.24500 32.43500
C  37.90900 3.44300 32.11100
C  37.44100 2.01400 27.47600
C  32.75400 2.93200 27.69400
N  35.47100 3.90500 32.03700
C  34.39000 3.93900 32.88000
C  34.86800 3.90500 34.38200
C  36.44700 3.69200 34.21800
C  36.65500 3.72100 32.68500
C  37.30700 4.73600 34.86000
C  34.10200 2.84600 35.19100
C  33.42300 3.34900 36.48100
H  34.13600 4.44000 37.24200
N  37.40500 2.65200 29.84300
C  38.30400 2.96000 30.80400
C  39.67100 2.73000 30.42900
C  39.53600 2.37800 29.03400
C  38.09500 2.35800 28.70700
C  40.81500 2.88900 31.43400
C  40.57200 1.82600 28.12000
O  40.35000 1.50600 26.99600
C  42.02000 1.72300 28.61100
N  35.13100 2.54900 27.80700
C  36.08300 2.10200 27.03200
C  35.57700 1.88800 25.63800
C  34.00400 1.72100 25.85800
C  33.93700 2.41800 27.23000
C  35.99700 3.03700 24.75000
C  33.59900 0.21000 26.00200
C  32.43100 -0.28000 24.97400
N  33.46100 3.58600 29.95100
C  32.50300 3.48500 28.95500
C  31.28400 4.06400 29.37600
C  31.53500 4.39300 30.73500
C  32.85200 4.02900 31.02000
C  29.99200 4.19100 28.60500
C  30.78200 4.78500 31.91000
O  29.60300 5.12100 32.17300
C  31.82600 4.63800 33.07100
C  31.97400 5.81700 33.87300
O  32.69400 6.75700 33.49800
O  31.21200 5.80300 34.99900
C  31.18500 7.09500 35.70600
H  38.65500 3.30100 32.89700
H  38.06600 1.52700 26.72400
H  31.91400 2.82500 27.00500
H  34.65600 4.87600 34.82900
H  36.60700 2.64700 34.48500
H  38.02900 4.14800 35.42600
H  36.65600 5.33800 35.49300
H  37.79500 5.36500 34.11600
H  34.82100 2.07200 35.46000
H  33.42800 2.34100 34.49900
H  33.34300 2.47800 37.13200
H  32.41000 3.70700 36.30100
H  40.64600 3.61600 32.22700
H  41.70400 3.27500 30.93600
H  40.93500 1.87100 31.80400
H  42.07700 1.01000 29.43400
H  42.41500 2.70300 28.87800
H  42.49200 1.39300 27.68600
H  35.86600 0.93800 25.18800
H  33.67700 2.20200 24.93600
H  35.12200 3.51800 24.31400
H  36.60500 2.77800 23.88300
H  36.52300 3.82900 25.28300
H  33.11600 0.07100 26.96900
H  34.43100 -0.49300 26.03600
H  32.61800 -1.31800 24.69700
H  32.44100 0.18700 23.98900
H  31.43100 -0.21500 25.40300
H  29.79700 3.20900 28.17400
H  30.09700 4.90700 27.79000
H  29.16000 4.54200 29.21500
H  31.40800 3.88700 33.74100
H  30.78500 7.88600 35.07100
H  32.23100 7.28700 35.94100
H  30.70100 7.03700 36.68100
Mg -12.52300 16.15000 41.30000
C  -9.57400 14.35400 40.75500
C  -10.75400 18.97100 39.85700
C  -15.34600 17.78300 41.16800
C  -14.18300 13.29700 42.09600
N  -10.32600 16.61500 40.51900
C  -9.37700 15.67800 40.33100
C  -8.10400 16.24800 39.69700
C  -8.42800 17.82300 39.65600
C  -9.95800 17.81000 40.03300
C  -7.43500 18.68500 40.59300
C  -7.70000 15.59700 38.30700
C  -6.23600 15.11800 38.24300
H  -5.41500 15.78600 37.21500
N  -12.93100 18.15600 40.66700
C  -12.14100 19.13100 40.19800
C  -12.89200 20.29600 39.99400
C  -14.29600 19.93200 40.23100
C  -14.23800 18.59600 40.73400
C  -12.32800 21.64500 39.51100
C  -15.47100 20.85000 39.96500
O  -15.31300 22.08900 39.82900
C  -16.87800 20.37400 39.83500
N  -14.63600 15.51000 41.24100
C  -15.57900 16.44800 41.51300
C  -16.92400 15.90000 41.95700
C  -16.42800 14.44800 42.39500
C  -14.95800 14.43200 41.92800
C  -17.75000 16.82700 42.97000
C  -17.35200 13.42600 41.75200
C  -17.63900 12.24800 42.65300
N  -11.99300 14.17000 41.58500
C  -12.77300 13.08400 41.88700
C  -11.96700 11.89900 41.83800
C  -10.70300 12.33400 41.48100
C  -10.75800 13.72800 41.26800
C  -12.42500 10.56100 42.07700
C  -9.33700 11.94300 41.16700
O  -8.81000 10.84900 41.28600
C  -8.53500 13.18000 40.74200
C  -7.43700 13.33600 41.78600
O  -7.61100 13.80400 42.92800
O  -6.18900 13.14200 41.19600
C  -4.95000 13.35000 41.95000
H  -10.19700 19.83600 39.48900
H  -16.19800 18.46300 41.22000
H  -14.65200 12.36700 42.42200
H  -7.35800 15.88300 40.40300
H  -8.30800 18.28300 38.67500
H  -6.68000 18.01200 40.99700
H  -7.96500 19.26500 41.34900
H  -6.89500 19.29100 39.86500
H  -7.96400 16.33300 37.54800
H  -8.31400 14.73200 38.05400
H  -6.26700 14.02900 38.24400
H  -5.68100 15.27900 39.16700
H  -12.49800 21.80800 38.44700
H  -11.25100 21.67700 39.67900
H  -12.90100 22.38700 40.06700
H  -16.80400 19.40900 39.33300
H  -17.36500 21.02600 39.10900
H  -17.39200 20.34100 40.79500
H  -17.47000 15.72600 41.03000
H  -16.35400 14.33600 43.47600
H  -17.72000 16.33000 43.93900
H  -18.72000 16.95300 42.48900
H  -17.25000 17.79500 43.00000
H  -16.93100 13.07700 40.80900
H  -18.35800 13.73900 41.47500
H  -18.61600 11.81800 42.43400
H  -17.69900 12.61500 43.67700
H  -16.89200 11.46800 42.50400
H  -11.58500 9.87300 41.98000
H  -13.23600 10.24900 41.42000
H  -12.80100 10.51600 43.09900
H  -8.07400 12.94500 39.78300
H  -4.04800 13.03000 41.42900
H  -4.97600 12.68800 42.81500
H  -4.86700 14.33400 42.41200

