158

Mg 41.97200 41.06500 27.78600
C  41.50200 43.61400 30.00200
C  43.40800 39.13300 30.21500
C  42.31600 38.66100 25.42200
C  41.33200 43.37400 25.14800
N  42.29000 41.27400 29.85500
C  41.88400 42.39100 30.60200
C  41.97900 42.08400 32.09400
C  42.77700 40.70400 32.17100
C  42.81600 40.31200 30.63700
C  44.16800 40.78900 32.75200
C  40.59800 41.90700 32.79300
C  40.27700 42.79100 33.99000
H  39.68500 42.16700 35.31200
N  42.64400 39.11900 27.82900
C  43.25100 38.52600 28.89200
C  43.57000 37.16900 28.55000
C  43.16200 36.97900 27.18800
C  42.67900 38.26600 26.72600
C  44.33800 36.14900 29.38600
C  43.17900 35.66200 26.29800
O  42.75500 35.70500 25.13300
C  43.76900 34.36400 26.76800
N  41.80700 41.00000 25.59400
C  41.92300 39.90100 24.88300
C  41.52600 40.01800 23.38100
C  41.17000 41.56400 23.39400
C  41.49900 42.07400 24.78800
C  42.75800 39.62700 22.50800
C  39.63600 41.92200 22.89100
C  38.58300 41.76800 24.01100
N  41.49900 43.06900 27.55800
C  41.28400 43.86300 26.46400
C  40.96600 45.23800 26.85000
C  41.02500 45.10700 28.28400
C  41.37600 43.81500 28.63300
C  40.66800 46.36600 25.96900
C  40.84000 45.86700 29.46200
O  40.57600 47.05000 29.60900
C  40.87500 44.81000 30.62500
C  41.86200 45.35600 31.59200
O  43.04300 45.21500 31.36900
O  41.32400 45.97300 32.67200
C  42.29800 46.49800 33.65900
H  43.78800 38.42400 30.95300
H  42.47800 37.84600 24.71400
H  41.06200 44.08700 24.36700
H  42.48700 42.87400 32.64700
H  42.28400 39.95900 32.79500
H  44.57600 41.71400 32.34500
H  44.92900 40.06700 32.45600
H  44.07400 40.78600 33.83800
H  40.42000 40.89300 33.15000
H  39.85200 42.12800 32.03000
H  39.62600 43.61700 33.70700
H  41.16700 43.35200 34.27500
H  44.71700 36.60500 30.30000
H  45.13100 35.79300 28.72900
H  43.68300 35.31500 29.64200
H  43.31200 34.02200 27.69700
H  44.75300 34.38800 27.23800
H  43.59100 33.53400 26.08400
H  40.60400 39.46600 23.19900
H  41.88700 42.05200 22.73400
H  43.60600 39.36000 23.13800
H  43.10800 40.52100 21.99000
H  42.41700 38.80400 21.88000
H  39.30200 41.26500 22.08700
H  39.66200 42.94600 22.51700
H  39.00700 41.94300 25.00000
H  38.39900 40.69500 24.06600
H  37.64700 42.30500 23.85500
H  39.65500 46.73100 26.13800
H  40.74400 46.08100 24.91900
H  41.41300 47.13200 26.18200
H  39.83300 44.80000 30.94400
H  41.68100 47.32100 34.02100
H  43.24000 46.80700 33.20700
H  42.47700 45.72700 34.40900
Mg 6.19900 53.55200 39.35000
C  5.91600 50.06800 38.98800
C  9.55700 53.28100 38.57300
C  6.38100 56.98100 39.32100
C  2.76900 53.64900 39.85000
N  7.58000 51.81900 38.66100
C  7.21600 50.52500 38.58100
C  8.46000 49.73200 38.23900
C  9.62800 50.73700 38.41900
C  8.89400 52.03100 38.57600
C  10.47000 50.50500 39.71200
C  8.47500 49.07900 36.79800
C  8.39000 50.09100 35.65100
H  7.01800 50.16400 34.95700
N  7.71400 54.92500 38.98000
C  9.02500 54.56600 38.71700
C  9.84400 55.77400 38.54000
C  8.96400 56.86000 38.79400
C  7.62100 56.30200 39.07600
C  11.32800 55.78500 38.04900
C  9.32500 58.27000 38.81100
O  10.52000 58.60100 38.68300
C  8.46500 59.46600 39.05600
N  4.74200 55.14300 39.47400
C  5.07300 56.45400 39.54300
C  3.79500 57.33200 39.62300
C  2.65300 56.26000 39.57700
C  3.42600 54.91800 39.73200
C  3.83900 58.28200 40.83600
C  1.78000 56.20000 38.25700
C  0.22300 55.84600 38.46400
N  4.62300 52.16200 39.50200
C  3.31800 52.38900 39.82700
C  2.66300 51.12400 40.03400
C  3.63600 50.16200 39.74700
C  4.75800 50.86600 39.44200
C  1.15900 50.90500 40.37800
C  3.91800 48.75800 39.57400
O  3.13900 47.81400 39.78300
C  5.43200 48.60000 39.13500
C  5.41400 47.87100 37.82700
O  5.11400 48.42700 36.74200
O  5.78300 46.51800 37.86400
C  5.47500 45.73400 36.66100
H  10.61200 53.13900 38.32900
H  6.34800 58.07000 39.25600
H  1.69100 53.65900 40.02200
H  8.52800 48.88000 38.91600
H  10.36000 50.86900 37.62300
H  11.47600 50.17800 39.44700
H  9.92000 49.77200 40.30100
H  10.53600 51.46800 40.21800
H  7.70900 48.30400 36.78600
H  9.45100 48.59600 36.76600
H  9.07700 49.74300 34.88000
H  8.64400 51.11000 35.94400
H  11.35200 56.45100 37.18600
H  11.65700 54.78300 37.77400
H  12.06400 56.08100 38.79600
H  9.11700 60.33600 38.98000
H  8.19700 59.54900 40.10900
H  7.55700 59.46800 38.45200
H  3.75600 57.91600 38.70400
H  1.92400 56.33900 40.38400
H  3.01300 58.26400 41.54700
H  3.76000 59.29300 40.43600
H  4.78300 58.26900 41.38100
H  2.24800 55.49200 37.57300
H  1.71100 57.16600 37.75500
H  0.13100 54.96600 37.82600
H  -0.50700 56.47700 37.95700
H  -0.15900 55.65300 39.46700
H  0.64200 50.85000 39.42000
H  0.76700 51.64400 41.07700
H  0.98700 49.90100 40.76800
H  5.97200 47.92900 39.80300
H  6.08100 46.07300 35.82100
H  4.43500 45.94300 36.40900
H  5.60600 44.68900 36.93900

