158

Mg 50.68200 47.28400 43.70300
C  47.46900 47.57400 42.19100
C  50.90100 44.10400 42.25100
C  53.79100 47.22900 44.51800
C  50.67500 50.80700 44.10600
N  49.42000 46.09900 42.18300
C  48.06000 46.32200 41.97500
C  47.25300 45.17100 41.28100
C  48.41600 44.11200 41.38700
C  49.64100 44.78200 42.02600
C  47.94700 42.75100 42.04100
C  46.81700 45.61900 39.83700
C  45.38200 45.25500 39.42000
H  45.25200 44.13400 38.34400
N  52.23000 45.89200 43.40000
C  52.09400 44.60500 42.90800
C  53.42100 43.89400 43.05400
C  54.27800 44.86500 43.70600
C  53.48300 46.07300 43.88900
C  53.71700 42.53100 42.49700
C  55.81100 44.65700 44.00500
O  56.35900 43.61100 43.68700
C  56.65700 45.80100 44.46900
N  51.97700 48.86600 44.13100
C  53.16000 48.45800 44.66500
C  53.88700 49.62000 45.47900
C  53.01600 50.85800 45.12300
C  51.82300 50.14500 44.39700
C  53.95000 49.39100 47.01800
C  53.61000 51.93400 44.10200
C  53.09900 53.34800 44.34000
N  49.30300 48.86000 43.49200
C  49.46600 50.23400 43.61100
C  48.23000 50.86700 43.28000
C  47.44900 49.88100 42.71000
C  48.15700 48.71200 42.80500
C  48.00000 52.35900 43.38500
C  46.14900 49.65000 42.18700
O  45.20600 50.42400 42.05900
C  46.09400 48.14300 41.82100
C  44.99200 47.53200 42.60400
O  44.91900 47.42500 43.79100
O  44.00400 47.15500 41.67000
C  42.69400 46.62000 42.21600
H  51.08800 43.06600 41.97000
H  54.68800 47.24900 45.14000
H  50.67600 51.83700 44.46800
H  46.44200 44.96500 41.98000
H  48.69000 43.83800 40.36800
H  46.92800 42.41700 41.84700
H  48.14400 42.78700 43.11200
H  48.56900 41.87200 41.87200
H  47.31500 44.97300 39.11400
H  47.03300 46.64800 39.54900
H  44.87600 46.14800 39.05200
H  44.89900 44.97000 40.35500
H  54.38500 41.91300 43.09700
H  54.14500 42.66000 41.50300
H  52.82900 41.90900 42.37900
H  57.68900 45.54400 44.70800
H  56.33700 45.95100 45.50000
H  56.52200 46.65500 43.80500
H  54.90000 49.76900 45.10700
H  52.70900 51.39800 46.01900
H  54.87500 48.85200 47.22100
H  53.00800 48.90900 47.28000
H  54.05400 50.34300 47.53800
H  53.38800 51.81500 43.04200
H  54.69500 51.88500 44.19400
H  52.37700 53.46900 45.14700
H  52.74400 53.78200 43.40500
H  53.80600 54.08500 44.72100
H  46.91800 52.49300 43.41700
H  48.49500 53.04200 42.69400
H  48.35800 52.75300 44.33600
H  45.93400 48.10500 40.74400
H  42.34200 45.88700 41.49000
H  42.02000 47.46500 42.36400
H  42.74800 46.14000 43.19300
Mg 36.50100 49.77900 25.69400
C  36.84300 47.66700 28.33800
C  35.48400 52.36100 27.60200
C  36.11700 51.70200 22.79300
C  37.39500 47.07600 23.51500
N  36.10000 49.96400 27.76200
C  36.52000 49.05200 28.67400
C  36.37700 49.67800 30.07800
C  35.71200 51.08900 29.80000
C  35.76000 51.15600 28.27900
C  34.42000 51.28000 30.60800
C  37.74700 49.67700 30.83000
C  37.76700 49.71900 32.32600
H  36.53100 49.85900 33.27200
N  35.91200 51.76400 25.28700
C  35.60800 52.70200 26.24100
C  35.53000 53.95600 25.63800
C  35.74800 53.80200 24.25800
C  35.96300 52.33400 24.03600
C  35.30900 55.17900 26.51300
C  35.78900 54.92200 23.16000
O  36.06100 54.73800 21.96100
C  35.38700 56.22900 23.47400
N  36.70800 49.43300 23.48300
C  36.47600 50.36000 22.48400
C  36.58700 49.76800 21.07100
C  37.08900 48.27300 21.30700
C  37.00500 48.23800 22.81600
C  35.31300 49.81000 20.21900
C  38.54100 47.98400 20.78600
C  38.81700 46.60100 20.27900
N  37.08300 47.76800 25.84700
C  37.44700 46.76900 24.93800
C  37.66800 45.55400 25.55700
C  37.45300 45.79900 26.95700
C  37.08800 47.17400 27.04300
C  37.86300 44.26300 24.81400
C  37.33400 45.24500 28.29300
O  37.45600 44.08000 28.69300
C  37.09000 46.48400 29.30300
C  35.83500 46.09200 29.98400
O  34.70000 46.10100 29.51200
O  36.07500 45.94900 31.31500
C  34.91500 45.80100 32.22100
H  35.14700 53.17600 28.24700
H  36.09600 52.29200 21.87500
H  37.76100 46.29300 22.84800
H  35.77400 48.96600 30.64100
H  36.36100 51.88600 30.16300
H  34.39000 50.69800 31.52900
H  33.57100 51.29100 29.92500
H  34.46600 52.30300 30.98300
H  38.35200 50.49300 30.43500
H  38.36300 48.81800 30.56400
H  38.53900 50.44600 32.57900
H  38.25100 48.78300 32.60600
H  36.02900 55.96700 26.29400
H  35.55000 55.06300 27.57000
H  34.32300 55.59100 26.29600
H  35.95700 56.50900 24.36000
H  34.32500 56.12900 23.69600
H  35.56800 56.90500 22.63800
H  37.39400 50.24000 20.51100
H  36.43200 47.52000 20.87000
H  34.98800 48.93200 19.66200
H  35.31100 50.73100 19.63600
H  34.46200 50.01800 20.86700
H  39.13000 47.97600 21.70300
H  38.90400 48.68300 20.03300
H  38.96000 46.66500 19.20000
H  38.03900 45.86800 20.49300
H  39.71300 46.33200 20.83900
H  38.17300 44.35100 23.77300
H  36.96400 43.65200 24.73100
H  38.50700 43.66000 25.45400
H  37.91000 46.69000 29.99100
H  35.21900 45.56600 33.24100
H  34.29200 44.97800 31.87100
H  34.43200 46.77800 32.23400

