158

Mg -2.35500 17.26100 27.26300
C  -2.68900 14.98400 29.87600
C  -2.80500 19.79500 29.46000
C  -2.30700 19.37600 24.55000
C  -2.14700 14.53200 25.04300
N  -2.67100 17.32200 29.43800
C  -2.79900 16.30800 30.31200
C  -2.80200 16.82700 31.76200
C  -3.23800 18.30500 31.52500
C  -2.85600 18.49800 30.07400
C  -4.77900 18.54300 31.73000
C  -1.43500 16.69800 32.55000
C  -1.55400 16.03100 33.96400
H  -0.47400 16.09600 34.97300
N  -2.53000 19.31800 27.00300
C  -2.64600 20.20000 28.01500
C  -2.56800 21.52800 27.54200
C  -2.35300 21.42200 26.14000
C  -2.36200 19.98100 25.83800
C  -2.63000 22.78900 28.43800
C  -1.99600 22.50500 25.11200
O  -1.64200 22.33100 23.97500
C  -2.03300 23.91300 25.49900
N  -2.58000 17.01700 25.11400
C  -2.45700 18.05300 24.17400
C  -2.28700 17.47400 22.77600
C  -2.05700 15.92200 22.95400
C  -2.30600 15.82600 24.47700
C  -3.51900 17.73900 21.86600
C  -0.66600 15.44600 22.37500
C  0.64800 15.54700 23.26100
N  -2.36700 15.17300 27.33400
C  -2.11000 14.20700 26.38800
C  -2.17300 12.90200 26.98600
C  -2.33000 13.17900 28.37300
C  -2.47500 14.55400 28.52700
C  -2.18900 11.69400 26.21500
C  -2.58700 12.59400 29.65800
O  -2.66600 11.39500 29.95200
C  -2.85300 13.74300 30.65600
C  -1.78200 13.44900 31.73200
O  -0.55800 13.63600 31.64600
O  -2.33300 12.78100 32.79000
C  -1.36000 12.28200 33.77200
H  -2.95500 20.61100 30.17000
H  -2.08900 20.05400 23.72200
H  -2.06500 13.70800 24.33200
H  -3.62000 16.34300 32.29500
H  -2.80500 18.99900 32.24500
H  -5.42200 17.66400 31.68900
H  -5.23300 19.28100 31.06900
H  -4.93300 18.82800 32.77100
H  -0.98900 17.68800 32.65000
H  -0.86400 15.94600 32.00600
H  -1.98200 15.02900 33.94200
H  -2.35200 16.65300 34.36900
H  -3.06500 22.52700 29.40200
H  -3.18800 23.63400 28.03600
H  -1.58100 23.06200 28.55400
H  -1.20300 24.27700 26.10500
H  -2.99800 24.12000 25.96100
H  -2.13800 24.56100 24.62900
H  -1.35300 17.91400 22.42700
H  -2.80100 15.39900 22.35300
H  -4.36600 17.33100 22.41900
H  -3.44200 17.18300 20.93100
H  -3.59700 18.81700 21.72700
H  -0.36200 16.02600 21.50400
H  -0.77500 14.40000 22.09100
H  1.10400 14.56000 23.32800
H  0.43500 15.91700 24.26400
H  1.43900 16.13700 22.79800
H  -1.67500 11.72300 25.25400
H  -3.23100 11.43500 26.02300
H  -1.83100 10.89000 26.85800
H  -3.78800 13.59400 31.19600
H  -1.87400 11.83900 34.62500
H  -0.78200 13.09000 34.21900
H  -0.69700 11.52400 33.35300
Mg 28.52300 58.17200 41.56600
C  25.99000 56.18000 40.14500
C  30.81700 56.40200 39.73800
C  30.75400 60.49200 42.36000
C  25.91300 60.44300 42.76500
N  28.41800 56.52100 40.17800
C  27.29700 55.86500 39.74000
C  27.58400 54.91000 38.63400
C  29.18400 54.78000 38.66800
C  29.53600 56.01500 39.52600
C  29.85000 53.54400 39.35500
C  27.06800 55.43200 37.21600
C  26.72300 54.23000 36.33100
H  27.26300 54.16700 34.86800
N  30.58900 58.36500 41.27400
C  31.30500 57.52700 40.46200
C  32.69900 58.07200 40.49300
C  32.64300 59.35500 41.07600
C  31.25200 59.44100 41.63400
C  33.75700 57.33600 39.84300
C  33.87500 60.31000 41.03400
O  34.91200 59.75900 40.68100
C  33.88000 61.71300 41.53200
N  28.28700 60.21600 42.35900
C  29.41400 60.94400 42.70800
C  29.04000 62.34700 43.23300
C  27.49000 62.25000 43.43200
C  27.18700 60.86900 42.81000
C  29.89700 62.92400 44.38600
C  26.77300 63.46100 42.73200
C  25.59300 64.04700 43.53600
N  26.45100 58.22200 41.63500
C  25.53700 59.17200 42.17600
C  24.19200 58.65500 42.10200
C  24.27900 57.55200 41.24400
C  25.65400 57.28700 40.96800
C  22.97800 59.36000 42.64100
C  23.50300 56.58600 40.46800
O  22.33100 56.36800 40.30300
C  24.67300 55.66900 39.72400
C  24.35600 54.17900 40.00100
O  24.47000 53.62300 41.08800
O  23.99900 53.52200 38.88900
C  23.40100 52.16600 38.99400
H  31.61200 55.93400 39.15300
H  31.41000 61.30600 42.67400
H  25.14600 61.11000 43.16400
H  27.22000 53.92500 38.92600
H  29.52800 54.77300 37.63400
H  30.31400 53.82800 40.30000
H  30.63000 53.14700 38.70500
H  29.10900 52.78900 39.61700
H  27.82700 56.08500 36.78500
H  26.25300 56.14400 37.34400
H  25.63400 54.18800 36.32800
H  27.02800 53.32900 36.86400
H  33.60500 57.43100 38.76800
H  33.62000 56.27200 40.03800
H  34.82900 57.45100 40.00000
H  33.07500 62.06100 40.88400
H  34.79800 62.21900 41.23400
H  33.73300 61.79200 42.61000
H  29.27600 63.04700 42.43100
H  27.27500 62.35100 44.49600
H  29.41700 62.89200 45.36400
H  30.21600 63.92300 44.08600
H  30.84600 62.40000 44.49700
H  26.45300 63.12300 41.74600
H  27.51200 64.19700 42.41800
H  25.68300 63.56800 44.51100
H  24.71900 63.68200 42.99800
H  25.64200 65.13500 43.49800
H  22.20400 59.00200 41.96300
H  23.05100 60.44400 42.56400
H  22.95600 59.08000 43.69500
H  24.36100 55.88400 38.70200
H  24.24000 51.47000 39.00900
H  22.72700 51.85900 38.19500
H  22.88600 52.13300 39.95400

