158

Mg 43.99600 3.20900 48.24500
C  41.58900 5.54100 47.22200
C  41.47700 0.75000 48.04100
C  46.31000 0.92000 48.34500
C  46.44900 5.82300 47.76500
N  41.86900 3.14800 47.47400
C  41.06200 4.21400 47.19300
C  39.59700 3.86500 46.93100
C  39.56500 2.42100 47.55500
C  41.14400 2.04200 47.59800
C  38.80200 2.37300 48.95000
C  39.14000 3.89100 45.41800
C  38.06400 4.93000 45.10200
H  38.51500 5.91500 43.98300
N  43.89900 1.06100 48.24100
C  42.80500 0.29900 48.20900
C  43.22800 -1.09500 48.50100
C  44.65600 -1.15700 48.50700
C  45.07600 0.31800 48.39900
C  42.21800 -2.21800 48.71700
C  45.54000 -2.39400 48.76200
O  45.09200 -3.51600 48.89600
C  47.09200 -2.22800 48.92500
N  46.11600 3.41900 48.08900
C  46.84400 2.23000 48.17900
C  48.37900 2.59000 48.37100
C  48.32100 4.15200 48.49600
C  46.88500 4.49900 47.97700
C  49.05400 1.91800 49.56400
C  49.47000 4.84400 47.68300
C  50.29700 5.98100 48.34500
N  44.06900 5.26600 47.62500
C  45.11300 6.22800 47.60000
C  44.51900 7.45300 47.23300
C  43.18500 7.29900 47.16600
C  42.90500 5.91300 47.39000
C  45.22100 8.80500 47.29000
C  41.92800 7.98800 47.08000
O  41.66800 9.19100 47.02200
C  40.78900 6.84700 46.99000
C  39.79600 7.06200 48.01400
O  39.91900 6.57100 49.12700
O  38.75500 7.81700 47.60400
C  37.73600 8.25000 48.57600
H  40.66400 0.02000 48.06400
H  47.12400 0.21300 48.51500
H  47.22600 6.58400 47.85600
H  39.01300 4.57400 47.51800
H  39.00600 1.71900 46.93600
H  38.32600 3.23800 49.41300
H  39.55200 2.01200 49.65400
H  38.05100 1.62300 48.70600
H  38.77300 2.91900 45.08600
H  39.96300 4.21500 44.78200
H  37.62500 5.46800 45.94100
H  37.19500 4.39300 44.72100
H  41.33300 -1.92300 49.28000
H  42.56200 -3.16800 49.12600
H  41.98500 -2.62600 47.73300
H  47.52700 -1.77000 48.03700
H  47.46200 -3.25100 49.00100
H  47.30500 -1.66800 49.83500
H  48.89500 2.24100 47.47700
H  48.34300 4.33100 49.57100
H  48.19200 1.71700 50.20000
H  49.69800 2.52400 50.20100
H  49.59200 1.01000 49.29300
H  49.02000 5.11100 46.72700
H  50.17100 4.02300 47.53000
H  51.32100 5.77700 48.03600
H  50.41800 6.03600 49.42700
H  49.97700 6.95300 47.97000
H  44.39400 9.43800 46.96900
H  46.08200 8.80900 46.62100
H  45.62500 8.98700 48.28600
H  40.44700 6.80300 45.95600
H  37.88800 7.81700 49.56400
H  36.72400 8.08300 48.20600
H  37.84900 9.33100 48.50800
Mg 25.97800 52.55200 26.21500
C  23.92000 53.19900 29.00200
C  28.52900 51.91200 28.26200
C  27.92500 52.33500 23.57800
C  23.41400 53.84800 24.23600
N  26.18200 52.58200 28.40700
C  25.17000 52.71300 29.41600
C  25.81500 52.38600 30.83100
C  27.29400 51.99500 30.43900
C  27.31900 52.11200 28.92300
C  28.27900 52.81200 31.19700
C  25.18400 51.25200 31.63300
C  24.47000 51.59400 32.93200
H  25.21400 52.12600 34.14200
N  27.92200 52.06700 25.96000
C  28.83100 51.83300 26.91600
C  30.14100 51.55500 26.34600
C  30.03600 51.75100 24.97100
C  28.56500 52.06900 24.78600
C  31.36000 51.11000 27.11900
C  31.11900 51.61800 23.88400
O  30.85900 51.95500 22.73500
C  32.53100 51.26600 24.33100
N  25.66200 52.89100 24.10700
C  26.61100 52.68400 23.22400
C  26.20400 53.14700 21.71800
C  24.68900 53.47700 21.95900
C  24.51000 53.41300 23.54700
C  27.12000 54.21700 21.05300
C  23.62700 52.59600 21.29300
C  23.65700 52.72000 19.70300
N  23.97000 53.28800 26.51300
C  23.10600 53.79300 25.59700
C  21.87300 54.13100 26.27200
C  22.12800 53.93500 27.60500
C  23.41900 53.43400 27.70600
C  20.54300 54.55400 25.57500
C  21.54200 54.02900 28.98500
O  20.36800 54.31600 29.35700
C  22.72700 53.57200 29.88500
C  23.09900 54.78900 30.78400
O  23.85100 55.66900 30.42700
O  22.44100 54.66800 31.94600
C  22.30000 55.98300 32.58300
H  29.28900 51.61900 28.98900
H  28.59400 52.37000 22.71600
H  22.65900 54.26800 23.56800
H  25.83200 53.28500 31.44700
H  27.40400 50.92700 30.62400
H  27.83900 53.22600 32.10500
H  28.54000 53.67200 30.57900
H  29.05500 52.10400 31.48900
H  25.95500 50.56000 31.97200
H  24.44500 50.73500 31.02000
H  23.82000 50.76000 33.19800
H  23.77200 52.38200 32.64900
H  31.27400 51.05300 28.20400
H  32.12000 51.88400 27.01600
H  31.81400 50.14800 26.88100
H  32.92700 52.18100 24.77100
H  33.04400 51.12400 23.38000
H  32.66000 50.39300 24.97100
H  26.27700 52.26400 21.08200
H  24.49500 54.46300 21.53600
H  27.75500 54.72300 21.78000
H  26.42900 54.99100 20.71600
H  27.68000 53.80200 20.21500
H  22.64100 52.84200 21.68500
H  23.91100 51.61800 21.68200
H  24.50100 53.37800 19.49500
H  22.75700 53.24900 19.38800
H  23.84300 51.76600 19.20900
H  19.89000 53.74200 25.25600
H  20.77200 55.14700 24.69000
H  20.03200 55.16100 26.32300
H  22.60100 52.71700 30.54900
H  22.29800 56.77600 31.83500
H  23.12400 56.20800 33.26100
H  21.34200 55.90800 33.09600

