158

Mg 55.47000 22.71100 44.27100
C  53.31100 25.44300 43.27500
C  53.05700 20.58400 43.10900
C  57.66200 20.32300 44.81000
C  57.79600 25.10200 45.31900
N  53.49200 23.04300 43.18500
C  52.81200 24.20600 42.95700
C  51.33700 23.94800 42.57900
C  51.19100 22.38600 42.95900
C  52.68800 21.96800 42.97200
C  50.33600 21.98000 44.26000
C  50.99900 24.32400 41.07800
C  49.56500 24.67300 40.76400
H  48.84200 23.98100 39.62500
N  55.45100 20.70400 43.84900
C  54.36700 19.96400 43.42500
C  54.65400 18.56200 43.51600
C  55.99300 18.43800 43.99300
C  56.45800 19.85500 44.26500
C  53.66300 17.56600 42.99600
C  56.80000 17.14100 44.00400
O  56.29500 16.08200 43.68200
C  58.19700 17.12600 44.23300
N  57.47300 22.68400 44.83400
C  58.19800 21.58500 44.96400
C  59.68500 21.85000 45.25000
C  59.62500 23.36400 45.56700
C  58.22900 23.78500 45.24900
C  60.35900 21.02000 46.40300
C  60.70000 24.20000 44.69300
C  61.09300 25.62200 45.23400
N  55.60700 24.82000 44.29900
C  56.56500 25.62000 44.82100
C  56.18500 27.00800 44.61900
C  54.87400 26.94500 44.21900
C  54.57100 25.61300 43.94200
C  57.01300 28.31700 44.87000
C  53.69700 27.73600 43.89900
O  53.47600 28.90800 44.08000
C  52.68700 26.81400 43.17200
C  52.57300 27.26600 41.75700
O  53.44500 27.06800 40.92500
O  51.27300 27.77200 41.57400
C  50.99900 28.21100 40.16000
H  52.34000 19.76900 42.99100
H  58.44300 19.61500 45.09500
H  58.46200 25.91100 45.62800
H  50.71800 24.50900 43.27900
H  50.70600 21.79600 42.18100
H  51.03200 21.55900 44.98500
H  49.52700 21.27900 44.05300
H  49.92500 22.85800 44.75900
H  51.09200 23.36700 40.56500
H  51.80900 24.93100 40.67200
H  49.78700 25.68800 40.43500
H  48.99600 24.43200 41.66200
H  52.61000 17.80100 43.14800
H  53.78100 16.64900 43.57400
H  53.87000 17.30200 41.95900
H  58.56200 17.91500 43.57400
H  58.75200 16.22200 43.98400
H  58.43400 17.35700 45.27100
H  60.16300 21.71500 44.28000
H  59.75500 23.54900 46.63400
H  59.72000 20.29200 46.90200
H  60.89000 21.44700 47.25400
H  60.94000 20.21000 45.96100
H  60.23700 24.39700 43.72600
H  61.63500 23.70000 44.43900
H  60.49600 26.32100 44.64800
H  62.12200 25.81300 44.92900
H  60.99400 25.81900 46.30100
H  57.48200 28.20000 45.84700
H  56.36400 29.18400 44.74900
H  57.81600 28.47000 44.14900
H  51.71400 26.80500 43.66300
H  51.88700 28.71400 39.77800
H  50.23100 28.98500 40.14900
H  50.74000 27.39300 39.48800
Mg -10.90700 40.51900 39.10300
C  -9.98600 37.24500 38.46600
C  -7.58500 41.50900 38.35500
C  -11.90000 43.68000 38.63100
C  -14.22000 39.43600 39.38000
N  -9.09200 39.54900 38.31900
C  -8.92900 38.16100 38.26500
C  -7.46900 37.79300 37.87600
C  -6.67400 39.12600 38.31900
C  -7.85200 40.13800 38.33100
C  -5.94400 39.14500 39.66000
C  -7.38700 37.50200 36.31600
C  -7.16000 36.00900 35.93600
H  -8.04200 35.41900 34.90300
N  -9.88800 42.38900 38.65200
C  -8.52400 42.60200 38.34000
C  -8.27700 43.97700 38.17500
C  -9.50500 44.57700 38.31800
C  -10.52900 43.57200 38.46900
C  -6.92400 44.54600 37.99000
C  -9.65600 46.08100 38.28000
O  -8.73900 46.80700 37.92000
C  -10.94100 46.73000 38.56800
N  -12.87600 41.45500 39.02200
C  -12.98000 42.79500 38.92800
C  -14.44100 43.17100 38.96600
C  -15.25700 41.85600 39.25700
C  -14.05500 40.84100 39.24900
C  -14.91700 44.31300 39.93800
C  -16.40400 41.45300 38.26700
C  -17.70900 41.09300 38.95800
N  -11.93100 38.71500 39.16200
C  -13.29400 38.41600 39.13900
C  -13.43900 36.99400 39.03400
C  -12.16200 36.48300 38.74400
C  -11.30800 37.59500 38.78500
C  -14.80400 36.31600 39.12900
C  -11.43500 35.27000 38.38000
O  -11.84000 34.12600 38.24000
C  -9.91000 35.70400 38.24000
C  -9.15300 34.90200 39.26200
O  -9.51800 34.75400 40.43900
O  -8.18100 34.20800 38.62200
C  -7.43300 33.31600 39.50000
H  -6.53100 41.77800 38.26300
H  -12.26800 44.69600 38.47300
H  -15.23000 39.03800 39.49500
H  -7.05000 37.02800 38.53000
H  -6.05500 39.49400 37.50000
H  -4.95200 39.59400 39.60900
H  -5.59800 38.15500 39.95700
H  -6.53700 39.59700 40.45500
H  -6.60400 38.11700 35.87200
H  -8.37200 37.73500 35.91300
H  -7.22100 35.32600 36.78300
H  -6.15200 35.96200 35.52400
H  -6.48900 44.93100 38.91300
H  -6.83400 45.28600 37.19500
H  -6.27200 43.77600 37.57900
H  -10.89400 47.80800 38.71900
H  -11.16200 46.53800 39.61700
H  -11.74600 46.44000 37.89300
H  -14.70600 43.47500 37.95400
H  -15.60300 41.86900 40.29000
H  -14.08100 44.81400 40.42700
H  -15.64500 44.03300 40.69900
H  -15.36200 45.09500 39.32200
H  -16.20600 40.63800 37.57100
H  -16.65800 42.30300 37.63400
H  -17.81300 41.51500 39.95700
H  -17.89200 40.02000 39.00100
H  -18.45800 41.48600 38.27100
H  -14.73000 35.48100 39.82700
H  -15.04400 35.98800 38.11800
H  -15.52500 36.96600 39.62600
H  -9.62100 35.49600 37.21000
H  -8.04000 32.46200 39.80100
H  -6.91900 33.73000 40.36700
H  -6.63300 32.92000 38.87400

