158

Mg 46.88000 17.38200 27.70500
C  45.15800 17.24700 30.79200
C  49.55500 18.89500 29.39800
C  48.60600 17.72500 24.83600
C  44.18800 15.95300 26.15500
N  47.13300 18.15300 29.82400
C  46.41800 17.92600 30.94000
C  47.12800 18.35100 32.20400
C  48.35400 19.17100 31.64300
C  48.39200 18.74000 30.12800
C  48.09200 20.72800 31.82700
C  47.50700 17.18000 33.06600
C  47.22100 17.22800 34.60000
H  46.79700 18.64800 35.19300
N  48.69900 18.35500 27.14900
C  49.63200 18.88900 27.96500
C  50.80600 19.37600 27.17900
C  50.49200 19.02700 25.85900
C  49.22400 18.41500 25.86800
C  52.06600 19.78000 27.85400
C  51.28000 19.35000 24.49700
O  51.05200 18.87100 23.37200
C  52.36100 20.40500 24.44300
N  46.40200 17.00500 25.80500
C  47.38100 17.04600 24.79600
C  46.88300 16.36900 23.51100
C  45.61700 15.49100 24.05800
C  45.34700 16.24200 25.38000
C  46.59300 17.36500 22.34300
C  45.93700 14.01200 24.18600
C  44.75700 13.10100 24.24800
N  45.00300 16.90500 28.20200
C  44.01600 16.21500 27.54600
C  42.98400 15.74100 28.41900
C  43.44800 16.18000 29.67800
C  44.66900 16.87700 29.55300
C  41.68000 14.94300 28.13500
C  43.04600 16.02400 31.08900
O  42.10200 15.50700 31.66700
C  44.25800 16.77900 31.84100
C  43.56100 17.70000 32.77700
O  43.21200 18.81600 32.48300
O  43.23600 17.01600 33.92400
C  42.49500 17.76200 34.94700
H  50.42600 19.29500 29.92200
H  49.17400 17.65000 23.90700
H  43.34000 15.39300 25.75400
H  46.44900 19.03300 32.71600
H  49.28200 18.90100 32.14800
H  47.08300 21.12800 31.92900
H  48.61600 21.13500 30.96200
H  48.60200 21.08800 32.72000
H  48.54800 16.87200 32.96900
H  46.89000 16.34300 32.74200
H  48.16800 16.93400 35.05200
H  46.40900 16.52500 34.78600
H  52.11200 20.77300 28.30100
H  53.01400 19.72200 27.32000
H  52.33600 19.03500 28.60300
H  52.05900 21.41700 24.71100
H  52.66000 20.39000 23.39500
H  53.26100 20.18400 25.01700
H  47.61400 15.58700 23.30800
H  44.72400 15.69100 23.46700
H  46.48900 18.38800 22.70400
H  45.66300 17.09100 21.84500
H  47.46100 17.37600 21.68300
H  46.54900 13.88400 25.07900
H  46.54000 13.70600 23.33000
H  44.75700 12.39800 23.41500
H  43.85100 13.64900 23.98900
H  44.69700 12.59900 25.21300
H  41.71600 13.86500 27.98000
H  41.30700 15.49400 27.27100
H  41.01300 15.07500 28.98700
H  44.74100 15.93400 32.33200
H  43.23900 18.04800 35.69100
H  41.77700 17.17100 35.51700
H  42.13000 18.75600 34.69100
Mg 36.32900 49.47500 24.95700
C  36.18800 47.57600 27.98900
C  34.98300 52.10800 26.64000
C  36.12700 51.25100 22.12800
C  37.38200 46.63900 23.31300
N  35.79800 49.73900 27.04800
C  35.94500 48.89900 28.10200
C  35.59300 49.60800 29.38500
C  34.95800 50.93900 28.91400
C  35.34300 50.96600 27.46000
C  33.36200 51.04300 29.27700
C  36.80200 49.77300 30.39400
C  36.62400 49.64900 31.89300
H  35.18600 49.72100 32.40000
N  35.47800 51.40600 24.42500
C  35.06500 52.38200 25.28900
C  34.79400 53.61600 24.58200
C  35.18600 53.37200 23.23300
C  35.58100 51.95800 23.20700
C  34.04200 54.78500 25.15500
C  35.11900 54.41100 22.00800
O  35.41500 54.04700 20.88300
C  34.63100 55.85700 22.15900
N  36.69000 48.97200 22.98400
C  36.54800 49.90600 21.99900
C  36.79800 49.22300 20.61800
C  37.41200 47.79600 21.01400
C  37.17500 47.76100 22.54400
C  35.54900 49.22500 19.72300
C  38.95700 47.61300 20.69900
C  39.97300 48.61000 21.45500
N  36.80100 47.51000 25.48400
C  37.18100 46.46600 24.67200
C  37.27700 45.27700 25.50800
C  36.82500 45.66600 26.76000
C  36.49300 46.97400 26.72000
C  37.73100 43.85300 24.98200
C  36.63900 45.22900 28.13700
O  36.83400 44.12500 28.59700
C  36.29100 46.48900 29.00600
C  35.01400 46.14900 29.67600
O  33.86700 46.26100 29.20000
O  35.33400 45.49400 30.85000
C  34.21600 45.04700 31.71400
H  34.60400 52.96300 27.20500
H  36.13000 51.82000 21.19600
H  37.60900 45.69600 22.81100
H  34.93300 49.03200 30.03300
H  35.47000 51.78200 29.37800
H  32.76100 51.10500 28.36900
H  33.20300 51.96100 29.84300
H  33.05900 50.16900 29.85300
H  37.35800 50.70400 30.28600
H  37.55200 49.03600 30.10700
H  37.22900 50.50200 32.20400
H  37.16400 48.82900 32.36700
H  32.96400 54.76400 24.99800
H  34.37500 55.77600 24.84700
H  34.16300 54.84300 26.23700
H  34.57700 56.43600 21.23700
H  35.29400 56.40000 22.83200
H  33.71400 55.78700 22.74500
H  37.56200 49.77200 20.06700
H  36.94300 46.97900 20.46500
H  35.62400 49.79200 18.79500
H  34.68800 49.68100 20.21100
H  35.27100 48.23200 19.37000
H  39.11900 47.84600 19.64700
H  39.10700 46.55300 20.90200
H  40.06200 48.42600 22.52600
H  39.62700 49.63800 21.34500
H  40.96000 48.56500 20.99400
H  38.53500 43.97200 24.25600
H  36.84700 43.39500 24.53800
H  38.11600 43.36600 25.87700
H  37.05500 46.72000 29.74800
H  33.39100 45.75600 31.78800
H  34.67100 44.93000 32.69700
H  33.93300 44.09700 31.26200

