158

Mg 0.07600 8.17200 26.72700
C  0.79000 10.40500 29.33100
C  -0.41300 5.71100 29.03000
C  0.06700 5.91500 24.14600
C  0.79600 10.70000 24.43100
N  0.36800 7.99500 28.92700
C  0.56900 9.05100 29.76300
C  0.24800 8.69000 31.27300
C  0.09100 7.14700 31.10100
C  0.04500 6.90800 29.58400
C  1.25800 6.26200 31.73400
C  -1.05200 9.40600 31.76100
C  -1.23500 9.60200 33.27200
H  -0.03600 9.30700 34.11000
N  -0.11100 6.14300 26.57600
C  -0.48500 5.35700 27.68700
C  -0.73600 4.05800 27.17800
C  -0.67800 4.05200 25.73200
C  -0.19200 5.40500 25.38900
C  -1.04400 2.88300 28.16200
C  -0.98900 2.96400 24.70300
O  -0.89700 3.03000 23.49300
C  -1.49100 1.65500 25.18900
N  0.64500 8.27300 24.61200
C  0.41400 7.23300 23.72700
C  0.67500 7.57900 22.31500
C  0.50000 9.21600 22.31600
C  0.59700 9.44900 23.87000
C  1.90000 6.99300 21.65200
C  -0.81500 9.71800 21.74200
C  -0.69400 10.88900 20.73300
N  0.71400 10.10600 26.70300
C  0.85200 11.09700 25.76800
C  1.19300 12.33300 26.36300
C  1.10200 12.10600 27.71200
C  0.80200 10.77000 27.92500
C  1.38000 13.63900 25.64600
C  1.24700 12.76100 29.01500
O  1.55300 13.87200 29.28300
C  1.11000 11.67000 30.12700
C  2.34600 11.66300 30.90000
O  3.37400 11.09000 30.53300
O  2.14500 12.30800 32.10600
C  3.28600 12.34100 33.06800
H  -0.74600 5.02700 29.81400
H  -0.09200 5.29800 23.26000
H  0.66600 11.57000 23.78300
H  1.16500 8.94900 31.80200
H  -0.80000 6.74900 31.58800
H  0.90600 5.46600 32.39100
H  1.88100 6.94800 32.30800
H  1.91200 5.83100 30.97700
H  -1.84200 8.72100 31.45400
H  -1.26100 10.36700 31.29100
H  -2.04400 8.93800 33.57600
H  -1.56600 10.61900 33.48300
H  -0.82600 3.00700 29.22300
H  -0.63400 1.95700 27.75800
H  -2.12500 2.75900 28.21500
H  -1.85500 1.15000 24.29400
H  -2.35500 1.79900 25.83800
H  -0.68200 1.26200 25.80400
H  -0.11000 7.11300 21.72000
H  1.38200 9.65600 21.84900
H  2.61800 6.78600 22.44600
H  2.26200 7.59900 20.82200
H  1.67000 6.00500 21.25400
H  -1.48400 10.11800 22.50400
H  -1.20400 8.81200 21.27900
H  0.28900 10.99600 20.27300
H  -0.92200 11.83000 21.23300
H  -1.40200 10.74200 19.91700
H  0.86000 13.70800 24.69100
H  2.41600 13.95500 25.52900
H  1.09900 14.45700 26.31000
H  0.25200 11.91800 30.75100
H  4.12800 12.51200 32.39600
H  3.37900 11.32200 33.44200
H  3.09300 12.97300 33.93500
Mg 24.62900 -4.64100 46.26400
C  26.61800 -1.99000 44.76700
C  22.11400 -3.65100 44.13900
C  22.93900 -7.43600 47.06400
C  27.52700 -5.67700 47.79700
N  24.41100 -2.97100 44.67200
C  25.28100 -1.99000 44.28500
C  24.92200 -1.39100 43.00300
C  23.42200 -1.64900 42.98100
C  23.29900 -2.85000 43.97200
C  22.51900 -0.42300 43.36400
C  25.70400 -1.84900 41.80600
C  26.21700 -0.78600 40.82300
H  25.37700 -0.57900 39.53300
N  22.69700 -5.52500 45.69900
C  21.85300 -4.91400 44.80900
C  20.72300 -5.75400 44.58200
C  20.93800 -6.88900 45.35800
C  22.17900 -6.66500 46.14000
C  19.62800 -5.48400 43.51400
C  19.96400 -8.13700 45.40000
O  18.98500 -8.15900 44.65500
C  20.10100 -9.19100 46.39800
N  25.18300 -6.44800 47.04500
C  24.31000 -7.39400 47.51000
C  25.05900 -8.47400 48.25600
C  26.39600 -7.76900 48.71600
C  26.39800 -6.56600 47.77700
C  24.22800 -9.05000 49.42600
C  27.73300 -8.57400 48.52400
C  28.64900 -8.60800 49.73600
N  26.60300 -3.95500 46.42700
C  27.64300 -4.48700 47.15100
C  28.74200 -3.51000 47.09400
C  28.38600 -2.64000 46.10500
C  27.11300 -2.97000 45.68100
C  29.99800 -3.48700 47.89300
C  28.93600 -1.51600 45.39900
O  30.04400 -0.97500 45.44500
C  27.81800 -1.18900 44.35400
C  27.56800 0.27700 44.45500
O  27.05500 0.80100 45.39300
O  27.97800 0.89100 43.33600
C  27.72300 2.34700 43.22400
H  21.25900 -3.22500 43.61100
H  22.37900 -8.24300 47.54100
H  28.38200 -5.95400 48.41700
H  25.09500 -0.33800 43.22200
H  23.16600 -2.11700 42.03000
H  23.05100 0.35200 43.91500
H  21.60900 -0.78100 43.84600
H  22.21400 -0.03700 42.39100
H  25.08300 -2.50800 41.19900
H  26.48300 -2.57200 42.04900
H  27.24700 -0.90300 40.48800
H  26.25700 0.13200 41.40900
H  19.62400 -6.34800 42.84900
H  19.91800 -4.60600 42.93700
H  18.57500 -5.41600 43.78700
H  19.45500 -10.04800 46.20700
H  19.79500 -8.78900 47.36400
H  21.12300 -9.53900 46.54200
H  25.31400 -9.20200 47.48600
H  26.27200 -7.40400 49.73500
H  23.27700 -8.51800 49.44600
H  24.87100 -8.93000 50.29800
H  24.09600 -10.10900 49.20200
H  28.26400 -8.06300 47.72000
H  27.49100 -9.59400 48.22600
H  28.77400 -9.63600 50.07500
H  28.21900 -7.93500 50.47800
H  29.60900 -8.26400 49.35100
H  30.02800 -4.41200 48.46900
H  30.04300 -2.66600 48.60800
H  30.86300 -3.51300 47.23000
H  28.13800 -1.24200 43.31400
H  28.56200 2.77300 43.77500
H  26.83300 2.70100 43.74400
H  27.70300 2.60600 42.16600

