158

Mg 47.59800 15.48200 27.67600
C  45.36200 14.90500 30.23000
C  49.10500 17.86900 29.80900
C  49.58100 16.34200 25.19300
C  45.40800 13.77900 25.48200
N  47.31900 16.19000 29.85500
C  46.43000 15.63700 30.70600
C  46.74700 16.11800 32.10600
C  47.76700 17.31000 31.93900
C  48.05900 17.14100 30.43100
C  47.23300 18.66900 32.44900
C  47.23000 14.98600 33.03400
C  47.08100 15.45900 34.48800
H  48.31000 15.22200 35.40000
N  49.32000 16.69400 27.59600
C  49.72600 17.63400 28.53400
C  50.92200 18.21800 27.96300
C  51.13500 17.72400 26.67300
C  49.97000 16.85900 26.44700
C  51.78100 19.31700 28.73300
C  52.27100 18.05000 25.74500
O  52.43000 17.52100 24.66600
C  53.26500 19.09500 26.15800
N  47.55900 14.98400 25.56000
C  48.52900 15.51700 24.73800
C  48.10900 15.24900 23.22300
C  46.91100 14.24100 23.34400
C  46.56300 14.32400 24.85700
C  47.80200 16.52700 22.40200
C  47.23900 12.76800 22.94100
C  47.97000 11.79400 23.94500
N  45.77700 14.52000 27.74600
C  45.01400 13.85200 26.85100
C  43.73300 13.50200 27.44600
C  43.84900 13.80000 28.78600
C  45.09600 14.47900 28.95100
C  42.60700 12.88700 26.59000
C  43.10400 13.82100 30.06300
O  41.92600 13.56400 30.34000
C  44.13000 14.45900 31.03900
C  43.47900 15.53100 31.84000
O  42.87800 16.50300 31.41200
O  43.49100 15.24800 33.19500
C  42.92600 16.31400 34.00900
H  49.45400 18.66700 30.46900
H  50.12800 16.73200 24.33200
H  44.69800 13.26100 24.83400
H  45.83300 16.49600 32.56500
H  48.68700 17.17400 32.50700
H  47.61500 19.44800 31.78900
H  47.73500 18.95000 33.37500
H  46.14700 18.75700 32.44100
H  48.26000 14.76600 32.75400
H  46.72600 14.02700 32.92000
H  46.27900 14.83000 34.87300
H  46.64300 16.44100 34.66300
H  51.26900 19.60800 29.65000
H  51.81700 20.17600 28.06300
H  52.80000 19.05700 29.01900
H  54.04400 19.02200 25.39800
H  53.79400 18.92700 27.09600
H  52.89100 20.11900 26.14900
H  48.94800 14.70900 22.78500
H  46.05000 14.55400 22.75400
H  48.70500 16.74600 21.83300
H  47.45100 17.37500 22.99000
H  47.02700 16.27000 21.68000
H  47.93000 12.67800 22.10300
H  46.28700 12.29600 22.69700
H  48.86800 11.33200 23.53400
H  47.23600 11.04200 24.23400
H  48.14100 12.16300 24.95600
H  41.65500 13.09700 27.07700
H  42.79700 11.81700 26.50400
H  42.59400 13.29400 25.57800
H  44.34400 13.64800 31.73600
H  43.33000 17.28700 33.72800
H  43.04200 15.91800 35.01700
H  41.86900 16.35800 33.74600
Mg 7.32200 57.15200 42.09400
C  5.54000 54.10800 41.73400
C  10.00800 55.62700 40.71800
C  8.57400 60.30000 41.59500
C  4.21400 58.73100 43.06500
N  7.63400 55.10000 41.26400
C  6.79300 54.03600 41.14800
C  7.44500 52.84000 40.51900
C  9.02100 53.23600 40.71000
C  8.87800 54.73100 40.78600
C  9.72500 52.64200 41.99600
C  7.00200 52.74900 39.07100
C  7.38300 51.48900 38.32500
H  6.43000 50.94300 37.32300
N  8.99000 57.82900 41.30700
C  9.98700 57.06500 40.83900
C  11.15200 57.87100 40.43900
C  10.75600 59.26000 40.54600
C  9.38600 59.20700 41.16900
C  12.50700 57.33300 40.06500
C  11.64400 60.42100 40.24900
O  12.71500 60.20900 39.67300
C  11.20600 61.78200 40.55900
N  6.49600 59.27300 42.48600
C  7.25600 60.29700 42.11900
C  6.39100 61.59400 42.27500
C  5.01700 61.09000 42.75100
C  5.24200 59.60700 42.84200
C  7.06900 62.58700 43.20800
C  3.72100 61.44300 41.89800
C  2.80900 62.45700 42.52000
N  5.29000 56.59000 42.40600
C  4.19900 57.28800 42.85800
C  3.04600 56.37000 43.00600
C  3.54600 55.11900 42.61100
C  4.89300 55.29700 42.20400
C  1.64700 56.55900 43.58400
C  3.16300 53.70300 42.51100
O  2.19600 53.05800 42.81700
C  4.50100 53.01100 41.93800
C  3.98600 52.42000 40.65300
O  3.56200 53.06600 39.67000
O  4.01800 51.08900 40.72400
C  3.12900 50.40100 39.81400
H  10.93700 55.09800 40.49400
H  8.91800 61.28200 41.26300
H  3.28000 59.11600 43.47900
H  7.26100 51.90300 41.04500
H  9.61100 52.89800 39.85800
H  8.98300 52.08000 42.56300
H  10.14900 53.37300 42.68600
H  10.45900 51.89100 41.70400
H  7.57300 53.51100 38.54100
H  5.92100 52.87200 38.99600
H  7.64600 50.67700 39.00300
H  8.25400 51.68900 37.70100
H  12.66100 56.36100 40.53400
H  13.22000 58.04100 40.48700
H  12.60400 57.25900 38.98200
H  11.03500 61.78700 41.63600
H  10.32200 62.07600 39.99400
H  12.05700 62.42700 40.34000
H  6.25900 62.14100 41.34100
H  4.99600 61.40400 43.79400
H  8.04000 62.86400 42.79600
H  7.30700 62.05500 44.12900
H  6.49800 63.50700 43.33700
H  3.26100 60.49700 41.61300
H  4.15900 61.92600 41.02500
H  2.18900 61.90900 43.23000
H  2.34400 63.03200 41.71900
H  3.40100 63.16600 43.09800
H  0.86200 56.27100 42.88500
H  1.58000 57.56700 43.99500
H  1.48700 55.94100 44.46700
H  4.83100 52.22600 42.61800
H  2.09400 50.59600 40.09600
H  3.28100 49.32200 39.84800
H  3.27500 50.61000 38.75400

