158

Mg 51.59300 46.06000 41.99200
C  48.72300 47.51200 40.73900
C  50.35500 42.95600 40.77400
C  54.58100 44.75400 42.21300
C  52.81700 49.33300 42.77800
N  49.75600 45.31800 40.82100
C  48.70800 46.06300 40.60600
C  47.55200 45.20800 39.97000
C  47.93100 43.74800 40.33600
C  49.47300 44.03500 40.65000
C  47.09500 43.22200 41.52600
C  47.13400 45.40100 38.46800
C  45.66200 45.31500 38.23000
H  45.30300 43.94100 37.55300
N  52.32900 44.08900 41.78300
C  51.68700 42.99000 41.22000
C  52.62500 41.89600 41.24200
C  53.91000 42.33100 41.68500
C  53.64600 43.79100 41.86400
C  52.19500 40.50800 40.91100
C  55.16700 41.50700 41.83600
O  55.11000 40.27600 41.70700
C  56.51100 41.99700 42.11700
N  53.46700 46.96700 42.57200
C  54.53600 46.16400 42.54600
C  55.75300 46.97200 42.86200
C  55.18700 48.40100 43.15100
C  53.77400 48.31700 42.82400
C  56.79200 46.28600 43.83300
C  55.79600 49.67100 42.53900
C  57.31700 49.89200 42.33100
N  50.90800 48.01000 41.87200
C  51.45800 49.21000 42.29800
C  50.53000 50.32100 42.08000
C  49.35800 49.67700 41.48900
C  49.71300 48.29300 41.40700
C  50.74200 51.78500 42.34200
C  48.08600 49.92200 40.90300
O  47.40400 50.95500 40.69400
C  47.66900 48.46800 40.44000
C  46.27800 48.04800 40.69600
O  45.41400 48.33100 39.84700
O  46.09500 47.47500 41.91400
C  44.68200 47.06900 42.22400
H  49.91400 41.98000 40.56100
H  55.61900 44.42300 42.13500
H  53.12000 50.34700 43.04800
H  46.76600 45.63100 40.59500
H  47.68500 43.12800 39.47400
H  47.71600 42.70000 42.25400
H  46.31000 42.61600 41.07400
H  46.56600 44.06100 41.97800
H  47.56500 44.60300 37.86400
H  47.66000 46.27600 38.08400
H  45.50100 46.11000 37.50100
H  44.99300 45.36200 39.08900
H  51.97000 39.87700 41.77100
H  53.03400 40.03800 40.39800
H  51.34200 40.42200 40.23800
H  56.50000 42.43700 43.11500
H  56.57100 42.76700 41.34800
H  57.27400 41.21900 42.09400
H  56.29600 47.04800 41.91900
H  55.20100 48.57900 44.22700
H  57.14400 47.03000 44.54800
H  57.67300 45.98100 43.26800
H  56.27800 45.42900 44.26700
H  55.44300 50.42100 43.24700
H  55.43000 49.87200 41.53200
H  57.40400 50.94200 42.61100
H  57.72900 49.78100 41.32800
H  57.73200 49.20300 43.06700
H  51.40200 52.19800 41.58000
H  51.18400 52.01700 43.31100
H  49.76700 52.25500 42.21700
H  47.55000 48.48700 39.35600
H  44.79000 46.33500 43.02300
H  44.18500 46.73900 41.31200
H  44.19800 48.01500 42.46800
Mg 47.98900 34.27700 26.83100
C  46.11300 32.62200 29.32400
C  47.90300 37.08500 28.83000
C  49.21000 36.00900 24.23300
C  47.15700 31.58300 24.60500
N  47.30500 34.67800 28.96400
C  46.76200 33.81400 29.74300
C  46.72500 34.48700 31.15700
C  47.03400 36.04800 30.94700
C  47.44300 35.95300 29.51000
C  45.69700 36.88000 31.00500
C  47.94200 33.86300 32.04500
C  48.00200 34.33900 33.57500
H  47.08300 35.41300 34.15000
N  48.49600 36.24600 26.53200
C  48.37500 37.22700 27.51200
C  48.93400 38.43900 26.99800
C  49.53000 38.12700 25.75200
C  49.05600 36.80800 25.39100
C  49.10600 39.67000 27.82800
C  50.35000 38.98400 24.90100
O  50.85400 38.57200 23.85400
C  50.85200 40.31400 25.39300
N  48.12300 33.77900 24.80000
C  48.68500 34.73700 23.88300
C  48.74600 34.20700 22.46100
C  48.22700 32.74200 22.59200
C  47.75100 32.67000 24.08200
C  47.96600 35.18500 21.56800
C  49.31900 31.73800 22.25300
C  49.17100 30.99300 20.87700
N  46.95400 32.39000 26.86500
C  46.77100 31.40300 25.94200
C  45.89300 30.35800 26.47300
C  45.58100 30.90200 27.76700
C  46.24800 32.09900 27.99200
C  45.45200 29.10300 25.74800
C  44.81100 30.59000 29.01000
O  44.17500 29.55700 29.31500
C  45.05800 31.78200 30.07100
C  45.29400 31.27800 31.44300
O  46.18100 30.52600 31.72800
O  44.43200 31.89000 32.24700
C  44.58200 31.69600 33.70500
H  47.85600 37.91200 29.54100
H  49.53500 36.64600 23.40800
H  47.02800 30.70300 23.97000
H  45.78100 34.31200 31.67300
H  47.84600 36.44900 31.55400
H  45.25000 37.10800 30.03800
H  45.89200 37.76800 31.60500
H  45.01200 36.38300 31.69300
H  48.83200 34.04000 31.44200
H  47.89900 32.77400 32.04100
H  49.04800 34.38100 33.87900
H  47.65100 33.49800 34.17300
H  50.09100 39.73200 28.29000
H  48.27900 39.79500 28.52700
H  48.86700 40.50500 27.16900
H  49.99700 40.98500 25.47300
H  51.65500 40.68200 24.75400
H  51.34600 40.09500 26.34000
H  49.79300 34.13900 22.16300
H  47.45700 32.51600 21.85500
H  47.84000 36.13400 22.08900
H  46.97200 34.85500 21.26900
H  48.55600 35.39400 20.67600
H  49.48200 31.01000 23.04800
H  50.26300 32.27900 22.32700
H  50.18300 30.97000 20.47300
H  48.42500 31.43600 20.21600
H  48.84400 29.98200 21.11800
H  44.36400 29.05200 25.71900
H  45.91000 28.24900 26.24800
H  45.86500 29.04300 24.74100
H  44.06500 32.23000 30.10400
H  45.64200 31.53500 33.89900
H  44.10300 30.78200 34.05800
H  44.23500 32.56900 34.25700

