158

Mg 35.03800 2.86900 29.11700
C  33.08400 3.93700 31.82700
C  37.86400 3.20100 31.09100
C  36.91400 1.90400 26.52600
C  32.19500 2.84100 27.18700
N  35.41800 3.28200 31.25700
C  34.45800 3.69400 32.17700
C  35.06800 3.63900 33.53500
C  36.57700 3.77300 33.26800
C  36.66000 3.43600 31.74800
C  37.27500 5.16700 33.65900
C  34.55500 2.52600 34.47900
C  34.35100 2.92400 35.93800
H  35.22700 3.98100 36.65900
N  37.14400 2.53500 28.84500
C  38.10500 2.80700 29.79200
C  39.39700 2.59100 29.15800
C  39.18500 2.13400 27.78300
C  37.68900 2.16900 27.64000
C  40.67100 2.97000 29.90500
C  40.11100 1.65000 26.68400
O  39.70200 1.33400 25.58800
C  41.53400 1.42300 26.93200
N  34.59200 2.40900 27.14800
C  35.52500 1.98500 26.29300
C  34.89500 1.49600 24.95400
C  33.37500 1.82200 25.18300
C  33.36500 2.49100 26.59100
C  35.61800 1.90400 23.67100
C  32.54400 0.50800 24.87000
C  32.37600 -0.56100 25.96000
N  33.07200 3.32900 29.32700
C  32.05100 3.27200 28.48000
C  30.85800 3.75800 29.01600
C  31.24100 4.02300 30.37400
C  32.57800 3.75100 30.50400
C  29.52600 3.68500 28.40300
C  30.69600 4.54900 31.66900
O  29.64000 5.02700 31.95600
C  31.87300 4.23300 32.69200
C  32.04700 5.40600 33.52900
O  32.38700 6.54500 33.11400
O  31.67800 5.13800 34.85700
C  31.50900 6.30600 35.75000
H  38.76300 3.27200 31.70700
H  37.47100 1.41600 25.72400
H  31.30600 2.90400 26.55500
H  34.78500 4.56300 34.03900
H  37.04100 2.92900 33.78000
H  37.86200 4.98000 34.55900
H  36.48300 5.83100 34.00600
H  37.84900 5.52200 32.80300
H  35.30100 1.73200 34.45000
H  33.60600 2.15000 34.09500
H  34.35400 2.03900 36.57500
H  33.33400 3.31600 35.95800
H  41.00500 2.18100 30.58000
H  40.65600 3.89100 30.48700
H  41.44400 2.97600 29.13600
H  42.08100 2.36500 26.90300
H  41.89600 0.76600 26.14100
H  41.54700 0.87800 27.87600
H  35.03400 0.43800 25.17900
H  33.14700 2.53900 24.39400
H  36.18000 2.82100 23.84300
H  34.78900 1.97800 22.96800
H  36.25300 1.16300 23.18500
H  32.97600 -0.00600 24.01200
H  31.53100 0.82300 24.62000
H  32.92000 -1.48500 25.76500
H  31.30600 -0.71200 26.10900
H  32.83900 -0.26600 26.90100
H  28.81500 4.21600 29.03600
H  29.17400 2.66500 28.25000
H  29.49000 4.22900 27.46000
H  31.58000 3.45600 33.39900
H  30.48700 6.64600 35.92100
H  31.99700 7.24900 35.50100
H  31.89200 6.02000 36.72900
Mg 30.52100 57.80100 40.40600
C  27.66100 56.15700 38.92600
C  32.46300 55.13800 39.60200
C  33.12900 59.82400 40.79500
C  28.31100 60.50700 41.13600
N  30.12700 55.95700 39.26700
C  28.87700 55.39300 38.80900
C  29.05700 53.99900 38.32200
C  30.38700 53.57300 38.97900
C  31.09600 54.97400 39.28500
C  30.32100 52.58000 40.12700
C  29.00700 54.05300 36.76300
C  28.16500 52.95600 36.03300
H  27.41900 53.49800 34.76300
N  32.54400 57.60400 40.12900
C  33.16800 56.39700 39.89500
C  34.59200 56.52800 39.94900
C  34.86400 57.89700 40.09900
C  33.53400 58.53900 40.34000
C  35.51500 55.38500 39.78500
C  36.25300 58.54100 40.28200
O  37.31400 57.85900 40.15800
C  36.46200 59.97900 40.46500
N  30.60500 59.88300 40.66400
C  31.87700 60.43700 40.98300
C  31.66400 61.90800 41.33600
C  30.18500 62.01200 41.63900
C  29.70000 60.72200 41.09100
C  32.57200 62.47400 42.36000
C  29.51600 63.35200 41.06700
C  28.39000 63.97700 41.90800
N  28.38000 58.23800 40.21400
C  27.64800 59.32300 40.64700
C  26.25700 59.19100 40.22100
C  26.18500 57.88100 39.59100
C  27.50800 57.40600 39.57700
C  25.16800 60.16400 40.51100
C  25.34300 56.79100 38.86200
O  24.13800 56.84200 38.60400
C  26.26200 55.74300 38.55500
C  25.89400 54.59500 39.38500
O  25.78100 54.57900 40.57700
O  25.51500 53.61700 38.53600
C  24.67700 52.53700 39.00700
H  33.06800 54.23600 39.49100
H  34.00500 60.47000 40.87500
H  27.63900 61.29300 41.48700
H  28.20300 53.39100 38.62200
H  30.84800 53.06900 38.13000
H  30.93700 53.05600 40.88900
H  30.78100 51.64900 39.79500
H  29.29100 52.45800 40.46100
H  29.99900 53.96900 36.31900
H  28.56600 54.98500 36.40700
H  27.26500 52.74200 36.61000
H  28.78000 52.07700 35.84100
H  35.44300 55.09200 38.73800
H  35.21400 54.61100 40.49000
H  36.52600 55.51300 40.17300
H  36.19900 60.24600 41.48800
H  35.85700 60.50800 39.72900
H  37.44100 60.31200 40.11900
H  31.85600 62.36700 40.36600
H  29.95700 62.00700 42.70500
H  33.15000 61.67700 42.82800
H  32.07800 63.01100 43.16900
H  33.09900 63.24600 41.79900
H  28.99900 62.99600 40.17600
H  30.15500 64.07500 40.56000
H  28.04700 63.35100 42.73200
H  27.53700 64.17600 41.25900
H  28.71000 64.91800 42.35500
H  25.37700 60.49900 41.52700
H  24.23000 59.61100 40.47600
H  25.17300 61.00900 39.82200
H  26.27900 55.52000 37.48800
H  24.48700 51.92500 38.12600
H  23.81000 52.83800 39.59400
H  25.20400 51.87800 39.69800

