158

Mg 46.87900 25.16300 28.88000
C  47.68800 27.44000 31.36600
C  46.25700 22.96200 31.16400
C  46.26900 23.00200 26.40000
C  48.48000 27.34300 26.41500
N  46.73800 25.25700 31.05500
C  47.02000 26.34400 31.85900
C  46.81500 26.06300 33.32500
C  46.49000 24.44800 33.29400
C  46.56000 24.16000 31.74900
C  47.29900 23.39500 34.11900
C  45.61300 26.78200 33.97900
C  45.88100 27.49100 35.32500
H  44.75400 27.53700 36.38000
N  46.32900 23.16000 28.84000
C  46.16700 22.39800 29.90800
C  45.70800 21.08500 29.47800
C  45.70900 21.09700 28.02600
C  46.01100 22.51100 27.70100
C  45.26500 20.05500 30.52000
C  45.45700 20.00400 26.95300
O  45.18500 20.15600 25.79600
C  45.36500 18.56600 27.35500
N  47.34100 25.17800 26.66600
C  46.79100 24.20600 25.92300
C  46.89600 24.55700 24.42200
C  47.58200 25.96800 24.45300
C  47.82300 26.23000 25.93100
C  47.57000 23.48000 23.44300
C  46.53000 26.92600 23.93400
C  47.05500 28.14800 23.21600
N  47.86100 26.97100 28.81900
C  48.52200 27.68200 27.84300
C  49.10400 28.86300 28.42500
C  48.74900 28.82900 29.75900
C  48.06200 27.63500 30.02900
C  49.85100 30.00400 27.68200
C  48.89200 29.56900 31.04500
O  49.43000 30.66400 31.20300
C  48.16600 28.74700 32.11400
C  49.19200 28.53800 33.18700
O  50.28400 28.05900 33.05900
O  48.74000 29.14600 34.32200
C  49.51600 28.95500 35.58500
H  46.06100 22.23200 31.95200
H  46.05100 22.32600 25.57000
H  48.93900 27.93800 25.62200
H  47.76900 26.28500 33.80400
H  45.43900 24.31700 33.54900
H  47.99900 22.85600 33.48000
H  46.69200 22.75300 34.75800
H  47.82400 24.04200 34.82200
H  44.78000 26.07900 33.97400
H  45.31700 27.56200 33.27800
H  46.09400 28.54900 35.17100
H  46.75500 27.02100 35.77600
H  45.86300 19.14500 30.55700
H  44.32900 19.60000 30.19400
H  45.01600 20.48900 31.48800
H  44.54000 18.26300 27.99900
H  46.30300 18.24700 27.81000
H  45.35600 17.83400 26.54700
H  45.86400 24.52500 24.07300
H  48.51100 25.95000 23.88300
H  47.42300 22.42200 23.66200
H  48.65700 23.56100 23.47000
H  47.21400 23.57400 22.41800
H  45.83100 27.33300 24.66500
H  45.91000 26.47200 23.16200
H  47.06100 29.04700 23.83300
H  46.40500 28.40000 22.37800
H  48.06800 27.96800 22.85500
H  49.46000 30.10900 26.67000
H  50.90900 29.74200 27.70700
H  49.72100 30.92700 28.24600
H  47.34800 29.33200 32.53400
H  48.94900 28.20800 36.14100
H  49.55600 29.93100 36.06900
H  50.50900 28.50900 35.53800
Mg -5.43100 25.58200 26.51600
C  -3.78000 26.77900 29.51700
C  -7.03700 23.22500 28.48500
C  -6.54900 24.08400 23.73900
C  -3.08500 27.18500 24.72800
N  -5.34400 25.11900 28.71300
C  -4.77800 25.84900 29.78100
C  -5.39200 25.37900 31.12500
C  -6.04500 24.05000 30.71700
C  -6.22300 24.16600 29.18300
C  -5.31800 22.76900 31.18000
C  -6.37100 26.43300 31.69300
C  -6.39300 26.63200 33.25500
H  -5.80000 25.54700 34.13700
N  -6.75400 23.94700 26.15800
C  -7.35400 23.14600 27.09600
C  -8.22900 22.15100 26.38300
C  -8.09800 22.38000 24.95600
C  -7.17000 23.58000 24.92400
C  -9.10800 21.16400 27.17400
C  -8.74300 21.61600 23.79400
O  -8.57600 21.81400 22.58800
C  -9.59700 20.43500 24.04700
N  -4.77000 25.50700 24.54800
C  -5.45600 24.87500 23.58500
C  -4.95100 25.19600 22.16100
C  -3.94200 26.35700 22.47300
C  -3.92000 26.38400 23.99500
C  -4.43900 23.95700 21.36600
C  -4.16900 27.78800 21.91300
C  -3.12300 28.48500 21.03100
N  -3.83900 26.85900 26.97000
C  -3.04900 27.44800 26.11400
C  -2.11700 28.31400 26.79200
C  -2.44900 28.13300 28.14200
C  -3.42000 27.18600 28.20200
C  -1.08800 29.23600 26.18500
C  -2.10200 28.52900 29.50300
O  -1.29200 29.39600 29.83200
C  -3.08900 27.80700 30.43400
C  -2.25200 27.08900 31.48200
O  -1.17900 26.54900 31.33800
O  -2.86400 27.15800 32.69400
C  -2.02000 26.79000 33.83900
H  -7.54600 22.53800 29.16400
H  -6.90900 23.65100 22.80400
H  -2.33400 27.81200 24.24300
H  -4.62100 25.05200 31.82200
H  -7.02400 24.00900 31.19500
H  -4.92000 22.24600 30.31000
H  -5.92300 22.13100 31.82300
H  -4.38900 22.93600 31.72600
H  -7.39800 26.27300 31.36700
H  -6.13600 27.40800 31.26700
H  -7.46100 26.63300 33.46900
H  -5.98700 27.59500 33.56900
H  -9.04500 20.14200 26.79900
H  -10.15700 21.45600 27.11600
H  -8.82500 21.04100 28.21900
H  -10.30500 20.63800 24.85200
H  -8.88000 19.68000 24.36900
H  -10.15100 20.20700 23.13600
H  -5.76100 25.61800 21.56700
H  -2.96000 26.00800 22.15300
H  -4.43300 23.04800 21.96900
H  -3.49000 24.16900 20.87300
H  -4.93900 23.89600 20.39900
H  -4.32200 28.45300 22.76400
H  -5.03900 27.65400 21.27100
H  -3.06300 29.55600 21.22200
H  -3.29600 28.41600 19.95700
H  -2.11400 28.09300 21.16500
H  -0.34800 28.62200 25.67200
H  -0.59700 29.82700 26.95800
H  -1.57400 29.90300 25.47200
H  -3.87800 28.34900 30.95500
H  -0.98700 27.12900 33.75400
H  -2.04300 25.71900 34.04200
H  -2.39100 27.43400 34.63600

