158

Mg 0.81100 7.56800 25.45000
C  1.15200 9.64900 28.31800
C  1.07200 4.98800 27.45900
C  0.72200 5.65500 22.65500
C  1.11900 10.49300 23.43800
N  1.16700 7.42200 27.73600
C  1.03700 8.30500 28.71600
C  1.04100 7.67500 30.09900
C  1.45200 6.20400 29.80000
C  1.20300 6.15100 28.20200
C  2.91900 5.85000 30.20900
C  -0.25000 7.83500 30.88100
C  -0.42700 7.83200 32.43900
H  0.76200 7.65300 33.39900
N  1.01000 5.59500 25.06900
C  0.99200 4.70400 26.07700
C  0.93900 3.39800 25.54800
C  0.73500 3.48000 24.14100
C  0.78200 4.98600 23.86700
C  1.31000 2.20400 26.34300
C  0.62600 2.37100 23.09000
O  0.47400 2.53100 21.87100
C  0.44800 0.95900 23.61000
N  0.90500 8.02900 23.39500
C  0.87400 7.03900 22.46100
C  0.72400 7.59200 21.07800
C  0.86600 9.18100 21.27400
C  1.02800 9.24000 22.78700
C  1.82700 7.05700 20.11800
C  -0.19100 10.03000 20.67200
C  -1.49600 10.05600 21.46300
N  1.03200 9.68700 25.77700
C  1.09300 10.69500 24.82500
C  1.16300 11.93500 25.52900
C  1.23600 11.61200 26.91000
C  1.06800 10.21200 27.02700
C  1.15600 13.26700 24.96300
C  1.39600 12.11500 28.27200
O  1.59200 13.27200 28.57100
C  1.16200 10.90400 29.24000
C  2.18800 10.67600 30.34100
O  3.24200 10.02500 30.20900
O  1.71400 11.27400 31.45700
C  2.53000 11.26800 32.76800
H  0.86400 4.08600 28.03800
H  0.67100 4.92400 21.84500
H  1.23100 11.35600 22.77800
H  1.78900 8.18800 30.70300
H  0.74200 5.56800 30.33000
H  3.59300 6.70600 30.21600
H  3.30400 5.15500 29.46300
H  3.02500 5.41900 31.20500
H  -0.96400 7.14200 30.43600
H  -0.53100 8.83300 30.54500
H  -1.14500 7.07800 32.76200
H  -0.87300 8.80100 32.66100
H  1.78000 1.43800 25.72600
H  0.50900 1.81600 26.97200
H  2.08000 2.41600 27.08500
H  1.38200 0.42600 23.79100
H  -0.16100 0.39600 22.90300
H  -0.18800 0.97100 24.49400
H  -0.19400 7.34100 20.54700
H  1.80000 9.54400 20.84400
H  2.26500 7.82500 19.48100
H  1.46900 6.30900 19.40900
H  2.62900 6.59300 20.69300
H  -0.34300 9.68700 19.64800
H  0.27000 11.00500 20.52100
H  -1.64500 9.31700 22.25000
H  -2.34300 9.97900 20.78100
H  -1.65600 11.04100 21.90300
H  0.32400 13.36500 24.26600
H  2.13600 13.46000 24.52700
H  0.79200 13.94900 25.73100
H  0.11700 10.95900 29.54400
H  3.45600 10.70400 32.65100
H  1.93700 10.92400 33.61500
H  2.82300 12.29900 32.96500
Mg 10.36600 47.29800 25.92000
C  8.36700 47.64300 28.80400
C  12.95900 48.48900 27.66400
C  12.17400 47.07900 23.10300
C  7.38200 46.61900 24.02900
N  10.47600 48.20900 27.87700
C  9.60400 48.18200 28.93300
C  10.23700 48.73400 30.15300
C  11.56200 49.30700 29.68800
C  11.72100 48.65100 28.30500
C  11.60700 50.85600 29.64300
C  10.58400 47.68500 31.31000
C  10.19700 48.00700 32.76400
H  10.01200 46.92000 33.81800
N  12.34700 47.55800 25.46900
C  13.26600 47.97500 26.43900
C  14.56500 47.84900 25.94300
C  14.39400 47.41600 24.56500
C  12.95900 47.26200 24.31100
C  15.84900 48.14800 26.67300
C  15.50600 47.18200 23.48200
O  15.23400 46.70000 22.38800
C  16.91800 47.53000 23.90800
N  9.81600 47.14700 23.79800
C  10.82900 47.08500 22.85500
C  10.20200 46.77300 21.52300
C  8.67600 46.52100 21.84400
C  8.57900 46.76400 23.34000
C  10.50100 47.88400 20.41000
C  8.19600 45.08500 21.57400
C  8.76000 43.99600 22.52000
N  8.22900 47.17300 26.30100
C  7.22400 46.77100 25.44200
C  6.05500 46.52400 26.30200
C  6.43700 46.86800 27.65900
C  7.81200 47.19700 27.56800
C  4.68200 46.19100 25.88100
C  6.01700 46.99200 28.98900
O  4.94800 46.71300 29.44900
C  7.32900 47.35300 29.81200
C  7.62600 46.27100 30.83100
O  8.09500 45.20000 30.58100
O  7.15200 46.59800 32.08200
C  7.08900 45.43200 32.97400
H  13.77000 48.80800 28.32200
H  12.74800 46.92800 22.18600
H  6.53400 46.25500 23.44400
H  9.63600 49.52200 30.60500
H  12.38700 49.07200 30.36000
H  10.58900 51.24500 29.66200
H  12.13200 51.29300 28.79300
H  12.09700 51.19700 30.55400
H  11.63400 47.41600 31.42400
H  10.19200 46.70100 31.05600
H  9.23800 48.52000 32.70200
H  11.03000 48.64900 33.05100
H  16.64900 47.41000 26.61800
H  15.69600 48.18100 27.75200
H  16.22100 49.10500 26.30800
H  17.19200 48.53200 24.24000
H  17.51500 47.39900 23.00600
H  17.33700 46.83100 24.63200
H  10.65400 45.83700 21.19300
H  8.00300 47.19800 21.31800
H  11.14800 48.71200 20.70000
H  9.57400 48.38300 20.13000
H  10.87600 47.40400 19.50600
H  8.51600 44.77700 20.57800
H  7.10700 45.05900 21.61700
H  7.94100 43.56400 23.09600
H  9.60600 44.43100 23.05100
H  9.13900 43.19200 21.88800
H  4.18000 47.12300 25.62300
H  4.16300 45.54300 26.58800
H  4.68000 45.67500 24.92000
H  7.11200 48.31500 30.27700
H  6.18500 44.83400 32.86000
H  7.14100 45.78300 34.00500
H  7.91400 44.75400 32.75600

