158

Mg 24.38700 -5.53900 45.77900
C  26.55500 -3.57200 43.87400
C  21.92600 -4.93700 43.40200
C  22.65900 -8.15100 46.92300
C  27.23800 -6.75100 47.52700
N  24.27800 -4.46200 43.80900
C  25.28400 -3.64100 43.31500
C  24.86600 -2.95300 42.06400
C  23.32600 -3.20800 41.96400
C  23.14100 -4.26200 43.10900
C  22.49300 -1.89400 41.91900
C  25.72200 -3.33600 40.77600
C  26.46100 -2.12000 40.24000
H  26.17300 -1.69500 38.85200
N  22.51500 -6.32700 45.33600
C  21.63400 -5.88900 44.36200
C  20.39500 -6.59400 44.42600
C  20.57200 -7.56900 45.50400
C  21.98400 -7.39200 45.97700
C  19.13200 -6.31300 43.63200
C  19.46300 -8.47000 45.97100
O  18.35000 -8.52300 45.47600
C  19.67600 -9.18400 47.31300
N  24.87200 -7.31000 46.91000
C  23.95300 -8.14400 47.36000
C  24.48200 -9.15400 48.35800
C  25.92100 -8.69200 48.63400
C  26.01100 -7.42400 47.63500
C  23.56400 -9.36600 49.57600
C  27.09400 -9.71000 48.23800
C  28.16100 -9.95000 49.40900
N  26.51300 -5.11000 45.85500
C  27.45700 -5.56700 46.70200
C  28.71100 -4.84400 46.41700
C  28.36400 -4.01500 45.29900
C  27.07200 -4.26400 44.96700
C  30.06600 -5.13700 47.07900
C  28.88400 -3.12100 44.39500
O  30.02600 -2.63000 44.27700
C  27.73000 -2.70600 43.45200
C  27.50100 -1.23900 43.67000
O  26.91900 -0.66800 44.60600
O  28.12500 -0.50200 42.64100
C  28.37300 0.96400 42.88400
H  21.08300 -4.69600 42.75100
H  22.04600 -8.95400 47.33700
H  28.03000 -7.16800 48.15300
H  24.82400 -1.88100 42.26000
H  23.05100 -3.81600 41.10200
H  21.65400 -2.05600 42.59600
H  22.12000 -1.85300 40.89500
H  23.03900 -0.96600 42.08300
H  25.05200 -3.78200 40.04200
H  26.42300 -4.13600 41.01300
H  27.52100 -2.34000 40.37200
H  26.25800 -1.21800 40.81700
H  19.44900 -5.85400 42.69600
H  18.43900 -5.62600 44.11900
H  18.52800 -7.20500 43.46900
H  18.72800 -9.56700 47.69300
H  20.14000 -8.47500 47.99900
H  20.36500 -10.02500 47.24400
H  24.52100 -10.15400 47.92400
H  25.95200 -8.25500 49.63200
H  23.25300 -10.40900 49.64900
H  22.78300 -8.60600 49.60200
H  24.19400 -9.30400 50.46300
H  27.54400 -9.48600 47.27100
H  26.50200 -10.62200 48.15300
H  27.84400 -9.45200 50.32500
H  29.09300 -9.50600 49.06000
H  28.22000 -11.02400 49.58700
H  29.92100 -4.93100 48.14000
H  30.87400 -4.49700 46.72600
H  30.36700 -6.18100 46.99100
H  28.00800 -2.97300 42.43300
H  28.70900 1.30900 41.90600
H  29.22100 1.04000 43.56600
H  27.60500 1.63200 43.27500
Mg 26.46600 0.88800 29.27200
C  28.34700 0.33900 32.06400
C  23.61700 1.04800 31.30900
C  24.70500 1.36900 26.53000
C  29.26000 -0.11300 27.23400
N  25.96000 0.57700 31.44900
C  27.01600 0.53600 32.35300
C  26.43500 0.58700 33.81900
C  24.91300 0.55200 33.56800
C  24.82300 0.77000 32.04800
C  24.07800 -0.59000 34.11300
C  26.96800 1.78900 34.60200
C  27.57600 1.51900 35.97900
H  27.04400 2.46700 37.01600
N  24.48600 1.12600 28.94100
C  23.46700 1.21200 29.85300
C  22.21100 1.47300 29.21800
C  22.46600 1.49800 27.82900
C  23.95900 1.31800 27.70400
C  20.90400 1.60700 30.01200
C  21.55900 1.63700 26.60200
O  21.86900 1.66300 25.40800
C  20.04300 1.57100 26.82300
N  26.88100 0.56200 27.10400
C  26.01100 1.00100 26.22800
C  26.62300 1.07700 24.84200
C  28.09800 0.62000 25.02000
C  28.12800 0.33400 26.51900
C  25.92000 0.31500 23.73800
C  29.12600 1.68400 24.65400
C  30.38200 1.21400 24.08700
N  28.43600 0.31100 29.58300
C  29.44400 -0.12100 28.71000
C  30.60200 -0.50500 29.42000
C  30.35600 -0.19500 30.79400
C  28.92800 0.17700 30.83300
C  31.76800 -1.14600 28.71000
C  30.78600 -0.22100 32.21800
O  31.81400 -0.58100 32.78800
C  29.47000 0.10500 33.03700
C  29.29400 -1.06700 33.95600
O  28.95500 -2.19900 33.57000
O  29.67600 -0.65000 35.18400
C  29.92100 -1.69400 36.16400
H  22.89300 1.31200 32.08200
H  24.31700 1.81900 25.61400
H  30.02500 -0.48200 26.54700
H  26.63100 -0.41300 34.20400
H  24.52800 1.50900 33.92000
H  23.49400 -0.13500 34.91300
H  24.74800 -1.26800 34.64300
H  23.48400 -1.13500 33.37900
H  26.15100 2.50800 34.66400
H  27.70800 2.29500 33.98400
H  28.65000 1.63500 35.83500
H  27.45200 0.49100 36.31800
H  20.50100 2.51200 29.55800
H  20.91200 1.89100 31.06500
H  20.34200 0.67700 29.92900
H  19.87100 0.74300 27.51100
H  19.55700 1.18700 25.92600
H  19.67000 2.47700 27.30000
H  26.55800 2.15200 24.67500
H  28.27200 -0.30400 24.46800
H  24.98800 -0.18100 24.00800
H  26.63200 -0.24300 23.13000
H  25.57000 1.10600 23.07400
H  29.41000 2.19100 25.57600
H  28.63900 2.48400 24.09600
H  30.22500 0.21900 23.67200
H  31.13500 1.03900 24.85600
H  30.75200 1.86600 23.29600
H  32.64900 -1.06000 29.34500
H  31.89900 -0.69900 27.72400
H  31.65900 -2.20000 28.45200
H  29.55000 1.01700 33.62900
H  29.73400 -2.72800 35.87500
H  29.26600 -1.49900 37.01300
H  30.94400 -1.57200 36.51900

