158

Mg 46.94900 15.47900 28.01100
C  45.17400 15.61200 30.94100
C  49.40900 17.39900 29.38500
C  48.51500 15.37000 25.04000
C  44.09100 13.82700 26.41200
N  47.37400 16.16300 30.08300
C  46.41800 16.23100 31.06000
C  47.13800 16.82400 32.30200
C  48.25400 17.58900 31.64300
C  48.33300 17.04800 30.25800
C  48.00900 19.17400 31.68700
C  47.62400 15.79000 33.32900
C  46.90100 15.81400 34.72100
H  47.79300 15.50600 35.97700
N  48.82000 16.15400 27.37000
C  49.68600 16.89000 28.08800
C  50.91200 17.04800 27.38400
C  50.75300 16.43400 26.09200
C  49.31300 15.96500 26.09300
C  52.08500 17.70800 27.97800
C  51.65100 16.38000 24.93500
O  51.34300 15.77800 23.90300
C  52.97600 16.93400 25.03800
N  46.31700 14.78100 26.06500
C  47.18800 14.79400 24.98200
C  46.50400 14.24300 23.62600
C  45.37800 13.37100 24.26200
C  45.22000 14.10400 25.63200
C  45.97100 15.33600 22.63500
C  45.54800 11.82200 24.28700
C  46.96000 11.29700 24.69500
N  44.99600 14.88400 28.53500
C  44.03200 14.18600 27.79100
C  42.96500 13.86600 28.64800
C  43.30400 14.42900 29.92600
C  44.60700 14.98500 29.79400
C  41.78800 13.04000 28.38600
C  42.94000 14.56000 31.28800
O  41.90900 14.24800 31.85800
C  44.20600 15.25900 32.01900
C  43.63300 16.46300 32.66700
O  43.55300 17.57600 32.13700
O  43.18000 16.16900 33.97600
C  42.40400 17.07200 34.79300
H  50.15700 18.07800 29.79800
H  49.00800 15.24900 24.07300
H  43.22800 13.36900 25.92500
H  46.41800 17.56100 32.65800
H  49.19900 17.52900 32.18100
H  48.92800 19.55400 32.13200
H  47.15700 19.38000 32.33600
H  47.96400 19.64200 30.70400
H  48.70200 15.89900 33.44600
H  47.60500 14.77200 32.93900
H  46.21400 14.96800 34.74400
H  46.32600 16.72300 34.89500
H  51.96400 17.87400 29.04800
H  52.30500 18.65300 27.48000
H  52.96500 17.07100 27.89100
H  53.47700 17.08100 24.08100
H  53.45100 16.18200 25.66700
H  52.94900 17.92600 25.48900
H  47.23000 13.71900 23.00500
H  44.38900 13.45300 23.81200
H  46.61800 15.40200 21.76000
H  46.04500 16.30000 23.13900
H  44.95800 15.08900 22.31800
H  45.20400 11.20100 23.46000
H  44.90000 11.49800 25.10100
H  47.63000 12.15300 24.77700
H  47.26600 10.60300 23.91200
H  46.95700 10.72300 25.62200
H  42.03900 12.09000 27.91400
H  41.11400 13.59100 27.73100
H  41.43700 12.69700 29.35900
H  44.61100 14.57300 32.76200
H  42.42600 18.02100 34.25800
H  42.80200 17.10400 35.80800
H  41.37800 16.70300 34.77200
Mg -5.51800 25.58600 27.05000
C  -3.91400 27.05700 29.84900
C  -7.13000 23.47200 29.16000
C  -6.51300 24.01700 24.32100
C  -3.40200 27.49800 25.03500
N  -5.41900 25.26100 29.26500
C  -4.80900 26.09500 30.23600
C  -5.32300 25.79400 31.69000
C  -6.23700 24.52000 31.41200
C  -6.30200 24.39600 29.84000
C  -5.75400 23.19700 32.01200
C  -6.08600 26.96300 32.34200
C  -6.20800 26.99000 33.89600
H  -5.82800 25.81100 34.75100
N  -6.67100 23.97700 26.73900
C  -7.24600 23.28800 27.75200
C  -8.02100 22.19700 27.14400
C  -7.82000 22.27700 25.76500
C  -6.93300 23.42600 25.54300
C  -8.83400 21.24600 28.03000
C  -8.27800 21.30000 24.71900
O  -8.10200 21.41500 23.51000
C  -9.07400 20.12500 25.14000
N  -5.07700 25.75100 24.99300
C  -5.73800 25.11100 24.07200
C  -5.39400 25.54000 22.72300
C  -4.52900 26.78900 22.93800
C  -4.28200 26.63100 24.37500
C  -4.57200 24.39600 21.93500
C  -5.28200 28.12200 22.60100
C  -4.93400 28.66000 21.27600
N  -4.04000 27.05700 27.33000
C  -3.24000 27.71600 26.40100
C  -2.28100 28.50700 27.09700
C  -2.54900 28.29100 28.46300
C  -3.59900 27.43700 28.55900
C  -1.28900 29.46600 26.39600
C  -2.16500 28.68700 29.86200
O  -1.25600 29.42700 30.20000
C  -3.05300 27.96400 30.75700
C  -2.32800 27.14500 31.72700
O  -1.58900 26.20300 31.43100
O  -2.64900 27.44200 33.02800
C  -1.89800 26.74800 34.07200
H  -7.72200 22.96500 29.92500
H  -7.12900 23.60000 23.52100
H  -2.74200 28.08700 24.39500
H  -4.45600 25.62600 32.32800
H  -7.22500 24.63400 31.85800
H  -4.72900 23.33000 32.35700
H  -5.81300 22.27800 31.42900
H  -6.52400 22.97700 32.75100
H  -7.06900 26.99500 31.87200
H  -5.57500 27.88700 32.06800
H  -7.23000 27.14900 34.23900
H  -5.55800 27.83000 34.14100
H  -8.40900 20.27300 28.27800
H  -9.80300 21.09500 27.55600
H  -9.04700 21.74500 28.97500
H  -9.20800 19.48700 24.26700
H  -9.98300 20.47500 25.62900
H  -8.57800 19.49800 25.88200
H  -6.28600 25.83600 22.17100
H  -3.63600 26.80200 22.31400
H  -4.49300 23.55000 22.61700
H  -3.53200 24.67100 21.76100
H  -5.03900 23.98500 21.03900
H  -4.94300 28.86600 23.32100
H  -6.36000 28.01000 22.71800
H  -4.04200 28.23400 20.81600
H  -4.91400 29.74800 21.22100
H  -5.73100 28.43000 20.56900
H  -1.69700 29.99500 25.53500
H  -0.45000 28.85000 26.07400
H  -0.91500 30.20400 27.10600
H  -3.62400 28.79100 31.17900
H  -2.41300 25.78800 34.06100
H  -1.97300 27.31000 35.00300
H  -0.84000 26.58000 33.86900

