158

Mg 16.22900 -1.66700 27.78100
C  15.20700 0.54400 30.23000
C  18.18000 -3.34400 29.98500
C  17.73200 -3.13700 25.13000
C  14.43700 0.30900 25.38900
N  16.76700 -1.30300 29.81300
C  16.12400 -0.42700 30.70100
C  16.59600 -0.62800 32.13900
C  17.51700 -1.89600 32.10000
C  17.49400 -2.24000 30.55200
C  18.93300 -1.76200 32.57300
C  15.46700 -0.80800 33.25700
C  15.71000 -0.29400 34.65400
H  17.13700 0.28100 34.96000
N  17.66600 -2.98800 27.53100
C  18.27700 -3.68600 28.60000
C  19.21100 -4.64100 28.05500
C  19.07100 -4.62800 26.66200
C  18.14400 -3.54800 26.38000
C  20.04800 -5.49700 28.97300
C  19.77300 -5.43000 25.62400
O  19.56500 -5.32800 24.40600
C  20.84800 -6.42300 26.02300
N  16.13400 -1.42000 25.51500
C  16.85600 -2.16900 24.65100
C  16.51600 -1.88600 23.12100
C  15.36900 -0.78000 23.40000
C  15.21200 -0.71900 24.87000
C  17.66700 -1.27900 22.30400
C  13.96000 -1.00200 22.65100
C  13.52300 -0.07300 21.52200
N  14.95000 -0.03800 27.75100
C  14.23900 0.54400 26.77500
C  13.34400 1.49300 27.31900
C  13.63100 1.50000 28.64600
C  14.66200 0.63500 28.89900
C  12.39300 2.45400 26.55400
C  13.28600 2.21300 29.84700
O  12.47300 3.10600 30.06800
C  14.26200 1.55300 30.97000
C  14.97800 2.65200 31.61600
O  15.71300 3.44300 31.10000
O  14.48300 2.85700 32.90000
C  14.79100 4.14600 33.47900
H  18.53600 -3.98600 30.79400
H  18.16700 -3.62900 24.25800
H  13.77400 0.77000 24.65400
H  17.24100 0.22900 32.33400
H  17.16900 -2.75600 32.67400
H  19.50000 -1.07700 31.94400
H  19.43800 -2.71700 32.71900
H  18.68100 -1.40700 33.57200
H  15.22100 -1.86900 33.30200
H  14.57600 -0.27600 32.92500
H  15.49500 -1.02800 35.43100
H  14.98200 0.51700 34.68600
H  19.60500 -5.52400 29.96800
H  21.04900 -5.06900 29.02200
H  20.06000 -6.51700 28.58900
H  20.51100 -7.23900 26.66200
H  21.65300 -5.89200 26.53100
H  21.18600 -6.81700 25.06400
H  15.98800 -2.65800 22.56200
H  15.71700 0.19300 23.05300
H  18.56300 -1.42000 22.90900
H  17.63400 -0.21000 22.09200
H  17.82100 -1.79600 21.35800
H  13.20600 -1.02100 23.43800
H  14.00100 -2.00200 22.21800
H  14.31100 0.67800 21.45100
H  12.60500 0.45900 21.77100
H  13.34100 -0.65700 20.62000
H  11.58200 1.84500 26.15400
H  12.96100 2.94000 25.76200
H  11.98200 3.24500 27.18200
H  13.58700 1.08900 31.68800
H  14.31300 4.95500 32.92600
H  15.86800 4.27300 33.37600
H  14.43700 4.22800 34.50700
Mg -12.41700 39.11500 41.28800
C  -10.33400 36.33300 40.57400
C  -10.28100 41.07100 39.66500
C  -14.88300 41.59100 41.23000
C  -14.86800 36.78800 42.49700
N  -10.41600 38.79300 40.45500
C  -9.81800 37.56300 40.10200
C  -8.57200 37.66800 39.18900
C  -8.54900 39.23600 38.92900
C  -9.83500 39.74400 39.74000
C  -7.23200 39.95100 39.29600
C  -8.50100 36.77900 37.92700
C  -7.61300 35.51100 37.82500
H  -6.44300 35.67200 36.92500
N  -12.43300 41.13300 40.80900
C  -11.35700 41.76000 40.21700
C  -11.63500 43.13200 40.02600
C  -13.01800 43.33900 40.32900
C  -13.55100 41.99600 40.83100
C  -10.70500 44.19400 39.45800
C  -13.79000 44.66100 40.31000
O  -13.27100 45.65300 39.81600
C  -15.11500 44.80600 40.99800
N  -14.57000 39.15800 41.79400
C  -15.30700 40.36300 41.76400
C  -16.67500 40.14500 42.34000
C  -16.70000 38.60600 42.57700
C  -15.30900 38.11500 42.30600
C  -17.08100 41.03200 43.49000
C  -17.76700 37.85100 41.75900
C  -19.01800 37.66000 42.57000
N  -12.66300 36.96100 41.34900
C  -13.62600 36.21500 42.10200
C  -13.17500 34.87000 42.21600
C  -11.95100 34.83600 41.59600
C  -11.66300 36.15300 41.15600
C  -13.84200 33.67000 42.90900
C  -10.79300 34.06700 41.27100
O  -10.62600 32.83600 41.46300
C  -9.71700 34.94500 40.56400
C  -8.38300 34.84900 41.29700
O  -7.45200 34.07500 40.96000
O  -8.16400 35.82600 42.26000
C  -6.71400 36.03100 42.49200
H  -9.73800 41.63300 38.90200
H  -15.69100 42.32200 41.29300
H  -15.59400 36.12800 42.97700
H  -7.74700 37.34500 39.82300
H  -8.85800 39.48700 37.91400
H  -6.40700 39.24900 39.17100
H  -7.29300 40.10100 40.37400
H  -7.12400 40.90500 38.78100
H  -8.12200 37.42900 37.13800
H  -9.51600 36.60900 37.56800
H  -8.13700 34.57700 37.62600
H  -7.22100 35.22700 38.80200
H  -9.73300 43.76800 39.20900
H  -10.72300 44.99400 40.19900
H  -11.13200 44.48700 38.49900
H  -15.79100 44.64200 40.15900
H  -15.31500 45.77000 41.46600
H  -15.13800 44.13500 41.85700
H  -17.39300 40.28200 41.53100
H  -16.76700 38.45100 43.65400
H  -17.51200 40.43900 44.29600
H  -17.84600 41.76200 43.22500
H  -16.19300 41.54100 43.86600
H  -17.45300 36.80800 41.71800
H  -17.99200 38.37500 40.83000
H  -19.05800 38.50900 43.25200
H  -18.85100 36.72300 43.10000
H  -19.92500 37.73500 41.97000
H  -13.10000 32.96600 43.28500
H  -14.52500 33.32300 42.13400
H  -14.48700 33.95000 43.74200
H  -9.74500 34.55600 39.54600
H  -6.14200 36.28300 41.59900
H  -6.44600 35.18500 43.12600
H  -6.52600 36.90100 43.12000

