158

Mg 1.97900 -0.93500 43.59600
C  5.43100 -0.32700 43.02000
C  1.31900 1.89600 41.83700
C  -1.22000 -1.96700 43.15500
C  2.98200 -4.09100 44.84100
N  3.30900 0.53500 42.48500
C  4.67200 0.64200 42.46500
C  4.98200 1.92400 41.77000
C  3.66300 2.81900 41.81500
C  2.68300 1.66400 42.02700
C  3.66100 3.90000 42.86600
C  5.40500 1.66300 40.24400
C  6.78500 2.19400 39.76700
H  6.85100 2.76000 38.31700
N  0.25100 -0.09500 42.75500
C  0.14300 1.10800 42.06800
C  -1.24400 1.38600 41.72400
C  -1.95400 0.27300 42.14100
C  -0.97500 -0.67700 42.75900
C  -1.71300 2.76400 41.13700
C  -3.43400 0.13200 41.78900
O  -4.14400 1.05900 41.49700
C  -4.19600 -1.18600 41.89600
N  1.02100 -2.76200 43.93300
C  -0.32600 -2.91800 43.72300
C  -0.80700 -4.30500 44.21600
C  0.44600 -4.95100 44.80400
C  1.60600 -3.86700 44.49100
C  -2.01200 -4.25200 45.19600
C  0.80000 -6.37900 44.39900
C  1.14100 -7.38300 45.50100
N  3.84100 -1.96800 43.99100
C  4.00800 -3.22600 44.56200
C  5.44400 -3.40600 44.67400
C  6.02400 -2.29800 44.11500
C  4.99000 -1.44300 43.73700
C  6.09700 -4.63600 45.16100
C  7.28500 -1.66800 43.69500
O  8.39200 -2.15300 43.80800
C  6.91200 -0.34300 43.04800
C  7.48000 0.72000 43.82700
O  6.89000 1.33700 44.74300
O  8.66800 1.13400 43.21600
C  9.17000 2.44200 43.83400
H  1.07800 2.91100 41.51500
H  -2.27700 -2.22900 43.08300
H  3.28900 -5.07300 45.20900
H  5.76100 2.44100 42.33100
H  3.53500 3.30900 40.85000
H  3.63100 4.89100 42.41300
H  4.48600 3.79500 43.57000
H  2.70200 4.01300 43.37100
H  4.73300 2.09800 39.50400
H  5.32800 0.59200 40.05700
H  7.54000 1.42000 39.90100
H  6.96300 3.01000 40.46900
H  -2.48800 2.57200 40.39500
H  -0.90400 3.40100 40.77900
H  -2.08000 3.40500 41.93800
H  -5.09800 -1.03800 41.30300
H  -4.36300 -1.44000 42.94300
H  -3.62200 -2.03100 41.51600
H  -1.17800 -4.83600 43.33900
H  0.32600 -5.01200 45.88500
H  -2.94400 -4.59000 44.74500
H  -2.13700 -3.23500 45.56600
H  -1.76100 -4.90300 46.03400
H  1.57000 -6.43200 43.63000
H  -0.06600 -6.85900 43.94300
H  0.44200 -8.21600 45.58000
H  1.28300 -6.93700 46.48500
H  2.08500 -7.83300 45.19500
H  7.11700 -4.41200 45.47500
H  6.24000 -5.31700 44.32300
H  5.59200 -5.27300 45.88700
H  7.39000 -0.36800 42.06900
H  9.43800 2.30400 44.88200
H  8.61000 3.36700 43.69600
H  10.06700 2.66200 43.25500
Mg -10.43600 39.73400 41.60900
C  -9.55600 36.54700 40.63700
C  -7.33900 40.89100 40.38100
C  -11.45500 42.88200 41.95600
C  -13.62900 38.63500 42.35000
N  -8.64800 38.81700 40.60700
C  -8.52300 37.43300 40.30800
C  -7.14100 37.10000 39.69200
C  -6.52200 38.48000 39.68000
C  -7.55900 39.44900 40.25800
C  -5.05200 38.64400 40.12900
C  -7.11500 36.36000 38.35100
C  -5.96500 35.48000 37.94600
H  -4.95600 36.01800 36.88500
N  -9.44400 41.63300 41.31300
C  -8.22000 41.91200 40.82900
C  -8.02900 43.32800 40.87300
C  -9.17300 43.93100 41.29400
C  -10.10500 42.77800 41.57400
C  -6.68000 43.91700 40.43800
C  -9.49400 45.37000 41.44100
O  -8.62800 46.21700 41.30300
C  -10.78100 46.06700 41.76600
N  -12.36700 40.59900 41.77000
C  -12.46800 41.94500 42.02400
C  -13.94100 42.37700 42.30200
C  -14.64600 40.98800 42.49900
C  -13.52200 39.99700 42.18500
C  -14.21800 43.43200 43.35800
C  -15.95900 40.66200 41.64000
C  -17.23800 40.54300 42.44100
N  -11.32900 37.96000 41.72300
C  -12.62400 37.65400 42.08400
C  -12.81100 36.16600 42.02500
C  -11.62300 35.74800 41.43100
C  -10.78100 36.83300 41.31700
C  -14.06300 35.35400 42.26500
C  -10.92000 34.54000 40.93800
O  -11.28000 33.41900 40.95200
C  -9.53800 35.06600 40.41500
C  -8.42600 34.28300 41.08900
O  -7.98600 34.42500 42.24500
O  -7.99800 33.33000 40.26000
C  -7.16300 32.21100 40.65800
H  -6.32500 41.08300 40.02400
H  -11.72200 43.86800 42.34300
H  -14.56000 38.22400 42.74600
H  -6.63300 36.48900 40.43800
H  -6.36300 38.82100 38.65700
H  -4.58600 39.31500 39.40700
H  -4.54200 37.68400 40.21100
H  -5.03000 39.06200 41.13600
H  -7.11500 37.17400 37.62500
H  -8.08000 35.88300 38.18000
H  -6.28500 34.50900 37.56900
H  -5.42600 35.16700 38.84100
H  -5.88100 43.22500 40.70400
H  -6.27400 44.82900 40.87600
H  -6.61900 44.08600 39.36300
H  -11.52500 45.66200 41.08000
H  -10.76100 47.14700 41.62000
H  -11.05500 45.89900 42.80700
H  -14.37500 42.80000 41.39600
H  -14.82900 40.91000 43.57000
H  -14.65400 42.96700 44.24200
H  -14.89700 44.20900 43.00700
H  -13.38400 43.93700 43.84500
H  -15.73200 39.71000 41.16000
H  -15.94800 41.45100 40.88700
H  -18.02300 41.09300 41.92300
H  -17.06600 40.92800 43.44600
H  -17.55000 39.50100 42.51100
H  -14.68200 35.43100 41.37100
H  -14.55000 35.72800 43.16600
H  -13.87900 34.29200 42.42600
H  -9.64700 34.75800 39.37500
H  -7.65100 31.27400 40.38800
H  -6.86300 32.27900 41.70300
H  -6.25500 32.28800 40.05900

