158

Mg 16.86400 52.27000 26.84800
C  19.06900 50.95500 29.34800
C  14.91600 53.50100 29.34500
C  14.85900 53.58900 24.43200
C  19.04700 51.18900 24.40000
N  16.97600 52.14000 28.98800
C  17.94400 51.56800 29.79300
C  17.61800 51.88100 31.26500
C  16.11000 52.21700 31.20500
C  15.98500 52.70700 29.75500
C  15.10300 51.03900 31.39900
C  18.51900 52.94600 31.93000
C  19.02200 52.86300 33.36600
H  18.18300 52.15900 34.38000
N  15.10700 53.37900 26.87700
C  14.46800 53.76500 28.04500
C  13.28800 54.53600 27.72300
C  13.27500 54.58800 26.26800
C  14.39400 53.79100 25.78500
C  12.36700 55.15300 28.73400
C  12.26600 55.34800 25.42400
O  12.34100 55.43500 24.21400
C  11.14600 56.11700 26.04000
N  16.87000 52.11000 24.69800
C  15.89500 52.78300 23.93900
C  16.12600 52.50600 22.43000
C  17.54100 51.92000 22.44600
C  17.89700 51.75900 23.94900
C  15.03600 51.65000 21.80300
C  18.59600 52.70700 21.60200
C  19.15400 54.02200 22.16600
N  18.61800 51.12200 26.92100
C  19.43900 50.83700 25.78700
C  20.62900 50.15500 26.30900
C  20.50200 50.13900 27.69900
C  19.30500 50.77200 28.01100
C  21.79800 49.87600 25.50500
C  21.19600 49.86400 28.99800
O  22.26100 49.31200 29.27400
C  20.23100 50.38900 30.06400
C  19.86200 49.48800 31.12400
O  19.11600 48.51000 30.94900
O  20.28900 49.84200 32.31400
C  20.30700 48.86100 33.46400
H  14.23600 53.74200 30.16600
H  14.29500 54.08400 23.63900
H  19.76700 50.84600 23.65400
H  17.66200 50.96000 31.84600
H  16.07600 53.04100 31.91700
H  14.37700 50.91100 30.59600
H  14.53000 51.25100 32.30100
H  15.57600 50.06500 31.52600
H  18.04000 53.92200 31.85400
H  19.44000 53.01000 31.35200
H  19.13200 53.82700 33.86200
H  20.02100 52.42900 33.40300
H  12.11000 56.15200 28.38000
H  12.79100 55.21800 29.73600
H  11.46100 54.54600 28.75200
H  10.43200 56.47800 25.29900
H  11.62200 56.94200 26.56900
H  10.65600 55.42700 26.72700
H  16.20900 53.48100 21.95100
H  17.56400 50.88600 22.10100
H  14.66800 51.99200 20.83600
H  14.14200 51.67600 22.42600
H  15.38800 50.62200 21.71900
H  18.22000 53.15300 20.68100
H  19.36000 51.98200 21.32200
H  18.95700 54.79600 21.42300
H  20.22100 54.01100 22.39000
H  18.65000 54.31000 23.08800
H  22.66700 50.12500 26.11300
H  21.78300 50.41800 24.55900
H  21.89000 48.83600 25.19100
H  20.72700 51.19900 30.59700
H  19.27200 48.76300 33.79200
H  20.99600 49.13700 34.26300
H  20.54000 47.87800 33.05600
Mg -5.06100 25.14300 26.33100
C  -4.07700 26.62500 29.29100
C  -7.24000 23.08100 28.06300
C  -6.24500 24.08400 23.39700
C  -2.90600 27.34600 24.51400
N  -5.55400 24.86200 28.46300
C  -5.03600 25.63000 29.46200
C  -5.65400 25.15000 30.81600
C  -6.39700 23.83500 30.43900
C  -6.36900 23.86600 28.89100
C  -5.75600 22.52700 31.05700
C  -6.43000 26.26400 31.51800
C  -6.08700 26.60800 32.96900
H  -5.76400 25.38400 33.94200
N  -6.45300 23.72700 25.83500
C  -7.31500 23.07500 26.65500
C  -8.27200 22.36300 25.88200
C  -8.02100 22.56500 24.53800
C  -6.94400 23.52900 24.52000
C  -9.35700 21.43400 26.45900
C  -8.57900 21.89500 23.28200
O  -8.18800 22.21900 22.14400
C  -9.69000 20.87000 23.35400
N  -4.37600 25.42200 24.20200
C  -5.19100 24.99700 23.26000
C  -4.62400 25.40400 21.92700
C  -3.64500 26.58500 22.21300
C  -3.61500 26.41600 23.70000
C  -3.84500 24.17700 21.28800
C  -4.23000 28.09700 21.84600
C  -3.31700 28.84700 20.87800
N  -3.70700 26.59200 26.77100
C  -2.91300 27.39900 25.94600
C  -2.16500 28.36400 26.78200
C  -2.58200 27.96800 28.10600
C  -3.51500 26.95000 28.01400
C  -1.16800 29.35900 26.33000
C  -2.44800 28.32500 29.56300
O  -1.74400 29.19800 30.08100
C  -3.37800 27.42100 30.31700
C  -2.53600 26.56200 31.14400
O  -1.85900 25.60900 30.77000
O  -2.56200 27.01100 32.46800
C  -1.79900 26.32800 33.42600
H  -8.03300 22.57100 28.61500
H  -6.59200 23.83800 22.39100
H  -2.31600 28.06400 23.94200
H  -4.80300 24.90900 31.45300
H  -7.44700 23.85100 30.73100
H  -5.04500 22.72100 31.86100
H  -5.18200 22.03200 30.27300
H  -6.57500 21.87900 31.36700
H  -7.48700 25.99800 31.53100
H  -6.28100 27.17700 30.94200
H  -6.95700 27.08400 33.42000
H  -5.26800 27.30900 33.12900
H  -10.27100 21.33400 25.87300
H  -9.75700 21.65100 27.45000
H  -9.01900 20.39900 26.50400
H  -10.61700 21.28900 23.74600
H  -9.36900 20.10300 24.05900
H  -9.80300 20.56700 22.31300
H  -5.46600 25.73600 21.31900
H  -2.74300 26.39000 21.63400
H  -4.47200 23.30600 21.47900
H  -2.90900 23.97500 21.81100
H  -3.72500 24.41100 20.23100
H  -4.37200 28.69500 22.74600
H  -5.18000 27.95700 21.32900
H  -3.08300 29.76300 21.42000
H  -3.85400 29.07700 19.95800
H  -2.39300 28.29200 20.71800
H  -0.25100 28.94200 25.91500
H  -0.87500 29.94200 27.20300
H  -1.64500 30.06500 25.64900
H  -4.04600 27.92800 31.01300
H  -0.80500 26.69400 33.16600
H  -1.85200 25.24900 33.28700
H  -1.86600 26.48200 34.50300

