158

Mg -1.45000 18.95100 27.52100
C  -2.15500 16.49700 30.12800
C  -2.04700 21.39300 29.72700
C  -1.49000 20.79300 24.94000
C  -1.58600 15.99700 25.28600
N  -1.95100 18.88400 29.69900
C  -2.17700 17.84000 30.57500
C  -2.38700 18.29500 31.98100
C  -2.41000 19.80500 31.75700
C  -2.05900 20.08600 30.27700
C  -3.74100 20.54600 32.04400
C  -1.38500 17.75100 33.03500
C  -0.98400 18.69000 34.23600
H  -0.79200 18.05400 35.57500
N  -1.59500 20.86900 27.42600
C  -1.87000 21.75100 28.41100
C  -1.79500 23.10800 27.82300
C  -1.54900 22.95000 26.37100
C  -1.63400 21.44900 26.18300
C  -1.89400 24.33400 28.66600
C  -1.23600 23.98900 25.33600
O  -1.05200 23.75900 24.14600
C  -1.39700 25.45700 25.69100
N  -1.52200 18.40900 25.43800
C  -1.36200 19.40600 24.52900
C  -1.29900 18.89000 23.08400
C  -1.21300 17.37500 23.33300
C  -1.45800 17.24600 24.78900
C  -2.66500 19.22800 22.33900
C  0.06000 16.77500 22.78700
C  1.31500 17.24800 23.51400
N  -1.77000 16.73700 27.65700
C  -1.81000 15.67400 26.68000
C  -1.99400 14.41300 27.32600
C  -2.06200 14.71100 28.66400
C  -2.00600 16.12000 28.82200
C  -2.08400 13.09100 26.65800
C  -2.28600 14.07400 29.89100
O  -2.50600 12.91400 30.21900
C  -2.23600 15.26400 30.97500
C  -1.18900 14.95200 31.90300
O  -0.02200 15.14900 31.63600
O  -1.66700 14.48000 33.04000
C  -0.74900 14.02300 34.09800
H  -2.42900 22.15100 30.41400
H  -1.45800 21.44600 24.06600
H  -1.49600 15.17000 24.57900
H  -3.40300 17.95900 32.19300
H  -1.61100 20.36800 32.24000
H  -4.17000 20.92500 31.11600
H  -3.53900 21.36800 32.73100
H  -4.41600 19.88700 32.59000
H  -0.47200 17.47000 32.51000
H  -1.79400 16.84100 33.47300
H  -1.71500 19.48300 34.39200
H  -0.03500 19.22200 34.17700
H  -1.00300 24.26800 29.29000
H  -2.82500 24.41900 29.22600
H  -1.72000 25.32800 28.25500
H  -2.35100 25.71600 26.15000
H  -1.31800 25.99300 24.74500
H  -0.54700 25.84200 26.25400
H  -0.36000 19.29100 22.70100
H  -2.02700 16.78100 22.91600
H  -3.19200 19.91200 23.00500
H  -3.28100 18.45000 21.88900
H  -2.35800 19.76500 21.44100
H  0.08300 17.12100 21.75300
H  0.04500 15.68600 22.73100
H  1.08600 17.52300 24.54400
H  1.80600 18.10000 23.04400
H  1.97300 16.38000 23.55500
H  -1.83500 13.12600 25.59700
H  -3.10100 12.71400 26.76400
H  -1.39700 12.38200 27.11900
H  -3.18200 15.27400 31.51600
H  -0.90700 12.94500 34.12500
H  -1.18700 14.41000 35.01800
H  0.30000 14.32200 34.08700
Mg 5.51200 52.91200 41.10100
C  4.87100 49.43700 40.80900
C  8.55300 52.35000 39.61700
C  5.69000 56.17700 40.63300
C  2.08800 53.31200 41.96900
N  6.57600 51.06400 40.33300
C  6.11000 49.77600 40.27100
C  7.17300 48.86100 39.56200
C  8.49000 49.77300 39.62900
C  7.82100 51.16700 39.94900
C  9.37900 49.36600 40.86400
C  6.82000 48.47000 38.12800
C  5.85200 49.40400 37.36900
H  6.57600 50.41200 36.39000
N  6.96100 54.07900 40.33600
C  8.08200 53.67600 39.63900
C  8.86500 54.82000 39.28400
C  8.10800 55.93100 39.67100
C  6.84200 55.39000 40.22800
C  10.21900 54.72200 38.76500
C  8.47600 57.40500 39.48500
O  9.52200 57.74800 38.97400
C  7.56900 58.53500 39.88200
N  4.02700 54.46900 41.19200
C  4.44300 55.79200 41.13200
C  3.23300 56.77500 41.27300
C  2.01300 55.86600 41.54700
C  2.72700 54.43200 41.57100
C  3.54700 57.64200 42.55200
C  0.97600 55.88200 40.37000
C  0.08700 57.14800 40.40100
N  3.88800 51.74300 41.51300
C  2.60600 52.00200 41.95600
C  1.95000 50.81000 42.38500
C  2.82100 49.74900 41.95400
C  3.95900 50.35600 41.34400
C  0.61300 50.75800 43.21900
C  2.93500 48.35000 41.81600
O  2.12500 47.57300 42.21400
C  4.28400 48.05100 41.12300
C  4.01400 47.15600 39.95100
O  3.35700 47.44000 38.93900
O  4.52400 45.88300 40.18500
C  3.79600 44.86500 39.42400
H  9.56000 52.16200 39.23600
H  5.68500 57.26200 40.51100
H  1.12000 53.51700 42.43000
H  7.34000 47.92000 40.08600
H  9.13400 49.74200 38.75000
H  9.07300 48.37400 41.19600
H  9.35300 50.12900 41.64100
H  10.41100 49.26500 40.52700
H  6.29400 47.51900 38.21700
H  7.68200 48.26200 37.49400
H  5.20400 50.04100 37.97200
H  5.16500 48.77700 36.80100
H  10.35500 54.42900 37.72400
H  10.71500 53.93100 39.32800
H  10.80600 55.62100 38.95300
H  8.18400 59.42500 39.74800
H  7.44900 58.49900 40.96500
H  6.71900 58.61900 39.20400
H  3.23200 57.32800 40.33400
H  1.54100 56.05300 42.51100
H  4.43400 57.26300 43.05900
H  2.72600 57.62500 43.26800
H  3.78700 58.68600 42.35000
H  0.38200 54.99000 40.57000
H  1.31500 55.85000 39.33500
H  0.03400 57.50400 39.37200
H  0.55900 57.83900 41.09800
H  -0.94500 56.88700 40.63700
H  -0.13400 50.07200 42.82000
H  0.15000 51.74500 43.21900
H  0.75500 50.51600 44.27200
H  4.89800 47.48800 41.82600
H  4.25500 44.74200 38.44300
H  2.76100 45.12100 39.19800
H  3.86900 43.90800 39.93900

