158

Mg 24.41300 -5.14200 46.05600
C  26.43500 -2.74700 44.36900
C  21.87500 -4.46000 43.85400
C  22.96700 -8.21600 46.70500
C  27.48000 -6.38800 47.45600
N  24.17500 -3.72900 44.38000
C  25.12000 -2.78000 43.93900
C  24.63200 -2.02000 42.67300
C  23.11200 -2.43600 42.76500
C  23.01100 -3.66500 43.70700
C  22.07100 -1.34000 43.10000
C  25.25200 -2.36900 41.32300
C  26.00800 -1.22800 40.54300
H  25.56400 -1.14100 39.03800
N  22.57200 -6.10900 45.49400
C  21.66100 -5.61000 44.63200
C  20.52900 -6.46300 44.69600
C  20.81600 -7.49900 45.63600
C  22.19700 -7.29700 46.00200
C  19.35900 -6.22000 43.78400
C  19.78400 -8.62700 46.11000
O  18.62300 -8.62300 45.66500
C  20.09900 -9.63300 47.19900
N  25.01500 -6.91600 47.00100
C  24.25900 -8.05700 47.16600
C  24.95400 -9.12600 47.99200
C  26.35800 -8.53000 48.25200
C  26.28800 -7.16700 47.54700
C  24.13200 -9.29500 49.28500
C  27.53200 -9.48700 47.71500
C  28.83300 -9.73500 48.43800
N  26.45200 -4.48100 46.23400
C  27.53500 -5.12400 46.78900
C  28.76900 -4.35200 46.54500
C  28.39900 -3.36500 45.51100
C  27.01400 -3.54500 45.37700
C  30.02300 -4.66200 47.19000
C  28.81700 -2.39100 44.67300
O  29.95700 -1.94600 44.46200
C  27.56400 -1.89300 43.78600
C  27.38400 -0.49100 44.19000
O  26.92400 -0.08400 45.25500
O  27.92100 0.31100 43.16800
C  27.72000 1.81900 43.21500
H  21.02000 -3.99200 43.36100
H  22.53300 -9.19500 46.92100
H  28.40400 -6.72700 47.92800
H  24.82400 -0.95700 42.82100
H  22.76500 -2.85400 41.82000
H  21.62200 -0.77900 42.28100
H  22.61500 -0.61800 43.70800
H  21.15700 -1.69800 43.57400
H  24.43600 -2.84300 40.77800
H  25.90400 -3.21800 41.52700
H  27.08200 -1.38500 40.63600
H  25.87200 -0.24700 40.99900
H  19.68100 -6.36400 42.75200
H  18.98700 -5.21400 43.97900
H  18.54400 -6.90100 44.02600
H  20.67300 -9.17200 48.00300
H  20.65600 -10.42800 46.70300
H  19.20800 -10.05200 47.66600
H  24.98800 -9.99600 47.33700
H  26.68400 -8.36300 49.27800
H  24.72400 -9.16100 50.19000
H  23.68400 -10.28900 49.29300
H  23.28200 -8.61300 49.30000
H  27.77400 -9.11200 46.72100
H  27.22400 -10.53300 47.68700
H  28.67900 -9.44700 49.47800
H  29.51900 -9.01200 47.99600
H  29.29500 -10.71700 48.33700
H  30.78300 -3.98600 46.80000
H  30.18100 -5.69500 46.87700
H  30.00500 -4.57500 48.27700
H  27.61700 -2.01700 42.70500
H  28.66800 2.23900 43.55200
H  26.98000 2.19300 43.92300
H  27.37200 2.06300 42.21100
Mg 30.64100 58.44100 40.63700
C  27.84600 56.56100 39.65500
C  32.64300 55.79700 39.96800
C  33.14400 60.57400 40.60600
C  28.31600 61.24200 41.30200
N  30.29800 56.51200 39.71600
C  29.12800 55.90700 39.46300
C  29.33400 54.46000 39.04500
C  30.74000 54.14300 39.71500
C  31.32000 55.56700 39.78900
C  30.74500 53.34200 41.01000
C  29.20600 54.39700 37.49800
C  28.23600 53.39600 36.83800
H  27.23900 54.08300 35.88400
N  32.63600 58.20900 40.36200
C  33.29100 57.00100 40.15700
C  34.65700 57.25300 40.04100
C  34.83100 58.59200 40.35300
C  33.53500 59.23400 40.38500
C  35.60900 56.17000 39.81200
C  36.19600 59.28700 40.63200
O  37.30200 58.68600 40.53300
C  36.35000 60.77100 41.16200
N  30.62200 60.60800 40.86400
C  31.90300 61.18900 40.79400
C  31.74700 62.68800 41.12100
C  30.22600 62.89800 41.47100
C  29.67900 61.53600 41.18200
C  32.65700 63.22400 42.20500
C  29.46300 63.96700 40.61400
C  29.87300 65.37600 40.81400
N  28.54200 58.86700 40.59500
C  27.74600 60.04600 40.85400
C  26.33700 59.58100 40.62900
C  26.32300 58.34200 40.11700
C  27.70400 57.91300 40.10400
C  25.16800 60.49300 40.86600
C  25.48500 57.20500 39.63200
O  24.31900 57.20900 39.31900
C  26.51600 55.99700 39.41900
C  26.14300 54.90700 40.32500
O  26.63500 54.79700 41.42200
O  25.12000 54.10400 39.84200
C  24.41900 53.18400 40.79300
H  33.26700 54.91900 39.78600
H  33.94500 61.31100 40.51700
H  27.72200 62.02400 41.77800
H  28.49100 53.88900 39.43400
H  31.28900 53.52600 39.00300
H  29.67300 53.21000 41.15700
H  31.19100 53.75600 41.91300
H  31.23300 52.37800 40.86500
H  30.18400 54.12100 37.10300
H  29.16400 55.40400 37.08100
H  27.71900 52.88200 37.64800
H  28.80000 52.64900 36.27900
H  35.61400 55.55600 40.71200
H  36.67100 56.38900 39.69500
H  35.38900 55.49500 38.98500
H  36.36000 61.46800 40.32500
H  37.29000 60.81800 41.71200
H  35.49400 60.94300 41.81400
H  31.99500 63.10000 40.14300
H  30.13500 63.13000 42.53200
H  33.11400 62.39900 42.75100
H  32.22600 63.95400 42.89000
H  33.45800 63.80200 41.74400
H  28.42200 64.06000 40.92400
H  29.30800 63.75300 39.55600
H  30.11800 65.77300 39.82900
H  30.72300 65.56700 41.46900
H  29.03700 65.99900 41.13400
H  24.40500 60.10500 41.54200
H  24.69800 60.47400 39.88300
H  25.40200 61.52900 41.11100
H  26.33800 55.65500 38.40000
H  23.39500 53.53800 40.91700
H  24.67600 53.33900 41.84100
H  24.36600 52.10500 40.64900

