158

Mg 34.58800 2.91500 29.95800
C  32.46300 3.63800 32.52800
C  37.18400 3.03400 32.28400
C  36.71300 2.70300 27.49400
C  32.08700 3.55700 27.62100
N  34.76300 3.10100 32.16200
C  33.73400 3.41500 33.02300
C  34.16000 3.42800 34.51000
C  35.66800 3.17500 34.44100
C  35.95600 3.11200 32.85300
C  36.56300 4.16800 35.26100
C  33.30000 2.47700 35.39200
C  32.77600 3.12200 36.68200
H  33.77700 4.02900 37.40600
N  36.61700 2.78000 29.86400
C  37.52500 2.84100 30.93700
C  38.88100 2.75300 30.44800
C  38.78000 2.46300 29.01400
C  37.34300 2.59000 28.75600
C  40.10800 3.05100 31.20600
C  39.91500 2.14700 27.96800
O  39.64500 1.92400 26.78400
C  41.35500 2.16100 28.40200
N  34.37900 2.90900 27.88400
C  35.38700 2.75900 27.06100
C  35.02700 2.68400 25.46500
C  33.48000 2.92900 25.55400
C  33.33800 3.18100 27.08600
C  35.89300 3.74900 24.60100
C  32.45400 1.82300 25.05500
C  31.38100 2.37200 24.05100
N  32.64500 3.48000 29.99400
C  31.73900 3.71800 28.97400
C  30.44000 4.02400 29.58300
C  30.68200 4.08500 30.97300
C  32.05000 3.65300 31.13600
C  29.22300 4.29300 28.90700
C  30.09600 4.28300 32.30500
O  28.95400 4.57800 32.57600
C  31.22300 4.15600 33.34900
C  31.37900 5.54700 33.95200
O  32.13800 6.40000 33.53800
O  30.73500 5.69000 35.17400
C  31.17200 6.79100 35.97600
H  38.03500 3.05500 32.96700
H  37.49000 2.67400 26.72800
H  31.28400 3.52600 26.88000
H  33.98700 4.44000 34.87500
H  35.83800 2.12600 34.68300
H  36.96300 3.53900 36.05700
H  36.01400 5.00800 35.68600
H  37.37200 4.51800 34.62000
H  33.92000 1.68500 35.81200
H  32.51900 2.08000 34.74300
H  32.45500 2.29200 37.31100
H  31.79100 3.51600 36.42900
H  39.88600 3.55900 32.14400
H  40.77400 3.63100 30.56700
H  40.69400 2.15600 31.41400
H  41.56800 1.64300 29.33700
H  41.70500 3.18900 28.50100
H  41.90500 1.69700 27.58300
H  35.27200 1.66100 25.18200
H  33.21800 3.91200 25.16500
H  36.44600 4.35300 25.32100
H  35.31900 4.38000 23.92300
H  36.50700 3.13800 23.93900
H  31.95200 1.36800 25.90900
H  33.02100 0.96200 24.70200
H  31.51800 3.40600 23.73700
H  30.38900 2.33900 24.50300
H  31.27700 1.74400 23.16600
H  29.16500 4.79700 27.94200
H  28.72200 4.97000 29.59900
H  28.62300 3.38400 28.87500
H  30.87800 3.45500 34.11000
H  30.67300 6.96500 36.92900
H  30.93000 7.71100 35.44400
H  32.24800 6.81300 36.14800
Mg -2.51600 33.85700 25.80900
C  -4.06500 32.54500 28.68900
C  -0.90600 36.08100 27.52300
C  -1.66900 35.20700 22.78700
C  -4.61500 31.63700 23.99000
N  -2.59700 34.26000 27.90200
C  -3.29500 33.64900 28.92600
C  -2.92600 34.20000 30.27900
C  -1.95000 35.40800 29.83700
C  -1.79400 35.25300 28.30600
C  -2.57100 36.80800 30.26900
C  -2.07500 33.26600 31.18300
C  -1.71500 33.67300 32.63300
H  -2.27200 32.85000 33.74100
N  -1.35100 35.31700 25.22900
C  -0.73100 36.20700 26.11000
C  0.17300 37.05000 25.42400
C  -0.04800 36.83500 24.02700
C  -1.04600 35.71500 23.90500
C  1.03500 38.02400 26.18600
C  0.58200 37.60100 22.86600
O  0.31700 37.37600 21.68700
C  1.68500 38.52900 23.12700
N  -3.07100 33.51000 23.57300
C  -2.61000 34.21600 22.57000
C  -3.21400 33.84600 21.24700
C  -3.70700 32.38600 21.65300
C  -3.87900 32.55200 23.17100
C  -4.33900 34.77900 20.76000
C  -2.60600 31.24600 21.48700
C  -3.14300 29.91900 21.01900
N  -3.95900 32.34800 26.17800
C  -4.56000 31.44800 25.37200
C  -5.28000 30.47600 26.16300
C  -5.08000 30.88800 27.48100
C  -4.30300 32.03000 27.39700
C  -6.20000 29.46400 25.64900
C  -5.49400 30.61800 28.85900
O  -6.25100 29.80700 29.33300
C  -4.82100 31.69300 29.68200
C  -5.92700 32.47900 30.30900
O  -6.94300 32.89100 29.82000
O  -5.76700 32.36500 31.67500
C  -6.99400 32.78000 32.37800
H  -0.30100 36.73200 28.15800
H  -1.27700 35.67000 21.87900
H  -5.16400 30.86200 23.45000
H  -3.76900 34.54900 30.87500
H  -0.94900 35.37200 30.26600
H  -2.85600 37.40000 29.39900
H  -1.83400 37.40700 30.80400
H  -3.49200 36.71500 30.84300
H  -1.17800 32.86900 30.70800
H  -2.69300 32.43400 31.52300
H  -2.10600 34.66100 32.87600
H  -0.63400 33.76900 32.73900
H  0.61000 38.20000 27.17400
H  1.11200 39.00300 25.71300
H  2.04300 37.61800 26.27900
H  2.18200 38.72400 22.17700
H  2.38100 38.05100 23.81600
H  1.34900 39.39900 23.69300
H  -2.49800 33.60200 20.46100
H  -4.61600 32.19900 21.08100
H  -4.53900 35.57300 21.48000
H  -5.25600 34.23600 20.53500
H  -4.11800 35.24200 19.79800
H  -2.11600 31.03300 22.43800
H  -1.87100 31.55300 20.74300
H  -2.97500 29.83500 19.94500
H  -4.21100 29.76000 21.16800
H  -2.59900 29.15700 21.57600
H  -5.73000 28.87200 24.86400
H  -6.91500 30.10800 25.13700
H  -6.70700 28.83700 26.38300
H  -4.28000 31.21200 30.49700
H  -7.89300 32.23800 32.08500
H  -7.18000 33.83300 32.16400
H  -6.90600 32.79800 33.46400

