158

Mg 1.12000 42.36700 25.50200
C  2.64400 42.50600 28.73900
C  -1.71100 41.09400 27.01300
C  -0.02200 41.78800 22.53900
C  4.16800 43.77200 24.22200
N  0.53700 41.83000 27.72000
C  1.28100 42.11400 28.81000
C  0.47400 41.96400 30.10600
C  -0.88700 41.40500 29.50000
C  -0.70200 41.46200 27.97300
C  -1.21700 39.89900 29.98000
C  0.40600 43.10700 31.14300
C  0.68400 42.63100 32.62100
H  -0.45100 43.00500 33.67300
N  -0.59200 41.56400 24.89900
C  -1.64800 41.19900 25.63100
C  -2.71700 40.61500 24.72100
C  -2.26700 40.86800 23.38800
C  -0.92000 41.44600 23.57600
C  -3.95100 39.83700 25.17100
C  -2.91300 40.62100 22.07400
O  -2.37300 40.90700 21.00900
C  -4.21200 39.90900 21.89700
N  1.98300 42.71900 23.62300
C  1.33400 42.23100 22.49800
C  2.13400 42.55400 21.31300
C  3.22600 43.56300 21.77600
C  3.13100 43.40600 23.32700
C  2.51600 41.45800 20.31800
C  3.03900 44.95000 21.20100
C  3.31900 45.10400 19.75300
N  2.94900 43.03400 26.26100
C  4.11500 43.52000 25.59200
C  5.17200 43.73800 26.55700
C  4.63000 43.36900 27.76100
C  3.30800 42.86700 27.56400
C  6.62100 44.15700 26.23600
C  4.98800 43.09100 29.15200
O  6.02200 43.25200 29.74100
C  3.67100 42.69600 29.87500
C  3.79400 41.56300 30.81300
O  3.88900 40.37100 30.43900
O  3.67200 42.04400 32.08300
C  3.69300 41.12000 33.17700
H  -2.74100 40.95200 27.34700
H  -0.39000 41.77400 21.51100
H  5.05700 44.21200 23.76700
H  0.97000 41.07900 30.50400
H  -1.65100 42.09200 29.86300
H  -0.59000 39.51100 30.78200
H  -1.32600 39.22200 29.13200
H  -2.23000 39.84500 30.37700
H  -0.63800 43.41400 31.20700
H  0.92400 44.01100 30.82300
H  1.51500 43.19200 33.04700
H  0.79100 41.55400 32.74400
H  -3.85100 38.90500 24.61400
H  -4.93300 40.23000 24.90600
H  -3.99500 39.69900 26.25200
H  -3.85600 38.89100 22.05500
H  -4.54100 40.08400 20.87300
H  -5.05300 40.24700 22.50200
H  1.49300 43.23800 20.75600
H  4.21200 43.21600 21.46600
H  2.62200 40.48200 20.79300
H  3.44700 41.64500 19.78300
H  1.72800 41.42300 19.56600
H  3.71000 45.61600 21.74400
H  2.05400 45.21500 21.58600
H  3.90800 46.01900 19.68500
H  2.37800 45.24400 19.22000
H  3.79100 44.22300 19.31800
H  6.98300 44.01000 25.21900
H  7.17500 43.48700 26.89500
H  6.81700 45.17900 26.56100
H  3.55200 43.52900 30.56700
H  2.81300 41.40700 33.75200
H  4.63500 41.12300 33.72500
H  3.50900 40.10200 32.83300
Mg -2.08000 34.44000 26.90200
C  -3.73200 32.62600 29.41100
C  -0.67900 36.35300 29.44600
C  -0.60500 36.12900 24.56200
C  -3.67000 32.64200 24.47200
N  -2.19200 34.45300 29.13500
C  -2.86400 33.55800 29.96200
C  -2.62300 33.85700 31.45900
C  -1.85800 35.23200 31.37200
C  -1.59100 35.38500 29.88400
C  -2.56200 36.40500 32.05200
C  -1.89900 32.75100 32.26300
C  -2.58900 32.27600 33.57700
H  -1.62600 32.22700 34.78900
N  -0.81500 36.06500 27.04000
C  -0.30600 36.67000 28.12700
C  0.70000 37.62700 27.74200
C  0.64700 37.66100 26.33000
C  -0.28600 36.58100 25.92500
C  1.55200 38.46100 28.71100
C  1.41700 38.47900 25.30200
O  1.19400 38.51300 24.13300
C  2.53400 39.36100 25.80500
N  -2.23300 34.51200 24.70000
C  -1.46100 35.26900 23.97900
C  -1.73200 35.11400 22.48600
C  -2.77600 34.00000 22.46100
C  -2.88800 33.67900 23.96000
C  -2.16700 36.46600 21.83200
C  -2.37200 32.93800 21.43300
C  -1.58900 31.67600 21.98100
N  -3.38000 32.85500 26.82800
C  -3.97300 32.25400 25.75100
C  -4.84100 31.24500 26.21900
C  -4.83700 31.30100 27.58300
C  -3.94000 32.29600 27.98400
C  -5.57100 30.30500 25.40200
C  -5.30300 30.73400 28.87500
O  -6.10800 29.84400 29.05100
C  -4.64300 31.55300 30.03600
C  -5.72800 32.11000 30.91100
O  -6.67800 32.68400 30.47700
O  -5.50800 31.84400 32.20600
C  -6.73800 31.96500 33.05100
H  -0.10700 36.92000 30.18300
H  0.09600 36.51300 23.81800
H  -4.15400 32.11200 23.65000
H  -3.65900 33.98500 31.77400
H  -0.93400 35.14300 31.94200
H  -3.02000 36.90900 31.20100
H  -1.87200 37.11800 32.50200
H  -3.40300 36.06200 32.65600
H  -0.87800 33.05500 32.49000
H  -1.91300 31.85000 31.65000
H  -2.89600 31.23500 33.47600
H  -3.55200 32.72500 33.82300
H  2.61800 38.29600 28.55200
H  1.43500 38.27000 29.77700
H  1.21000 39.49400 28.64700
H  2.71600 40.11300 25.03700
H  3.40700 38.77300 26.08900
H  2.11600 39.90100 26.65500
H  -0.80800 34.72000 22.06000
H  -3.73600 34.39700 22.13200
H  -1.78200 37.30000 22.41900
H  -3.21800 36.60800 21.58200
H  -1.61600 36.59400 20.90100
H  -1.72900 33.36500 20.66300
H  -3.34100 32.67200 21.01000
H  -2.21900 30.78700 21.96000
H  -1.22400 31.95600 22.96900
H  -0.70000 31.53300 21.36800
H  -5.85400 30.71100 24.43100
H  -6.53600 30.17000 25.89100
H  -4.96000 29.41100 25.27600
H  -3.99800 30.88800 30.60900
H  -6.71000 32.49100 34.00600
H  -7.13300 30.96500 33.23300
H  -7.64600 32.37200 32.60700

