158

Mg 41.45800 41.14000 25.98800
C  40.65900 43.44500 28.43600
C  42.49800 38.97500 28.49400
C  42.50500 39.05700 23.55400
C  41.11000 43.68300 23.49200
N  41.71600 41.29200 28.21700
C  41.11800 42.22200 28.93700
C  41.17700 41.87800 30.44300
C  41.81900 40.46700 30.42400
C  42.06500 40.21100 29.01600
C  43.08100 40.38700 31.24600
C  39.74700 41.81700 31.07500
C  39.73300 41.72400 32.63000
H  39.24200 43.00800 33.47600
N  42.10800 39.20000 26.04700
C  42.49500 38.45200 27.15200
C  42.87800 37.18300 26.65200
C  42.69100 37.14300 25.27400
C  42.49800 38.54300 24.90800
C  43.25700 35.99800 27.57800
C  42.66500 35.87700 24.36000
O  42.35400 36.02800 23.18400
C  42.84500 34.40900 24.91000
N  41.83300 41.37400 23.84100
C  42.19200 40.33100 23.04900
C  42.18000 40.79200 21.49600
C  41.63100 42.22100 21.52300
C  41.50700 42.46600 23.01500
C  43.57700 40.61500 20.88100
C  40.31100 42.43700 20.77900
C  39.03100 41.90700 21.51100
N  40.96700 43.15300 25.91500
C  40.94000 44.05700 24.85800
C  40.52200 45.36700 25.38500
C  40.35400 45.17100 26.83600
C  40.71900 43.79100 27.06800
C  40.27600 46.64100 24.63800
C  39.98800 45.82800 28.11900
O  39.72100 47.01600 28.45300
C  40.16400 44.72700 29.21100
C  41.20400 45.22200 30.14800
O  42.31400 45.62700 29.83600
O  40.70800 45.17100 31.35200
C  41.64200 45.43400 32.50700
H  42.85900 38.23600 29.21300
H  42.83900 38.23900 22.91300
H  41.07400 44.47800 22.74400
H  41.75600 42.58500 31.03700
H  41.16000 39.63100 30.65600
H  42.97100 39.71000 32.09300
H  43.20300 41.40100 31.62700
H  43.98000 40.16000 30.67400
H  39.35400 40.82100 30.86900
H  39.07500 42.60000 30.72400
H  40.69600 41.39800 33.02400
H  38.97900 41.01000 32.96000
H  42.47900 35.25000 27.73100
H  43.23300 36.33800 28.61300
H  44.25100 35.63700 27.31400
H  43.65600 34.39200 25.63700
H  43.23300 33.83400 24.06800
H  41.91700 33.96400 25.26800
H  41.45300 40.16600 20.97900
H  42.36000 42.92000 21.11500
H  44.33300 40.58000 21.66500
H  44.05400 41.32800 20.20900
H  43.64200 39.66900 20.34300
H  40.29000 41.89900 19.83100
H  40.17000 43.50100 20.58700
H  38.34800 42.72000 21.75900
H  39.23500 41.26800 22.37000
H  38.52400 41.28200 20.77600
H  41.19000 47.23500 24.66000
H  39.51700 47.22600 25.15700
H  39.89400 46.37000 23.65400
H  39.18500 44.54900 29.65700
H  41.15100 45.17000 33.44400
H  41.99200 46.45800 32.38300
H  42.45300 44.72700 32.32900
Mg 35.56800 48.91500 24.67600
C  35.74300 47.08600 27.78800
C  34.40600 51.59100 26.49900
C  35.18000 50.36400 21.85000
C  36.60100 45.98800 23.06600
N  35.16900 49.26200 26.83900
C  35.34900 48.42200 27.93700
C  35.07900 49.12700 29.24000
C  34.43900 50.53100 28.75400
C  34.70000 50.46000 27.27500
C  32.95700 50.91300 29.05300
C  36.32600 49.47400 30.15300
C  36.21000 48.95300 31.53400
H  34.78400 49.07400 32.26300
N  34.95100 50.71300 24.22500
C  34.47700 51.71500 25.07000
C  34.38200 52.92500 24.25600
C  34.55100 52.59800 22.88900
C  34.90300 51.13700 22.94700
C  34.20100 54.36700 24.88500
C  34.38900 53.42700 21.55300
O  34.42400 52.96300 20.40800
C  34.10200 54.91400 21.84000
N  35.90600 48.28500 22.73700
C  35.69900 49.14500 21.70900
C  36.06500 48.52000 20.33500
C  36.64400 47.12100 20.77400
C  36.34600 47.08200 22.26900
C  34.86400 48.44700 19.33400
C  38.11400 46.86900 20.35200
C  39.13400 47.75700 20.96600
N  36.12400 46.95900 25.20600
C  36.47700 45.85700 24.45700
C  36.84800 44.76400 25.30900
C  36.51000 45.14000 26.57100
C  36.09100 46.47500 26.47400
C  37.33800 43.46500 24.84000
C  36.48000 44.76000 28.03100
O  36.73200 43.68900 28.62300
C  36.06500 46.01400 28.87100
C  34.78500 45.61100 29.44500
O  33.63300 45.47200 29.01400
O  35.17600 45.13700 30.63400
C  34.16800 44.37600 31.40400
H  34.14800 52.51100 27.02800
H  35.24700 50.79000 20.84700
H  36.97800 45.15400 22.47100
H  34.33500 48.52700 29.76500
H  34.96800 51.39600 29.15300
H  32.92600 51.71800 29.78700
H  32.57400 50.06500 29.62100
H  32.31100 51.10300 28.19600
H  36.38400 50.54000 30.36900
H  37.20500 49.04500 29.67200
H  37.04100 49.37900 32.09600
H  36.44700 47.88900 31.55300
H  33.35700 54.94700 24.51200
H  35.07000 55.00200 24.71400
H  34.11100 54.34300 25.97100
H  33.84700 55.50000 20.95800
H  34.99000 55.31200 22.33100
H  33.22800 54.95500 22.49000
H  36.74900 49.22700 19.86500
H  36.07300 46.34900 20.25800
H  34.27000 47.58400 19.63600
H  35.14400 48.50100 18.28200
H  34.25200 49.34000 19.46400
H  38.10300 46.89100 19.26200
H  38.46100 45.89200 20.68900
H  39.27900 48.58900 20.27700
H  39.99500 47.26100 21.41400
H  38.78500 48.08600 21.94600
H  37.93000 43.06500 25.66400
H  37.93600 43.55600 23.93300
H  36.53200 42.78600 24.56200
H  36.86400 46.28800 29.56000
H  33.60100 45.03800 32.05800
H  34.71500 43.73700 32.09700
H  33.53400 43.74400 30.78200

