158

Mg 1.28000 -1.54000 44.39600
C  4.61200 -0.24900 44.00000
C  0.21500 1.27500 42.74300
C  -1.73600 -3.00900 43.94600
C  2.51500 -4.23900 45.90200
N  2.33700 0.15000 43.20800
C  3.68000 0.52300 43.30500
C  3.98900 1.88300 42.75700
C  2.57200 2.54000 42.83700
C  1.62100 1.27500 42.90900
C  2.38900 3.50100 44.02800
C  4.55500 1.80500 41.33100
C  6.01400 2.12900 40.90500
H  6.15800 2.99200 39.60900
N  -0.66800 -0.83400 43.59300
C  -0.85800 0.35400 42.97500
C  -2.19900 0.53600 42.58000
C  -2.77800 -0.78300 42.86600
C  -1.70000 -1.61200 43.47000
C  -2.72000 1.81200 41.91300
C  -4.19300 -1.17600 42.56500
O  -4.91700 -0.42300 41.92300
C  -4.73800 -2.43200 43.06200
N  0.57500 -3.40000 44.78300
C  -0.72100 -3.69500 44.61500
C  -1.00100 -5.00800 45.34500
C  0.30700 -5.49600 45.90500
C  1.17100 -4.30800 45.48800
C  -2.06600 -4.81000 46.40900
C  0.80700 -6.89300 45.32000
C  1.13900 -7.88900 46.43100
N  3.14200 -2.21500 44.78400
C  3.52400 -3.34200 45.45000
C  4.86100 -3.29200 45.83500
C  5.36000 -2.11800 45.27200
C  4.27300 -1.48300 44.60500
C  5.64000 -4.27600 46.70600
C  6.50600 -1.25300 45.24600
O  7.62200 -1.29000 45.76600
C  6.12800 -0.07800 44.27700
C  6.38500 1.12600 45.04900
O  5.61000 1.60200 45.90700
O  7.59000 1.64000 44.65300
C  8.09600 2.71700 45.36900
H  -0.05100 2.29200 42.44800
H  -2.59300 -3.68600 43.97600
H  2.95200 -5.05100 46.48700
H  4.61200 2.44800 43.45000
H  2.35200 3.21200 42.00800
H  3.27000 3.83000 44.57900
H  1.69000 3.03600 44.72300
H  1.95600 4.44700 43.70300
H  3.98900 2.44400 40.65300
H  4.32500 0.90000 40.76800
H  6.35900 1.12300 40.66900
H  6.54400 2.56500 41.75300
H  -2.85500 1.56100 40.86100
H  -2.11900 2.72000 41.86500
H  -3.71500 2.03000 42.30200
H  -5.78900 -2.62300 42.84300
H  -4.53900 -2.31100 44.12700
H  -4.12700 -3.16600 42.53700
H  -1.31500 -5.71900 44.58000
H  0.19400 -5.47000 46.98900
H  -1.46100 -4.39700 47.21600
H  -2.48200 -5.78600 46.66100
H  -2.90300 -4.22400 46.03100
H  1.76000 -6.65100 44.85100
H  0.16100 -7.41500 44.61400
H  2.09000 -7.57900 46.86400
H  1.11700 -8.90800 46.04400
H  0.37000 -7.98100 47.19700
H  5.97500 -5.01300 45.97600
H  4.98600 -4.80100 47.40200
H  6.44600 -3.63900 47.07100
H  6.81900 0.00500 43.43800
H  9.12900 2.91700 45.08600
H  8.10800 2.44800 46.42500
H  7.50400 3.59300 45.10400
Mg 41.20900 9.03800 30.87800
C  43.17100 10.16700 33.62600
C  38.92000 7.83700 32.96300
C  39.42400 8.22000 28.21600
C  43.98100 9.67000 28.78300
N  41.19700 8.82500 33.00400
C  41.98500 9.50700 33.89500
C  41.41500 9.41900 35.32800
C  40.16100 8.50500 35.13500
C  40.12800 8.27500 33.61600
C  40.26400 7.18500 35.95300
C  41.00000 10.71100 36.00400
C  41.14300 10.72800 37.50700
H  41.85200 11.93500 38.08500
N  39.40900 8.14100 30.61000
C  38.59600 7.75900 31.63200
C  37.32300 7.28600 31.04500
C  37.37000 7.62100 29.64200
C  38.77500 8.08100 29.44300
C  36.27200 6.56200 31.82800
C  36.40000 7.42600 28.52600
O  36.49900 7.83000 27.36900
C  35.02000 6.92600 28.95700
N  41.77600 8.64900 28.87100
C  40.80700 8.44600 27.94500
C  41.38300 8.37500 26.52500
C  42.87100 8.79400 26.66400
C  42.89500 9.11500 28.19400
C  41.15000 6.95500 25.82900
C  43.46800 9.82700 25.71700
C  42.87400 11.25300 25.86100
N  43.16200 9.88700 31.11000
C  44.15400 10.08500 30.17300
C  45.22800 10.75500 30.76900
C  44.86700 10.87700 32.13000
C  43.67400 10.20500 32.27800
C  46.54700 11.23200 30.08400
C  45.26100 11.40700 33.38300
O  46.16200 12.14900 33.71300
C  44.19000 10.94700 34.43700
C  44.86000 10.09500 35.46600
O  45.75300 9.25200 35.28700
O  44.39400 10.49700 36.69200
C  44.82100 9.66400 37.82500
H  38.08100 7.59500 33.61900
H  38.87700 8.04200 27.28700
H  44.88600 9.78400 28.18300
H  42.17500 8.91400 35.92500
H  39.28900 8.99000 35.57300
H  40.44600 6.28800 35.36100
H  39.39100 7.01000 36.58200
H  41.03200 7.38400 36.70100
H  40.01500 11.01000 35.64600
H  41.66100 11.48600 35.61600
H  41.77200 9.90900 37.85700
H  40.13000 10.71200 37.91100
H  36.54300 6.38400 32.86800
H  36.10500 5.58500 31.37400
H  35.29000 7.03400 31.87200
H  34.58000 7.59900 29.69300
H  34.98200 5.86300 29.19500
H  34.28300 6.92400 28.15400
H  40.90300 9.06900 25.83500
H  43.52800 7.92400 26.65100
H  40.23900 6.79100 25.25500
H  41.15800 6.16300 26.57800
H  41.97400 6.64500 25.18600
H  43.42100 9.48600 24.68200
H  44.50700 9.90300 26.03700
H  42.38100 11.70000 24.99800
H  43.63500 11.95800 26.19400
H  42.09400 11.11500 26.61000
H  46.52100 11.28900 28.99600
H  47.27200 10.47900 30.39100
H  46.84400 12.20200 30.48300
H  43.78700 11.85200 34.89100
H  45.89800 9.73500 37.97900
H  44.55000 8.62400 37.64300
H  44.22800 9.96900 38.68700

