158

Mg 17.73300 -0.91500 27.46000
C  16.29200 0.45100 30.40100
C  19.59900 -2.96800 29.43400
C  18.86000 -2.21600 24.71600
C  15.67400 1.29400 25.51300
N  17.99500 -1.12300 29.67100
C  17.30800 -0.47400 30.70400
C  17.74800 -0.90400 32.11500
C  19.00900 -1.81000 31.73200
C  18.92600 -1.99600 30.18800
C  20.37000 -1.23800 32.21900
C  16.60200 -1.59100 32.86300
C  16.49200 -1.22600 34.38100
H  17.82000 -0.64900 35.11600
N  19.12100 -2.40300 27.12700
C  19.67400 -3.21300 28.02800
C  20.36200 -4.32000 27.35400
C  20.08900 -4.16500 25.95800
C  19.33300 -2.88900 25.88300
C  20.99400 -5.44400 28.11200
C  20.57200 -4.98700 24.81400
O  20.14800 -4.87100 23.68100
C  21.46200 -6.06400 25.23000
N  17.16000 -0.52700 25.43900
C  18.01000 -1.10900 24.53600
C  17.78800 -0.54800 23.12400
C  16.77000 0.62800 23.35800
C  16.48000 0.47600 24.81500
C  19.03600 -0.24600 22.22300
C  15.55400 0.59000 22.39000
C  15.90900 0.63900 20.86900
N  16.30400 0.54000 27.80000
C  15.51600 1.29000 26.94600
C  14.46400 1.99600 27.68500
C  14.77600 1.66000 29.07700
C  15.87000 0.79200 29.08800
C  13.40200 2.99300 27.13700
C  14.30400 1.91700 30.43900
O  13.36700 2.55800 30.92500
C  15.34200 1.14200 31.29200
C  16.12600 2.18800 32.03900
O  17.04300 2.83800 31.58400
O  15.57000 2.27000 33.31400
C  16.05400 3.41800 34.08800
H  20.14600 -3.66700 30.07100
H  19.28700 -2.54900 23.76700
H  15.08900 2.09800 25.06100
H  17.97500 -0.00900 32.69400
H  18.84900 -2.76800 32.22800
H  20.87400 -1.99500 32.82000
H  20.23700 -0.29700 32.75300
H  21.02800 -1.17200 31.35300
H  16.72200 -2.65300 32.64800
H  15.68000 -1.23300 32.40600
H  16.10500 -2.03000 35.00700
H  15.72700 -0.47000 34.20800
H  20.29900 -6.27400 28.23700
H  21.24900 -5.20100 29.14300
H  21.97000 -5.79800 27.78200
H  22.34900 -5.60300 25.66500
H  21.78900 -6.47700 24.27600
H  20.90800 -6.79000 25.82600
H  17.28100 -1.40100 22.67200
H  17.27300 1.59400 23.30900
H  18.95200 0.73200 21.75000
H  19.04900 -1.03300 21.46900
H  19.90800 -0.32900 22.87200
H  14.90400 1.43200 22.62800
H  15.00200 -0.32900 22.58600
H  15.11500 1.24600 20.43300
H  15.90200 -0.41500 20.59200
H  16.90700 0.98300 20.59900
H  12.96000 3.52200 27.98200
H  12.67400 2.38500 26.59900
H  13.78400 3.80800 26.52300
H  14.70000 0.49400 31.88900
H  17.08000 3.70100 33.85300
H  16.11700 3.18200 35.15100
H  15.41400 4.29600 34.00500
Mg 49.41200 35.22100 27.70100
C  47.27500 33.64600 29.86100
C  49.40300 37.92300 29.73000
C  50.90000 36.93600 25.27200
C  48.79300 32.63400 25.32700
N  48.30400 35.78100 29.51700
C  47.77300 34.84800 30.37700
C  47.65400 35.35500 31.81400
C  48.13800 36.87100 31.63900
C  48.60600 36.90900 30.23800
C  47.04900 38.00100 32.02500
C  48.43700 34.57700 32.86300
C  47.84800 34.25700 34.20400
H  46.89800 35.27900 34.77800
N  50.11200 37.16600 27.47600
C  50.13600 38.06900 28.48900
C  50.76100 39.33100 28.02000
C  51.08600 39.10400 26.59000
C  50.69100 37.66700 26.38900
C  50.92200 40.53700 28.87900
C  51.71000 40.13100 25.58900
O  52.06400 39.86100 24.45700
C  51.81700 41.66100 25.80400
N  49.77000 34.84200 25.52400
C  50.48900 35.65300 24.91500
C  50.83500 35.01600 23.52400
C  50.30200 33.58000 23.55400
C  49.60500 33.64500 24.88900
C  50.40500 35.94000 22.41600
C  51.40200 32.43400 23.50500
C  51.13300 31.11400 22.80800
N  48.26800 33.46700 27.55000
C  48.13700 32.50400 26.61100
C  47.09500 31.50900 26.99100
C  46.74300 31.89600 28.29500
C  47.44800 33.12300 28.54800
C  46.62800 30.39500 26.18000
C  46.01400 31.50400 29.53000
O  45.29700 30.56400 29.84800
C  46.36000 32.59500 30.55700
C  46.92300 31.84000 31.66800
O  48.07000 31.37800 31.68300
O  45.86900 31.59000 32.55800
C  46.28500 30.65400 33.61300
H  49.54500 38.74200 30.43800
H  51.30200 37.54900 24.46300
H  48.56700 31.75000 24.72700
H  46.61000 35.47800 32.10400
H  49.05300 36.97100 32.22300
H  46.34300 37.63000 32.76800
H  46.74200 38.47800 31.09500
H  47.65600 38.74200 32.54600
H  49.33100 35.12500 33.16200
H  48.76700 33.63900 32.41700
H  48.67900 34.28500 34.91000
H  47.32900 33.29900 34.18200
H  51.33200 41.41200 28.37500
H  51.59000 40.35000 29.72000
H  49.95500 40.73100 29.34300
H  52.10200 42.23900 24.92400
H  52.61200 41.87400 26.51800
H  50.85000 41.90800 26.24200
H  51.92400 35.01000 23.50800
H  49.53300 33.48200 22.78800
H  50.01400 35.34200 21.59300
H  51.35300 36.31000 22.02600
H  49.81800 36.81800 22.68600
H  51.47800 32.21000 24.56900
H  52.30200 32.99800 23.25900
H  52.00800 30.91600 22.18900
H  50.19700 31.10200 22.24800
H  51.11700 30.37300 23.60700
H  47.01300 30.42000 25.16000
H  45.55100 30.51100 26.05700
H  46.76800 29.43200 26.67100
H  45.53500 33.18300 30.95800
H  47.25700 30.94000 34.01500
H  46.33700 29.59400 33.36300
H  45.57300 30.83200 34.41900

