158

Mg 34.96500 2.87600 29.31000
C  32.79200 4.30700 31.74700
C  37.28800 2.54400 31.70500
C  37.06400 1.72600 26.90200
C  32.54600 3.49400 26.84500
N  35.08300 3.76900 31.48000
C  34.01300 4.06500 32.31300
C  34.46700 3.93500 33.79900
C  36.00000 3.53600 33.63800
C  36.12700 3.25000 32.14700
C  36.98600 4.63300 33.99200
C  33.58900 2.94300 34.65500
C  33.24900 3.47100 36.08500
H  33.89500 4.69800 36.78100
N  37.02000 2.34200 29.27800
C  37.79000 2.27900 30.38700
C  39.12000 1.79800 30.02300
C  39.00800 1.57900 28.64000
C  37.66900 1.84500 28.20000
C  40.29900 1.66500 31.04200
C  40.16100 1.11900 27.70600
O  40.04300 0.99400 26.49800
C  41.49600 0.68200 28.25300
N  34.84600 2.78100 27.19800
C  35.86500 2.24300 26.43800
C  35.40800 2.05200 24.98500
C  33.89900 2.52400 24.97800
C  33.71100 2.86900 26.44100
C  36.31300 2.73100 23.95200
C  32.96200 1.47200 24.33400
C  31.86700 0.81000 25.16800
N  33.04500 3.71400 29.24000
C  32.19400 3.89700 28.17900
C  30.95300 4.50200 28.68200
C  31.14200 4.57800 30.06000
C  32.46700 4.18400 30.36400
C  29.69400 4.79200 27.95200
C  30.48000 4.86000 31.32600
O  29.35200 5.19800 31.63600
C  31.55000 4.67200 32.43500
C  31.68800 5.86900 33.27200
O  32.14200 6.89900 32.78100
O  31.05400 5.69000 34.49800
C  30.85600 7.01600 35.19200
H  37.97800 2.22400 32.48900
H  37.71200 1.20900 26.19100
H  31.71800 3.63000 26.14600
H  34.53800 4.92300 34.25500
H  36.20900 2.65400 34.24300
H  36.59600 5.03000 34.93000
H  37.06100 5.30500 33.13800
H  37.96700 4.16400 34.06500
H  34.03300 1.97400 34.88200
H  32.73000 2.70700 34.02700
H  33.48600 2.67400 36.78900
H  32.17800 3.63800 36.19400
H  40.02300 2.10900 31.99800
H  41.07100 2.34200 30.67800
H  40.56200 0.62200 31.21800
H  42.16100 1.52500 28.44500
H  41.91600 0.06500 27.45900
H  41.35800 -0.04600 29.05100
H  35.49000 0.97300 24.85600
H  33.78600 3.28900 24.21000
H  36.57400 3.75200 24.22900
H  35.93600 2.64400 22.93300
H  37.25400 2.19600 24.07300
H  33.62500 0.69100 23.96100
H  32.49200 2.07800 23.56000
H  32.10500 -0.25100 25.23700
H  30.88800 0.79700 24.69000
H  31.70600 1.19200 26.17600
H  29.02500 5.31900 28.63200
H  29.20400 3.89900 27.56300
H  29.93200 5.49500 27.15300
H  31.27200 3.86700 33.11600
H  31.66200 7.35500 35.84300
H  29.93600 6.98800 35.77500
H  30.67700 7.88300 34.55600
Mg -12.37100 16.26200 41.81400
C  -9.50200 14.33300 41.29600
C  -10.78200 18.96900 40.37100
C  -15.32000 17.58800 41.65800
C  -13.95400 13.10500 42.98200
N  -10.45200 16.54900 40.65400
C  -9.37900 15.61000 40.69700
C  -8.12900 16.19000 40.06000
C  -8.54700 17.64300 39.78600
C  -9.97900 17.79000 40.37400
C  -7.62600 18.76600 40.30300
C  -7.63400 15.47700 38.76500
C  -6.06100 15.30300 38.71200
H  -5.32700 16.16400 37.59300
N  -12.89200 18.07200 41.20000
C  -12.15500 19.09900 40.73100
C  -13.01200 20.28300 40.49000
C  -14.27400 19.90000 40.96300
C  -14.23400 18.48800 41.31400
C  -12.43800 21.68300 40.11100
C  -15.52400 20.84500 41.06400
O  -15.53200 21.99400 40.71100
C  -16.90900 20.35600 41.36100
N  -14.41000 15.38900 42.15500
C  -15.39300 16.25400 41.96500
C  -16.74300 15.48800 42.22900
C  -16.34200 14.14000 42.84400
C  -14.83600 14.20800 42.64800
C  -17.95500 16.16800 42.94400
C  -16.94500 12.86600 42.20100
C  -17.16500 11.61300 43.08800
N  -11.88200 14.10300 42.26000
C  -12.59100 13.01200 42.62900
C  -11.75500 11.85400 42.66400
C  -10.53900 12.35200 42.27200
C  -10.69900 13.71400 41.89300
C  -12.11800 10.51800 43.33600
C  -9.13800 11.98600 42.03700
O  -8.52100 10.92900 42.31400
C  -8.41100 13.27000 41.47000
C  -7.45500 13.81800 42.54300
O  -7.80000 14.64000 43.36000
O  -6.23300 13.32100 42.33600
C  -5.13500 14.06800 43.07600
H  -10.21700 19.86600 40.10900
H  -16.32600 17.97400 41.48400
H  -14.39100 12.12600 43.18700
H  -7.37700 16.21000 40.84900
H  -8.62800 17.82800 38.71500
H  -6.60400 18.53100 40.00700
H  -7.59300 18.85000 41.38900
H  -7.86300 19.70200 39.79700
H  -7.93900 15.96900 37.84200
H  -8.12500 14.50700 38.68700
H  -5.76900 14.28600 38.45300
H  -5.69000 15.49400 39.71900
H  -11.39400 21.61700 39.80400
H  -12.42500 22.38100 40.94800
H  -13.08800 22.07300 39.32800
H  -17.56300 21.22300 41.44800
H  -16.88500 19.81200 42.30500
H  -17.32200 19.72800 40.57200
H  -17.14700 15.28900 41.23700
H  -16.58600 14.16300 43.90600
H  -18.80100 16.24800 42.26100
H  -17.62300 17.10000 43.40300
H  -18.30500 15.48800 43.72000
H  -16.29100 12.54200 41.39200
H  -17.88600 13.23100 41.78900
H  -18.14100 11.15500 42.92300
H  -17.03000 11.74800 44.16100
H  -16.49500 10.89200 42.62100
H  -12.41800 9.79000 42.58200
H  -12.88000 10.79800 44.06200
H  -11.21400 10.15400 43.82400
H  -7.90600 13.16600 40.50900
H  -5.34800 14.07600 44.14500
H  -5.08100 15.10500 42.74400
H  -4.21600 13.49400 42.95800

