158

Mg 35.19900 2.01800 29.17900
C  32.63900 2.80000 31.43600
C  37.38600 1.95200 31.76000
C  37.53300 1.00200 26.97800
C  32.78700 2.27500 26.60400
N  35.03100 2.44300 31.38200
C  33.90500 2.66200 32.09100
C  34.19700 2.69900 33.61200
C  35.76200 2.72200 33.70000
C  36.14400 2.37100 32.18800
C  36.43400 4.00900 34.17000
C  33.58700 1.53000 34.53300
C  33.32900 1.73900 36.02900
H  34.01900 2.92900 36.69800
N  37.18300 1.49900 29.32000
C  37.94600 1.53500 30.51700
C  39.24900 1.06200 30.22500
C  39.37300 0.75500 28.87200
C  37.97900 1.01700 28.30600
C  40.24700 1.10600 31.37600
C  40.53000 0.19100 28.08500
O  40.34100 -0.16300 26.92800
C  41.75700 -0.12700 28.76000
N  35.20600 1.79800 27.10400
C  36.26200 1.29200 26.44400
C  35.92900 1.20800 24.89700
C  34.48600 1.65200 24.79500
C  34.12100 1.88500 26.24600
C  36.92600 1.97500 24.02100
C  33.49500 0.77700 23.96500
C  32.90600 -0.43600 24.76400
N  33.21200 2.50700 29.04500
C  32.35900 2.50700 27.94000
C  31.13200 3.06700 28.32400
C  31.17400 3.13500 29.68700
C  32.43800 2.76700 30.06800
C  30.01700 3.43000 27.38500
C  30.41000 3.36300 30.82800
O  29.17800 3.58400 30.92700
C  31.29400 3.16800 32.00300
C  31.40200 4.44000 32.82700
O  32.07200 5.45600 32.51700
O  30.58500 4.20500 33.94500
C  30.56600 5.22300 34.98600
H  38.08500 2.00800 32.59600
H  38.35400 0.66100 26.34300
H  32.07600 2.42400 25.78900
H  33.85800 3.65800 34.00300
H  36.21900 1.92100 34.28200
H  37.06500 3.81500 35.03700
H  35.69000 4.77400 34.39400
H  37.06000 4.43500 33.38600
H  34.24400 0.69300 34.29800
H  32.56300 1.32000 34.22500
H  33.73000 0.78300 36.36400
H  32.28000 1.64700 36.31300
H  39.86800 0.49700 32.19600
H  40.20900 2.14900 31.68900
H  41.29100 0.89500 31.14300
H  41.53000 -0.62100 29.70500
H  42.23500 0.82500 28.99100
H  42.47300 -0.65800 28.13200
H  36.07300 0.12800 24.88200
H  34.48400 2.62100 24.29600
H  36.48800 2.43700 23.13600
H  37.72600 1.26000 23.82900
H  37.45800 2.73300 24.59500
H  34.09000 0.36700 23.15000
H  32.78500 1.53600 23.63600
H  31.83600 -0.23600 24.81900
H  33.44000 -0.59800 25.70100
H  33.01600 -1.42200 24.31300
H  30.40700 3.94600 26.50700
H  29.24100 4.02200 27.87000
H  29.60600 2.50000 26.99300
H  30.72600 2.44100 32.58300
H  29.60000 5.70200 35.14500
H  31.37000 5.95300 34.89300
H  30.69600 4.58200 35.85700
Mg 36.23800 49.52300 24.95200
C  36.11900 47.74900 27.91900
C  34.64000 52.06700 26.35800
C  36.27900 50.94200 21.92400
C  37.73700 46.62200 23.43100
N  35.55900 49.78500 26.93800
C  35.66100 49.11700 28.05600
C  35.12000 49.84400 29.27900
C  34.36600 51.03900 28.59400
C  34.86900 50.93200 27.13600
C  32.88300 51.09000 28.78500
C  36.20300 50.16900 30.39100
C  35.88200 49.68900 31.86000
H  34.39500 49.53000 32.23600
N  35.65500 51.35800 24.24200
C  35.08300 52.29100 25.03300
C  35.04200 53.51800 24.37300
C  35.35700 53.21500 22.99300
C  35.80100 51.76200 23.00900
C  34.54700 54.72600 25.07600
C  35.31000 54.11000 21.80200
O  35.61700 53.63600 20.71800
C  34.90300 55.49400 21.89600
N  37.00200 48.91300 22.99900
C  36.90900 49.70700 21.90700
C  37.57800 49.03400 20.72300
C  38.31400 47.87400 21.32900
C  37.70400 47.81700 22.67800
C  36.66600 48.66700 19.48600
C  39.76600 48.21800 21.54800
C  40.57300 48.51200 20.24800
N  36.74800 47.53600 25.44600
C  37.33400 46.46500 24.75300
C  37.37200 45.27400 25.58000
C  36.93800 45.74000 26.84700
C  36.57900 47.11800 26.71400
C  37.86100 43.93900 25.17000
C  36.77100 45.38900 28.25300
O  37.10200 44.34300 28.86700
C  36.35700 46.80000 29.00800
C  35.10200 46.42300 29.74500
O  34.00400 46.49400 29.22000
O  35.32900 45.79300 30.89400
C  34.17100 45.13500 31.50400
H  34.05100 52.85800 26.82900
H  36.29200 51.47200 20.96900
H  38.27700 45.79600 22.96300
H  34.39500 49.17200 29.73700
H  34.74100 51.97300 29.01400
H  32.43300 50.38200 29.48100
H  32.42700 50.90600 27.81200
H  32.47600 52.05400 29.08700
H  36.42600 51.23400 30.44900
H  37.10100 49.61000 30.13200
H  36.28900 50.48000 32.48900
H  36.40000 48.78700 32.18500
H  34.84600 55.69000 24.66500
H  34.76800 54.66900 26.14200
H  33.46700 54.61200 24.98800
H  33.86700 55.47800 22.23400
H  34.94000 56.06900 20.97000
H  35.58600 56.07000 22.52100
H  38.27200 49.75400 20.29000
H  38.18400 46.95400 20.75900
H  35.61800 48.87900 19.69700
H  36.67700 47.62000 19.18400
H  36.93600 49.27700 18.62400
H  40.21300 47.36600 22.06000
H  39.85600 49.11300 22.16300
H  39.80400 48.60400 19.48100
H  41.29400 47.72700 20.01900
H  40.99500 49.51000 20.37100
H  38.07400 43.94400 24.10100
H  37.17700 43.12800 25.41900
H  38.82700 43.79100 25.65300
H  36.96300 47.16900 29.83600
H  34.01000 44.13800 31.09300
H  33.21800 45.64700 31.37000
H  34.28600 44.99800 32.58000

