158

Mg 53.53000 23.41800 43.94300
C  51.03800 25.78000 43.05500
C  51.72900 21.00000 42.50900
C  56.31600 21.44400 43.81400
C  55.58100 26.15000 44.91000
N  51.73900 23.43800 42.59100
C  50.80700 24.49400 42.53800
C  49.52600 24.03900 41.80800
C  49.64300 22.46100 42.02400
C  51.08500 22.29000 42.38700
C  48.61000 22.07600 43.06500
C  49.33400 24.56300 40.37600
C  50.61800 24.84500 39.49800
H  50.37000 25.54100 38.09500
N  53.93300 21.44700 43.47600
C  52.99800 20.61000 42.99900
C  53.59900 19.22200 42.98600
C  54.89600 19.34400 43.44900
C  55.14000 20.80300 43.58100
C  52.76200 18.00400 42.43600
C  55.81900 18.12400 43.73100
O  55.46000 16.98900 43.40900
C  57.06000 18.36100 44.46400
N  55.54900 23.73400 44.35700
C  56.49000 22.78800 44.07200
C  57.90400 23.32600 44.37300
C  57.67500 24.75100 44.82300
C  56.19300 24.86500 44.68100
C  58.67300 22.43800 45.30800
C  58.54000 25.81500 44.05100
C  60.06700 25.74900 44.29400
N  53.41100 25.49600 44.06200
C  54.24000 26.42300 44.61600
C  53.50400 27.59500 44.88200
C  52.30500 27.38900 44.24000
C  52.33900 26.11700 43.70000
C  54.02600 28.78600 45.65100
C  51.00700 28.09800 43.92600
O  50.56000 29.21400 44.21100
C  50.16500 27.03900 43.13300
C  49.64100 27.60200 41.86700
O  50.23500 27.78200 40.82600
O  48.32100 27.83900 42.12400
C  47.56900 28.49200 41.01100
H  51.12600 20.19700 42.08300
H  57.20400 20.83900 43.61900
H  56.17100 26.94200 45.37500
H  48.66200 24.42700 42.34700
H  49.50600 22.06800 41.01600
H  48.67600 21.02400 43.34300
H  47.62200 22.22700 42.63000
H  48.77300 22.72000 43.93000
H  48.76200 25.48700 40.28800
H  48.71900 23.81700 39.87300
H  51.23900 23.96800 39.31800
H  51.18100 25.51100 40.15200
H  53.09200 16.98900 42.65800
H  52.41900 18.17900 41.41700
H  51.81500 18.06800 42.97200
H  56.95300 19.18500 45.16900
H  57.88100 18.58900 43.78500
H  57.33100 17.43400 44.96900
H  58.39200 23.23700 43.40300
H  57.95700 24.95800 45.85600
H  58.99200 22.99600 46.18900
H  59.52700 22.03900 44.76100
H  58.00200 21.67000 45.69400
H  58.18400 26.79200 44.37600
H  58.25100 25.65400 43.01300
H  60.44200 26.56200 44.91500
H  60.67400 25.94500 43.41000
H  60.38800 24.84600 44.81400
H  54.76700 29.29900 45.03800
H  54.33600 28.49400 46.65400
H  53.34000 29.61400 45.82900
H  49.26400 26.71900 43.65600
H  48.08200 29.42600 40.78100
H  46.55700 28.71600 41.34800
H  47.50000 27.91100 40.09200
Mg -4.83900 25.22600 25.30800
C  -3.28900 26.73200 28.01000
C  -6.44000 23.07000 27.44400
C  -5.99300 23.64400 22.59600
C  -2.93200 27.34700 23.19600
N  -4.84700 24.86700 27.41800
C  -4.16700 25.68600 28.37200
C  -4.57800 25.34300 29.75900
C  -5.40900 24.02500 29.57600
C  -5.58300 23.97300 28.07900
C  -4.78000 22.76700 30.18300
C  -5.23300 26.52600 30.51700
C  -4.89100 26.75900 32.01200
H  -4.80700 25.36800 32.75800
N  -6.08300 23.61400 25.05600
C  -6.67500 22.89800 26.03800
C  -7.55300 21.93100 25.46600
C  -7.41300 21.97400 24.03400
C  -6.50700 23.15700 23.83300
C  -8.42700 21.04400 26.29000
C  -8.08500 21.19600 22.89600
O  -7.90000 21.43500 21.70200
C  -8.95800 20.05800 23.22900
N  -4.54500 25.53200 23.13600
C  -5.11000 24.68200 22.26500
C  -4.53300 24.91900 20.83500
C  -3.79000 26.33200 20.95700
C  -3.71800 26.42400 22.50900
C  -3.65600 23.74700 20.32800
C  -4.63100 27.50100 20.33400
C  -4.15500 28.03400 18.98700
N  -3.53700 26.88900 25.51400
C  -2.77200 27.51100 24.58300
C  -1.90000 28.45100 25.24400
C  -2.04400 28.19000 26.62500
C  -3.02500 27.19100 26.71600
C  -1.02200 29.46300 24.52700
C  -1.54800 28.53100 27.93300
O  -0.67100 29.30800 28.36000
C  -2.36300 27.61600 28.86700
C  -1.49400 26.87900 29.94100
O  -1.05400 25.75800 29.81800
O  -1.51000 27.61700 31.08800
C  -0.88700 26.95600 32.23300
H  -7.02900 22.38200 28.05300
H  -6.18600 23.11900 21.65800
H  -2.41400 28.13700 22.65000
H  -3.68100 25.16100 30.35000
H  -6.41700 24.08900 29.98600
H  -5.53200 22.13400 30.65400
H  -4.12800 23.02000 31.01900
H  -4.32100 22.15700 29.40400
H  -6.31700 26.41400 30.54300
H  -5.11100 27.46300 29.97400
H  -5.61400 27.34900 32.57600
H  -3.94200 27.28700 32.10100
H  -8.12300 19.99700 26.30300
H  -9.34600 21.10400 25.70700
H  -8.59700 21.38600 27.31100
H  -8.40600 19.39200 23.89200
H  -9.28300 19.60400 22.29300
H  -9.90600 20.33200 23.69300
H  -5.41700 24.94100 20.19700
H  -2.80300 26.31800 20.49400
H  -4.27600 22.85400 20.40600
H  -2.75100 23.67600 20.93100
H  -3.39400 23.82700 19.27300
H  -4.60700 28.39500 20.95700
H  -5.64300 27.10500 20.24000
H  -4.02600 29.11600 19.03000
H  -5.03400 27.87400 18.36300
H  -3.28500 27.50600 18.59600
H  -1.41600 30.47600 24.61500
H  -0.96300 29.34000 23.44500
H  -0.08100 29.46300 25.07700
H  -3.12400 28.17200 29.41500
H  -0.79800 25.87300 32.14700
H  -1.41000 27.08800 33.18000
H  0.07900 27.45400 32.31200

