158

Mg 17.35000 -1.57700 27.63400
C  16.19200 0.62800 30.01700
C  19.18700 -3.30600 29.93800
C  18.82300 -3.27500 25.14700
C  16.16500 0.82000 25.24400
N  17.51100 -1.42900 29.79300
C  16.94100 -0.44800 30.55900
C  17.29200 -0.70100 32.01200
C  18.46100 -1.74700 31.90200
C  18.35600 -2.27600 30.48200
C  19.91800 -1.35400 32.50900
C  16.03300 -1.08800 32.85800
C  15.89800 -0.28300 34.21000
H  17.15600 0.17400 34.84400
N  18.63400 -3.27200 27.56600
C  19.31900 -3.79400 28.64400
C  20.11600 -4.92400 28.12700
C  19.99200 -4.95200 26.74200
C  19.13300 -3.80300 26.42000
C  20.87300 -5.84700 29.16500
C  20.65200 -5.91300 25.74500
O  20.50900 -5.83900 24.53500
C  21.59800 -6.96100 26.27300
N  17.37800 -1.35200 25.55800
C  18.02100 -2.24000 24.67200
C  18.00300 -1.80600 23.22000
C  17.04800 -0.53700 23.30300
C  16.82900 -0.33600 24.80200
C  19.37000 -1.48600 22.63200
C  15.70500 -0.72000 22.54100
C  15.23800 0.51500 21.81600
N  16.33500 0.36000 27.60300
C  15.91300 1.14100 26.51400
C  15.14700 2.21900 26.99800
C  15.17000 2.03200 28.38000
C  15.92700 0.92800 28.67200
C  14.51600 3.34800 26.12900
C  14.72600 2.57600 29.66400
O  13.98800 3.53600 29.91200
C  15.51000 1.78100 30.72300
C  16.35000 2.76600 31.51200
O  17.56300 2.93100 31.45800
O  15.55600 3.36400 32.50900
C  16.18400 4.36200 33.45700
H  19.91900 -3.69400 30.64900
H  19.40400 -3.72200 24.33900
H  15.76600 1.50400 24.49100
H  17.73600 0.23000 32.36300
H  18.19000 -2.58300 32.54700
H  20.58100 -1.22600 31.65300
H  20.22300 -2.07800 33.26400
H  19.75000 -0.35700 32.91600
H  16.02400 -2.09400 33.27600
H  15.14400 -0.83800 32.28000
H  15.31200 -0.80600 34.96500
H  15.37400 0.61900 33.89300
H  21.94600 -5.84900 28.97200
H  20.45700 -6.82800 29.39200
H  20.77200 -5.39500 30.15200
H  22.35800 -6.55000 26.93800
H  22.03800 -7.41500 25.38500
H  20.97900 -7.67900 26.81100
H  17.49700 -2.52000 22.57100
H  17.51600 0.36900 22.91900
H  19.91600 -1.07100 23.47900
H  19.25800 -0.87500 21.73700
H  19.90900 -2.38200 22.32300
H  14.90600 -0.99500 23.22900
H  15.89600 -1.45600 21.76000
H  14.97000 0.21400 20.80400
H  16.01000 1.28500 21.80100
H  14.35200 0.94500 22.28300
H  14.16900 2.99500 25.15700
H  15.11800 4.24400 25.97900
H  13.55400 3.53100 26.60700
H  14.82100 1.23200 31.36600
H  15.70700 5.33100 33.60700
H  17.21600 4.58600 33.18400
H  16.26500 3.79400 34.38300
Mg -5.27500 25.32600 25.39700
C  -3.67000 26.83300 28.32100
C  -6.96300 23.37000 27.63500
C  -6.72500 23.81400 22.82800
C  -3.24700 27.20800 23.38500
N  -5.14100 25.02200 27.61500
C  -4.51600 25.81900 28.64300
C  -5.06100 25.44700 30.07800
C  -5.91300 24.17100 29.75800
C  -6.04700 24.25700 28.23400
C  -5.34500 22.72600 30.27900
C  -5.85500 26.68900 30.72000
C  -5.68600 27.01600 32.23600
H  -5.36600 25.77000 33.12500
N  -6.65900 23.74700 25.21300
C  -7.27800 23.15900 26.29800
C  -8.14300 22.16700 25.71300
C  -8.00800 22.19600 24.30300
C  -7.11900 23.33100 24.03500
C  -8.93600 21.23700 26.63200
C  -8.71600 21.24100 23.21100
O  -8.59100 21.44300 22.04300
C  -9.59400 20.24500 23.66900
N  -4.93000 25.38900 23.45000
C  -5.81300 24.77200 22.54000
C  -5.46100 25.26000 21.11300
C  -4.52000 26.41500 21.33400
C  -4.09500 26.28100 22.78600
C  -4.81700 24.14100 20.21000
C  -4.86000 27.76200 20.72700
C  -4.45400 27.86600 19.20700
N  -3.69200 26.75200 25.72900
C  -3.02900 27.45900 24.80800
C  -2.21700 28.42800 25.55400
C  -2.41600 28.20300 26.90800
C  -3.36000 27.19400 26.97800
C  -1.30800 29.50600 24.96800
C  -1.98300 28.62800 28.25100
O  -1.05900 29.35600 28.71100
C  -2.83100 27.81600 29.10900
C  -1.96800 27.11700 30.10300
O  -1.02900 26.39300 29.82400
O  -2.25300 27.53100 31.34700
C  -1.51800 26.87600 32.43800
H  -7.48700 22.85200 28.44200
H  -7.22200 23.47500 21.91600
H  -2.70700 27.95300 22.79800
H  -4.18800 25.26100 30.70300
H  -6.92200 24.24700 30.16400
H  -5.48700 21.93600 29.54200
H  -5.95200 22.40200 31.12400
H  -4.31500 22.86600 30.60700
H  -6.90900 26.65500 30.44300
H  -5.38900 27.59000 30.32300
H  -6.62300 27.47000 32.55500
H  -4.85800 27.70900 32.38300
H  -8.60200 21.30100 27.66800
H  -9.08700 20.20300 26.32100
H  -9.90100 21.73600 26.72100
H  -8.96300 19.54400 24.21600
H  -10.13000 19.81500 22.82300
H  -10.28400 20.78000 24.32100
H  -6.38000 25.51800 20.58600
H  -3.58900 26.18400 20.81500
H  -5.19700 23.15100 20.46400
H  -3.75100 24.17800 20.43000
H  -4.97000 24.36400 19.15400
H  -4.52500 28.57600 21.37100
H  -5.94700 27.79100 20.79800
H  -4.42800 26.84700 18.82000
H  -3.48300 28.35700 19.26900
H  -5.11000 28.52800 18.64200
H  -1.89800 30.08900 24.26000
H  -0.45000 29.07700 24.45100
H  -1.00200 30.16600 25.78000
H  -3.51200 28.39100 29.73700
H  -2.01800 27.05500 33.39000
H  -0.54200 27.35400 32.52800
H  -1.47100 25.80300 32.25400

