158

Mg 29.42300 58.88600 40.07800
C  26.88400 56.70200 38.78600
C  31.85200 56.40300 39.00200
C  31.83000 61.25800 40.34700
C  26.89100 61.29900 40.33900
N  29.42800 56.84200 38.88200
C  28.17300 56.14200 38.58200
C  28.56800 54.77700 37.96400
C  30.08200 54.66500 38.29700
C  30.50600 56.05200 38.76600
C  30.43700 53.61900 39.40100
C  28.30200 54.88000 36.38500
C  27.04000 54.08600 36.00500
H  26.22700 54.58800 34.80400
N  31.56100 58.80000 39.82300
C  32.33500 57.71000 39.37800
C  33.65900 58.18400 39.47500
C  33.79000 59.52200 39.99900
C  32.36300 59.94400 40.06600
C  34.74100 57.20800 38.98400
C  35.07900 60.30300 40.35900
O  36.23000 59.93800 40.11400
C  35.04800 61.63900 40.99400
N  29.33500 60.92200 40.19300
C  30.47800 61.68700 40.33000
C  30.08400 63.16700 40.57100
C  28.55700 63.24500 40.59500
C  28.22200 61.69500 40.39400
C  30.79700 63.75700 41.85500
C  27.88300 64.20200 39.59800
C  27.39900 65.61600 39.98400
N  27.34100 58.95400 39.84500
C  26.49700 59.99300 40.05400
C  25.08800 59.53300 40.00600
C  25.23600 58.27300 39.48300
C  26.55900 57.97700 39.39000
C  23.84100 60.31800 40.34200
C  24.47200 57.10400 39.02300
O  23.23300 56.96800 38.86300
C  25.51200 56.05800 38.58700
C  25.28900 54.85400 39.48600
O  25.57400 54.86900 40.67800
O  24.62600 53.85300 38.80100
C  24.31200 52.57900 39.40900
H  32.53300 55.58700 38.75000
H  32.52300 62.08600 40.51100
H  26.11500 62.04800 40.51100
H  28.04900 53.98400 38.50200
H  30.66900 54.37200 37.42700
H  31.04800 52.84900 38.93000
H  29.56600 53.04500 39.71500
H  30.95700 54.01800 40.27200
H  29.08900 54.56600 35.69800
H  28.05700 55.89500 36.07400
H  26.44600 53.86500 36.89200
H  27.33100 53.05300 35.82000
H  35.09000 56.46700 39.70300
H  35.64900 57.80100 38.87100
H  34.45700 56.63400 38.10200
H  34.61800 62.43200 40.38300
H  36.09500 61.82700 41.23600
H  34.45900 61.51000 41.90200
H  30.48500 63.75500 39.74600
H  28.25100 63.65800 41.55600
H  30.52400 63.37200 42.83800
H  30.58100 64.82400 41.80500
H  31.87300 63.64500 41.72300
H  27.09800 63.68300 39.04600
H  28.52200 64.36700 38.73100
H  27.82500 66.28400 39.23500
H  27.73900 65.79600 41.00400
H  26.31200 65.64200 39.90700
H  23.14600 59.63600 40.83200
H  23.29500 60.64600 39.45800
H  24.08900 61.13800 41.01600
H  25.34700 55.60900 37.60800
H  23.42100 52.24600 38.87600
H  24.09900 52.61500 40.47700
H  25.14800 51.91000 39.20300
Mg 16.46500 52.33100 25.83900
C  18.23200 50.89300 28.57600
C  13.92500 53.18700 28.12300
C  14.74100 53.63500 23.31900
C  18.87100 51.11300 23.76900
N  16.10700 52.00200 28.07900
C  17.08700 51.57400 28.96300
C  16.65400 51.91500 30.50400
C  15.12200 52.28600 30.30000
C  15.02200 52.51800 28.76200
C  14.10800 51.34000 30.83400
C  17.50700 53.04200 31.16800
C  17.99600 52.81300 32.56900
H  17.02400 51.94200 33.37400
N  14.57500 53.24600 25.70600
C  13.71000 53.61700 26.74900
C  12.65500 54.50200 26.18000
C  12.95500 54.61100 24.76100
C  14.12700 53.78200 24.57300
C  11.57800 55.07900 27.03300
C  12.21200 55.38600 23.73500
O  12.56900 55.54300 22.56000
C  10.95900 56.10900 24.13900
N  16.67600 52.25300 23.83500
C  15.84100 52.92200 22.96100
C  16.36800 52.96400 21.52800
C  17.66800 52.05000 21.66200
C  17.73800 51.78400 23.21000
C  15.39800 52.52300 20.45900
C  18.95400 52.64600 21.15100
C  19.84000 51.60600 20.44900
N  18.19900 51.28800 26.00900
C  19.04600 50.78300 25.09300
C  20.15000 50.09900 25.70100
C  19.81100 50.15600 27.09400
C  18.58300 50.81900 27.25000
C  21.29500 49.43500 25.06100
C  20.27600 49.63400 28.29200
O  21.17700 48.91800 28.64600
C  19.29500 50.17400 29.33000
C  18.67300 49.14400 30.14500
O  17.65400 48.49800 29.90700
O  19.38400 48.97700 31.28200
C  18.63500 48.18400 32.31600
H  13.05700 53.44100 28.73600
H  14.41500 54.18800 22.43500
H  19.58500 50.68600 23.06200
H  16.74800 51.02000 31.11900
H  15.00600 53.27600 30.74000
H  13.35300 52.02300 31.22200
H  14.66500 50.82800 31.61900
H  13.76500 50.62600 30.08400
H  16.96300 53.98400 31.23400
H  18.39400 53.16600 30.54700
H  18.15500 53.77100 33.06300
H  18.99600 52.38400 32.49600
H  11.70100 56.16200 27.04800
H  11.59300 54.74000 28.06900
H  10.55600 54.88600 26.70800
H  10.95100 56.79900 24.98300
H  10.35600 55.21500 24.30000
H  10.46000 56.64500 23.33200
H  16.61100 54.02500 21.47100
H  17.39500 51.05800 21.30000
H  15.09300 53.35400 19.82300
H  14.55000 52.06300 20.96700
H  15.82800 51.70500 19.88100
H  19.55600 53.03700 21.97200
H  18.62300 53.49800 20.55700
H  19.85100 51.91900 19.40500
H  19.39800 50.61100 20.49600
H  20.74700 51.60700 21.05200
H  21.77800 50.18700 24.43800
H  20.89300 48.65500 24.41400
H  21.96000 49.11900 25.86500
H  19.85000 50.91400 29.90700
H  17.60800 48.52400 32.44800
H  19.19200 48.25700 33.25000
H  18.59200 47.17400 31.90900

