158

Mg 25.90400 -0.34700 28.98500
C  27.83600 -0.30500 31.93600
C  23.12400 -0.07800 30.93400
C  24.09100 -0.33700 26.17700
C  28.72900 -1.39300 27.19800
N  25.56400 -0.37300 31.29400
C  26.46500 -0.07700 32.25900
C  25.88200 0.17800 33.68400
C  24.36900 0.16000 33.27000
C  24.34400 -0.10900 31.68800
C  23.47400 -0.96800 34.02500
C  26.48500 1.36900 34.42300
C  27.09200 1.24100 35.72700
H  26.78200 2.22800 36.86700
N  23.84900 -0.22800 28.62100
C  22.88100 -0.08900 29.55800
C  21.62800 0.11500 28.88000
C  21.86500 0.17700 27.48500
C  23.28200 -0.16800 27.36900
C  20.32700 0.16900 29.67800
C  20.98700 0.39300 26.27800
O  21.39600 0.41300 25.11200
C  19.52700 0.61500 26.48800
N  26.35900 -0.87700 26.92700
C  25.42900 -0.66400 25.91400
C  26.05900 -0.92700 24.58900
C  27.56200 -1.22600 24.96600
C  27.55400 -1.17600 26.43400
C  25.49000 -1.87900 23.53700
C  28.63700 -0.37600 24.16900
C  28.97900 1.01600 24.69400
N  27.90000 -0.79000 29.39500
C  28.91400 -1.22300 28.56700
C  30.19800 -1.26000 29.37500
C  29.77500 -0.87900 30.62200
C  28.41300 -0.67000 30.63600
C  31.58400 -1.58300 28.85100
C  30.31200 -0.65200 31.93000
O  31.46300 -0.82400 32.28700
C  29.05100 -0.30600 32.80200
C  28.83800 -1.35400 33.81300
O  28.32200 -2.45500 33.64000
O  29.41400 -0.93400 35.00400
C  29.31600 -1.77800 36.20700
H  22.34200 0.00400 31.69100
H  23.59500 -0.23000 25.21000
H  29.59200 -1.58700 26.55900
H  26.07900 -0.79200 34.13900
H  23.83400 1.10900 33.30000
H  23.98300 -1.32300 34.92200
H  23.40900 -1.80900 33.33600
H  22.43100 -0.73000 34.23600
H  25.78400 2.20300 34.44600
H  27.27700 1.83300 33.83500
H  28.17100 1.11900 35.63700
H  26.85400 0.23600 36.07500
H  20.58100 0.39600 30.71300
H  19.83800 -0.79100 29.50600
H  19.80700 1.01500 29.22800
H  19.05800 0.66500 25.50500
H  19.32100 1.48400 27.11300
H  19.21600 -0.33700 26.91800
H  26.18500 0.02900 24.08100
H  27.80500 -2.28200 24.84900
H  26.29400 -2.37500 22.99300
H  24.88900 -1.29900 22.83700
H  24.81000 -2.60100 23.98700
H  28.37400 -0.41200 23.11200
H  29.53000 -1.00100 24.18500
H  29.97300 0.99200 25.14300
H  28.27600 1.20100 25.50600
H  28.95300 1.81800 23.95700
H  32.26500 -1.00000 29.47000
H  31.69200 -1.39000 27.78400
H  31.70100 -2.63000 29.13200
H  29.07600 0.70900 33.19800
H  29.34300 -2.84400 35.98500
H  28.39200 -1.62300 36.76300
H  30.26800 -1.57600 36.69800
Mg 47.71500 44.00700 42.38500
C  44.35500 43.07200 42.58800
C  48.46200 40.62500 41.84000
C  50.86000 44.92500 41.52300
C  46.66400 47.43200 42.19500
N  46.45400 42.02900 42.19700
C  45.08800 41.89400 42.34900
C  44.70600 40.41000 42.18700
C  46.10600 39.66500 42.18100
C  47.10900 40.82700 42.12200
C  46.22200 38.77800 43.39200
C  43.72200 39.98300 41.12900
C  43.76100 40.61600 39.68100
H  44.13700 39.69500 38.49400
N  49.45100 42.88900 41.79400
C  49.55700 41.51200 41.67300
C  50.89300 41.16700 41.43100
C  51.54300 42.40500 41.20900
C  50.60200 43.51600 41.45600
C  51.30700 39.72600 41.30000
C  52.98500 42.46100 40.88500
O  53.71800 41.47600 40.63900
C  53.76800 43.76800 40.76200
N  48.64900 45.91500 42.06100
C  49.94800 46.01300 41.80100
C  50.35200 47.52800 41.79500
C  48.96600 48.21900 41.45600
C  48.02600 47.16400 42.05100
C  51.06700 48.18600 42.92500
C  48.65500 48.44200 39.86900
C  48.19900 49.84700 39.49200
N  45.95700 45.07300 42.52900
C  45.64700 46.48500 42.43000
C  44.27200 46.67100 42.64200
C  43.74100 45.39500 42.69100
C  44.76800 44.46600 42.62100
C  43.63400 48.03200 42.76600
C  42.50100 44.65900 42.86300
O  41.38700 45.12300 42.96600
C  42.87000 43.12600 42.87900
C  42.50700 42.59600 44.23100
O  42.07500 41.43400 44.44000
O  42.96300 43.42800 45.18900
C  42.95100 42.96300 46.61100
H  48.60300 39.55400 41.67900
H  51.85200 45.15000 41.12600
H  46.44100 48.49400 42.31400
H  44.22300 40.16500 43.13300
H  46.29000 39.04200 41.30500
H  47.14700 38.21500 43.26200
H  45.25300 38.30700 43.55600
H  46.37500 39.44800 44.23800
H  42.70700 40.22300 41.44700
H  43.80600 38.90000 41.04700
H  44.38000 41.51100 39.61700
H  42.75100 40.98100 39.49500
H  51.99400 39.56100 40.47100
H  50.52300 39.02100 41.02300
H  51.75800 39.26700 42.18000
H  53.53300 44.24900 39.81300
H  54.79700 43.41600 40.83300
H  53.66200 44.34700 41.68000
H  51.02000 47.68600 40.94800
H  48.73900 49.09100 42.06900
H  52.09600 48.39800 42.63500
H  50.93700 47.56900 43.81400
H  50.75900 49.22700 43.02900
H  47.78100 47.82900 39.64900
H  49.41600 48.03200 39.20500
H  47.57500 50.42100 40.17800
H  47.48700 49.78100 38.66900
H  49.01300 50.54600 39.30100
H  43.82400 48.49400 41.79800
H  44.07500 48.58400 43.59600
H  42.56500 47.83900 42.84900
H  42.26700 42.54700 42.17800
H  42.51100 42.01300 46.91600
H  42.30100 43.66900 47.12700
H  43.96000 42.94600 47.02400

