158

Mg 35.89300 1.72000 29.83200
C  33.51800 2.72700 32.09600
C  38.14100 1.65000 32.54300
C  38.49600 1.40000 27.65700
C  33.75400 2.35800 27.25200
N  35.82300 2.20900 32.01500
C  34.73200 2.60300 32.71400
C  35.06200 2.78500 34.19700
C  36.62800 2.79700 34.19400
C  36.87700 2.14200 32.81800
C  37.16100 4.26600 34.33700
C  34.57700 1.64900 35.13400
C  34.08600 2.04200 36.56600
H  34.67200 3.25300 37.19300
N  38.01800 1.40600 30.11300
C  38.70800 1.35700 31.27200
C  40.13700 0.98200 30.99200
C  40.24400 0.90100 29.55800
C  38.82900 1.20400 29.04400
C  41.28400 0.85600 31.93200
C  41.40000 0.48300 28.71800
O  41.38100 0.48700 27.47900
C  42.71100 0.05600 29.35000
N  36.11300 1.81800 27.79200
C  37.27300 1.71000 27.11000
C  37.07400 1.89300 25.62000
C  35.52300 2.14900 25.42500
C  35.06300 2.07900 26.93300
C  38.02500 2.98700 24.97700
C  34.73600 1.09900 24.50400
C  33.98600 1.66600 23.25900
N  33.97100 2.26500 29.67700
C  33.14700 2.41300 28.53200
C  31.82000 2.87400 28.96500
C  31.88200 2.95000 30.34400
C  33.22400 2.55700 30.71900
C  30.72800 3.45100 28.17100
C  31.16100 3.33600 31.57900
O  29.99300 3.73400 31.70100
C  32.20800 3.20300 32.73500
C  32.23700 4.56100 33.36500
O  32.70300 5.54300 32.89500
O  31.51000 4.49500 34.52300
C  31.38600 5.63400 35.32600
H  38.76500 1.44100 33.41500
H  39.30100 1.50200 26.92600
H  33.02000 2.52300 26.46100
H  34.64200 3.69600 34.62400
H  37.12500 2.18100 34.94400
H  37.83900 4.44700 33.50300
H  37.65300 4.25700 35.31000
H  36.36000 5.00500 34.30100
H  35.38400 0.93900 35.31800
H  33.80000 1.13700 34.56700
H  34.35900 1.18900 37.18700
H  33.00600 2.11900 36.69000
H  41.67000 -0.15700 32.03900
H  40.86400 1.26400 32.85100
H  42.08600 1.56900 31.74200
H  42.60300 -0.64300 30.18000
H  43.16800 0.98600 29.68800
H  43.41900 -0.26100 28.58400
H  37.29700 0.91900 25.18400
H  35.36900 3.17700 25.09600
H  37.54800 3.56400 24.18500
H  38.85900 2.46500 24.50700
H  38.43000 3.60400 25.77900
H  33.92400 0.63900 25.06700
H  35.38800 0.29500 24.16100
H  32.89900 1.65900 23.34400
H  34.19600 1.16400 22.31400
H  34.21300 2.69100 22.96800
H  30.92800 3.29000 27.11200
H  30.47100 4.50300 28.28700
H  29.86000 2.83700 28.41100
H  31.87000 2.42300 33.41800
H  30.36600 5.83100 35.65400
H  31.88300 6.54300 34.98700
H  31.86500 5.34200 36.26000
Mg 48.11400 34.60500 27.53500
C  46.33700 33.38900 30.31200
C  48.44100 37.60300 29.21100
C  49.46100 35.81300 24.79900
C  46.93100 31.77100 25.62800
N  47.60500 35.31100 29.60000
C  46.90400 34.66000 30.55300
C  46.72800 35.49500 31.78100
C  47.02600 36.91000 31.16400
C  47.76500 36.60400 29.93600
C  45.74400 37.79200 31.03700
C  47.85200 35.11300 32.88000
C  47.32500 34.64700 34.25000
H  47.68200 35.29500 35.51400
N  48.98100 36.32500 27.16600
C  49.05300 37.49000 27.94600
C  49.85400 38.53900 27.30200
C  50.37400 37.91800 26.07300
C  49.65900 36.56100 25.95800
C  50.17000 39.86200 27.94500
C  51.31200 38.39700 25.09600
O  51.70100 37.68200 24.15700
C  51.91300 39.73600 25.25100
N  48.12100 33.82300 25.41900
C  48.72400 34.61500 24.45300
C  48.76100 33.91000 23.09300
C  48.01300 32.55300 23.33900
C  47.60100 32.69300 24.85700
C  48.21100 34.76800 21.93200
C  48.81500 31.23300 23.11600
C  50.28100 31.23400 23.62800
N  46.89900 32.97300 27.81700
C  46.59600 31.83600 27.01300
C  45.69500 30.95700 27.83100
C  45.51700 31.53000 29.03400
C  46.32900 32.70600 29.03000
C  45.13100 29.65800 27.37100
C  44.90500 31.37100 30.32400
O  44.12800 30.52200 30.77200
C  45.22000 32.63900 31.12600
C  45.60000 32.20600 32.45800
O  46.60900 31.67200 32.86500
O  44.53300 32.49000 33.23500
C  44.58800 31.90400 34.57800
H  48.50100 38.58000 29.69700
H  49.81900 36.21300 23.84800
H  46.59200 30.93900 25.00700
H  45.72500 35.28100 32.15200
H  47.71500 37.40200 31.84900
H  45.68600 38.10600 29.99500
H  45.81400 38.59000 31.77600
H  44.84900 37.24000 31.32600
H  48.45000 35.97100 33.18600
H  48.46400 34.34300 32.41000
H  47.75700 33.66300 34.43700
H  46.24100 34.64300 34.13100
H  51.23300 39.89600 28.18800
H  49.42500 40.16500 28.68100
H  50.00000 40.59100 27.15200
H  51.06000 40.39600 25.09200
H  52.57900 39.91200 24.40600
H  52.33000 39.95500 26.23400
H  49.77500 33.65400 22.78700
H  47.14300 32.57200 22.68400
H  48.16700 35.84200 22.11500
H  47.20300 34.41700 21.71200
H  48.79400 34.65500 21.01800
H  48.66300 31.04200 22.05300
H  48.13700 30.49400 23.54400
H  50.64200 32.20900 23.95300
H  50.92100 30.99200 22.77900
H  50.49600 30.61200 24.49700
H  45.88500 29.00800 26.92600
H  44.39600 29.80500 26.58000
H  44.62000 29.23400 28.23500
H  44.35300 33.28900 31.23700
H  45.18900 32.55000 35.21800
H  45.04300 30.91300 34.59800
H  43.63700 31.80400 35.10000

