158

Mg 6.62400 53.53300 41.71400
C  6.02200 50.11500 41.33800
C  9.87900 52.98700 40.94500
C  6.90200 56.81200 41.30300
C  3.17100 53.91100 42.51100
N  7.84100 51.70500 41.29700
C  7.39900 50.45600 41.07000
C  8.54600 49.43700 40.70800
C  9.85200 50.33000 41.07600
C  9.19100 51.79000 41.05900
C  10.61000 50.05100 42.43300
C  8.63300 48.85000 39.26200
C  8.32400 49.89700 38.19500
H  7.28000 49.52000 37.09800
N  8.19600 54.75200 41.28400
C  9.42700 54.29300 40.86900
C  10.19900 55.43300 40.45000
C  9.34500 56.59800 40.54700
C  8.08000 56.06800 41.03200
C  11.66600 55.42700 39.96900
C  9.76100 58.03400 40.17100
O  10.84100 58.30300 39.58100
C  8.98900 59.11700 40.67000
N  5.25400 55.14000 41.97200
C  5.63300 56.43000 41.73800
C  4.43000 57.28900 41.78400
C  3.28700 56.44200 42.46700
C  3.88400 55.05100 42.29900
C  4.50300 58.71100 42.41200
C  1.79000 56.61800 41.97900
C  0.75800 56.64600 43.11300
N  4.95100 52.34000 41.95700
C  3.66300 52.62600 42.38500
C  2.85900 51.42200 42.42800
C  3.74900 50.42800 42.08700
C  5.02600 51.02400 41.74700
C  1.37100 51.20600 42.79000
C  3.84000 49.02000 41.80900
O  3.02400 48.08600 41.86100
C  5.40200 48.78800 41.43200
C  5.39100 47.97300 40.22000
O  4.81500 48.26000 39.19100
O  5.92300 46.74800 40.46800
C  6.24600 45.85400 39.34800
H  10.91300 53.03200 40.59700
H  6.90800 57.82900 40.90500
H  2.11200 53.92600 42.77700
H  8.34500 48.70700 41.49200
H  10.66900 50.40400 40.35800
H  10.47800 48.99600 42.67200
H  10.37600 50.67900 43.29200
H  11.65700 50.30800 42.26800
H  7.96600 47.99300 39.16700
H  9.61100 48.37500 39.18100
H  9.23000 50.20700 37.67400
H  8.06200 50.81700 38.71700
H  12.19000 54.50000 40.20200
H  12.23200 56.23000 40.44100
H  11.72100 55.63000 38.90000
H  8.52600 59.74000 39.90600
H  9.62800 59.90600 41.06600
H  8.49500 58.91000 41.62000
H  4.24400 57.44100 40.72000
H  3.29400 56.59200 43.54700
H  5.37900 58.88800 43.03700
H  3.68200 58.99000 43.07200
H  4.47500 59.48300 41.64300
H  1.47600 55.89400 41.22700
H  1.67100 57.58500 41.49100
H  0.09500 57.50900 43.06000
H  1.28800 56.73300 44.06200
H  0.13000 55.75500 43.14300
H  0.93400 52.13400 43.15900
H  1.32100 50.54900 43.65900
H  0.82600 50.68000 42.00700
H  5.92800 48.25200 42.22200
H  7.28500 45.83700 39.02000
H  5.56600 45.88700 38.49700
H  6.01300 44.84500 39.68700
Mg 0.77300 43.49600 26.14700
C  2.93100 42.98500 28.86000
C  -1.78900 42.46800 28.09100
C  -1.27300 43.49200 23.40600
C  3.63500 43.88900 24.10300
N  0.61700 42.94800 28.25700
C  1.62600 42.83800 29.24100
C  1.02400 42.71100 30.60200
C  -0.47400 42.29800 30.26500
C  -0.57700 42.58100 28.74200
C  -0.76100 40.76500 30.42300
C  1.12400 44.00600 31.44200
C  1.63000 43.87700 32.88200
H  1.01000 42.86400 33.82600
N  -1.28500 43.12800 25.77500
C  -2.18400 42.76200 26.80700
C  -3.49400 42.78700 26.30000
C  -3.36400 43.15600 24.89200
C  -1.95300 43.26200 24.60900
C  -4.78900 42.49000 27.16900
C  -4.48100 43.35800 23.82100
O  -4.22600 43.55700 22.65900
C  -5.92500 43.48100 24.24500
N  1.16000 43.62300 24.08200
C  0.12600 43.71600 23.18700
C  0.69300 43.81500 21.72900
C  2.16900 44.28100 21.96900
C  2.34900 43.90300 23.48300
C  0.59400 42.43700 20.99200
C  2.51800 45.70700 21.67300
C  1.55900 46.79600 22.12600
N  2.87400 43.55700 26.42300
C  3.92100 43.76500 25.52300
C  5.12600 43.68500 26.18100
C  4.82600 43.40400 27.50600
C  3.42400 43.31600 27.60600
C  6.51300 43.78900 25.58800
C  5.43900 43.16400 28.78000
O  6.62300 43.10900 29.10800
C  4.20000 43.04100 29.73000
C  4.29500 41.77100 30.58500
O  4.06200 40.67000 30.10300
O  4.59000 42.09900 31.85800
C  4.52100 41.07200 32.83800
H  -2.60600 42.17600 28.75300
H  -1.80700 43.79400 22.50200
H  4.43900 44.05300 23.38300
H  1.47100 41.90500 31.18300
H  -1.19200 42.90100 30.82000
H  -1.09900 40.28000 29.50700
H  -1.37700 40.45900 31.26800
H  0.17300 40.28400 30.71500
H  0.20500 44.58800 31.37700
H  1.77000 44.74700 30.97300
H  1.65800 44.85100 33.36900
H  2.69900 43.67900 32.81100
H  -5.76300 42.77200 26.76700
H  -4.69800 42.72700 28.22900
H  -4.72700 41.40300 27.22600
H  -6.23000 42.44400 24.38900
H  -6.44800 43.85200 23.36400
H  -6.01300 44.18700 25.07100
H  0.15800 44.63400 21.24700
H  2.83900 43.61100 21.43100
H  0.45100 41.63900 21.72000
H  1.45300 42.28000 20.34000
H  -0.28000 42.38700 20.34200
H  2.54000 45.82600 20.59000
H  3.46800 45.99500 22.12200
H  1.20400 47.30200 21.22700
H  1.99100 47.54100 22.79400
H  0.69200 46.35700 22.61900
H  7.01300 44.72400 25.84100
H  6.38500 43.71700 24.50800
H  7.11600 42.94400 25.92000
H  4.30200 43.93000 30.35300
H  3.92800 41.50900 33.64100
H  5.52900 40.89200 33.21300
H  4.07300 40.14900 32.46900

