158

Mg 2.11100 -1.37200 46.42900
C  5.34000 -0.17300 45.45900
C  0.83900 1.07800 44.28900
C  -0.87900 -2.78200 46.70600
C  3.71500 -4.31700 47.51100
N  2.97000 0.25900 45.04500
C  4.28300 0.51400 44.88300
C  4.52500 1.64300 43.90800
C  3.03100 2.35200 43.87900
C  2.20500 1.20400 44.49100
C  2.75200 3.74000 44.65800
C  5.11100 1.25800 42.44800
C  6.33100 2.05500 41.97800
H  7.38100 1.31500 41.13800
N  0.21000 -0.82800 45.71500
C  -0.12500 0.11900 44.81500
C  -1.49700 0.18400 44.67300
C  -2.08300 -0.81200 45.46600
C  -0.94500 -1.50200 46.04600
C  -2.17200 1.12800 43.74200
C  -3.57800 -0.94600 45.67900
O  -4.49000 -0.21700 45.29600
C  -4.13200 -2.17900 46.42100
N  1.49400 -3.27100 46.88000
C  0.16900 -3.60100 46.99800
C  0.01600 -4.98700 47.70200
C  1.48900 -5.54300 47.58500
C  2.32500 -4.29200 47.30600
C  -0.34400 -4.91900 49.16500
C  1.72900 -6.47400 46.34800
C  1.46900 -7.96300 46.64000
N  4.15500 -2.02000 46.80600
C  4.65300 -3.25500 47.19100
C  6.01000 -3.24600 47.24100
C  6.34200 -1.98600 46.61400
C  5.18100 -1.38800 46.24100
C  6.78700 -4.43800 47.69800
C  7.41200 -1.13500 46.18800
O  8.65800 -1.23400 46.37600
C  6.79100 0.12400 45.46300
C  7.19800 1.41000 46.14200
O  6.93800 1.70300 47.29400
O  7.74900 2.22400 45.20000
C  8.17000 3.56100 45.73600
H  0.37700 1.92300 43.77400
H  -1.79700 -3.30300 46.98600
H  4.12400 -5.25700 47.88600
H  5.17700 2.38900 44.36200
H  2.75400 2.55800 42.84500
H  3.59900 3.96400 45.30600
H  1.78700 3.71400 45.16300
H  2.95900 4.51800 43.92200
H  4.36400 1.51400 41.69600
H  5.15800 0.16900 42.47600
H  6.79800 2.56400 42.82200
H  6.04300 2.91900 41.37900
H  -3.23000 0.97900 43.52900
H  -1.53500 1.16200 42.85800
H  -2.01100 2.15300 44.07900
H  -3.59100 -2.43900 47.33100
H  -4.12200 -3.04300 45.75600
H  -5.15800 -1.98900 46.73700
H  -0.72000 -5.54900 47.12900
H  1.80900 -5.99500 48.52400
H  -0.54400 -3.86500 49.35400
H  0.35200 -5.40500 49.84900
H  -1.32500 -5.35900 49.34600
H  2.61300 -6.38600 45.71600
H  0.93400 -6.20200 45.65400
H  2.35800 -8.59300 46.63600
H  0.90100 -8.42900 45.83500
H  0.98100 -8.14400 47.59800
H  7.25400 -4.84900 46.80200
H  6.25200 -5.19500 48.27000
H  7.49900 -4.08700 48.44500
H  7.15500 0.10700 44.43600
H  7.27200 4.02700 46.14200
H  8.59500 4.11600 44.89900
H  8.87900 3.39400 46.54600
Mg 47.68300 25.11000 28.47900
C  48.68000 27.30700 31.20800
C  46.49900 22.92700 30.90700
C  47.33600 23.03000 26.10700
C  49.13900 27.52800 26.25600
N  47.60700 25.12300 30.78100
C  48.05500 26.11000 31.60500
C  47.64600 25.80000 33.10300
C  47.16700 24.27500 32.98500
C  47.15900 24.03000 31.45800
C  48.06900 23.32500 33.70800
C  46.64100 26.78800 33.70400
C  47.05200 27.56900 34.98200
H  45.97700 27.84500 35.97800
N  46.88400 23.29300 28.49000
C  46.44900 22.58200 29.55500
C  45.84100 21.41000 28.98600
C  46.03600 21.37000 27.56400
C  46.87400 22.56100 27.36500
C  45.06500 20.35500 29.84700
C  45.49300 20.45400 26.45600
O  45.62000 20.60000 25.27000
C  44.58300 19.28400 26.95500
N  48.05500 25.35000 26.46200
C  47.85100 24.26000 25.68800
C  48.40500 24.40400 24.24200
C  48.82800 25.93900 24.22700
C  48.70000 26.35400 25.72800
C  49.64300 23.45900 23.96400
C  47.95200 26.74800 23.29200
C  46.71100 27.44000 23.85500
N  48.71200 26.98600 28.61200
C  49.16800 27.86100 27.64800
C  49.83700 28.99800 28.22100
C  49.64300 28.81400 29.63100
C  48.92600 27.58700 29.81200
C  50.62000 30.15500 27.66500
C  49.96400 29.39300 30.92900
O  50.60500 30.37800 31.30900
C  49.22900 28.49100 31.94900
C  50.26900 28.09000 32.91500
O  51.20000 27.30500 32.68700
O  50.14100 28.71700 34.15600
C  51.17800 28.47100 35.12100
H  46.09000 22.19200 31.60300
H  47.34400 22.33900 25.26100
H  49.51800 28.22900 25.51000
H  48.53300 25.89100 33.72900
H  46.17400 24.12700 33.40900
H  48.79000 22.94300 32.98600
H  47.50900 22.47200 34.09100
H  48.55600 23.80500 34.55600
H  45.78600 26.19200 34.02100
H  46.37400 27.57800 33.00200
H  47.35900 28.57200 34.68800
H  47.88200 27.08800 35.50000
H  44.00500 20.38200 29.59600
H  45.21100 20.59100 30.90100
H  45.41400 19.32400 29.77500
H  44.84900 18.65900 27.80800
H  44.57200 18.62600 26.08700
H  43.56300 19.64700 27.08400
H  47.58600 24.03900 23.62200
H  49.87500 26.05100 23.94500
H  50.02900 23.07100 24.90600
H  50.49100 23.85600 23.40600
H  49.22100 22.56500 23.50400
H  47.67800 26.24500 22.36400
H  48.58100 27.53500 22.87600
H  46.61300 27.60700 24.92800
H  45.78600 26.96700 23.52500
H  46.64700 28.49800 23.60200
H  50.84300 30.01100 26.60800
H  51.55400 30.12100 28.22600
H  50.20400 31.13200 27.91100
H  48.42500 29.06400 32.41200
H  50.93800 27.49500 35.54500
H  51.12700 29.34500 35.76900
H  52.15800 28.42200 34.64600

