158

Mg 2.78400 -2.56700 44.80200
C  6.23800 -1.71000 44.51100
C  1.96300 -0.00200 42.72800
C  -0.28600 -3.93300 44.50400
C  3.86600 -5.41400 46.65800
N  4.02900 -1.09500 43.59000
C  5.36300 -0.88200 43.71400
C  5.74700 0.27500 42.83200
C  4.41000 0.91600 42.43000
C  3.36800 -0.03800 43.02300
C  4.11200 2.27700 43.03100
C  6.75700 -0.12500 41.67500
C  7.79500 0.93000 41.39900
H  7.41500 1.77700 40.20700
N  1.03500 -1.98500 43.83200
C  0.90200 -0.86400 43.04000
C  -0.44600 -0.77000 42.52300
C  -1.15300 -1.85700 43.07900
C  -0.16800 -2.66500 43.85000
C  -0.99400 0.31700 41.56900
C  -2.61200 -2.04100 42.96000
O  -3.27400 -1.25200 42.33500
C  -3.38200 -3.09800 43.71000
N  1.80500 -4.45200 45.67200
C  0.56900 -4.79100 45.25800
C  0.25000 -6.22700 45.75000
C  1.64300 -6.71300 46.37400
C  2.50500 -5.52100 46.17300
C  -0.94900 -6.17200 46.74100
C  2.23000 -7.95100 45.59800
C  2.38300 -9.26900 46.38900
N  4.54500 -3.37100 45.47700
C  4.82200 -4.42900 46.29500
C  6.26600 -4.58800 46.54100
C  6.77500 -3.47300 45.95000
C  5.78000 -2.82800 45.25400
C  6.86100 -5.75500 47.24700
C  8.04400 -2.68700 45.78000
O  9.12800 -2.90300 46.22600
C  7.71000 -1.48700 44.86500
C  7.76200 -0.19600 45.64400
O  6.87900 0.07800 46.46100
O  8.74400 0.62100 45.19500
C  8.70000 1.97600 45.73800
H  1.68100 0.92400 42.22200
H  -1.31100 -4.31000 44.47200
H  4.06200 -6.31600 47.24200
H  6.25600 0.95600 43.51400
H  4.29800 0.99700 41.34800
H  3.49500 2.75800 42.27100
H  5.02600 2.74700 43.39300
H  3.56000 2.22100 43.96900
H  6.20800 -0.22100 40.73800
H  7.20900 -1.08300 41.93400
H  8.75100 0.41200 41.32600
H  7.91000 1.60200 42.25000
H  -0.45100 1.26100 41.62200
H  -2.00300 0.62300 41.84300
H  -0.87400 0.00300 40.53200
H  -3.13500 -2.87700 44.74800
H  -3.14900 -4.07900 43.29700
H  -4.44600 -2.87800 43.61400
H  -0.19900 -6.85900 44.98400
H  1.50700 -6.90600 47.43800
H  -1.75600 -6.82400 46.40600
H  -1.35400 -5.16100 46.79200
H  -0.63800 -6.42300 47.75500
H  3.23500 -7.70500 45.25300
H  1.62100 -8.14100 44.71400
H  1.91000 -9.15400 47.36400
H  3.42000 -9.57900 46.51100
H  1.93100 -10.10300 45.85100
H  7.73300 -5.42300 47.81100
H  7.20100 -6.47300 46.50000
H  6.23500 -6.33700 47.92400
H  8.42900 -1.49300 44.04600
H  9.67900 2.16100 46.17800
H  7.93600 2.30500 46.44300
H  8.45200 2.66300 44.92900
Mg 46.80900 15.93000 28.40600
C  44.46200 15.61100 30.96900
C  48.81800 17.68300 30.53300
C  48.57100 16.73800 25.83500
C  44.42600 14.48100 26.20200
N  46.51700 16.81300 30.43400
C  45.63200 16.27300 31.37500
C  45.96600 16.86600 32.80300
C  47.18100 17.76200 32.55300
C  47.52100 17.47500 31.03200
C  46.78000 19.27000 32.73100
C  46.18200 15.66800 33.75900
C  45.52500 15.73500 35.13200
H  45.32200 17.11600 35.77100
N  48.62100 16.95900 28.23100
C  49.30500 17.56900 29.23500
C  50.59500 17.93900 28.76600
C  50.60900 17.62700 27.37600
C  49.27900 17.02700 27.07600
C  51.72900 18.45000 29.68300
C  51.62200 17.89400 26.22700
O  51.40100 17.62200 25.08500
C  53.05400 18.45400 26.58400
N  46.34800 15.90300 26.28000
C  47.36200 16.27300 25.46100
C  46.85400 16.17700 23.94500
C  45.65400 15.23400 24.17400
C  45.44500 15.15100 25.64300
C  46.56000 17.50700 23.27100
C  45.75400 13.79300 23.54100
C  44.46400 13.43200 22.84300
N  44.90000 14.99400 28.52500
C  44.08100 14.39800 27.58600
C  42.83300 14.04000 28.25200
C  42.97200 14.44500 29.57900
C  44.24100 15.06100 29.70800
C  41.64800 13.26000 27.59700
C  42.39300 14.38300 30.80400
O  41.29900 13.93200 31.08500
C  43.33100 15.15300 31.83600
C  42.49900 16.16100 32.47300
O  42.42200 17.33900 32.06700
O  42.10000 15.74000 33.66600
C  41.25400 16.71300 34.40900
H  49.55700 17.99500 31.27500
H  49.14300 17.00300 24.94300
H  43.69600 13.96300 25.57700
H  45.07400 17.39200 33.14400
H  48.06500 17.51600 33.14100
H  45.71500 19.43000 32.89900
H  46.94600 19.70700 31.74600
H  47.34300 19.80900 33.49300
H  47.24900 15.46400 33.84700
H  45.82100 14.72800 33.34100
H  46.11900 15.23200 35.89500
H  44.57500 15.21400 35.01700
H  51.61600 19.51500 29.88400
H  52.73600 18.27800 29.30400
H  51.64100 18.02100 30.68100
H  52.97800 19.38900 27.13800
H  53.60600 18.64300 25.66300
H  53.57400 17.68400 27.15400
H  47.60600 15.70000 23.31500
H  44.74400 15.73200 23.84200
H  46.74100 18.33600 23.95500
H  45.51600 17.41900 22.97000
H  47.07800 17.65800 22.32400
H  45.95600 13.12900 24.38200
H  46.48800 13.77900 22.73600
H  44.62400 13.25600 21.78000
H  43.65300 14.14100 23.01100
H  44.06600 12.51000 23.26700
H  42.14600 12.46500 27.04100
H  41.18300 14.01900 26.96800
H  40.97000 12.76500 28.29200
H  43.64200 14.43700 32.59600
H  40.32500 17.03000 33.93600
H  41.87900 17.55400 34.70800
H  41.04100 16.24600 35.37100

