158

Mg 40.73900 41.50500 27.41000
C  39.77300 43.71300 29.88400
C  41.80500 39.34000 29.67800
C  41.69000 39.51700 24.81400
C  39.79500 44.05100 25.06300
N  40.51900 41.43100 29.49700
C  40.05300 42.44200 30.38100
C  40.29700 42.07700 31.82900
C  41.13900 40.77900 31.77100
C  41.05700 40.44000 30.22500
C  42.51500 40.85400 32.44300
C  39.05000 42.00900 32.60200
C  39.21100 41.60900 34.08200
H  38.96000 42.75800 35.05200
N  41.63900 39.68600 27.31100
C  41.98700 38.95500 28.34700
C  42.57700 37.72100 27.86700
C  42.55400 37.70100 26.47000
C  41.96500 39.03800 26.14500
C  43.01400 36.56900 28.73000
C  43.17700 36.71000 25.45200
O  43.10800 36.76600 24.22700
C  43.90200 35.55300 25.99400
N  40.71400 41.70400 25.27900
C  41.17900 40.78900 24.42200
C  40.89200 41.18200 22.93200
C  40.08100 42.46600 23.11600
C  40.15500 42.82800 24.58200
C  42.08800 41.37200 22.00800
C  38.60300 42.39900 22.63000
C  37.76600 41.30300 23.34000
N  40.05900 43.46700 27.44500
C  39.75600 44.40100 26.45800
C  39.27700 45.59200 26.96900
C  39.28800 45.36300 28.38100
C  39.78100 44.12100 28.57200
C  39.00300 46.89500 26.24800
C  39.03700 45.96800 29.62800
O  38.56500 47.01000 29.91700
C  39.38000 44.88700 30.70000
C  40.46100 45.46900 31.56800
O  41.51700 45.84300 31.15300
O  40.06000 45.62800 32.94800
C  41.08800 45.98000 33.82400
H  42.05300 38.68600 30.51700
H  42.06700 38.85400 24.03300
H  39.40900 44.78100 24.34900
H  40.85700 42.89800 32.27600
H  40.65900 39.97000 32.32200
H  42.46800 41.67800 33.15500
H  43.29700 40.97500 31.69300
H  42.81000 39.94000 32.95800
H  38.25800 41.48900 32.06400
H  38.75900 43.05800 32.65600
H  40.20500 41.19800 34.26200
H  38.58800 40.75900 34.35900
H  42.65200 35.58100 28.44300
H  42.81200 36.76800 29.78200
H  44.09300 36.42000 28.73300
H  44.73300 35.86600 26.62700
H  44.29800 35.03900 25.11800
H  43.20300 34.86800 26.47400
H  40.32700 40.30800 22.60800
H  40.66100 43.20800 22.56800
H  42.80900 42.06000 22.44900
H  41.73700 41.73300 21.04200
H  42.55800 40.39400 21.90200
H  38.75800 42.08900 21.59600
H  38.05000 43.32800 22.76400
H  37.09900 40.81000 22.63400
H  37.15200 41.84900 24.05600
H  38.42000 40.60400 23.86200
H  38.25900 46.77600 25.45900
H  39.90900 47.37400 25.87700
H  38.54000 47.53200 27.00200
H  38.45300 44.76900 31.26200
H  41.24300 47.04800 33.67100
H  41.94300 45.30800 33.74800
H  40.72000 46.00500 34.85000
Mg 15.77700 51.45100 25.60200
C  17.23600 50.31600 28.60000
C  12.93600 52.19700 27.38500
C  14.27000 52.01000 22.73500
C  18.54400 50.10500 23.90300
N  15.14900 51.18100 27.75700
C  15.99300 50.91100 28.82300
C  15.43100 51.44000 30.18200
C  13.95100 51.75400 29.81000
C  14.01500 51.78900 28.24000
C  12.69500 50.89000 30.25600
C  16.26800 52.69800 30.60400
C  16.07300 53.24900 31.95500
H  14.88500 52.79800 32.86400
N  13.87100 51.96600 25.12500
C  12.85000 52.29800 26.01600
C  11.65100 52.59300 25.26900
C  11.95000 52.37200 23.89200
C  13.42900 52.10500 23.84700
C  10.34600 52.93400 25.91300
C  11.07400 52.39600 22.62500
O  11.47800 52.04700 21.54900
C  9.64700 52.78700 22.75700
N  16.33100 51.06100 23.54000
C  15.58200 51.54600 22.51900
C  16.23800 51.37000 21.16400
C  17.54800 50.57400 21.59700
C  17.53300 50.58500 23.11600
C  15.28000 50.72900 20.11800
C  18.84800 51.12700 20.97000
C  19.34500 50.24700 19.83600
N  17.54900 50.34300 26.11200
C  18.59400 49.89900 25.32300
C  19.62400 49.34300 26.16300
C  19.14400 49.41100 27.44200
C  17.85600 50.03000 27.40900
C  20.91600 48.90500 25.63500
C  19.44600 49.20700 28.80500
O  20.50700 48.86800 29.36800
C  18.24600 49.82600 29.55600
C  17.55400 48.99600 30.62500
O  16.74800 48.10000 30.50900
O  18.11400 49.30900 31.84800
C  17.83700 48.41900 32.96200
H  12.07900 52.41600 28.02600
H  13.82500 52.21100 21.75900
H  19.41400 49.78100 23.32700
H  15.40600 50.64200 30.92500
H  13.83700 52.81100 30.04900
H  12.32900 50.41100 29.34900
H  11.92800 51.47600 30.76200
H  13.06500 50.12300 30.93600
H  16.32200 53.43300 29.80100
H  17.31000 52.37700 30.59100
H  15.91900 54.29700 31.69800
H  17.03000 53.06700 32.44300
H  9.98500 53.82000 25.39100
H  10.55300 53.31300 26.91400
H  9.59000 52.15000 25.89400
H  9.61400 53.85900 22.95100
H  9.18900 52.12500 23.49200
H  9.21300 52.58300 21.77800
H  16.51000 52.33400 20.73500
H  17.40400 49.57600 21.18400
H  14.42100 50.31900 20.64900
H  15.76200 49.90100 19.59900
H  14.81600 51.54800 19.56800
H  19.69900 51.29900 21.62900
H  18.54800 52.07300 20.52000
H  20.13000 49.61800 20.25500
H  19.90200 50.86200 19.12800
H  18.60000 49.76400 19.20300
H  21.33200 49.84500 25.27200
H  20.88600 48.12800 24.87200
H  21.58700 48.43500 26.35500
H  18.61400 50.74000 30.02200
H  17.21000 48.95000 33.67900
H  18.73800 48.10100 33.48800
H  17.30000 47.49000 32.77100

