158

Mg 44.32900 4.24800 47.16300
C  42.52000 7.37600 47.27200
C  41.48000 2.60200 46.87600
C  46.13300 1.58100 46.15500
C  47.20000 6.30100 46.84700
N  42.26400 4.95300 46.98500
C  41.73000 6.24200 47.25100
C  40.24200 6.13100 47.43800
C  39.91900 4.62100 47.29400
C  41.29500 4.00100 47.16400
C  39.08000 3.96900 48.41500
C  39.58100 6.95400 46.30100
C  40.20500 7.25600 44.89100
H  39.38900 6.99800 43.58500
N  43.83900 2.29100 46.67100
C  42.63000 1.82200 46.68900
C  42.64100 0.39500 46.31800
C  44.00200 0.08400 45.99700
C  44.72500 1.34800 46.26100
C  41.37900 -0.37600 46.15900
C  44.56400 -1.23000 45.41700
O  43.82000 -2.16700 45.12600
C  46.08500 -1.48100 45.16200
N  46.27600 3.99300 46.61800
C  46.84500 2.81100 46.31700
C  48.35400 2.81300 46.46900
C  48.72700 4.24500 46.83000
C  47.32300 4.90400 46.77500
C  49.04800 1.70400 47.45600
C  49.76000 4.93100 45.91100
C  51.07300 5.39700 46.56900
N  44.84500 6.45600 47.04400
C  46.03100 7.05000 46.98800
C  45.81300 8.44700 47.11100
C  44.42900 8.69900 47.29100
C  43.89600 7.40800 47.20400
C  46.92400 9.49900 47.19400
C  43.36300 9.63200 47.67000
O  43.28600 10.82500 47.89700
C  42.08300 8.78800 47.68500
C  41.61100 8.70400 49.13900
O  42.06100 7.96500 49.99400
O  40.51400 9.53500 49.25600
C  39.79400 9.41900 50.54100
H  40.56700 2.00200 46.87000
H  46.80300 0.77200 45.85600
H  48.09900 6.91800 46.91800
H  40.02900 6.53400 48.42900
H  39.28000 4.44300 46.42900
H  38.21500 4.62400 48.52200
H  39.73300 3.78900 49.26800
H  38.61300 3.03300 48.10900
H  39.28200 7.89600 46.76000
H  38.63400 6.46400 46.07400
H  41.10100 6.64400 44.79000
H  40.57700 8.27600 44.98600
H  41.27400 -1.19400 46.87200
H  41.60100 -0.93000 45.24600
H  40.45900 0.16100 45.93000
H  46.87000 -1.33700 45.90500
H  46.20600 -1.00300 44.19000
H  46.00900 -2.55200 44.97500
H  48.68300 2.72300 45.43300
H  49.02300 4.22800 47.87900
H  48.37700 0.93200 47.83400
H  49.46500 2.24600 48.30500
H  49.91900 1.24500 46.98700
H  49.38300 5.83600 45.43400
H  50.11900 4.21100 45.17500
H  51.90600 4.70100 46.47400
H  50.99600 5.72900 47.60400
H  51.43400 6.33600 46.15100
H  47.00100 9.66100 48.26900
H  46.60600 10.42100 46.70800
H  47.83100 9.12800 46.71600
H  41.25700 9.07100 47.03200
H  38.95300 10.10200 50.42300
H  40.24400 9.83900 51.44100
H  39.40800 8.43100 50.78900
Mg 53.27500 24.95900 45.46100
C  50.91100 27.34300 44.25800
C  51.64100 22.57700 43.64200
C  56.13300 23.09000 45.17000
C  55.35000 27.77400 46.02500
N  51.40600 24.97600 44.24400
C  50.59300 26.04000 43.81800
C  49.49800 25.50200 42.88600
C  49.59200 23.96800 43.12100
C  50.97500 23.80300 43.61900
C  48.58900 23.20100 44.03000
C  49.65300 25.94400 41.33300
C  51.01900 26.34900 40.76600
H  51.68000 25.29000 39.88700
N  53.72200 23.02400 44.89700
C  52.87400 22.17100 44.16300
C  53.52600 20.88400 43.96000
C  54.81500 20.97000 44.50600
C  54.99600 22.42500 44.84900
C  52.67500 19.62000 43.52100
C  55.75300 19.88400 44.64700
O  55.43300 18.71800 44.26700
C  57.11700 20.09400 45.20900
N  55.39900 25.35600 45.47300
C  56.40600 24.41700 45.39100
C  57.89000 25.07200 45.74000
C  57.50700 26.50500 46.15900
C  56.00300 26.52600 45.83300
C  58.81900 24.27300 46.71300
C  58.35200 27.53200 45.40300
C  59.06500 28.65700 46.17600
N  53.11100 27.06800 45.49200
C  54.02600 28.04800 45.77600
C  53.29500 29.28500 46.03000
C  52.10600 29.03200 45.43600
C  52.03600 27.67000 45.02200
C  53.77600 30.57600 46.54300
C  50.93000 29.70300 44.91900
O  50.55900 30.88400 44.98200
C  50.14100 28.59900 44.17100
C  49.87000 29.07800 42.79900
O  50.72900 29.53800 41.96700
O  48.55700 28.94400 42.57500
C  47.97500 29.44400 41.32100
H  51.13100 21.84900 43.00700
H  57.05500 22.50500 45.16500
H  56.01700 28.58200 46.33400
H  48.62500 25.98800 43.32100
H  49.59100 23.50200 42.13600
H  47.80900 23.94200 44.20300
H  48.93200 22.91200 45.02400
H  48.13000 22.35300 43.52100
H  48.99600 26.77900 41.09300
H  49.30000 25.10000 40.73900
H  51.67000 26.77900 41.52700
H  50.79800 27.23800 40.17500
H  52.43900 19.08000 44.43800
H  53.11700 18.92000 42.81100
H  51.68800 19.87000 43.13300
H  57.48700 19.12400 45.54000
H  56.95900 20.68900 46.10800
H  57.82100 20.53500 44.50300
H  58.34300 25.16100 44.75200
H  57.40000 26.67800 47.23000
H  58.56500 23.22400 46.86500
H  58.80800 24.72400 47.70600
H  59.82900 24.24800 46.30200
H  57.76700 28.05500 44.64700
H  59.18900 27.05300 44.89400
H  58.87400 28.45000 47.22900
H  58.58000 29.61200 45.96900
H  60.14000 28.69400 46.00100
H  54.86200 30.66700 46.56700
H  53.20700 30.76600 47.45300
H  53.44400 31.27800 45.77800
H  49.26300 28.53000 44.81400
H  46.90300 29.26600 41.23800
H  48.28300 28.92300 40.41500
H  48.08500 30.52100 41.19100

