158

Mg 0.46300 7.45300 25.50700
C  1.32800 9.57600 28.25100
C  0.81000 4.69800 27.63000
C  -0.32000 5.50900 22.96200
C  0.49200 10.25400 23.46000
N  1.03100 7.22400 27.60500
C  1.30700 8.14100 28.58100
C  1.41600 7.59400 29.95000
C  1.60700 6.10800 29.75800
C  1.11800 5.97900 28.24400
C  3.08500 5.53700 30.01100
C  0.23300 7.92600 30.91600
C  0.60000 8.24400 32.39600
H  1.77300 7.47000 33.15100
N  0.17300 5.37600 25.26400
C  0.36200 4.46400 26.26500
C  -0.03100 3.16700 25.71500
C  -0.25800 3.29600 24.32800
C  -0.17100 4.75300 24.12600
C  -0.00800 1.90600 26.58800
C  -0.39800 2.31800 23.24900
O  -0.58900 2.60900 22.08000
C  -0.22800 0.81600 23.48300
N  0.32000 7.74300 23.41000
C  -0.10900 6.80700 22.59200
C  -0.39800 7.35700 21.13700
C  -0.41500 8.89300 21.44300
C  0.26200 8.99500 22.79500
C  0.55600 7.00400 19.96900
C  -1.85800 9.49400 21.42400
C  -1.94200 10.88700 20.80100
N  0.94100 9.39300 25.70000
C  0.81100 10.49400 24.78900
C  0.98600 11.71500 25.46700
C  1.22400 11.42300 26.80900
C  1.14100 10.02300 26.89800
C  0.99500 13.07000 24.88300
C  1.49600 12.01100 28.18200
O  1.81800 13.10900 28.60000
C  1.54000 10.76500 29.11800
C  2.76700 10.82000 29.95300
O  3.90300 10.54300 29.66100
O  2.46500 11.40100 31.21500
C  3.50000 11.72800 32.22400
H  1.00000 3.83900 28.27700
H  -0.66500 4.92700 22.10500
H  0.36600 11.21600 22.95800
H  2.32100 8.06100 30.34000
H  0.96700 5.52100 30.41700
H  3.60100 5.53200 29.05100
H  2.98400 4.50500 30.34700
H  3.61200 6.15300 30.74000
H  -0.47500 7.09800 30.89600
H  -0.16600 8.88900 30.59700
H  -0.31600 8.06800 32.96100
H  0.80700 9.30600 32.52200
H  -0.71600 1.16800 26.21100
H  -0.32300 2.19700 27.59000
H  0.99700 1.48500 26.64100
H  -1.12900 0.45900 23.98200
H  0.67200 0.58000 24.05100
H  -0.22300 0.27700 22.53500
H  -1.36500 6.98700 20.79400
H  0.22600 9.37600 20.70600
H  1.44300 7.62700 20.07900
H  0.08100 7.22500 19.01300
H  0.96400 6.00100 20.09100
H  -2.27400 9.63400 22.42100
H  -2.56200 8.83200 20.91900
H  -2.77600 11.01500 20.11100
H  -1.09100 11.08400 20.14900
H  -1.87700 11.59400 21.62800
H  0.03100 13.05100 24.37400
H  1.82500 13.08300 24.17700
H  0.96600 13.97400 25.49100
H  0.69300 10.86400 29.79700
H  4.44900 11.86700 31.70500
H  3.66200 10.96800 32.98800
H  3.21500 12.68600 32.65800
Mg 48.24200 45.30200 42.66400
C  44.85100 45.89600 42.08100
C  47.72200 42.02300 42.03400
C  51.58600 44.92900 41.86300
C  48.75300 48.70800 42.79100
N  46.45400 44.14200 41.97300
C  45.19900 44.59000 41.79000
C  44.32500 43.41100 41.34100
C  45.14800 42.18900 41.83500
C  46.51600 42.77800 41.93900
C  44.55700 41.53800 43.12900
C  43.87100 43.41300 39.83800
C  44.75900 44.00200 38.72300
H  44.43100 43.81000 37.30100
N  49.52600 43.64700 42.14300
C  49.07800 42.35700 42.02700
C  50.22700 41.50700 41.99600
C  51.39700 42.31700 41.81800
C  50.88100 43.68800 42.00900
C  50.16400 40.01700 42.09600
C  52.82200 41.80400 41.60800
O  53.11100 40.64500 41.68400
C  53.99500 42.67400 41.30200
N  49.90200 46.62100 42.25500
C  51.14800 46.24300 41.94700
C  52.14600 47.38000 41.86800
C  51.34100 48.56400 42.49700
C  49.89900 47.95300 42.44100
C  53.55800 47.17500 42.49800
C  51.30300 49.99300 41.81400
C  51.55700 51.18500 42.73700
N  47.07100 46.93000 42.73300
C  47.39200 48.23000 42.99200
C  46.19800 49.01500 43.20200
C  45.18500 48.17600 42.79100
C  45.71600 46.92800 42.55100
C  46.07800 50.47600 43.75900
C  43.79100 48.09800 42.63000
O  42.86400 48.90700 42.82700
C  43.62000 46.68700 41.92900
C  42.37200 45.98700 42.58300
O  41.51400 45.34000 41.97200
O  42.32200 46.13300 43.91900
C  41.31500 45.31200 44.53600
H  47.45700 40.96800 42.13300
H  52.66500 44.78400 41.76700
H  48.73100 49.77100 43.03900
H  43.36000 43.50900 41.83700
H  45.13800 41.44000 41.04400
H  44.22100 40.58900 42.71200
H  43.76700 42.12700 43.59600
H  45.36900 41.29500 43.81500
H  42.89400 43.87800 39.70800
H  43.53100 42.40200 39.61300
H  45.74400 43.56000 38.87400
H  44.72400 45.08000 38.87800
H  49.18600 39.77300 41.68200
H  50.08800 39.76500 43.15400
H  50.85200 39.40400 41.51400
H  54.09700 43.42700 42.08400
H  53.87400 43.28200 40.40500
H  54.93200 42.18300 41.03800
H  52.23200 47.70200 40.83000
H  51.70700 48.69800 43.51500
H  53.59800 46.27100 43.10500
H  53.73700 47.91500 43.27800
H  54.36000 47.18000 41.76100
H  50.38500 50.25400 41.28700
H  52.05400 49.85400 41.03600
H  51.05800 51.02800 43.69200
H  51.11600 52.00600 42.17100
H  52.62900 51.38200 42.78200
H  46.56500 51.24400 43.15700
H  46.52700 50.46600 44.75200
H  45.00400 50.66300 43.76800
H  43.49800 46.91700 40.87000
H  41.47300 44.24500 44.37800
H  40.29200 45.51100 44.21700
H  41.41400 45.47200 45.61000

