158

Mg 24.62900 1.80400 30.07700
C  26.94700 1.38500 32.72500
C  22.08200 1.94300 32.45000
C  22.52800 1.92500 27.51900
C  27.38400 1.16700 27.89400
N  24.58900 1.53200 32.34800
C  25.70300 1.53600 33.24300
C  25.24100 1.87500 34.67000
C  23.64600 1.85800 34.58500
C  23.41700 1.89000 33.02900
C  23.01300 0.58800 35.20200
C  25.88100 3.23100 35.15100
C  26.66100 3.24900 36.44800
H  26.14200 4.09600 37.60500
N  22.60400 1.81500 30.00200
C  21.73500 1.88000 31.06300
C  20.37600 1.97900 30.57100
C  20.46900 1.98100 29.13900
C  21.93600 1.95000 28.78100
C  19.08100 2.18600 31.44100
C  19.36600 1.98600 28.09500
O  19.54600 2.08100 26.84400
C  17.95200 1.75500 28.58000
N  24.89600 1.67800 28.03600
C  23.89700 1.76200 27.14700
C  24.30000 1.81400 25.76600
C  25.80800 1.68400 25.93900
C  26.03200 1.36100 27.38400
C  23.65500 0.84200 24.68700
C  26.69200 2.90800 25.41000
C  26.98500 4.02100 26.36600
N  26.71900 1.32400 30.19600
C  27.70900 1.18400 29.23400
C  28.93500 0.92700 29.83700
C  28.70300 1.06000 31.23200
C  27.31500 1.23700 31.39000
C  30.24700 0.56600 29.12200
C  29.40100 1.13800 32.48900
O  30.56400 1.14600 32.75200
C  28.21600 1.28400 33.54700
C  28.25700 0.10900 34.52600
O  27.84300 -1.04200 34.31100
O  28.58800 0.53700 35.76600
C  28.39500 -0.44500 36.87100
H  21.36400 2.14700 33.24700
H  21.88700 2.00100 26.63700
H  28.22300 1.12100 27.19700
H  25.51300 1.07500 35.35900
H  23.26600 2.71200 35.14600
H  22.10300 0.26300 34.69800
H  22.62700 0.75700 36.20700
H  23.74200 -0.21400 35.32000
H  25.17300 4.04700 35.00500
H  26.62200 3.51400 34.40300
H  27.64200 3.64600 36.18800
H  26.91900 2.24400 36.78200
H  18.41000 2.97700 31.10700
H  19.38800 2.62200 32.39100
H  18.47300 1.29400 31.59000
H  17.33500 1.41600 27.74800
H  17.51000 2.68100 28.94800
H  17.95900 0.96000 29.32600
H  24.06400 2.83200 25.45600
H  26.04000 0.73600 25.45300
H  23.17500 -0.10100 24.94900
H  24.42300 0.59600 23.95300
H  22.79900 1.38000 24.28000
H  26.15700 3.34200 24.56500
H  27.66800 2.59300 25.04100
H  26.47300 3.91600 27.32300
H  26.82500 4.94200 25.80600
H  28.02800 4.03800 26.68300
H  31.04700 1.02000 29.70800
H  30.29600 1.04000 28.14200
H  30.34900 -0.51200 28.99200
H  28.45300 2.23500 34.02400
H  27.33000 -0.67400 36.87800
H  28.65200 0.10300 37.77700
H  29.00200 -1.34100 36.73900
Mg 2.08000 42.03900 25.98000
C  4.46500 42.43400 28.53700
C  -0.17300 41.13800 28.34400
C  0.05700 41.60200 23.45400
C  4.78000 42.40300 23.58900
N  2.20200 41.62700 28.22000
C  3.20700 42.00200 29.04900
C  2.76800 41.90300 30.47400
C  1.39800 41.25700 30.46200
C  1.09600 41.28600 28.95200
C  1.41700 39.83400 31.10500
C  2.82100 43.31100 31.20300
C  2.90700 43.07500 32.69200
H  1.77500 43.38400 33.74100
N  0.15900 41.61900 25.92900
C  -0.64500 41.20100 26.98800
C  -1.95500 40.93100 26.52500
C  -1.98700 41.24400 25.12600
C  -0.59100 41.49200 24.74200
C  -2.96600 40.46900 27.52100
C  -3.12700 41.24600 24.10800
O  -2.98300 41.56600 22.93400
C  -4.52900 40.65400 24.56200
N  2.38200 42.02900 23.80900
C  1.33500 41.78100 22.98600
C  1.78000 41.83400 21.49200
C  3.29300 42.17600 21.53500
C  3.51000 42.19700 23.09000
C  1.51000 40.46200 20.74100
C  3.79000 43.59200 20.98800
C  3.20300 44.09400 19.65500
N  4.11300 42.36800 26.03100
C  5.03900 42.44900 24.93000
C  6.36000 42.60000 25.44300
C  6.15400 42.64900 26.89200
C  4.83700 42.40400 27.15800
C  7.61100 42.90700 24.64100
C  6.82400 42.78200 28.19800
O  8.02400 42.79400 28.48600
C  5.71300 42.80100 29.31800
C  6.05000 41.88200 30.47700
O  6.20500 40.68800 30.38700
O  6.07300 42.61200 31.64700
C  6.33400 41.88600 32.89000
H  -0.91200 40.90300 29.11300
H  -0.60500 41.57200 22.58600
H  5.54900 42.41900 22.81400
H  3.50700 41.24100 30.92700
H  0.60000 41.74200 31.02400
H  0.47900 39.64400 31.62600
H  2.23000 39.77000 31.82900
H  1.64000 39.01800 30.41800
H  1.98600 43.95900 30.93400
H  3.71300 43.84000 30.86900
H  3.82100 43.60000 32.96700
H  3.20200 42.06400 32.97200
H  -3.95800 40.30800 27.09900
H  -3.28100 41.17400 28.29100
H  -2.61700 39.52900 27.94700
H  -5.21400 40.66000 23.71500
H  -4.91300 41.35100 25.30800
H  -4.38400 39.63900 24.93200
H  1.27900 42.62900 20.94000
H  3.88700 41.45700 20.97100
H  1.80000 39.54100 21.24700
H  1.96000 40.53900 19.75200
H  0.43800 40.40900 20.55300
H  4.79500 43.36300 20.63500
H  3.82000 44.38600 21.73400
H  2.66200 45.00600 19.90500
H  2.54600 43.26900 19.37900
H  3.88500 44.27200 18.82300
H  7.59900 43.99400 24.55700
H  7.78200 42.61100 23.60700
H  8.48300 42.61400 25.22600
H  5.63200 43.76900 29.81200
H  7.28200 42.26600 33.27200
H  6.42500 40.80200 32.81500
H  5.58600 41.99800 33.67400

