158

Mg 6.38000 57.25500 42.16800
C  5.22900 53.94200 42.25100
C  9.23600 56.17800 40.97300
C  7.16500 60.47900 41.78000
C  3.09300 58.34100 43.12900
N  6.94100 55.27600 41.39700
C  6.44600 54.08400 41.55000
C  7.36400 52.98400 40.86800
C  8.71600 53.69000 40.94300
C  8.26100 55.18200 41.13000
C  9.65100 53.24400 42.15100
C  6.89900 52.66000 39.45100
C  7.53700 51.41800 38.92600
H  6.63700 50.56100 38.02800
N  7.96900 58.18800 41.33400
C  9.15500 57.59500 40.94100
C  10.05000 58.60700 40.38800
C  9.43000 59.87100 40.59500
C  8.10100 59.53200 41.30700
C  11.35200 58.16800 39.76700
C  10.09800 61.17200 40.17200
O  11.18500 61.20300 39.61000
C  9.56500 62.57300 40.66400
N  5.26100 59.15600 42.33900
C  5.87500 60.31600 42.24500
C  4.94600 61.47200 42.61700
C  3.53600 60.82000 42.64900
C  3.97200 59.35100 42.71200
C  5.37700 62.33000 43.79000
C  2.64500 61.11100 41.40500
C  1.09900 61.05200 41.61300
N  4.47300 56.32600 42.62600
C  3.29800 56.86600 43.14200
C  2.39200 55.74300 43.41300
C  3.21900 54.59200 43.26100
C  4.37800 54.98000 42.62600
C  0.96300 55.83900 43.87700
C  3.14900 53.14100 43.31000
O  2.37100 52.30600 43.78900
C  4.55100 52.68900 42.70200
C  4.37600 51.58200 41.71100
O  3.87300 51.62500 40.61500
O  4.92900 50.49400 42.31000
C  4.91800 49.20800 41.60100
H  10.25900 55.86400 40.75600
H  7.35500 61.55400 41.80100
H  2.08600 58.56000 43.48900
H  7.19000 52.22500 41.63000
H  9.30200 53.57900 40.03000
H  9.30600 52.26000 42.46900
H  9.67900 53.90800 43.01500
H  10.64200 53.09600 41.72400
H  7.21600 53.54700 38.90300
H  5.81400 52.57300 39.51000
H  8.03200 50.86300 39.72200
H  8.49100 51.73900 38.50800
H  11.19800 57.81100 38.74900
H  11.80600 57.30300 40.25000
H  12.12200 58.94000 39.74100
H  8.58800 62.61700 40.18300
H  10.09200 63.45500 40.30000
H  9.43200 62.55900 41.74500
H  4.90100 62.08600 41.71800
H  3.03100 61.12400 43.56600
H  6.33700 61.98100 44.17000
H  4.67100 62.31600 44.62000
H  5.43200 63.36900 43.46300
H  2.98300 60.49300 40.57300
H  2.85800 62.13600 41.10300
H  0.57500 60.51000 40.82500
H  0.56200 61.99200 41.48400
H  0.83200 60.64400 42.58800
H  0.33400 56.16300 43.04800
H  0.92100 56.66100 44.59100
H  0.67200 54.93900 44.41900
H  5.24400 52.36000 43.47600
H  5.81000 49.18000 40.97500
H  4.10900 48.88400 40.94500
H  4.92000 48.41600 42.34900
Mg 0.17700 43.47400 25.51700
C  2.37400 43.05500 28.22600
C  -2.51400 42.91100 27.70300
C  -2.01600 43.36100 22.98800
C  2.81900 43.92900 23.40300
N  0.03500 43.09300 27.64400
C  0.98500 43.10000 28.56900
C  0.43700 42.97700 30.00700
C  -0.99500 42.54900 29.76700
C  -1.19100 42.94000 28.30900
C  -1.31800 41.02800 30.01300
C  0.44600 44.29500 30.87500
C  -0.14100 44.22800 32.32000
H  -0.14500 42.74900 32.93300
N  -1.98300 43.07800 25.35700
C  -2.88400 42.87600 26.37900
C  -4.25500 42.78600 25.86300
C  -4.12900 42.87000 24.44600
C  -2.69300 43.09600 24.18400
C  -5.43200 42.47900 26.72100
C  -5.22100 42.75600 23.43800
O  -5.00400 43.00600 22.26600
C  -6.63500 42.41600 23.86000
N  0.37500 43.54500 23.50300
C  -0.70000 43.52200 22.66400
C  -0.12500 43.55600 21.26400
C  1.31300 43.97500 21.38200
C  1.53800 43.73500 22.83900
C  -0.36400 42.12100 20.64800
C  1.63100 45.42000 20.93900
C  1.01800 46.58800 21.71700
N  2.21300 43.44800 25.72900
C  3.20400 43.70200 24.78200
C  4.55700 43.46200 25.40300
C  4.21800 43.29400 26.76300
C  2.79300 43.36100 26.90200
C  5.89900 43.31400 24.79200
C  4.76400 42.99300 28.02800
O  5.94100 42.71300 28.37700
C  3.66100 43.04300 29.05200
C  3.65600 41.86900 29.89300
O  3.59600 40.71200 29.51900
O  3.93300 42.34500 31.15700
C  4.23700 41.27400 32.09900
H  -3.26700 42.74900 28.47700
H  -2.61800 43.23400 22.08600
H  3.64900 44.13200 22.72300
H  0.97000 42.20200 30.55800
H  -1.71600 43.20300 30.25800
H  -1.53600 40.50500 29.08200
H  -2.14700 40.89700 30.70800
H  -0.38300 40.59700 30.37200
H  -0.03100 45.10700 30.32600
H  1.44400 44.72300 30.96200
H  -1.09800 44.74400 32.39700
H  0.42500 44.85500 33.00900
H  -5.92400 43.35000 27.15400
H  -4.97200 41.90700 27.52600
H  -6.03600 41.67100 26.30700
H  -7.04400 43.01900 24.67100
H  -6.60600 41.38200 24.20500
H  -7.30000 42.52200 23.00300
H  -0.73500 44.27100 20.71300
H  1.99800 43.28000 20.89700
H  0.57500 41.57200 20.57700
H  -0.82000 42.24100 19.66500
H  -0.97800 41.59100 21.37600
H  1.27500 45.39700 19.90900
H  2.71400 45.53300 20.98800
H  1.83200 47.30900 21.78300
H  0.50900 46.39700 22.66200
H  0.35300 47.12800 21.04400
H  5.80800 42.81100 23.82900
H  6.56600 42.81800 25.49700
H  6.28200 44.31800 24.61000
H  3.70100 44.00300 29.56600
H  4.64200 41.73000 33.00200
H  4.94600 40.61200 31.60300
H  3.31000 40.74200 32.31500

