158

Mg 53.87300 24.24000 45.05500
C  51.28600 26.34900 43.89900
C  51.89500 21.44200 43.92000
C  56.57600 22.39100 45.21000
C  55.75100 27.13600 45.91000
N  51.81900 23.92500 44.09100
C  50.97500 24.92200 43.72500
C  49.76400 24.40700 43.08800
C  49.69900 22.96300 43.71500
C  51.22300 22.70200 43.87000
C  48.83200 22.76500 45.00500
C  49.89600 24.41600 41.57000
C  48.53400 24.60100 40.92300
H  48.25600 23.94700 39.59900
N  54.12000 22.08200 44.79700
C  53.24800 21.21000 44.26200
C  53.93400 19.91400 44.30800
C  55.24200 20.15800 44.88700
C  55.37500 21.60500 44.94700
C  53.31300 18.55700 43.82700
C  56.29500 19.12900 45.18400
O  55.97700 17.94800 45.13400
C  57.76500 19.30800 45.57900
N  55.93200 24.71400 45.17500
C  56.83600 23.77900 45.29200
C  58.26200 24.31200 45.54400
C  57.97300 25.68900 46.13400
C  56.44900 25.89500 45.78500
C  59.24700 23.32200 46.27900
C  58.99700 26.86700 45.71400
C  60.22400 27.00400 46.64000
N  53.60000 26.36500 44.96900
C  54.44100 27.37500 45.45500
C  53.70000 28.68100 45.32300
C  52.45100 28.37800 44.70300
C  52.48000 26.92200 44.53900
C  54.23900 30.06800 45.78400
C  51.11800 28.77700 44.25400
O  50.66800 29.88400 44.24200
C  50.36300 27.52700 43.58200
C  50.23700 27.73000 42.08700
O  51.18400 27.80400 41.27800
O  48.86300 27.80800 41.73900
C  48.49100 28.21700 40.37800
H  51.26400 20.65200 43.50900
H  57.49900 21.83200 45.37400
H  56.22400 28.06000 46.25000
H  48.88700 24.92000 43.48300
H  49.28300 22.27500 42.97900
H  48.45200 21.74900 44.89600
H  47.99500 23.46300 45.01600
H  49.33900 22.78400 45.97000
H  50.34100 23.48000 41.23300
H  50.55700 25.21600 41.23500
H  48.42300 25.65500 40.66400
H  47.69300 24.39100 41.58300
H  53.94300 17.99000 43.14100
H  52.33700 18.82300 43.42100
H  53.14200 17.85500 44.64300
H  58.29400 18.35400 45.57600
H  57.92000 19.84100 46.51700
H  58.25500 19.93900 44.83800
H  58.67300 24.53800 44.56000
H  58.02700 25.60500 47.21900
H  59.82100 23.86800 47.02900
H  59.97300 22.96900 45.54600
H  58.74100 22.54400 46.85000
H  58.42000 27.76100 45.95200
H  59.22400 26.91500 44.64900
H  60.32600 28.04400 46.94700
H  60.96000 26.74200 45.87900
H  60.27500 26.26700 47.44200
H  55.32300 30.01000 45.69200
H  54.05600 30.27100 46.84000
H  53.84100 30.85400 45.14300
H  49.40100 27.41800 44.08300
H  49.35100 28.35200 39.72200
H  47.95000 29.16300 40.38700
H  47.95000 27.44400 39.83100
Mg 35.80900 49.31800 24.75400
C  36.06100 47.38100 27.65100
C  34.74000 51.86200 26.81500
C  34.88700 51.02200 21.94300
C  36.76900 46.55800 22.90500
N  35.31200 49.52000 26.91600
C  35.50900 48.63400 27.92700
C  35.23300 49.23600 29.24300
C  34.66100 50.64400 28.96300
C  34.90000 50.68400 27.46000
C  33.11900 50.82100 29.34700
C  36.63000 49.41000 30.03200
C  36.54300 49.46100 31.58700
H  35.13800 49.45400 32.27200
N  34.98400 51.16300 24.38700
C  34.69500 52.10900 25.41100
C  34.24700 53.37000 24.78100
C  34.24900 53.09800 23.31900
C  34.69600 51.71400 23.16900
C  33.78600 54.53900 25.48300
C  33.90900 54.08100 22.20500
O  33.73200 53.79300 21.02800
C  33.68600 55.55200 22.62900
N  36.02400 48.91400 22.70300
C  35.61800 49.78800 21.75800
C  35.89900 49.29800 20.33000
C  36.36000 47.80700 20.59900
C  36.47200 47.74200 22.13900
C  34.62900 49.30900 19.42400
C  37.75200 47.37700 19.92900
C  39.06000 47.85500 20.52700
N  36.37400 47.41400 25.14200
C  36.90000 46.42900 24.31000
C  37.35100 45.27400 25.06000
C  37.01900 45.58800 26.37200
C  36.43000 46.89800 26.38400
C  37.93600 44.09400 24.48300
C  37.08700 45.07900 27.67500
O  37.51800 43.96700 28.08900
C  36.47500 46.22500 28.56500
C  35.32700 45.64800 29.29600
O  34.15500 45.59200 28.93800
O  35.80600 45.30300 30.56900
C  34.81500 45.09900 31.62500
H  34.76000 52.67400 27.54500
H  34.68000 51.61100 21.04700
H  37.15100 45.72300 22.31400
H  34.55700 48.61700 29.83200
H  35.18100 51.43300 29.50600
H  32.61300 49.95100 29.76600
H  32.52400 50.95900 28.44500
H  33.04300 51.71500 29.96500
H  37.12400 50.27200 29.58400
H  37.13700 48.47300 29.80000
H  37.02100 50.40500 31.85100
H  37.15700 48.65300 31.98500
H  33.73700 54.46600 26.57000
H  32.79500 54.82700 25.13500
H  34.42900 55.39500 25.27800
H  33.66200 56.03000 21.64900
H  34.51100 55.98900 23.19200
H  32.68700 55.51300 23.06100
H  36.64700 50.01700 19.99700
H  35.61100 47.10700 20.22900
H  33.73000 48.95200 19.92600
H  34.83500 48.70000 18.54400
H  34.42100 50.32800 19.09600
H  37.66200 47.64000 18.87500
H  37.70200 46.28900 19.97800
H  39.55000 48.37400 19.70400
H  39.60300 46.97200 20.86600
H  38.96300 48.57600 21.33800
H  37.10700 43.38800 24.51200
H  38.67900 43.73500 25.19500
H  38.22800 44.07600 23.43300
H  37.34300 46.43200 29.19200
H  34.77400 44.03100 31.83800
H  33.80900 45.39100 31.32200
H  35.07400 45.64800 32.53000

