158

Mg 34.57500 2.97400 29.70400
C  32.52100 4.09100 32.27800
C  37.28200 3.37200 31.79800
C  36.49200 2.62500 26.95500
C  31.70700 3.31000 27.49900
N  34.90400 3.76600 31.78300
C  33.89900 4.05400 32.69000
C  34.40600 4.04100 34.13000
C  35.95400 4.00400 33.86800
C  36.07500 3.60300 32.40200
C  36.70600 5.31100 34.26000
C  33.88400 2.77800 34.91800
C  33.53200 3.04500 36.46600
H  34.16800 4.30600 37.14300
N  36.58900 2.76300 29.47700
C  37.51000 3.01800 30.45100
C  38.86400 2.90500 29.90800
C  38.67100 2.72800 28.48400
C  37.17100 2.66300 28.23500
C  40.15700 3.15800 30.76200
C  39.63200 2.62600 27.30100
O  39.35700 2.41300 26.10800
C  41.13300 2.73400 27.63200
N  34.08900 2.87400 27.49900
C  35.12500 2.88100 26.58400
C  34.59800 2.94800 25.17700
C  33.03800 2.83900 25.36100
C  32.89100 2.99900 26.83100
C  35.12700 4.24100 24.45500
C  32.39700 1.52000 24.89500
C  32.36200 0.26500 25.78200
N  32.57300 3.44000 29.76600
C  31.47700 3.47000 28.87500
C  30.31500 3.99000 29.52600
C  30.62500 4.07700 30.90900
C  32.00600 3.85100 30.94500
C  28.95200 4.12700 28.98000
C  30.08200 4.38600 32.19500
O  28.96400 4.73900 32.47600
C  31.35500 4.40300 33.15400
C  31.46100 5.77300 33.76000
O  32.09000 6.70000 33.31700
O  30.76000 5.83000 34.86700
C  30.86900 7.10100 35.66300
H  38.15200 3.47000 32.45100
H  37.06300 2.64000 26.02500
H  30.81000 3.57400 26.93500
H  34.17700 5.03200 34.52200
H  36.40600 3.24800 34.51000
H  37.51600 4.89800 34.86200
H  36.15500 5.95900 34.94200
H  37.00200 5.85600 33.36300
H  34.61600 1.97900 34.79700
H  33.00400 2.47100 34.35200
H  33.88500 2.16700 37.00600
H  32.45800 3.03400 36.65100
H  40.17200 4.24100 30.88300
H  41.07100 2.69300 30.39400
H  39.87800 2.64900 31.68500
H  41.22800 3.68400 28.15700
H  41.60000 2.68500 26.64800
H  41.57400 1.99000 28.29500
H  34.85500 2.11300 24.52500
H  32.58500 3.76400 25.00500
H  34.65900 5.15900 24.81000
H  35.10700 4.17100 23.36700
H  36.17900 4.33600 24.72200
H  32.76300 1.18800 23.92300
H  31.33700 1.70800 24.72600
H  33.21300 0.22600 26.46200
H  32.33700 -0.64400 25.18100
H  31.47600 0.27200 26.41700
H  28.20700 3.93400 29.75300
H  28.84600 3.38600 28.18800
H  28.70700 5.09900 28.55300
H  31.11600 3.59500 33.84500
H  31.86100 7.26800 36.08200
H  30.26700 7.02400 36.56900
H  30.46800 7.94200 35.09600
Mg 53.55700 24.72700 45.69100
C  51.07900 26.93500 44.38400
C  52.08400 22.26600 43.75600
C  56.06600 22.85000 46.47100
C  54.99000 27.54400 47.13600
N  51.87200 24.70800 44.06100
C  51.04900 25.69700 43.72100
C  50.05000 25.24600 42.74700
C  50.24400 23.70100 42.77100
C  51.45000 23.49700 43.61800
C  48.92600 22.83600 43.16200
C  50.07400 25.81000 41.31400
C  51.42600 26.37100 40.92100
H  52.14200 25.53600 39.81000
N  54.04100 22.83100 45.13800
C  53.29700 21.92500 44.51000
C  53.70800 20.56200 44.71400
C  54.85200 20.73900 45.57300
C  55.05700 22.18600 45.76000
C  52.85000 19.37600 44.30700
C  55.68100 19.58200 46.09800
O  55.33000 18.42400 45.89700
C  56.82800 19.78700 46.99400
N  55.31500 25.21200 46.38100
C  56.25500 24.23500 46.69900
C  57.40500 24.75100 47.49300
C  57.14700 26.24000 47.42800
C  55.74000 26.34600 46.95800
C  57.57700 24.16300 48.90400
C  58.27600 26.94600 46.60300
C  57.88400 27.68400 45.25500
N  53.09100 26.84000 45.86400
C  53.71300 27.76000 46.57000
C  52.94800 28.99500 46.61800
C  51.83000 28.68000 45.82400
C  52.00500 27.36500 45.28600
C  53.27000 30.20000 47.42300
C  50.60500 29.21000 45.27300
O  50.08800 30.31100 45.45000
C  50.01000 28.08800 44.40500
C  49.85400 28.66700 43.03000
O  50.74400 29.07200 42.26600
O  48.49900 28.81300 42.81100
C  48.02700 29.35500 41.53000
H  51.64500 21.48000 43.13800
H  56.89700 22.32100 46.94000
H  55.36600 28.45100 47.61400
H  49.05400 25.51600 43.10000
H  50.37600 23.35400 41.74600
H  48.32100 22.73800 42.26100
H  48.30600 23.35700 43.89100
H  49.28400 21.92100 43.63400
H  49.38300 26.64900 41.23500
H  49.84000 25.02900 40.59200
H  52.20400 26.45400 41.68000
H  51.36200 27.36900 40.48700
H  52.78000 19.14900 43.24300
H  51.91700 19.53300 44.84800
H  53.23600 18.52400 44.86600
H  57.18400 18.83100 47.37900
H  56.59500 20.41300 47.85500
H  57.62600 20.27500 46.43400
H  58.30800 24.46800 46.95300
H  57.01300 26.69900 48.40800
H  58.55200 23.67700 48.87800
H  56.68600 23.55500 49.05800
H  57.56000 24.83200 49.76500
H  59.08300 26.24900 46.38100
H  58.66500 27.68300 47.30600
H  56.92200 27.38200 44.84200
H  58.57200 27.42600 44.44900
H  57.90300 28.74200 45.51400
H  53.87500 30.81000 46.75300
H  53.73200 30.02800 48.39500
H  52.39800 30.84000 47.56200
H  49.05100 27.73700 44.78500
H  47.10000 29.90500 41.68900
H  47.79100 28.54300 40.84200
H  48.76900 30.01800 41.08500

