158

Mg 25.39400 -7.26800 47.94600
C  27.54200 -4.95300 46.51300
C  23.10700 -6.67600 45.47700
C  23.60800 -10.09300 48.83700
C  28.11000 -8.40700 49.88000
N  25.52900 -6.05100 46.10800
C  26.36800 -5.02800 45.83700
C  25.85300 -4.09000 44.77100
C  24.34100 -4.64100 44.57100
C  24.33700 -5.96700 45.35700
C  23.25400 -3.72500 45.19600
C  26.70600 -4.13700 43.49400
C  26.80900 -2.75200 42.79500
H  26.41600 -2.72700 41.31300
N  23.51800 -8.14700 47.41100
C  22.68900 -7.62700 46.42800
C  21.46100 -8.30300 46.40700
C  21.54200 -9.40000 47.28400
C  22.96300 -9.26500 47.92700
C  20.34800 -7.93000 45.44700
C  20.57700 -10.42900 47.49900
O  19.53900 -10.38700 46.89600
C  20.61600 -11.55300 48.49300
N  25.82800 -8.99400 49.20600
C  24.87200 -9.94200 49.46700
C  25.34200 -10.93100 50.50700
C  26.76700 -10.39600 50.91000
C  26.97000 -9.22000 49.91300
C  24.28300 -11.12600 51.67800
C  27.85300 -11.53300 50.72500
C  28.34500 -11.82200 49.30000
N  27.37000 -6.71100 48.33800
C  28.33300 -7.20900 49.16000
C  29.47300 -6.32700 49.16900
C  29.12000 -5.38300 48.19100
C  27.89700 -5.72000 47.65200
C  30.71000 -6.47500 50.04400
C  29.60200 -4.16400 47.48000
O  30.63300 -3.51800 47.70600
C  28.64600 -3.90700 46.32800
C  28.17800 -2.48700 46.49700
O  28.65500 -1.52800 45.86600
O  27.14100 -2.31600 47.38100
C  26.57900 -0.94700 47.52000
H  22.32400 -6.31800 44.80500
H  22.93700 -10.86800 49.21400
H  28.94900 -8.78500 50.46700
H  25.83300 -3.09200 45.20900
H  24.15900 -4.78300 43.50600
H  23.56700 -2.68100 45.17500
H  22.90800 -3.92400 46.21000
H  22.34900 -3.95500 44.63500
H  26.32900 -4.84900 42.76000
H  27.73300 -4.31600 43.81400
H  27.85000 -2.44100 42.88200
H  26.22600 -2.04800 43.38900
H  19.40400 -8.41600 45.69300
H  20.62800 -8.13800 44.41400
H  20.12000 -6.86600 45.50200
H  21.44900 -12.25000 48.40100
H  19.73000 -12.11400 48.19500
H  20.58700 -11.16400 49.51100
H  25.46300 -11.96400 50.18200
H  26.71500 -10.06500 51.94700
H  24.64700 -11.08000 52.70500
H  23.69800 -12.01300 51.43700
H  23.56800 -10.30400 51.63200
H  27.36700 -12.46200 51.02300
H  28.64800 -11.15700 51.37000
H  29.43300 -11.79700 49.23900
H  27.92400 -11.11300 48.58700
H  28.06200 -12.85800 49.11700
H  30.60600 -5.79300 50.88800
H  31.36100 -6.15700 49.23000
H  30.99400 -7.51500 50.20400
H  29.15900 -4.00000 45.37100
H  25.63100 -0.94700 46.98100
H  27.28500 -0.17200 47.22200
H  26.28700 -0.76600 48.55400
Mg 6.48900 53.22800 42.28400
C  6.37100 49.71800 42.07400
C  9.46600 53.11800 40.71500
C  6.09800 56.47100 41.70200
C  3.09500 53.05100 43.24000
N  7.64300 51.57700 41.30500
C  7.44800 50.21700 41.37900
C  8.59900 49.40500 40.65800
C  9.61800 50.58800 40.55300
C  8.86800 51.84300 40.84000
C  10.91800 50.31100 41.44700
C  8.27600 48.77000 39.25500
C  7.21300 49.45200 38.28500
H  7.62900 49.73800 36.81300
N  7.58800 54.64800 41.38500
C  8.88400 54.39800 40.98900
C  9.52200 55.67500 40.70200
C  8.55700 56.68700 40.94300
C  7.31400 55.96600 41.31500
C  10.98500 55.79800 40.37200
C  8.82900 58.15600 41.02600
O  9.94900 58.55200 40.75300
C  7.83300 59.09700 41.45700
N  4.83100 54.57000 42.56200
C  4.98500 55.90100 42.32100
C  3.64100 56.71900 42.62100
C  2.65800 55.53900 42.92700
C  3.58000 54.29500 43.01400
C  3.80600 57.65500 43.84800
C  1.67700 55.25300 41.76100
C  0.77400 56.38000 41.35400
N  5.05100 51.80500 42.80800
C  3.77400 51.88000 43.24000
C  3.18200 50.58500 43.48100
C  4.18400 49.70400 43.12900
C  5.32400 50.45200 42.70000
C  1.75500 50.14600 43.91800
C  4.49400 48.30800 43.09800
O  3.95900 47.30500 43.51800
C  5.94000 48.22900 42.32400
C  5.64800 47.52800 41.05800
O  4.77600 47.91100 40.21000
O  6.34200 46.36300 40.92700
C  5.89300 45.43900 39.85000
H  10.46400 53.11000 40.27200
H  5.91700 57.54200 41.59100
H  2.06600 52.94500 43.58900
H  8.86800 48.65900 41.40600
H  9.86100 50.71900 39.49800
H  11.17900 51.24900 41.93700
H  11.78500 50.24800 40.78900
H  10.85400 49.44800 42.11000
H  7.95300 47.77800 39.57000
H  9.26700 48.78400 38.80200
H  6.97400 50.41600 38.73500
H  6.29500 48.88200 38.42900
H  11.34000 56.81400 40.53900
H  11.14200 55.49200 39.33800
H  11.50500 55.14000 41.06900
H  7.06100 59.20000 40.69500
H  8.33600 60.06200 41.52500
H  7.49300 58.70700 42.41700
H  3.39200 57.32600 41.75100
H  2.19200 55.59600 43.91100
H  3.59300 58.68600 43.56400
H  4.80200 57.71800 44.28700
H  3.15900 57.36800 44.67700
H  1.01600 54.48900 42.17100
H  2.14500 54.78700 40.89300
H  0.68000 57.14600 42.12300
H  -0.25600 56.08900 41.15000
H  1.13700 56.79400 40.41200
H  1.37900 50.80600 44.70000
H  1.81900 49.11500 44.26700
H  1.04900 50.16400 43.08700
H  6.65000 47.61400 42.87600
H  5.96000 46.00600 38.92100
H  4.86800 45.07400 39.92100
H  6.56600 44.58100 39.83300

