158

Mg 54.69200 24.55500 45.72000
C  51.92200 26.38100 44.66100
C  53.18900 21.70500 44.73100
C  57.52300 22.96200 46.38800
C  56.03600 27.43600 47.03100
N  52.89900 24.19000 44.49100
C  51.80600 25.08800 44.28300
C  50.62900 24.27200 43.61800
C  50.91900 22.87200 44.40600
C  52.42100 22.91900 44.65400
C  50.02400 22.53500 45.55500
C  50.73800 24.16500 42.06300
C  49.37700 24.65800 41.32900
H  48.98500 23.77800 40.10700
N  55.31800 22.64400 45.40400
C  54.56900 21.56900 45.06400
C  55.35900 20.35500 45.27000
C  56.69600 20.71900 45.50400
C  56.55200 22.19400 45.78000
C  54.75300 19.04600 45.12500
C  57.96200 19.79100 45.70100
O  57.75400 18.59200 45.70000
C  59.33800 20.30300 45.96700
N  56.48200 25.12700 46.84400
C  57.53700 24.31700 46.73200
C  58.89400 25.00000 47.09200
C  58.37700 26.41400 47.54200
C  56.91400 26.39600 47.08100
C  59.73800 24.20700 48.12200
C  59.17800 27.59400 46.92500
C  60.07600 28.20300 47.92700
N  54.22500 26.61800 45.70500
C  54.75200 27.62500 46.50400
C  53.98200 28.83100 46.34100
C  52.83400 28.45200 45.61900
C  53.00700 27.02100 45.35400
C  54.27800 30.24300 46.95100
C  51.62200 28.86200 44.97600
O  51.07700 29.95100 44.82300
C  50.93900 27.54800 44.38000
C  50.69200 27.69000 42.95900
O  51.55500 27.73900 42.05500
O  49.32800 27.82500 42.71600
C  48.98300 28.49100 41.41700
H  52.73500 20.74500 44.47800
H  58.56400 22.64000 46.31600
H  56.33600 28.45100 47.30200
H  49.71100 24.76600 43.93800
H  50.73000 22.03700 43.73100
H  50.55500 22.68800 46.49400
H  49.76700 21.47600 45.55300
H  49.13500 23.16600 45.55900
H  51.00200 23.17300 41.69600
H  51.58200 24.78700 41.76400
H  49.50200 25.70000 41.03500
H  48.49600 24.66700 41.97000
H  54.34300 19.04700 44.11500
H  53.88200 19.02400 45.78100
H  55.24100 18.08100 45.26300
H  59.47100 21.03100 45.16600
H  60.12700 19.57400 45.78300
H  59.33000 20.80200 46.93700
H  59.40200 25.24400 46.15900
H  58.30500 26.40700 48.63000
H  60.18300 24.80100 48.92000
H  60.64100 23.83400 47.64000
H  59.25900 23.28300 48.44700
H  58.48100 28.33000 46.52400
H  59.79700 27.24600 46.09900
H  60.08600 27.74400 48.91600
H  59.73000 29.19600 48.21400
H  61.07300 28.35700 47.51600
H  55.26900 30.54000 46.60700
H  54.13800 30.30300 48.03000
H  53.53600 30.97700 46.64000
H  50.00600 27.40800 44.92600
H  48.24900 27.85700 40.92000
H  49.75200 28.48200 40.64400
H  48.60700 29.49500 41.61100
Mg 48.28900 34.02400 26.61400
C  45.76500 32.89600 28.94000
C  48.40700 37.00800 28.39100
C  50.00600 35.33700 24.03900
C  47.16000 31.43000 24.49500
N  47.27100 34.76900 28.42800
C  46.52300 33.97500 29.36300
C  46.62900 34.58600 30.70400
C  47.12200 36.06900 30.44200
C  47.55700 35.97900 28.92600
C  46.08600 37.15400 30.64300
C  47.60300 33.77300 31.57800
C  47.63300 33.86400 33.10700
H  46.67100 34.75500 33.88900
N  49.10100 35.89900 26.27500
C  49.06800 36.97400 27.11600
C  49.87600 38.04800 26.60200
C  50.39400 37.55600 25.39800
C  49.88800 36.17300 25.21100
C  49.90800 39.42800 27.26700
C  51.32200 38.33200 24.41100
O  51.60200 37.91100 23.33200
C  51.91300 39.71600 24.76000
N  48.41100 33.56500 24.47100
C  49.45600 34.14300 23.74300
C  49.71300 33.34300 22.43100
C  48.79400 32.08600 22.61600
C  48.14800 32.33500 23.95700
C  49.49900 34.09300 21.12800
C  49.56700 30.75800 22.42800
C  50.22600 30.45900 21.05500
N  46.90500 32.42900 26.66200
C  46.57800 31.38100 25.79800
C  45.60000 30.46900 26.30900
C  45.29300 30.99000 27.56700
C  46.06500 32.25700 27.73200
C  45.02400 29.29400 25.73100
C  44.55800 30.76000 28.72100
O  43.74100 29.88000 28.94900
C  44.76100 32.04500 29.62500
C  44.96700 31.67100 31.13000
O  45.76700 30.88800 31.56700
O  43.96000 32.22200 31.81000
C  43.94600 31.93100 33.23600
H  48.53000 37.91900 28.98100
H  50.79400 35.61200 23.33400
H  46.82800 30.59600 23.87200
H  45.76400 34.67600 31.36200
H  47.97100 36.27900 31.09200
H  45.25000 36.74500 31.21100
H  45.67200 37.62400 29.75000
H  46.52300 38.00500 31.16500
H  48.58500 34.06100 31.20400
H  47.42100 32.71400 31.39100
H  48.62200 34.08800 33.50600
H  47.57400 32.85400 33.51400
H  50.76100 39.43300 27.94500
H  49.01200 39.79600 27.76700
H  49.90200 40.16500 26.46400
H  52.32500 39.60900 25.76300
H  51.18400 40.51000 24.59900
H  52.81900 39.88100 24.17600
H  50.75400 33.02100 22.46200
H  48.11500 32.12600 21.76400
H  48.73900 33.68100 20.46400
H  50.47100 34.00500 20.64200
H  49.25800 35.14900 21.25000
H  48.81400 29.97500 22.51600
H  50.37900 30.70800 23.15300
H  50.03900 31.38400 20.51000
H  49.81600 29.55500 20.60500
H  51.30500 30.33300 21.15000
H  44.47000 28.67400 26.43700
H  45.76600 28.58200 25.36900
H  44.43900 29.68800 24.90000
H  43.76200 32.48000 29.65300
H  44.90600 32.18700 33.68500
H  43.76300 30.89300 33.51400
H  43.13400 32.53200 33.64600

