158

Mg 42.41300 3.67500 46.74500
C  40.62000 6.71500 46.51400
C  39.23500 2.12200 46.51700
C  43.95500 0.79300 46.37100
C  45.28800 5.47200 46.06000
N  40.19900 4.41100 46.54600
C  39.76400 5.60300 46.54000
C  38.23300 5.65000 46.64200
C  37.82800 4.14600 46.81800
C  39.17600 3.48200 46.72100
C  37.21200 3.80900 48.27100
C  37.62100 6.25100 45.29000
C  38.03300 5.44400 43.99800
H  38.65400 6.25400 42.91000
N  41.73800 1.66000 46.55200
C  40.37900 1.27900 46.51500
C  40.25900 -0.14000 46.34800
C  41.64300 -0.53800 46.25100
C  42.55000 0.62700 46.43400
C  38.93400 -0.97300 46.23700
C  42.09300 -1.94700 45.84600
O  41.26400 -2.83300 45.65100
C  43.49700 -2.37600 45.44700
N  44.36700 3.15600 46.32400
C  44.79600 1.87400 46.37400
C  46.29000 1.80400 46.05200
C  46.72100 3.33600 45.98400
C  45.36200 4.04500 46.08200
C  47.11100 0.92700 47.01800
C  47.67700 3.68700 44.88300
C  49.12700 3.98900 45.33400
N  42.91000 5.69900 46.42600
C  44.14000 6.29900 46.11900
C  44.06000 7.74300 46.21700
C  42.67500 7.89100 46.28200
C  42.02400 6.66100 46.38600
C  45.07800 8.80400 46.04400
C  41.67400 9.00600 46.30800
O  41.77400 10.21400 46.32300
C  40.32000 8.21200 46.44700
C  39.39900 8.62100 47.54200
O  39.47200 8.26900 48.67600
O  38.39600 9.32400 47.07600
C  37.48400 9.93600 48.00400
H  38.28400 1.59300 46.59900
H  44.55300 -0.12100 46.33700
H  46.18600 6.09100 45.99400
H  37.94700 6.17000 47.55700
H  37.28400 3.61500 46.03700
H  37.16700 4.66100 48.95000
H  37.83000 3.02300 48.70300
H  36.25600 3.29000 48.19500
H  37.80200 7.32400 45.23500
H  36.53100 6.24400 45.30700
H  37.18900 4.87200 43.61300
H  38.73600 4.63400 44.19500
H  38.14000 -0.58100 46.87300
H  39.16100 -1.94100 46.68400
H  38.64600 -1.14200 45.20000
H  44.18600 -2.41300 46.29000
H  43.89700 -1.86500 44.57100
H  43.53200 -3.38100 45.02600
H  46.40100 1.25700 45.11600
H  47.17500 3.57100 46.94700
H  46.45900 0.46100 47.75800
H  47.88900 1.48500 47.54000
H  47.49200 0.08300 46.44300
H  47.34500 4.48900 44.22400
H  47.60600 2.73700 44.35300
H  49.26000 4.35700 46.35200
H  49.58800 4.67800 44.62700
H  49.81700 3.14600 45.37500
H  44.57100 9.76900 46.06900
H  45.73600 8.67900 45.18400
H  45.72100 8.84900 46.92300
H  39.78000 8.35400 45.51100
H  37.73500 10.98400 48.16600
H  37.49000 9.43800 48.97400
H  36.43000 9.80400 47.75900
Mg -11.75200 17.48800 41.84800
C  -8.57500 15.88000 41.59600
C  -10.43800 20.24100 40.39200
C  -14.81600 18.44700 41.21400
C  -13.10400 14.23800 42.73400
N  -9.69900 17.97700 41.21300
C  -8.52600 17.20300 41.15800
C  -7.36400 17.96500 40.40700
C  -8.01500 19.43900 40.29100
C  -9.50300 19.19700 40.64100
C  -7.41000 20.56800 41.22900
C  -7.09700 17.30300 38.97800
C  -5.62800 17.17000 38.68100
H  -5.21000 17.73300 37.29400
N  -12.50300 19.17200 41.17900
C  -11.79100 20.24300 40.63700
C  -12.70200 21.32600 40.25800
C  -14.04300 20.84800 40.40000
C  -13.86400 19.43000 40.92500
C  -12.29700 22.64300 39.70600
C  -15.28500 21.64100 40.27000
O  -15.26200 22.81200 39.87700
C  -16.60600 20.99100 40.50300
N  -13.68200 16.36700 41.83200
C  -14.77700 17.16400 41.78300
C  -16.03200 16.49300 42.25100
C  -15.51800 15.13900 42.75900
C  -13.99700 15.27700 42.45400
C  -16.72200 17.31800 43.35800
C  -16.09800 13.92700 41.94900
C  -17.11600 13.04600 42.76100
N  -10.99700 15.47800 42.19300
C  -11.68100 14.35600 42.59500
C  -10.72700 13.18800 42.62100
C  -9.44700 13.77200 42.31700
C  -9.65200 15.17300 42.05700
C  -10.97500 11.76600 42.90900
C  -8.03800 13.54100 42.07600
O  -7.38500 12.49900 42.10300
C  -7.44800 14.87100 41.68700
C  -6.45000 15.33100 42.69500
O  -6.68600 15.46200 43.89400
O  -5.26900 15.66400 42.09200
C  -4.16400 16.06600 42.97200
H  -9.97000 21.09000 39.89100
H  -15.84000 18.68000 40.91700
H  -13.53200 13.38100 43.25800
H  -6.49700 17.94800 41.06700
H  -8.10900 19.78800 39.26300
H  -7.39800 21.43900 40.57400
H  -6.37800 20.36500 41.51500
H  -8.13000 20.75100 42.02600
H  -7.38900 18.04200 38.23200
H  -7.71100 16.41200 38.84700
H  -5.31600 16.12600 38.69900
H  -4.88800 17.63200 39.33400
H  -11.32800 22.58200 39.21000
H  -12.12200 23.45500 40.41100
H  -12.95300 22.99500 38.91000
H  -17.41700 21.71800 40.46300
H  -16.53700 20.54700 41.49700
H  -16.79000 20.25000 39.72500
H  -16.76600 16.46400 41.44600
H  -15.60800 15.09500 43.84400
H  -17.12900 16.65800 44.12500
H  -17.47700 17.83200 42.76300
H  -15.98100 17.96500 43.82800
H  -15.29500 13.26200 41.63300
H  -16.58400 14.19900 41.01100
H  -17.11500 13.46100 43.76800
H  -16.66600 12.05400 42.81200
H  -18.12100 13.00600 42.34100
H  -10.09600 11.12900 43.01400
H  -11.55300 11.46200 42.03600
H  -11.47800 11.57100 43.85600
H  -7.10000 14.77400 40.65900
H  -3.91800 17.12800 42.97700
H  -3.25300 15.63900 42.55100
H  -4.17700 15.67400 43.98900

