158

Mg 2.40000 -1.76600 45.61300
C  5.71400 -0.86800 44.93700
C  1.37400 0.84900 43.70300
C  -0.70400 -2.91500 45.98700
C  3.72200 -4.56700 47.20500
N  3.42000 -0.33700 44.13800
C  4.75300 -0.05900 44.22500
C  5.05500 1.24000 43.40800
C  3.65000 1.86100 43.33900
C  2.75500 0.71300 43.69600
C  3.47300 3.10600 44.17600
C  5.67400 0.82100 42.08100
C  6.58100 1.88000 41.50400
H  6.00800 2.60800 40.15200
N  0.59200 -1.10000 44.95700
C  0.41400 0.02900 44.27000
C  -1.01200 0.26900 44.12400
C  -1.71600 -0.90000 44.66600
C  -0.60200 -1.68700 45.28600
C  -1.65000 1.37900 43.41500
C  -3.18200 -1.26100 44.63800
O  -3.91900 -0.39300 44.20200
C  -3.83200 -2.41700 45.25900
N  1.67000 -3.61100 46.27700
C  0.34400 -3.80400 46.37300
C  0.11400 -5.14400 47.09400
C  1.43700 -5.41100 47.84000
C  2.36400 -4.50800 47.04300
C  -1.21000 -5.38200 47.98200
C  1.81300 -6.90900 47.83400
C  2.35600 -7.52900 49.07800
N  4.36300 -2.58800 45.96200
C  4.66900 -3.74200 46.64600
C  6.10300 -3.91300 46.62900
C  6.58500 -2.67800 46.08100
C  5.44800 -1.99600 45.62700
C  6.86500 -5.05300 47.28800
C  7.78400 -1.89000 45.83900
O  8.97600 -2.08700 46.05400
C  7.22100 -0.66400 45.01300
C  7.60800 0.63000 45.65100
O  7.38100 0.92300 46.78600
O  8.32700 1.38500 44.78800
C  8.90500 2.64700 45.19700
H  1.10900 1.86000 43.38600
H  -1.71900 -3.22200 46.24600
H  4.14400 -5.42700 47.73000
H  5.72500 1.92300 43.93000
H  3.46400 2.15100 42.30500
H  3.29200 4.00600 43.58700
H  4.26000 3.30400 44.90400
H  2.56600 3.04900 44.77700
H  4.85900 0.58100 41.39800
H  6.12800 -0.13800 42.33100
H  7.51200 1.37600 41.24600
H  6.85300 2.63600 42.24000
H  -2.68600 1.55400 43.70600
H  -1.57200 1.26400 42.33400
H  -1.07900 2.27500 43.66000
H  -3.35300 -3.24400 44.73500
H  -4.89400 -2.31000 45.03700
H  -3.75200 -2.55200 46.33800
H  -0.08400 -5.76500 46.22000
H  1.34400 -5.01500 48.85200
H  -0.89600 -5.59700 49.00400
H  -1.72400 -6.22700 47.52500
H  -1.87100 -4.51800 48.05200
H  2.56300 -6.89500 47.04300
H  0.90900 -7.40600 47.48300
H  3.43600 -7.53900 48.93100
H  2.10200 -8.58000 49.21500
H  2.09600 -6.96300 49.97200
H  7.07500 -5.84900 46.57300
H  6.35500 -5.60200 48.08000
H  7.74900 -4.60200 47.73800
H  7.65600 -0.73000 44.01600
H  9.84900 2.76300 44.66500
H  9.15100 2.72300 46.25700
H  8.14600 3.39100 44.95800
Mg 54.98500 23.76300 45.12500
C  52.48000 26.00800 44.08200
C  52.88700 21.16900 43.91100
C  57.50300 21.51400 45.38100
C  57.10600 26.47600 45.86100
N  52.89200 23.66900 44.00500
C  52.08600 24.68000 43.80300
C  50.72900 24.16800 43.21400
C  50.75500 22.67500 43.64800
C  52.22900 22.47000 43.83000
C  49.82100 22.27200 44.85300
C  50.42000 24.42200 41.70400
C  48.99600 24.36500 41.19000
H  48.97200 24.16700 39.63100
N  55.15400 21.66100 44.72200
C  54.17300 20.78500 44.30400
C  54.63400 19.41700 44.13000
C  55.99500 19.46000 44.57000
C  56.34200 20.87800 44.89200
C  53.79700 18.21400 43.71800
C  56.92500 18.25800 44.62700
O  56.47400 17.15300 44.24100
C  58.40100 18.34800 45.00400
N  57.00100 23.98600 45.54100
C  57.81900 22.85600 45.65900
C  59.25400 23.33600 46.04200
C  59.14700 24.98400 46.14200
C  57.68400 25.21100 45.83000
C  59.98300 22.53000 47.21300
C  60.11600 25.78400 45.21300
C  60.77100 27.02700 45.75900
N  54.84900 25.84200 45.00800
C  55.75800 26.84100 45.48400
C  55.05100 28.12000 45.49700
C  53.80300 27.84700 44.90500
C  53.70100 26.48500 44.68200
C  55.59000 29.38200 46.08700
C  52.54000 28.45600 44.51600
O  52.13100 29.61600 44.56100
C  51.61900 27.27100 43.91700
C  51.39900 27.57600 42.42400
O  52.30300 27.73000 41.58800
O  50.10100 27.86000 42.21800
C  49.72900 28.23100 40.85400
H  52.26600 20.35100 43.54000
H  58.43700 20.96200 45.51200
H  57.71000 27.32000 46.19800
H  49.98300 24.70700 43.79900
H  50.39600 21.99000 42.88100
H  50.41200 22.08400 45.74900
H  49.30800 21.34200 44.60900
H  49.03800 22.99800 45.07400
H  50.92200 23.62000 41.16200
H  50.92900 25.36500 41.50500
H  48.44100 25.28700 41.36500
H  48.49300 23.50700 41.63700
H  53.79700 17.99600 42.65000
H  52.77400 18.32800 44.07700
H  54.15000 17.30200 44.19900
H  58.79100 17.33300 45.08100
H  58.43700 18.76200 46.01100
H  59.00600 18.84900 44.24800
H  59.76700 23.11500 45.10600
H  59.25400 25.21500 47.20200
H  60.98900 22.30000 46.86300
H  59.45200 21.60900 47.45500
H  60.03400 23.19100 48.07800
H  59.50600 26.20100 44.41200
H  60.79800 25.07400 44.74600
H  61.79400 26.96600 45.38700
H  60.73500 27.05400 46.84800
H  60.32800 27.89400 45.26800
H  56.68000 29.37300 46.07200
H  55.22300 29.41900 47.11300
H  55.15300 30.24900 45.59300
H  50.58900 27.21300 44.26900
H  50.35800 27.77000 40.09300
H  49.76000 29.30900 40.69500
H  48.72500 27.86500 40.64000

