158

Mg 0.48700 43.73400 26.34700
C  2.91900 43.35100 28.94800
C  -1.94600 42.90500 28.68100
C  -1.59300 43.44300 23.88800
C  3.23200 43.94300 24.09800
N  0.58500 43.29300 28.56100
C  1.58500 43.23000 29.36900
C  1.14900 43.10400 30.88800
C  -0.24500 42.51400 30.65700
C  -0.58200 42.92800 29.23300
C  -0.21600 40.86500 30.78900
C  1.12500 44.49900 31.51300
C  1.47700 44.56300 32.99800
H  1.09600 43.43000 33.91700
N  -1.52900 43.35400 26.31800
C  -2.36900 43.06200 27.36700
C  -3.66300 43.05900 26.84700
C  -3.60700 43.07600 25.45300
C  -2.26000 43.30400 25.13700
C  -4.81600 43.13900 27.78200
C  -4.82000 42.98200 24.40100
O  -4.66000 43.32000 23.22800
C  -6.25700 42.75100 24.85500
N  0.79700 43.52400 24.31800
C  -0.26400 43.48800 23.48400
C  0.19200 43.22000 22.05000
C  1.70300 43.59000 22.08600
C  1.95600 43.61700 23.62200
C  -0.05700 41.74700 21.62100
C  1.94400 44.96300 21.44500
C  2.51500 44.95200 20.02000
N  2.66500 43.80000 26.48800
C  3.57500 43.96500 25.47600
C  4.94200 43.99200 26.00400
C  4.71300 43.88800 27.38300
C  3.39200 43.59400 27.58500
C  6.16700 43.99400 25.24700
C  5.31400 43.77600 28.73500
O  6.50100 43.82700 28.96900
C  4.24700 43.41700 29.82000
C  4.53700 42.20000 30.52400
O  4.46700 41.05800 30.06500
O  4.87700 42.53800 31.81100
C  5.30400 41.51600 32.71400
H  -2.74200 42.74100 29.41000
H  -2.31400 43.27700 23.08600
H  3.97800 44.07000 23.31000
H  1.87600 42.43900 31.35400
H  -0.95300 42.85600 31.41200
H  -0.80200 40.61400 31.67200
H  0.78300 40.43200 30.73800
H  -0.74600 40.41900 29.94700
H  0.19700 45.03800 31.32000
H  1.85400 45.03500 30.90500
H  1.04700 45.45700 33.45000
H  2.55000 44.73300 33.08800
H  -5.11600 42.14600 28.11600
H  -5.62300 43.64300 27.25000
H  -4.57800 43.68100 28.69700
H  -6.90400 42.47300 24.02300
H  -6.60600 43.75400 25.10000
H  -6.22400 41.90700 25.54500
H  -0.42500 43.85400 21.41200
H  2.42600 42.90400 21.64500
H  0.74200 41.08200 21.94800
H  -0.34200 41.59300 20.58100
H  -0.93300 41.35500 22.13800
H  2.69600 45.58200 21.93400
H  0.98600 45.46400 21.30600
H  1.74500 45.17200 19.28100
H  2.81500 43.94000 19.74700
H  3.31300 45.67500 19.84600
H  6.22400 44.96000 24.74600
H  6.15100 43.18600 24.51500
H  7.10500 44.03900 25.80200
H  4.12300 44.24200 30.52100
H  6.32100 41.12400 32.68300
H  4.67000 40.63300 32.63700
H  5.10600 41.99100 33.67500
Mg -1.61500 34.99400 26.17600
C  -3.48000 33.38500 28.76600
C  -0.55900 37.15400 28.59600
C  -0.00100 36.68500 23.82500
C  -3.39200 33.14100 23.97200
N  -1.93600 35.13300 28.46800
C  -2.77900 34.44200 29.30000
C  -2.77600 34.91800 30.71700
C  -2.01700 36.29700 30.57200
C  -1.43300 36.19900 29.13400
C  -2.90300 37.53200 30.82100
C  -2.14900 33.95400 31.77800
C  -2.96300 33.85600 33.13500
H  -2.30500 33.12600 34.33200
N  -0.38700 36.59700 26.20800
C  -0.06400 37.35200 27.29700
C  0.85500 38.39200 26.87700
C  1.13200 38.20300 25.55500
C  0.26600 37.08300 25.13100
C  1.32200 39.44400 27.86900
C  1.90400 39.03800 24.56900
O  2.30100 38.55600 23.49300
C  2.38700 40.40700 24.97500
N  -1.81500 35.07200 24.12900
C  -0.95900 35.75500 23.32800
C  -1.14800 35.43600 21.86700
C  -2.15800 34.24300 21.95800
C  -2.52100 34.14100 23.43800
C  -1.61300 36.70300 21.02500
C  -1.65300 32.90000 21.31400
C  -0.46400 32.20200 22.01800
N  -3.01400 33.40700 26.22800
C  -3.66500 32.74000 25.24000
C  -4.52500 31.69600 25.77100
C  -4.49700 31.96300 27.17600
C  -3.55500 32.92400 27.40900
C  -5.36500 30.72000 25.08400
C  -5.05800 31.50600 28.39600
O  -5.81000 30.61000 28.70000
C  -4.30700 32.36600 29.51500
C  -5.38300 32.99400 30.24600
O  -5.97200 34.07200 30.01900
O  -5.75000 32.16000 31.30200
C  -6.73700 32.63800 32.25900
H  -0.27700 37.83400 29.40200
H  0.54400 37.04900 22.95100
H  -3.86600 32.46400 23.25700
H  -3.82100 35.10200 30.96500
H  -1.14100 36.41200 31.20900
H  -2.92200 38.16400 29.93300
H  -2.44400 38.20200 31.54800
H  -3.94100 37.33500 31.08900
H  -1.17000 34.31500 32.09600
H  -2.05300 32.97900 31.30100
H  -3.94000 33.43100 32.90200
H  -3.06000 34.88300 33.48600
H  1.27200 39.08600 28.89800
H  0.65400 40.30500 27.85900
H  2.38500 39.68200 27.89100
H  1.61600 40.93600 25.53500
H  2.66100 40.92200 24.05500
H  3.27100 40.14600 25.55800
H  -0.21800 35.02200 21.47900
H  -3.08700 34.58300 21.50000
H  -2.69900 36.76100 21.10900
H  -1.33600 36.61700 19.97500
H  -1.18800 37.61700 21.44000
H  -1.46900 33.17700 20.27600
H  -2.43600 32.14300 21.27200
H  -0.86700 31.30800 22.49400
H  0.04400 32.73700 22.82100
H  0.30200 31.85500 21.32500
H  -5.21500 29.70200 25.44400
H  -5.20500 30.91100 24.02300
H  -6.41100 30.91100 25.32300
H  -3.71600 31.62600 30.05500
H  -6.42700 33.26700 33.09400
H  -7.27800 31.79500 32.69000
H  -7.44300 33.36100 31.85000

