158

Mg 40.86700 41.22700 27.20500
C  40.24100 43.55600 29.80200
C  41.39000 38.92500 29.67900
C  42.17300 39.21000 24.92900
C  40.68300 43.81000 24.92100
N  40.79000 41.29800 29.44700
C  40.33400 42.25000 30.26500
C  40.26000 41.84600 31.76000
C  40.69200 40.35800 31.67500
C  41.01300 40.16000 30.17900
C  41.98900 39.93700 32.53500
C  38.91100 42.18500 32.50200
C  38.40900 41.21000 33.52400
H  37.87500 41.86000 34.68900
N  41.61400 39.30400 27.29400
C  41.68800 38.48000 28.35900
C  42.33000 37.21800 28.04900
C  42.63300 37.32300 26.69700
C  42.19700 38.68000 26.25500
C  42.59100 36.07600 29.03900
C  43.25200 36.22400 25.78500
O  43.66800 36.35000 24.62900
C  43.39500 34.90800 26.32800
N  41.43500 41.48900 25.19500
C  41.86800 40.46100 24.38800
C  42.01100 40.92000 22.89500
C  41.39100 42.37700 22.98900
C  41.14900 42.57900 24.44300
C  43.36900 40.88000 22.30400
C  40.17700 42.53700 22.10300
C  38.84600 41.83400 22.63700
N  40.40900 43.22400 27.26900
C  40.47100 44.17200 26.28700
C  40.15700 45.46200 26.82800
C  40.06600 45.28600 28.23300
C  40.23000 43.89400 28.40600
C  40.02000 46.75300 26.08900
C  39.80900 45.86100 29.45700
O  39.60300 47.01100 29.81700
C  39.90300 44.77300 30.58800
C  41.01400 45.14000 31.48800
O  42.19500 45.32100 31.25500
O  40.50500 45.27300 32.76400
C  41.42700 45.69500 33.82100
H  41.53200 38.20400 30.48700
H  42.67300 38.50900 24.25700
H  40.73200 44.50300 24.07800
H  41.09500 42.29600 32.29800
H  39.86400 39.69200 31.91700
H  41.68900 39.02200 33.04600
H  42.26900 40.70700 33.25500
H  42.85800 39.75900 31.90200
H  38.07300 42.24800 31.80900
H  39.02600 43.16900 32.95600
H  39.25600 40.62000 33.87300
H  37.71500 40.51100 33.05700
H  42.54000 36.39800 30.08000
H  43.50600 35.49400 28.92700
H  41.88000 35.26500 28.88200
H  42.52700 34.54900 26.88100
H  44.18000 35.06100 27.06900
H  43.61600 34.11200 25.61700
H  41.40400 40.30600 22.23000
H  42.18100 43.06700 22.69400
H  43.39200 41.75900 21.66100
H  43.37800 40.02000 21.63300
H  44.15800 40.83400 23.05500
H  40.40700 41.94900 21.21500
H  40.01000 43.59000 21.87900
H  38.57800 41.09700 21.88000
H  38.05900 42.53000 22.92500
H  39.05300 41.32500 23.57800
H  39.70900 46.55900 25.06300
H  41.01700 47.19300 26.10800
H  39.35400 47.51800 26.48900
H  39.00600 44.70200 31.20400
H  41.98200 46.57300 33.49000
H  42.20100 44.93000 33.88800
H  40.96800 45.92900 34.78100
Mg 15.96400 51.52800 25.95800
C  18.07900 50.47800 28.57600
C  13.60900 52.39800 28.27900
C  14.14300 52.70600 23.44000
C  18.48100 50.40000 23.72700
N  15.93500 51.51400 28.22000
C  16.89900 51.10200 29.06800
C  16.48900 51.39300 30.45900
C  14.93100 51.59800 30.33000
C  14.77400 51.90600 28.88400
C  14.12100 50.41500 30.82200
C  17.23300 52.61000 31.10800
C  16.84500 53.17400 32.44500
H  16.11400 52.19400 33.41000
N  14.10700 52.49200 25.85800
C  13.28200 52.75700 26.88100
C  12.07700 53.40400 26.37800
C  12.15500 53.52100 24.95200
C  13.56600 52.90700 24.71400
C  11.01100 53.79800 27.33600
C  11.23400 54.09800 23.90000
O  11.44900 53.93700 22.68900
C  9.99900 54.85300 24.31600
N  16.35100 51.50500 23.82500
C  15.32700 52.07800 23.00900
C  15.71000 51.93700 21.49600
C  17.21000 51.40600 21.58300
C  17.40800 51.09400 23.06100
C  14.71200 51.03700 20.71000
C  18.43000 52.27900 21.06800
C  19.33800 51.59300 19.99300
N  17.83700 50.49100 26.04800
C  18.72600 50.13600 25.09600
C  19.83100 49.42800 25.63200
C  19.61800 49.49300 27.03100
C  18.44300 50.27900 27.19700
C  20.97700 48.84000 24.95400
C  20.19300 49.25400 28.32300
O  21.27000 48.75000 28.62000
C  19.18600 49.95700 29.35700
C  18.75200 48.96900 30.40200
O  17.99400 47.96000 30.29100
O  19.30400 49.40400 31.53400
C  18.79100 48.79000 32.75900
H  12.87900 52.60800 29.06400
H  13.78600 53.32800 22.61700
H  19.26400 49.98000 23.09300
H  16.59600 50.47700 31.04100
H  14.65400 52.50000 30.87800
H  13.42200 50.72800 31.59800
H  14.60700 49.53500 31.24300
H  13.58800 50.06300 29.93900
H  17.13100 53.39300 30.35600
H  18.27400 52.31100 31.22800
H  16.08600 53.94100 32.29200
H  17.68900 53.64400 32.95100
H  10.58700 54.74400 27.00000
H  11.39700 53.90100 28.35000
H  10.25100 53.01800 27.34500
H  10.46600 55.76200 24.69600
H  9.42800 54.19200 24.96900
H  9.49200 55.13100 23.39200
H  15.66900 52.95700 21.11500
H  17.21200 50.43000 21.09900
H  15.18500 50.23400 20.14500
H  14.24500 51.64000 19.93100
H  13.95000 50.58400 21.34500
H  19.04800 52.48500 21.94200
H  18.10200 53.24300 20.68000
H  19.25600 52.15400 19.06200
H  19.04200 50.56200 19.79600
H  20.37700 51.44900 20.29000
H  21.77800 48.50900 25.61500
H  21.50500 49.53600 24.30100
H  20.51200 47.98500 24.46300
H  19.76900 50.69700 29.90500
H  19.38300 49.00800 33.64800
H  18.85900 47.70400 32.69400
H  17.71400 48.95900 32.79200

