158

Mg 47.07400 25.63400 28.90400
C  47.84400 27.80400 31.44300
C  46.37500 23.22500 31.34700
C  46.59600 23.41600 26.43900
C  48.44700 27.82000 26.64600
N  47.20500 25.53100 31.16700
C  47.33800 26.64400 31.99300
C  47.06300 26.24900 33.51500
C  46.77700 24.69200 33.36100
C  46.77900 24.48000 31.85300
C  47.82800 23.74300 34.04900
C  45.94300 27.13200 34.14900
C  46.24000 27.56300 35.59900
H  45.14000 27.64100 36.67900
N  46.44300 23.67300 28.87900
C  46.22400 22.84600 29.92200
C  45.71500 21.56800 29.41100
C  45.94000 21.62300 28.02400
C  46.34100 22.95600 27.72400
C  45.17700 20.42700 30.26700
C  45.66300 20.51200 26.96700
O  45.93200 20.61400 25.79500
C  45.19300 19.17500 27.49100
N  47.39900 25.63800 26.75000
C  47.07400 24.60200 25.89300
C  47.27300 24.85400 24.42400
C  47.81000 26.35300 24.48000
C  47.83300 26.69100 26.01500
C  48.28100 23.84300 23.73200
C  46.97800 27.51600 23.76600
C  47.85700 28.20600 22.62100
N  47.98100 27.40900 28.99300
C  48.60300 28.12500 27.98900
C  49.24100 29.29600 28.48400
C  48.96100 29.22100 29.84600
C  48.21800 28.02600 30.12100
C  49.92000 30.42200 27.71800
C  48.94600 30.00700 31.07900
O  49.20600 31.20200 31.33300
C  48.34300 29.01000 32.18000
C  49.34600 28.70300 33.24000
O  50.25100 27.88400 33.07700
O  49.14800 29.49800 34.35300
C  49.90300 29.25600 35.59700
H  45.99100 22.48600 32.05300
H  46.37100 22.71400 25.63400
H  48.96000 28.49400 25.95700
H  48.01200 26.31000 34.04700
H  45.79800 24.42600 33.75900
H  48.46700 23.23600 33.32600
H  47.25200 22.91200 34.45500
H  48.36500 24.19800 34.88200
H  45.02500 26.55100 34.05800
H  45.79500 28.03900 33.56200
H  46.62600 28.58300 35.58500
H  47.05800 26.88600 35.84400
H  44.08900 20.40700 30.32700
H  45.47800 20.59800 31.30000
H  45.73700 19.50000 30.14000
H  46.01000 18.81100 28.11400
H  44.95900 18.51200 26.65800
H  44.35100 19.39500 28.14700
H  46.30100 24.83400 23.93100
H  48.83500 26.46500 24.12500
H  48.44700 22.94500 24.32800
H  49.26700 24.26400 23.53300
H  47.89800 23.50600 22.76900
H  46.38200 28.24400 24.31800
H  46.23200 26.96700 23.19200
H  47.51700 29.22800 22.44800
H  47.88800 27.53600 21.76300
H  48.93500 28.15700 22.77300
H  49.19700 31.22500 27.57700
H  50.38500 30.05700 26.80200
H  50.65900 30.74400 28.45200
H  47.51600 29.47000 32.72200
H  49.23600 29.04100 36.43100
H  50.55600 30.09500 35.83400
H  50.38000 28.28600 35.45300
Mg -1.14200 33.81600 26.69500
C  -2.93600 32.10000 29.44500
C  0.57600 35.46700 28.94200
C  0.24800 35.26700 24.16400
C  -3.60100 32.24600 24.59000
N  -1.45600 33.96300 28.95700
C  -2.08800 33.12900 29.85000
C  -1.73900 33.58900 31.24800
C  -0.67600 34.73600 31.07200
C  -0.54600 34.81700 29.60200
C  -0.91800 36.17800 31.72800
C  -1.13100 32.41000 32.11700
C  -1.59400 32.10400 33.54000
H  -0.73200 32.73700 34.66600
N  0.31600 35.07500 26.54200
C  0.95600 35.61900 27.60500
C  2.05000 36.42000 27.08900
C  1.92100 36.47000 25.67700
C  0.82000 35.58200 25.38300
C  3.05100 37.12500 27.95000
C  2.77400 37.27000 24.66500
O  2.64100 37.06400 23.47100
C  3.73900 38.35800 25.08300
N  -1.66500 33.75800 24.75800
C  -0.92700 34.54000 23.90500
C  -1.66700 34.60200 22.57500
C  -2.85200 33.62900 22.64400
C  -2.70000 33.10100 24.07800
C  -2.12600 36.06700 22.21100
C  -2.91200 32.58700 21.54600
C  -1.78100 31.50800 21.48300
N  -2.90600 32.41400 26.94700
C  -3.66600 31.85000 25.98400
C  -4.45900 30.77400 26.58800
C  -4.24800 30.85500 27.96100
C  -3.29800 31.86400 28.12500
C  -5.47900 29.95000 25.89400
C  -4.57000 30.25400 29.20400
O  -5.12800 29.20300 29.54800
C  -3.83100 31.16800 30.27200
C  -4.88700 31.92200 31.08800
O  -5.53600 32.91000 30.77500
O  -4.97900 31.32500 32.29600
C  -5.93400 31.89100 33.24000
H  1.23600 35.84100 29.72700
H  0.66500 35.66800 23.23800
H  -4.31300 31.75000 23.92700
H  -2.67300 33.80900 31.76500
H  0.33600 34.45000 31.35800
H  -1.62300 35.97100 32.53300
H  -1.28700 36.87500 30.97600
H  0.06900 36.48000 32.07800
H  -0.05300 32.52100 32.23100
H  -1.23200 31.44400 31.62400
H  -1.54200 31.01800 33.62500
H  -2.62200 32.45500 33.61900
H  2.63600 38.11800 28.12400
H  3.99400 37.17700 27.40700
H  3.11400 36.69300 28.94900
H  4.73000 37.90300 25.06700
H  3.42700 38.76500 26.04500
H  3.83500 39.09800 24.28900
H  -1.03200 34.25700 21.75900
H  -3.79600 34.17300 22.59700
H  -3.21300 36.06900 22.12700
H  -1.52500 36.37400 21.35500
H  -1.95900 36.79400 23.00600
H  -2.96500 33.15000 20.61400
H  -3.87600 32.09500 21.67900
H  -2.16800 30.51400 21.71100
H  -0.99500 31.72800 22.20500
H  -1.36200 31.35700 20.48800
H  -5.23500 28.89300 26.00600
H  -5.61800 30.15300 24.83200
H  -6.44500 30.03700 26.39200
H  -3.14500 30.54300 30.84300
H  -5.37400 32.46600 33.97800
H  -6.49900 31.13000 33.77800
H  -6.68900 32.59200 32.88400

