158

Mg 34.73700 2.65900 29.37500
C  32.72400 3.71600 32.07600
C  37.47200 2.57400 31.48600
C  36.80300 2.46000 26.70700
C  32.11300 3.44400 27.17100
N  34.99900 3.27100 31.56000
C  34.05400 3.53200 32.48400
C  34.64700 3.38300 33.91000
C  36.17500 3.18100 33.68600
C  36.27100 3.03600 32.13000
C  37.06800 4.31800 34.28000
C  33.87100 2.24700 34.73800
C  33.58100 2.35800 36.27200
H  34.20300 3.53000 37.07500
N  36.81100 2.42600 29.11500
C  37.77000 2.37700 30.15100
C  39.08000 2.17000 29.54200
C  38.91700 2.02700 28.13200
C  37.47200 2.22000 27.91200
C  40.35100 2.12700 30.34900
C  39.93200 1.69800 27.06200
O  39.55700 1.60500 25.90300
C  41.38000 1.40500 27.37500
N  34.44800 2.90100 27.23400
C  35.47900 2.76800 26.32400
C  35.05300 3.03800 24.86900
C  33.48900 3.13000 25.08700
C  33.28900 3.11700 26.56500
C  35.70100 4.27500 24.25000
C  32.62200 2.04800 24.41800
C  31.16500 2.35200 24.16100
N  32.75700 3.16900 29.53600
C  31.83500 3.45400 28.54600
C  30.55200 3.91200 29.15100
C  30.92300 3.95700 30.52900
C  32.25600 3.55200 30.76500
C  29.21500 4.21700 28.44800
C  30.32100 4.31400 31.83800
O  29.18800 4.79000 32.13800
C  31.51300 4.13700 32.85400
C  31.69000 5.50000 33.58000
O  32.10200 6.58700 33.16300
O  31.23200 5.31500 34.80800
C  31.00700 6.51200 35.61600
H  38.33300 2.45800 32.14800
H  37.47300 2.47700 25.84400
H  31.27100 3.68600 26.52000
H  34.59700 4.27000 34.54300
H  36.53700 2.21500 34.03700
H  37.83100 3.88800 34.92900
H  36.66100 5.12800 34.88600
H  37.62600 4.78400 33.46800
H  34.48900 1.38200 34.49700
H  32.95300 1.96000 34.22600
H  33.82700 1.39800 36.72500
H  32.51100 2.55800 36.33400
H  40.21400 2.77100 31.21800
H  41.16900 2.56200 29.77600
H  40.58000 1.12000 30.69900
H  41.52200 0.78000 28.25700
H  41.87300 2.32100 27.69900
H  41.82800 0.97500 26.47900
H  35.11200 2.12400 24.27700
H  33.10100 4.07400 24.70400
H  36.49000 4.68000 24.88400
H  34.97900 5.05300 24.00200
H  36.32900 3.94400 23.42300
H  32.81200 1.14500 24.99800
H  32.94700 1.88800 23.39000
H  30.94300 2.12200 23.11900
H  30.82400 3.35100 24.43500
H  30.59600 1.66200 24.78300
H  28.43600 4.57900 29.11900
H  28.87700 3.22600 28.14500
H  29.30100 4.78000 27.51800
H  31.35700 3.30700 33.54300
H  29.97600 6.86300 35.56700
H  31.72200 7.33300 35.56900
H  31.11600 6.08500 36.61300
Mg 1.39600 42.11900 25.72100
C  2.92900 42.38900 28.91800
C  -1.30800 40.64700 27.24000
C  0.10800 41.88200 22.80300
C  4.48000 43.23800 24.41300
N  0.86900 41.46700 27.93300
C  1.55800 41.96100 28.99200
C  0.69800 41.67600 30.27400
C  -0.59100 40.99000 29.77700
C  -0.35100 40.99800 28.24800
C  -0.98600 39.70600 30.51100
C  0.51000 42.97000 31.07800
C  0.82300 42.88800 32.60400
H  0.69100 41.53800 33.29100
N  -0.18200 41.15400 25.08200
C  -1.20300 40.66800 25.81400
C  -2.29700 40.26000 24.97000
C  -1.98700 40.76600 23.68200
C  -0.64000 41.29700 23.79900
C  -3.57200 39.59500 25.39600
C  -2.89600 40.83000 22.44900
O  -2.47600 41.32100 21.38100
C  -4.29000 40.49300 22.45000
N  2.25500 42.48000 23.92200
C  1.47600 42.28200 22.78500
C  2.13900 42.84300 21.54500
C  3.43100 43.47700 22.09400
C  3.40200 43.08300 23.54300
C  2.35000 41.87000 20.36400
C  3.48400 45.06500 22.02900
C  4.15600 45.54500 20.76100
N  3.31100 42.70900 26.45800
C  4.45100 43.11100 25.80300
C  5.48800 43.32800 26.76300
C  4.96000 43.00400 27.94200
C  3.63500 42.62700 27.74500
C  7.02400 43.78400 26.55500
C  5.30300 43.01600 29.32600
O  6.28000 43.32500 29.92300
C  3.92900 42.63600 30.13600
C  4.29800 41.41900 30.93000
O  4.37800 40.31600 30.44900
O  4.33500 41.73700 32.24900
C  4.44000 40.60100 33.17400
H  -2.20300 40.31200 27.76700
H  -0.31200 42.04800 21.80900
H  5.41400 43.62800 24.00300
H  1.33000 40.95000 30.78600
H  -1.44900 41.64100 29.94600
H  -1.04600 38.89300 29.78700
H  -1.96600 39.76900 30.98300
H  -0.29600 39.53500 31.33800
H  -0.54400 43.24800 31.06700
H  1.17900 43.74700 30.70800
H  0.01600 43.56100 32.89500
H  1.74500 43.40800 32.86400
H  -4.40900 40.29200 25.35400
H  -3.40700 39.20300 26.40000
H  -3.70200 38.73800 24.73500
H  -4.52100 39.52700 22.90000
H  -4.62800 40.44100 21.41500
H  -4.90300 41.18100 23.03200
H  1.50700 43.67900 21.24600
H  4.33600 43.14600 21.58500
H  1.37700 41.75000 19.88800
H  2.62700 40.87200 20.70400
H  2.96100 42.24700 19.54400
H  3.85300 45.38100 23.00500
H  2.42700 45.33100 22.00400
H  4.42000 44.68400 20.14800
H  5.08500 46.09800 20.90300
H  3.44600 46.20100 20.25700
H  7.58100 42.90000 26.86600
H  7.22700 44.49500 27.35600
H  7.27200 44.14100 25.55500
H  3.64100 43.40200 30.85600
H  5.49800 40.40700 33.34900
H  4.06600 39.70100 32.68600
H  3.85400 40.76000 34.07900

