158

Mg -1.92600 17.37900 25.96100
C  -2.58300 14.96800 28.57000
C  -2.30000 19.82100 28.30000
C  -2.11600 19.37900 23.38900
C  -1.83400 14.65500 23.70800
N  -2.38400 17.35000 28.17200
C  -2.37300 16.24200 29.03600
C  -2.50300 16.67500 30.49500
C  -2.59000 18.22200 30.39100
C  -2.45200 18.50800 28.87000
C  -3.83600 19.01400 31.08400
C  -1.23900 16.19900 31.24800
C  -0.88400 16.81100 32.57700
H  -0.51400 15.98800 33.77800
N  -2.12800 19.36700 25.85300
C  -2.26500 20.16100 26.92000
C  -2.25600 21.47900 26.39700
C  -2.39400 21.37500 25.01500
C  -2.22500 20.03800 24.65800
C  -2.23200 22.74200 27.38100
C  -2.63800 22.54000 23.94400
O  -2.83900 22.37700 22.69700
C  -2.57900 23.89800 24.42100
N  -1.85700 17.01600 23.92300
C  -1.91700 18.06900 23.05700
C  -1.88100 17.58300 21.59100
C  -1.52600 16.11800 21.66800
C  -1.62300 15.92100 23.23100
C  -3.10200 17.85700 20.72700
C  -0.13400 15.69900 21.14600
C  -0.13100 14.67000 20.04000
N  -2.12500 15.21700 26.10200
C  -2.11900 14.24300 25.06200
C  -2.48300 12.94300 25.57800
C  -2.66900 13.17000 26.98600
C  -2.48000 14.55000 27.17400
C  -2.70500 11.65600 24.93000
C  -2.93700 12.52500 28.21900
O  -3.18700 11.37200 28.48700
C  -2.98700 13.63900 29.26400
C  -2.07100 13.20600 30.38000
O  -0.88500 13.36000 30.39000
O  -2.66700 12.44400 31.31600
C  -1.79300 11.77200 32.31500
H  -2.32600 20.53900 29.12300
H  -2.19800 20.00600 22.49900
H  -1.74400 13.75100 23.10300
H  -3.42500 16.23300 30.87300
H  -1.71700 18.72100 30.81100
H  -3.58700 19.71400 31.88200
H  -4.45800 18.22600 31.50800
H  -4.59900 19.42000 30.42000
H  -0.39600 15.97200 30.59500
H  -1.53900 15.23300 31.65600
H  -1.53400 17.66300 32.77600
H  0.07900 17.23400 32.29100
H  -2.04700 22.44000 28.41200
H  -3.16700 23.28800 27.25900
H  -1.51900 23.50600 27.06900
H  -3.38900 24.12500 25.11500
H  -2.98200 24.53800 23.63600
H  -1.62700 24.31300 24.75000
H  -1.00800 18.14400 21.25900
H  -2.26000 15.44300 21.22900
H  -2.81300 18.64300 20.02900
H  -3.92100 18.19300 21.36300
H  -3.46000 16.94100 20.25700
H  0.49000 15.23900 21.91200
H  0.41700 16.61000 20.91300
H  0.73900 14.85200 19.40900
H  -1.00400 14.63200 19.38800
H  -0.11300 13.64400 20.40800
H  -3.78600 11.55800 24.82900
H  -2.29100 10.88200 25.57600
H  -2.27900 11.70000 23.92700
H  -3.93500 13.73100 29.79300
H  -1.32400 10.95500 31.76900
H  -2.41500 11.43200 33.14300
H  -1.01100 12.41400 32.72200
Mg -1.85200 34.77900 25.39400
C  -3.64500 33.34400 28.06500
C  -0.46300 36.81600 27.72200
C  -0.53900 36.59400 22.82900
C  -3.67400 32.84900 23.11900
N  -2.19400 35.15500 27.70300
C  -2.79800 34.32200 28.57400
C  -2.48500 34.56400 30.06700
C  -1.54800 35.82700 29.88400
C  -1.40600 35.98700 28.38000
C  -1.95600 37.15600 30.51100
C  -1.85900 33.34700 30.77700
C  -2.60200 32.76200 32.06800
H  -1.66900 32.61200 33.26900
N  -0.62300 36.38300 25.26400
C  -0.14100 37.07200 26.33600
C  0.84400 38.02300 25.85300
C  0.97100 37.91000 24.47000
C  -0.10900 36.95000 24.17200
C  1.64100 38.97000 26.80800
C  1.85300 38.66900 23.44500
O  1.61400 38.58000 22.22900
C  2.91500 39.69400 23.97500
N  -2.12200 34.75100 23.26200
C  -1.45500 35.55900 22.44100
C  -1.62700 35.13800 20.98200
C  -2.34700 33.71000 21.16700
C  -2.75300 33.75200 22.59000
C  -2.25400 36.17200 20.02600
C  -1.45900 32.35700 20.91500
C  -0.19800 32.26500 21.65400
N  -3.36400 33.45200 25.50300
C  -3.97200 32.67200 24.50600
C  -4.91800 31.81500 25.04300
C  -4.77200 31.97700 26.47800
C  -3.89200 33.03900 26.67400
C  -5.70000 30.66500 24.39900
C  -5.21800 31.51800 27.78900
O  -6.01000 30.66100 28.15500
C  -4.47700 32.35100 28.85600
C  -5.41300 33.03600 29.79700
O  -5.85800 34.15800 29.76500
O  -5.58500 32.14200 30.83600
C  -6.33300 32.70900 32.03700
H  0.27500 37.25600 28.39500
H  -0.13100 37.19300 22.01200
H  -4.20200 32.10100 22.52400
H  -3.41000 34.86900 30.55600
H  -0.62400 35.55900 30.39600
H  -2.27800 37.90400 29.78700
H  -1.15300 37.56300 31.12500
H  -2.77000 36.87300 31.17800
H  -0.85300 33.50300 31.16500
H  -1.80000 32.59000 29.99500
H  -3.20700 31.87300 31.88900
H  -3.30100 33.49100 32.47900
H  1.34900 39.99900 26.59800
H  2.70300 38.88600 26.57700
H  1.62300 38.83100 27.88900
H  3.26200 40.39000 23.21100
H  3.74100 39.20400 24.49100
H  2.32900 40.34600 24.62400
H  -0.64000 34.89500 20.58800
H  -3.30000 33.74900 20.64000
H  -3.13000 35.74900 19.53500
H  -1.57100 36.48600 19.23700
H  -2.66900 37.03000 20.55500
H  -1.19800 32.42300 19.85900
H  -2.12800 31.50900 21.06300
H  0.58400 32.25300 20.89500
H  -0.33200 31.36800 22.25800
H  -0.05300 33.11600 22.32000
H  -6.62400 31.00300 23.93000
H  -5.95600 29.91400 25.14600
H  -5.05000 30.20400 23.65400
H  -3.86800 31.61700 29.38300
H  -7.22200 33.32500 31.90400
H  -5.58900 33.30400 32.56900
H  -6.54700 31.85700 32.68200

