158

Mg 25.58300 -6.84200 47.51900
C  26.98200 -4.08900 45.55100
C  22.79300 -6.66700 45.51100
C  24.72700 -9.67800 48.95400
C  28.88800 -7.14200 48.94100
N  25.03700 -5.65700 45.59500
C  25.69000 -4.55900 45.08000
C  24.82400 -3.86000 44.00400
C  23.42700 -4.57500 44.15500
C  23.78100 -5.75600 45.12500
C  22.30900 -3.52500 44.61500
C  25.40500 -3.84500 42.53500
C  25.87600 -2.53300 41.99100
H  25.07000 -2.07100 40.72900
N  24.00100 -8.01600 47.30700
C  22.93700 -7.78600 46.41700
C  21.98600 -8.86400 46.67200
C  22.51800 -9.77400 47.60100
C  23.81300 -9.20000 48.00500
C  20.73800 -8.89900 45.87000
C  21.90600 -11.09700 48.03800
O  20.84000 -11.44200 47.65100
C  22.66100 -12.08300 48.85200
N  26.69300 -8.28300 48.65400
C  26.02200 -9.34500 49.25100
C  26.81500 -10.04900 50.32000
C  28.19300 -9.32600 50.19400
C  27.93800 -8.20900 49.20000
C  26.17700 -10.12600 51.75800
C  29.45100 -10.11600 49.69100
C  30.75900 -9.71900 50.23100
N  27.47900 -5.80300 47.39800
C  28.66200 -6.02800 48.13100
C  29.53100 -4.92700 47.87200
C  28.98300 -4.24400 46.83100
C  27.69800 -4.70800 46.58400
C  30.83800 -4.63100 48.53300
C  29.15200 -3.14300 45.93200
O  30.13900 -2.39400 45.79200
C  27.83300 -2.92300 45.18700
C  27.08700 -1.65100 45.44600
O  27.16000 -0.72900 44.68100
O  26.47400 -1.53800 46.66700
C  25.61400 -0.41100 46.97200
H  21.93500 -6.58000 44.84100
H  24.32300 -10.55700 49.46100
H  29.84200 -7.09500 49.47100
H  24.79700 -2.86300 44.44400
H  23.22800 -4.96300 43.15600
H  21.37500 -3.70400 44.08300
H  22.68200 -2.51900 44.42700
H  22.07900 -3.58600 45.67900
H  24.67800 -4.27100 41.84400
H  26.18700 -4.59800 42.43200
H  26.93700 -2.60000 41.75000
H  25.77800 -1.80600 42.79700
H  20.90400 -9.46200 44.95100
H  20.45800 -7.87200 45.63800
H  19.86800 -9.33300 46.36500
H  23.62200 -12.25600 48.36800
H  22.16900 -13.04000 48.67700
H  22.64100 -11.96100 49.93500
H  26.88100 -11.08500 49.98900
H  28.52100 -8.82700 51.10600
H  25.30600 -9.48400 51.88700
H  26.90000 -9.77900 52.49600
H  25.93600 -11.16300 51.99200
H  29.33300 -10.03500 48.61100
H  29.29800 -11.17500 49.89800
H  31.41200 -9.34700 49.44300
H  31.20500 -10.51800 50.82400
H  30.51100 -9.02200 51.03200
H  30.92900 -3.58600 48.82900
H  31.64300 -4.75300 47.80900
H  31.09300 -5.23500 49.40400
H  28.04400 -3.03500 44.12300
H  24.65100 -0.74800 47.35400
H  25.39900 0.21100 46.10300
H  26.04800 0.29000 47.68600
Mg 26.03200 49.50500 26.69100
C  24.14600 50.95300 29.30600
C  28.51300 48.95000 28.92500
C  27.83200 48.36700 24.08200
C  23.84100 50.99900 24.39800
N  26.23500 49.93400 28.89800
C  25.29500 50.38000 29.76600
C  25.62700 50.06700 31.18800
C  27.15200 49.71000 31.00600
C  27.35000 49.55800 29.54900
C  28.23200 50.69000 31.67400
C  24.61700 49.03200 31.78700
C  24.04700 49.16800 33.28600
H  24.85600 50.04800 34.20600
N  27.93900 48.76600 26.50600
C  28.78400 48.56000 27.62300
C  30.03600 48.07600 27.09500
C  29.91900 47.94700 25.65400
C  28.53800 48.37200 25.34800
C  31.20100 47.84700 27.99600
C  30.99500 47.50000 24.61400
O  30.61800 47.33700 23.44500
C  32.40800 47.13700 25.01100
N  25.88100 49.61600 24.55800
C  26.59500 48.88200 23.69300
C  25.94300 48.77000 22.27800
C  24.70300 49.64200 22.46700
C  24.82800 50.13400 23.92400
C  26.89500 49.20800 21.10800
C  23.28100 48.97400 22.13600
C  22.60900 49.70200 20.98900
N  24.43300 50.79100 26.76200
C  23.63700 51.38200 25.75300
C  22.44800 52.03400 26.32700
C  22.67800 51.88600 27.70500
C  23.86100 51.13900 27.92000
C  21.32300 52.74900 25.63200
C  22.06700 52.21500 29.01600
O  21.01300 52.81800 29.29000
C  22.95400 51.54100 30.05600
C  23.40600 52.63400 31.00000
O  24.20200 53.51800 30.77200
O  22.73400 52.46100 32.24800
C  23.08000 53.45100 33.30000
H  29.24300 48.66100 29.68400
H  28.34300 47.97500 23.20100
H  23.07700 51.42000 23.74000
H  25.60600 51.01800 31.72100
H  27.30200 48.70500 31.39900
H  27.81900 51.66400 31.93200
H  29.09000 50.84000 31.01800
H  28.49600 50.13800 32.57600
H  25.16500 48.09000 31.75100
H  23.84200 48.83000 31.04700
H  23.89100 48.19800 33.75800
H  23.04700 49.60200 33.30500
H  32.10400 48.12500 27.45200
H  31.36300 46.78700 28.19200
H  31.34200 48.37400 28.93900
H  32.91800 47.98600 25.46400
H  32.98900 46.84800 24.13500
H  32.37700 46.37900 25.79400
H  25.75000 47.74800 21.95400
H  24.70400 50.57100 21.89600
H  27.89300 49.42400 21.48900
H  26.48700 50.09600 20.62500
H  26.98500 48.44900 20.33100
H  22.68600 49.09100 23.04200
H  23.37700 47.90800 21.92700
H  22.81700 49.06600 20.12900
H  23.00500 50.68600 20.73800
H  21.52600 49.75000 21.10600
H  20.35200 52.25400 25.62400
H  21.59500 53.12600 24.64600
H  21.02000 53.60200 26.23800
H  22.31000 50.81700 30.55400
H  24.13100 53.56900 33.56400
H  22.57400 53.26300 34.24700
H  22.68300 54.35300 32.83400

