158

Mg 54.69100 24.17500 45.69400
C  52.42500 26.78300 44.98600
C  52.58000 21.94100 44.28300
C  57.34400 22.02400 45.69300
C  56.98300 26.76500 46.78700
N  52.74100 24.39800 44.74600
C  51.96700 25.51800 44.52000
C  50.72900 25.17200 43.64200
C  50.69600 23.60500 43.87500
C  52.06600 23.25800 44.39500
C  49.44100 23.12000 44.68100
C  50.81900 25.66000 42.14100
C  52.22300 25.99700 41.57000
H  53.17600 24.79500 41.57400
N  54.97800 22.25500 45.03900
C  53.91300 21.48800 44.53800
C  54.36400 20.11600 44.45200
C  55.78600 20.18900 44.59900
C  56.14100 21.51000 45.21000
C  53.42200 19.05000 44.09200
C  56.64900 19.06700 44.32900
O  56.19500 17.96600 43.95200
C  58.20800 19.22800 44.30200
N  56.93500 24.39800 46.08900
C  57.74100 23.30100 46.19600
C  59.17300 23.76100 46.70300
C  59.02300 25.23400 46.98900
C  57.55300 25.52500 46.52800
C  59.72600 22.92100 47.92200
C  60.13300 26.05600 46.23600
C  59.87600 26.11100 44.68700
N  54.69900 26.32000 45.99400
C  55.69300 27.17700 46.56100
C  55.16100 28.49600 46.47900
C  53.80800 28.39300 46.03500
C  53.63900 27.05000 45.62100
C  55.88800 29.69500 46.88700
C  52.65100 29.11800 45.68300
O  52.38800 30.28600 45.83300
C  51.64800 28.06800 45.03100
C  51.16100 28.62900 43.68800
O  51.85600 29.17100 42.85500
O  49.79800 28.56500 43.75700
C  49.13700 28.94400 42.54900
H  51.92800 21.21300 43.79500
H  58.19700 21.34200 45.71000
H  57.72800 27.52000 47.04900
H  49.86400 25.68900 44.05600
H  50.53900 23.03400 42.96000
H  49.06000 23.95700 45.26700
H  49.67900 22.26600 45.31500
H  48.69000 22.80400 43.95600
H  50.15100 26.52100 42.13000
H  50.23200 24.90300 41.62300
H  52.71800 26.74000 42.19500
H  52.11500 26.37700 40.55400
H  53.92700 18.09400 43.95500
H  52.91700 19.39500 43.19000
H  52.72100 19.00400 44.92600
H  58.71600 18.36800 43.86500
H  58.69300 19.41300 45.26100
H  58.57900 19.90800 43.53500
H  59.88700 23.72900 45.87900
H  59.17300 25.37800 48.05900
H  59.19900 21.97700 48.05900
H  59.73900 23.44500 48.87800
H  60.74500 22.67300 47.62700
H  61.04800 25.49200 46.41800
H  60.19900 27.05900 46.65800
H  60.73000 25.65200 44.19000
H  59.92900 27.15300 44.37100
H  58.95900 25.61800 44.36100
H  56.86700 29.72000 46.40900
H  55.97200 29.85500 47.96200
H  55.29600 30.53500 46.52400
H  50.91200 28.07800 45.83500
H  49.33200 29.88200 42.03000
H  48.07200 28.97800 42.78200
H  49.14400 28.20100 41.75100
Mg 36.41800 50.08800 25.24100
C  36.60300 48.37600 28.18600
C  34.61400 52.61100 26.98200
C  36.20400 51.80400 22.30200
C  37.73600 47.31100 23.55400
N  35.69900 50.40300 27.29600
C  36.05800 49.63500 28.38500
C  35.61800 50.23900 29.79800
C  34.80000 51.49000 29.25000
C  35.09300 51.55600 27.79000
C  33.28600 51.44700 29.53700
C  36.78000 50.51800 30.76200
C  36.72100 49.76700 32.10700
H  35.33100 49.55000 32.73900
N  35.55600 52.02300 24.78900
C  34.86000 52.90100 25.59600
C  34.40800 54.01800 24.78700
C  34.78900 53.72700 23.40700
C  35.57500 52.47800 23.44300
C  33.70600 55.26500 25.49700
C  34.29700 54.38800 22.11900
O  34.65900 53.97300 21.03000
C  33.44000 55.59200 22.09600
N  36.94700 49.69800 23.25100
C  36.86700 50.55100 22.24700
C  37.14600 49.82600 20.93400
C  37.84500 48.51800 21.30100
C  37.45600 48.46800 22.80100
C  35.85300 49.56900 19.97300
C  39.37200 48.71300 21.10000
C  40.17100 47.54600 20.47900
N  37.02400 48.22600 25.70200
C  37.57800 47.18500 24.92400
C  37.78000 46.00300 25.75800
C  37.50900 46.45400 27.03500
C  36.92200 47.77500 26.92500
C  38.19800 44.67300 25.20100
C  37.56900 46.12300 28.44300
O  38.01700 45.16100 29.04700
C  36.93000 47.25200 29.25400
C  35.71000 46.78200 30.00700
O  34.63100 47.24300 29.81700
O  36.01400 45.85900 30.94100
C  34.89600 45.28300 31.77500
H  34.03100 53.40400 27.45400
H  36.12900 52.26900 21.31600
H  38.08100 46.43300 23.00500
H  34.94900 49.47800 30.20100
H  35.17400 52.45600 29.58700
H  33.13200 50.60200 30.20700
H  32.71700 51.19000 28.64300
H  32.89600 52.29200 30.10500
H  36.90700 51.57400 30.99900
H  37.74800 50.19500 30.37700
H  37.33700 50.30000 32.83100
H  37.27700 48.84600 31.93400
H  34.44500 55.96900 25.88000
H  33.02200 55.02400 26.31000
H  33.15200 55.79900 24.72500
H  33.02400 55.90200 21.13700
H  34.05900 56.46200 22.31600
H  32.59100 55.41400 22.75600
H  37.87500 50.53100 20.53200
H  37.37100 47.68200 20.78600
H  34.97100 49.78800 20.57400
H  35.86600 48.52400 19.66400
H  36.06800 50.28100 19.17600
H  39.82800 48.93000 22.06600
H  39.62400 49.59700 20.51400
H  40.92300 47.23100 21.20300
H  40.71800 47.93200 19.61900
H  39.56500 46.68800 20.19000
H  37.51600 44.25900 24.45800
H  38.26400 43.99000 26.04800
H  39.21800 44.78300 24.83100
H  37.59200 47.60700 30.04400
H  34.64600 46.05900 32.49900
H  35.35900 44.44400 32.29500
H  34.04800 44.95300 31.17700

