158

Mg 41.63100 8.93700 30.14500
C  43.50100 10.09100 32.81400
C  39.17700 7.93700 32.33200
C  39.96000 7.92900 27.44800
C  44.43400 9.48800 28.06500
N  41.34200 9.02900 32.33400
C  42.26600 9.50900 33.23900
C  41.71100 9.49600 34.70200
C  40.31300 8.51600 34.51900
C  40.25100 8.48000 32.96400
C  40.48400 7.08100 35.05400
C  41.49300 10.91600 35.26000
C  42.19400 11.29800 36.60300
H  41.41200 12.04000 37.70700
N  39.84300 8.00000 29.94600
C  38.91400 7.73700 30.93300
C  37.71600 7.25100 30.30800
C  37.95100 7.28100 28.88800
C  39.30300 7.78000 28.72300
C  36.58700 6.67500 31.07500
C  36.91600 7.07200 27.76200
O  37.22900 7.17800 26.54600
C  35.55900 6.73500 28.08800
N  42.12400 8.76800 28.07900
C  41.24400 8.36400 27.13300
C  41.81900 8.49600 25.66600
C  43.29300 8.92000 25.92600
C  43.37000 8.94100 27.45400
C  41.66000 7.21500 24.83400
C  43.76300 10.15800 25.14000
C  43.19700 11.50200 25.53900
N  43.53800 9.71600 30.34900
C  44.48600 9.98900 29.38000
C  45.59100 10.61500 30.05300
C  45.18700 10.74000 31.39000
C  44.03700 10.13500 31.50200
C  46.89500 10.88400 29.43500
C  45.69300 11.13100 32.67900
O  46.78900 11.55500 32.96800
C  44.57700 10.75800 33.72500
C  45.11500 9.76700 34.75400
O  45.28500 8.55300 34.59100
O  45.36200 10.47900 35.83600
C  46.13200 9.73700 36.90900
H  38.32700 7.63700 32.94800
H  39.33700 7.67400 26.58800
H  45.31700 9.68800 27.45400
H  42.41100 8.95000 35.33400
H  39.52000 9.01700 35.07400
H  41.51400 6.99100 35.40000
H  40.37300 6.29300 34.30900
H  39.80800 6.82800 35.87100
H  40.43800 10.88800 35.53200
H  41.57800 11.68100 34.48800
H  42.99400 12.00200 36.37600
H  42.70500 10.40600 36.96400
H  35.74400 7.36400 31.03300
H  36.81700 6.41900 32.10900
H  36.27700 5.71700 30.65700
H  34.96400 6.92000 27.19400
H  35.20600 7.44500 28.83700
H  35.56400 5.69300 28.40700
H  41.30000 9.30900 25.15800
H  43.99100 8.11600 25.69100
H  41.44100 6.32100 25.41600
H  42.51100 7.02700 24.17900
H  40.76300 7.29200 24.21800
H  43.50700 9.97900 24.09600
H  44.84500 10.10500 25.26000
H  42.38200 11.46100 26.26100
H  42.85200 11.93900 24.60200
H  43.96700 12.05800 26.07500
H  47.04600 11.90700 29.09000
H  46.89700 10.41900 28.44900
H  47.68800 10.49900 30.07700
H  44.25700 11.67500 34.21900
H  46.80900 8.94800 36.58100
H  45.43000 9.32500 37.63400
H  46.81300 10.38200 37.46400
Mg 48.63600 24.52300 28.89400
C  49.59100 26.89500 31.49600
C  47.67100 22.38100 31.43400
C  48.01900 22.17500 26.46700
C  49.63400 26.80300 26.58000
N  48.67000 24.66700 31.19200
C  48.97800 25.72900 32.01200
C  48.56100 25.44600 33.46100
C  48.10000 23.85900 33.37200
C  48.10800 23.62600 31.85900
C  48.91200 22.79100 34.30400
C  47.65100 26.54800 34.06000
C  48.06600 27.28000 35.36400
H  47.10200 27.16900 36.54700
N  47.94800 22.55600 28.93400
C  47.61500 21.82300 30.05800
C  47.16200 20.48200 29.60400
C  47.32100 20.48300 28.17200
C  47.80000 21.79300 27.78300
C  46.68000 19.45000 30.53200
C  47.09400 19.30400 27.23400
O  47.54800 19.35200 26.09800
C  46.53000 18.01500 27.69000
N  49.05200 24.43700 26.85600
C  48.60100 23.37400 26.02600
C  48.71300 23.72300 24.48700
C  48.88500 25.24600 24.59800
C  49.29900 25.49000 26.11800
C  49.93800 23.16500 23.87800
C  47.64100 26.07000 24.15600
C  47.89300 27.27800 23.21700
N  49.53200 26.40200 28.92200
C  49.86500 27.23700 27.87100
C  50.32100 28.54900 28.38900
C  50.21400 28.44700 29.77300
C  49.76500 27.13300 30.10000
C  50.82300 29.74300 27.61400
C  50.50500 29.15400 31.05600
O  50.92500 30.32700 31.15800
C  50.03300 28.23400 32.21600
C  51.11600 28.04900 33.15800
O  51.84100 27.10500 33.25700
O  51.20100 29.09100 34.08600
C  52.21200 28.95900 35.16900
H  47.24400 21.66700 32.14100
H  47.69300 21.51000 25.66400
H  49.81500 27.46300 25.72900
H  49.50700 25.58300 33.98300
H  47.07100 23.79500 33.72600
H  49.46100 22.03900 33.73800
H  48.31900 22.34400 35.10200
H  49.68300 23.42700 34.73700
H  46.68300 26.05500 34.14600
H  47.53200 27.23500 33.22300
H  48.18100 28.33200 35.10100
H  48.94100 26.89700 35.88800
H  46.60700 19.84900 31.54400
H  47.30000 18.55500 30.47300
H  45.65000 19.18300 30.29500
H  45.62400 18.16500 28.27800
H  47.22000 17.44300 28.31000
H  46.28600 17.31800 26.88800
H  47.90300 23.28600 23.90400
H  49.77500 25.51700 24.03000
H  49.81100 22.08300 23.91400
H  50.85900 23.52400 24.33900
H  50.10300 23.47300 22.84500
H  47.18700 26.50200 25.04800
H  46.96400 25.38700 23.64200
H  47.75300 26.95500 22.18500
H  48.94300 27.53300 23.35800
H  47.29700 28.10600 23.60000
H  50.36400 30.66800 27.96400
H  50.41400 29.59300 26.61400
H  51.87800 29.73500 27.34100
H  49.25200 28.83500 32.68200
H  53.16900 28.64300 34.75300
H  51.90700 28.20800 35.89700
H  52.39600 29.98300 35.49600

