158

Mg 52.85500 24.92100 45.53800
C  50.16100 27.04400 44.48300
C  51.00000 22.29800 44.41700
C  55.70100 23.16700 45.24900
C  54.64300 27.78200 46.19700
N  50.90000 24.74600 44.49600
C  49.90500 25.69400 44.23000
C  48.74700 24.99900 43.48700
C  48.77700 23.59000 44.17700
C  50.33900 23.53400 44.30600
C  47.95300 23.53800 45.47400
C  48.83800 25.15600 41.92700
C  47.61300 25.09600 41.05800
H  47.71300 24.32500 39.77300
N  53.24400 22.90000 45.15700
C  52.36000 22.02200 44.78200
C  52.99200 20.75800 44.86100
C  54.37100 20.90800 45.09300
C  54.48400 22.36200 45.18400
C  52.11200 19.48000 44.61300
C  55.37400 19.76900 45.19000
O  55.14400 18.60700 44.81000
C  56.68200 19.93800 45.89400
N  54.85200 25.39500 45.59800
C  55.85300 24.48600 45.48800
C  57.28100 25.08700 45.70100
C  56.93100 26.53800 46.10500
C  55.37800 26.60100 45.98100
C  58.07500 24.32800 46.72200
C  57.68700 27.63500 45.36500
C  58.31000 28.61200 46.35700
N  52.43800 26.94600 45.63800
C  53.20900 27.98600 45.87900
C  52.57600 29.21100 45.84400
C  51.39000 28.87000 45.21500
C  51.31400 27.48600 45.07400
C  52.96300 30.63000 46.28100
C  50.11100 29.45300 44.75100
O  49.77000 30.63000 44.84600
C  49.28000 28.25100 44.10800
C  49.21800 28.45900 42.61900
O  50.12200 28.69900 41.85300
O  47.84400 28.57900 42.30400
C  47.56500 29.12300 40.97900
H  50.33900 21.45400 44.20900
H  56.64200 22.61300 45.25700
H  55.26700 28.57900 46.60700
H  47.81500 25.42200 43.86200
H  48.46800 22.74700 43.55900
H  48.71200 23.62000 46.25200
H  47.35600 22.62600 45.45900
H  47.33100 24.42500 45.59700
H  49.54500 24.46300 41.46900
H  49.36800 26.10500 41.85200
H  47.39500 26.12000 40.75200
H  46.77500 24.73900 41.65600
H  51.10100 19.69000 44.26200
H  52.12100 18.93600 45.55700
H  52.64700 18.87400 43.88200
H  57.20000 18.98200 45.83600
H  56.59200 20.44100 46.85700
H  57.30000 20.66900 45.37300
H  57.67900 24.99100 44.69100
H  57.14800 26.56300 47.17200
H  59.11100 24.52800 46.44600
H  58.04700 23.24200 46.80600
H  57.74500 24.75800 47.66800
H  57.00500 28.10600 44.65600
H  58.46900 27.24000 44.71700
H  59.40000 28.57900 46.32800
H  58.01800 28.41500 47.38800
H  57.91900 29.60900 46.15200
H  53.84900 30.44400 46.88700
H  52.17700 31.05900 46.90300
H  53.21400 31.21400 45.39600
H  48.24100 28.21400 44.43400
H  46.48000 29.19500 40.90700
H  47.84000 28.50500 40.12500
H  47.74200 30.19700 40.91700
Mg 42.41000 41.19200 26.35100
C  41.55100 43.78700 28.53000
C  43.38300 39.34300 29.20600
C  43.44400 38.84100 24.31100
C  41.87500 43.30700 23.58800
N  42.45500 41.57300 28.69000
C  41.95300 42.69200 29.28800
C  41.85000 42.58100 30.78800
C  42.44700 41.10200 31.02600
C  42.74600 40.60300 29.59700
C  43.69300 41.02400 32.00300
C  40.34300 42.50600 31.25000
C  40.01800 43.23300 32.56600
H  39.34700 42.52500 33.70700
N  43.43300 39.40700 26.72800
C  43.72400 38.81400 27.94500
C  44.32500 37.48000 27.65000
C  44.20000 37.25900 26.27300
C  43.70600 38.50000 25.70000
C  44.78200 36.52100 28.71400
C  44.43000 35.97500 25.42500
O  44.30900 35.93500 24.21400
C  44.82400 34.69700 26.12200
N  42.65600 41.16900 24.24600
C  43.01400 40.00600 23.65700
C  42.92700 40.12500 22.16700
C  42.56000 41.53400 21.88400
C  42.37000 42.10300 23.36800
C  44.23900 39.70100 21.39200
C  41.30700 41.72700 21.02200
C  41.21900 42.84500 19.94600
N  41.61400 43.00700 26.08600
C  41.56600 43.78900 24.93000
C  41.06600 45.15200 25.25600
C  41.02300 45.14400 26.67800
C  41.42100 43.87300 27.11400
C  40.87700 46.23500 24.26200
C  40.87200 46.05200 27.79400
O  40.69600 47.27000 27.79200
C  41.07300 45.12400 29.07500
C  42.13200 45.87300 29.88400
O  43.30300 45.89300 29.67300
O  41.45000 46.50500 30.92800
C  42.21700 46.94000 32.05400
H  43.50300 38.65000 30.04200
H  43.76300 38.07100 23.60700
H  41.64700 44.00500 22.77900
H  42.44800 43.41100 31.16300
H  41.67500 40.43900 31.41700
H  43.51800 40.20000 32.69500
H  43.92800 41.86400 32.65700
H  44.65100 40.73700 31.56900
H  40.12100 41.43900 31.22100
H  39.66300 42.80800 30.45400
H  39.34200 43.99800 32.18300
H  40.88300 43.68900 33.04900
H  44.06100 35.70400 28.75100
H  44.92400 37.08100 29.63900
H  45.72300 36.13500 28.32300
H  44.21700 34.46300 26.99600
H  45.89200 34.72500 26.33900
H  44.58200 33.91500 25.40300
H  42.18900 39.44500 21.74100
H  43.39200 42.05200 21.40700
H  44.65000 40.43700 20.70000
H  43.90700 38.91500 20.71400
H  44.99500 39.23000 22.02100
H  40.43500 41.90800 21.65100
H  41.04900 40.89100 20.37100
H  42.22100 43.16100 19.65700
H  40.64700 43.63200 20.43700
H  40.79500 42.40300 19.04400
H  40.70400 45.77600 23.28800
H  41.75200 46.87600 24.15500
H  39.97800 46.79700 24.51300
H  40.18100 45.05500 29.69800
H  43.28000 47.15300 31.93800
H  42.02800 46.19400 32.82600
H  41.71700 47.83900 32.41400

