158

Mg -1.87200 34.17400 26.82500
C  -2.92300 32.42700 29.67000
C  -0.01200 36.17600 28.92900
C  -0.70500 35.83200 24.14900
C  -3.67500 31.93900 24.92600
N  -1.61300 34.36500 29.08700
C  -2.08300 33.45900 29.99600
C  -1.62500 33.88700 31.45500
C  -0.72800 35.12300 31.14400
C  -0.82100 35.27100 29.63900
C  -1.10900 36.47500 31.87300
C  -0.92400 32.74100 32.24500
C  -1.51400 32.56500 33.67800
H  -0.56800 32.65100 34.85500
N  -0.65900 35.95100 26.63600
C  0.06400 36.59800 27.59600
C  1.01600 37.51400 26.92900
C  0.75900 37.43400 25.53100
C  -0.28500 36.37900 25.40500
C  1.85200 38.50500 27.66900
C  1.29900 38.27000 24.45100
O  0.97000 38.27400 23.27300
C  2.46600 39.12600 24.74400
N  -2.34900 34.05300 24.84400
C  -1.64800 34.81400 23.81900
C  -2.03600 34.29300 22.43800
C  -2.87900 33.00600 22.75900
C  -2.93900 32.93500 24.26400
C  -2.68600 35.42600 21.50600
C  -2.36200 31.65900 22.02800
C  -0.91100 31.20200 22.38300
N  -3.17100 32.59800 27.17600
C  -3.80600 31.74800 26.32100
C  -4.69200 30.79400 27.10400
C  -4.24600 30.99200 28.42500
C  -3.37900 32.10300 28.42000
C  -5.55300 29.82400 26.42500
C  -4.37100 30.51300 29.83900
O  -5.07200 29.64400 30.37200
C  -3.66100 31.51700 30.59400
C  -4.63800 32.21000 31.44500
O  -5.26600 33.21600 31.15700
O  -4.61900 31.69600 32.71400
C  -5.50600 32.19800 33.76800
H  0.57200 36.85100 29.55800
H  -0.29200 36.19300 23.20400
H  -4.25200 31.23200 24.32500
H  -2.59200 34.19300 31.85500
H  0.29000 34.85400 31.42800
H  -0.24600 36.91800 32.36900
H  -1.76600 36.27100 32.71900
H  -1.63000 37.15700 31.20000
H  0.15900 32.84700 32.29600
H  -1.14700 31.81900 31.70800
H  -2.00800 31.59500 33.63600
H  -2.40800 33.17900 33.78700
H  1.59900 39.50300 27.31200
H  2.90700 38.29600 27.49100
H  1.46300 38.60500 28.68200
H  2.98800 39.40400 23.82900
H  3.16700 38.58100 25.37700
H  2.12600 40.02700 25.25400
H  -1.15500 33.90000 21.93100
H  -3.82100 33.22000 22.25400
H  -2.60200 36.44500 21.88300
H  -3.75500 35.23000 21.43000
H  -2.15000 35.18800 20.58700
H  -2.32300 31.75400 20.94300
H  -3.00400 30.83000 22.32300
H  -0.40000 31.93300 23.00900
H  -0.36800 30.94200 21.47400
H  -0.98700 30.38400 23.09900
H  -5.07000 28.91900 26.05600
H  -5.97500 30.28600 25.53300
H  -6.41300 29.54200 27.03100
H  -3.04000 31.03400 31.34800
H  -6.38000 31.56000 33.89500
H  -5.82000 33.22500 33.58000
H  -5.08700 32.16800 34.77400
Mg -9.97000 18.28300 42.62200
C  -6.64200 17.29500 42.52700
C  -9.05400 21.42400 41.64700
C  -13.22500 19.04000 41.81400
C  -10.82600 14.95100 42.93600
N  -8.12900 19.20200 42.04500
C  -6.86500 18.67400 42.15400
C  -5.75400 19.62500 41.75900
C  -6.54200 20.95100 41.95300
C  -8.02300 20.50400 41.81900
C  -6.27300 21.82000 43.26900
C  -5.09400 19.32600 40.43700
C  -6.02900 18.65700 39.46400
H  -5.41600 18.51500 38.07100
N  -11.00000 20.09800 42.03000
C  -10.42200 21.27600 41.74500
C  -11.46400 22.30300 41.48800
C  -12.73300 21.56900 41.61600
C  -12.37600 20.19100 41.87000
C  -11.15300 23.79900 41.17300
C  -14.05300 22.20600 41.48300
O  -14.06800 23.44700 41.36200
C  -15.26600 21.43900 41.58400
N  -11.85500 17.15700 42.49500
C  -13.02300 17.68800 42.10600
C  -14.11200 16.55600 41.90900
C  -13.41200 15.35100 42.70500
C  -11.89700 15.80700 42.59500
C  -15.48000 16.87800 42.52400
C  -13.79300 13.96300 42.05800
C  -13.75600 12.87800 43.04400
N  -8.91100 16.43600 42.82500
C  -9.42500 15.14800 43.04700
C  -8.38600 14.17100 43.19600
C  -7.22500 14.99800 43.07300
C  -7.62000 16.33800 42.83500
C  -8.52200 12.65000 43.13800
C  -5.77200 14.98300 42.94200
O  -4.96200 14.10000 42.88600
C  -5.30000 16.49700 42.73000
C  -4.59800 17.07800 43.85700
O  -3.47100 17.59400 43.75900
O  -5.33700 17.07100 45.02400
C  -4.74300 17.69200 46.19600
H  -8.76400 22.45500 41.43500
H  -14.15600 19.33500 41.32500
H  -11.16900 13.91700 43.02300
H  -4.95800 19.62400 42.50300
H  -6.40700 21.57100 41.06600
H  -7.14200 21.90200 43.92200
H  -5.89400 22.79200 42.95400
H  -5.52000 21.30400 43.86400
H  -4.28600 18.60500 40.56100
H  -4.73800 20.21100 39.91100
H  -6.93000 19.24000 39.27300
H  -6.16000 17.62700 39.79800
H  -11.87800 24.27800 40.51500
H  -10.27900 23.79300 40.52300
H  -11.00600 24.35800 42.09700
H  -15.23500 20.82400 42.48400
H  -15.40000 20.85400 40.67400
H  -16.06900 22.14700 41.78900
H  -14.26900 16.36100 40.84800
H  -13.73900 15.29900 43.74300
H  -15.57500 17.77300 43.13900
H  -15.77800 16.08700 43.21200
H  -16.18800 17.03800 41.71100
H  -13.06400 13.75500 41.27500
H  -14.79000 14.04700 41.62600
H  -13.32800 13.19800 43.99400
H  -13.17600 12.02300 42.69600
H  -14.73900 12.42900 43.19100
H  -9.30300 12.42300 42.41300
H  -8.92800 12.17400 44.03100
H  -7.65300 12.12500 42.74200
H  -4.59400 16.71300 41.92800
H  -3.69500 17.47700 46.40600
H  -5.35500 17.37400 47.04100
H  -5.00800 18.74500 46.10300

