158

Mg -0.90500 16.96500 26.86700
C  -1.31200 14.56200 29.46300
C  -1.71800 19.41500 28.94700
C  -0.64700 18.98600 24.23100
C  -0.62900 14.13100 24.63600
N  -1.43700 16.92700 29.06300
C  -1.52800 15.93700 29.95200
C  -1.84500 16.47300 31.39300
C  -1.98000 18.03800 31.14000
C  -1.70100 18.17000 29.64600
C  -3.27300 18.74700 31.52800
C  -0.71100 16.09900 32.41500
C  -0.39800 16.89700 33.73100
H  -0.28200 16.08500 35.10500
N  -1.10200 18.93600 26.64000
C  -1.52300 19.77200 27.61700
C  -1.72900 21.06300 27.05900
C  -1.25100 21.02500 25.72800
C  -0.99100 19.57600 25.48000
C  -2.09700 22.26300 27.87600
C  -1.01900 22.16900 24.75700
O  -0.56500 22.01000 23.64700
C  -1.44800 23.61700 25.17900
N  -0.90100 16.61100 24.70200
C  -0.55900 17.66900 23.90000
C  -0.23200 17.19700 22.43400
C  -0.07900 15.63200 22.59400
C  -0.57000 15.40500 24.03600
C  -1.31800 17.67300 21.38500
C  1.34300 15.11000 22.36700
C  2.37500 15.56400 23.43300
N  -0.99800 14.83200 26.97900
C  -0.91000 13.82800 25.99400
C  -1.00900 12.51500 26.58600
C  -1.20000 12.77100 27.94500
C  -1.13500 14.15000 28.15700
C  -0.89400 11.19400 25.99200
C  -1.45500 12.10800 29.14300
O  -1.57500 10.91000 29.41000
C  -1.53600 13.22800 30.23300
C  -0.55800 12.84300 31.35900
O  0.59700 13.09600 31.33900
O  -1.24200 12.26400 32.38200
C  -0.48400 11.73200 33.50600
H  -2.02000 20.23400 29.60200
H  -0.49000 19.66200 23.38700
H  -0.55900 13.22700 24.02700
H  -2.78500 15.98400 31.65300
H  -1.18300 18.64000 31.57800
H  -3.72900 19.27100 30.68800
H  -3.03400 19.51100 32.26800
H  -3.97100 18.08400 32.03800
H  0.21900 16.02000 31.85300
H  -0.96900 15.12800 32.83700
H  -1.25800 17.56300 33.81000
H  0.46400 17.51300 33.47600
H  -2.89700 22.83200 27.40100
H  -1.19000 22.85600 27.76000
H  -2.27500 22.07400 28.93500
H  -2.52300 23.62900 25.35600
H  -1.33500 24.27000 24.31400
H  -0.82000 23.97200 25.99600
H  0.74300 17.56700 22.11800
H  -0.67500 15.10200 21.85100
H  -0.88000 18.43200 20.73600
H  -2.19400 18.15000 21.82400
H  -1.72900 16.93800 20.69300
H  1.68900 15.45500 21.39200
H  1.32600 14.02200 22.31100
H  3.05900 14.79200 23.78300
H  1.94800 15.84600 24.39600
H  2.97300 16.41100 23.09800
H  -0.67500 10.52400 26.82300
H  -0.07800 11.29700 25.27700
H  -1.77900 10.89300 25.43200
H  -2.59000 13.23800 30.51200
H  -0.54600 10.64400 33.50300
H  -1.08900 11.94000 34.39000
H  0.52100 12.10500 33.70200
Mg 2.59600 -1.13700 43.52000
C  6.00800 -0.47700 42.89400
C  1.77800 1.88200 41.89000
C  -0.55000 -2.21900 43.13000
C  3.52100 -4.16800 44.96200
N  3.77200 0.41100 42.34000
C  5.15600 0.49400 42.29800
C  5.60500 1.75400 41.55800
C  4.24300 2.63000 41.47000
C  3.21300 1.60700 41.96200
C  4.27300 4.02400 42.21400
C  6.24500 1.35000 40.14900
C  7.33800 2.25000 39.59900
H  7.03300 2.77500 38.16200
N  0.83500 -0.34500 42.59400
C  0.72100 0.99700 42.08700
C  -0.63700 1.14700 41.69400
C  -1.33200 -0.14500 41.86100
C  -0.34300 -0.99200 42.56300
C  -1.06100 2.38800 41.07200
C  -2.69600 -0.53500 41.34100
O  -3.38100 0.31800 40.89800
C  -3.24600 -1.92100 41.34900
N  1.65200 -3.10200 43.82700
C  0.31700 -3.11500 43.87100
C  -0.20900 -4.22600 44.76300
C  1.16700 -4.74900 45.48100
C  2.17800 -4.00000 44.68000
C  -1.33100 -3.87400 45.72500
C  1.46300 -6.28300 45.46800
C  2.30200 -6.78400 46.69000
N  4.35200 -2.10400 44.07200
C  4.56200 -3.36200 44.56000
C  5.98400 -3.67100 44.66200
C  6.56100 -2.51200 44.07900
C  5.53000 -1.58900 43.68900
C  6.73700 -4.85500 45.25800
C  7.86100 -1.93600 43.66700
O  8.96800 -2.35000 43.71500
C  7.51300 -0.52200 42.97500
C  7.96600 0.63700 43.80600
O  7.31800 1.28800 44.64800
O  9.23500 0.96300 43.31200
C  9.84800 1.96100 44.21500
H  1.53500 2.89900 41.57400
H  -1.60200 -2.50500 43.19900
H  3.82800 -5.09400 45.45200
H  6.35800 2.31900 42.10800
H  3.98300 2.70000 40.41400
H  3.94600 4.70000 41.42400
H  5.26100 4.22700 42.62900
H  3.58200 3.93800 43.05200
H  5.44700 1.36700 39.40700
H  6.66900 0.34600 40.17600
H  8.23700 1.63800 39.52400
H  7.52000 3.08400 40.27700
H  -0.86400 2.39600 40.00000
H  -0.57600 3.27200 41.48700
H  -2.12800 2.52200 41.25000
H  -3.99000 -1.97900 40.55400
H  -3.58800 -2.20700 42.34400
H  -2.42600 -2.59400 41.09900
H  -0.65600 -4.92800 44.05900
H  1.22700 -4.38900 46.50800
H  -1.26400 -4.33500 46.71000
H  -2.27800 -4.14100 45.25600
H  -1.28900 -2.81600 45.98500
H  2.03800 -6.53100 44.57600
H  0.60900 -6.94300 45.31500
H  1.61200 -7.49200 47.14900
H  2.39900 -6.05200 47.49200
H  3.24500 -7.28500 46.47000
H  6.66400 -5.79300 44.70800
H  6.40200 -5.06800 46.27300
H  7.80300 -4.64900 45.35100
H  7.98600 -0.43300 41.99700
H  10.12300 1.59200 45.20400
H  9.12400 2.76100 44.36900
H  10.82300 2.23100 43.80900

