158

Mg 1.09200 8.15000 26.05000
C  2.06000 10.11700 28.74600
C  1.44100 5.31900 27.96800
C  0.51400 6.26700 23.30800
C  1.55900 11.04200 23.89800
N  1.71400 7.77800 28.12600
C  1.95500 8.74100 29.02500
C  2.06800 8.16000 30.43000
C  2.02200 6.61500 30.23400
C  1.66600 6.53600 28.70400
C  3.29800 5.87400 30.80800
C  0.86900 8.68500 31.15400
C  1.00300 8.77500 32.72200
H  2.24400 8.18300 33.44300
N  0.98900 6.00900 25.75200
C  1.07300 5.04500 26.66300
C  0.81700 3.79600 26.05700
C  0.43100 4.01300 24.74600
C  0.65900 5.49200 24.54900
C  0.73700 2.41300 26.82000
C  -0.10800 3.12100 23.76200
O  -0.32100 3.51300 22.61300
C  -0.47800 1.77800 24.03700
N  1.21600 8.58200 23.88900
C  0.86700 7.55600 22.93500
C  0.83300 8.14400 21.48400
C  0.98900 9.67000 21.81900
C  1.15400 9.81100 23.30800
C  2.00200 7.60400 20.62300
C  -0.17200 10.52000 21.30200
C  -0.07900 10.98100 19.79700
N  1.76000 10.15600 26.25200
C  1.82400 11.13500 25.30700
C  2.15000 12.43200 25.94500
C  2.30600 12.04600 27.31100
C  2.01800 10.69900 27.42700
C  2.20300 13.81600 25.35200
C  2.59200 12.61700 28.61100
O  2.90100 13.71300 28.97600
C  2.35100 11.30300 29.57600
C  3.47700 11.00800 30.44000
O  4.53400 10.53800 30.11900
O  3.20200 11.62300 31.60400
C  4.22300 11.69400 32.60000
H  1.50500 4.41500 28.57600
H  0.22400 5.72800 22.40400
H  1.53800 11.95100 23.29300
H  2.98000 8.41200 30.97100
H  1.16300 6.08300 30.64400
H  4.08400 6.56200 31.11900
H  3.55800 5.23700 29.96200
H  3.05500 5.24700 31.66500
H  0.09400 7.94100 30.96800
H  0.51100 9.62500 30.73400
H  0.05000 8.32300 32.99400
H  0.80300 9.78900 33.06800
H  -0.31700 2.19300 26.99500
H  1.43200 2.47300 27.65700
H  0.93600 1.53000 26.21300
H  0.39000 1.19800 24.35000
H  -0.79200 1.24100 23.14200
H  -1.29800 1.72100 24.75300
H  -0.15300 8.06700 21.02700
H  1.82000 10.16500 21.31600
H  2.69300 8.34600 20.22200
H  1.61500 7.09300 19.74100
H  2.56500 6.89800 21.23300
H  -0.16400 11.37300 21.98100
H  -1.10500 9.96500 21.39700
H  -0.21000 10.12100 19.14000
H  0.88600 11.40600 19.52300
H  -0.87700 11.67000 19.52400
H  1.16600 14.14800 25.31000
H  2.57800 13.74200 24.33100
H  2.88600 14.46200 25.90300
H  1.52000 11.48900 30.25500
H  4.86000 12.57700 32.52700
H  4.92400 10.85900 32.57800
H  3.69800 11.77400 33.55200
Mg 15.89000 51.08800 25.43900
C  17.62200 49.96300 28.33000
C  13.24300 52.05600 27.57000
C  14.30400 52.12700 22.79100
C  18.65500 50.18400 23.63500
N  15.57500 50.99400 27.74900
C  16.48400 50.61300 28.70700
C  15.95000 50.94700 30.05400
C  14.38400 51.23500 29.76400
C  14.42900 51.49100 28.26600
C  13.47900 49.99300 30.10200
C  16.67300 52.32700 30.54100
C  16.93400 52.49700 32.07000
H  16.14300 51.49800 32.91000
N  14.03600 52.04000 25.23300
C  13.07300 52.28400 26.23700
C  11.86400 52.85600 25.49600
C  12.14400 52.84800 24.10100
C  13.57400 52.32800 24.02400
C  10.59000 53.10500 26.30600
C  11.29000 53.34000 22.94700
O  11.78800 53.44400 21.84300
C  9.91500 53.71600 23.23200
N  16.33200 50.94600 23.54500
C  15.51700 51.47900 22.60800
C  16.21800 51.57100 21.17600
C  17.65800 51.07400 21.57700
C  17.58100 50.80300 22.99300
C  15.49400 50.68600 20.15900
C  18.77600 52.05900 21.13300
C  19.07000 52.12600 19.55000
N  17.70300 50.14300 25.81500
C  18.72100 49.82900 24.94500
C  19.81900 49.22300 25.66500
C  19.47600 49.26700 27.05500
C  18.10200 49.70700 27.05000
C  21.10100 48.54800 25.08000
C  19.82200 48.80300 28.41200
O  20.79600 48.27100 28.82800
C  18.65200 49.35500 29.26800
C  18.07300 48.36300 30.28400
O  17.02800 47.73300 30.13000
O  18.86600 48.37800 31.35100
C  18.46700 47.49700 32.49000
H  12.50600 52.31900 28.33100
H  13.68700 52.28800 21.90400
H  19.58200 50.09500 23.06600
H  15.93700 50.17900 30.82800
H  13.92000 52.04000 30.33500
H  13.07900 50.12700 31.10700
H  14.02400 49.05000 30.15600
H  12.67400 49.83000 29.38500
H  15.98900 53.12200 30.24400
H  17.58300 52.41700 29.94700
H  16.51500 53.47100 32.32300
H  17.98900 52.29500 32.25500
H  9.74900 52.61700 25.81300
H  10.36900 54.16600 26.42300
H  10.68300 52.72900 27.32500
H  9.28800 52.83800 23.38300
H  9.43900 53.98100 22.28800
H  9.75000 54.51800 23.95200
H  16.24600 52.62900 20.91400
H  17.98200 50.15200 21.09500
H  16.17600 49.89500 19.84700
H  15.30200 51.34900 19.31600
H  14.53000 50.24000 20.40600
H  19.75300 51.87200 21.57900
H  18.45400 53.08000 21.33800
H  20.15600 52.18500 19.47500
H  18.56000 53.01400 19.17500
H  18.76400 51.22000 19.02600
H  21.73500 49.32200 24.64600
H  20.71700 47.91900 24.27700
H  21.55700 47.91600 25.84200
H  19.05100 50.24400 29.75700
H  19.19400 46.75100 32.81000
H  17.70100 46.75100 32.27700
H  18.14800 48.11800 33.32700

