158

Mg 28.38200 56.99800 41.39700
C  25.75100 54.99800 40.42300
C  30.55200 54.85700 39.62500
C  30.81100 59.39300 41.54900
C  26.06900 59.27900 42.81800
N  28.19300 55.11000 40.14900
C  26.99200 54.53800 39.88300
C  27.08400 53.37800 38.84700
C  28.61400 53.04200 39.11400
C  29.17300 54.44700 39.55800
C  28.82800 51.99000 40.26300
C  26.88900 54.00100 37.45300
C  26.48000 53.06500 36.27300
H  27.04500 53.42500 34.90800
N  30.44300 57.11200 40.76100
C  31.16200 56.07100 40.19100
C  32.56400 56.47700 40.02100
C  32.60300 57.74800 40.51700
C  31.27100 58.13200 40.96400
C  33.59400 55.67000 39.42600
C  33.82000 58.61200 40.56500
O  34.94600 58.14100 40.29200
C  33.83400 60.04300 41.03400
N  28.35200 59.02500 42.07100
C  29.53200 59.71300 42.04600
C  29.26800 61.15600 42.61400
C  27.90000 61.02200 43.39400
C  27.37000 59.69000 42.70900
C  30.40000 61.84000 43.49100
C  26.89100 62.18200 43.35300
C  26.15700 62.54900 44.64500
N  26.30000 57.10100 41.67600
C  25.54200 58.08100 42.26300
C  24.13900 57.62900 42.25800
C  24.16200 56.43400 41.48300
C  25.49500 56.17700 41.15800
C  22.99800 58.08400 43.04000
C  23.35700 55.36700 40.85400
O  22.16400 55.14400 40.87200
C  24.36100 54.34600 40.20600
C  24.31300 53.05600 40.91200
O  24.99000 52.69000 41.89200
O  23.39800 52.20600 40.33900
C  23.49600 50.85900 40.82200
H  31.29700 54.28100 39.07400
H  31.53000 60.21400 41.53300
H  25.40500 60.01300 43.27900
H  26.36200 52.60200 39.10200
H  28.94200 52.58100 38.18200
H  29.29200 52.39600 41.16200
H  29.43700 51.18100 39.85900
H  27.96900 51.49100 40.71400
H  27.82700 54.46100 37.14100
H  26.17900 54.82800 37.45700
H  25.39900 53.16600 36.18000
H  26.54600 52.02200 36.58000
H  33.57900 55.72100 38.33800
H  33.37000 54.62200 39.63000
H  34.58900 55.81100 39.84800
H  33.17800 60.63700 40.39800
H  34.82500 60.48400 40.92500
H  33.64700 59.95600 42.10400
H  29.04900 61.78300 41.75000
H  28.13200 60.80600 44.43700
H  30.45800 62.87900 43.17000
H  31.39800 61.45700 43.27800
H  30.19800 61.94400 44.55700
H  26.11700 61.89300 42.64200
H  27.34400 63.10500 42.99500
H  25.10700 62.30000 44.49300
H  26.11800 63.63800 44.66100
H  26.57600 62.05400 45.52100
H  23.15000 57.92600 44.10800
H  22.06500 57.62700 42.70800
H  22.87100 59.15200 42.86400
H  24.05300 54.25300 39.16500
H  23.18100 50.81000 41.86400
H  24.43800 50.34400 40.63500
H  22.83400 50.33100 40.13600
Mg 10.21900 47.16300 25.45600
C  8.04700 47.50500 28.27000
C  12.73200 48.33000 27.48200
C  12.34700 46.48200 22.98200
C  7.45900 46.50900 23.50900
N  10.33200 48.02700 27.62800
C  9.41000 47.85800 28.59800
C  9.87200 48.38800 29.95700
C  11.29500 48.97300 29.60200
C  11.51300 48.43200 28.13900
C  11.30900 50.46900 29.64100
C  9.95400 47.27000 31.03800
C  10.74500 47.66600 32.25100
H  10.00900 47.88600 33.58400
N  12.32700 47.39200 25.20300
C  13.17900 47.79400 26.18700
C  14.52400 47.54600 25.72400
C  14.40300 46.90800 24.43400
C  13.01500 46.87500 24.13200
C  15.82300 47.78200 26.65700
C  15.49300 46.43900 23.47800
O  15.33900 45.90700 22.41500
C  16.94000 46.64100 23.77400
N  9.87200 46.73100 23.53600
C  10.94100 46.34700 22.71600
C  10.43300 45.89600 21.31900
C  8.86800 45.96600 21.49500
C  8.68900 46.28200 22.93900
C  11.04000 46.79900 20.12300
C  8.08300 44.78600 21.02300
C  7.23400 45.04500 19.76900
N  8.11400 47.17000 25.73100
C  7.09000 46.86100 24.86700
C  5.80900 46.95100 25.55300
C  6.16500 47.05100 26.88100
C  7.57100 47.22900 26.95800
C  4.52600 46.73200 24.99600
C  5.59700 47.05500 28.20000
O  4.43200 46.82200 28.61500
C  6.85000 47.20600 29.17600
C  7.07500 45.91200 29.93500
O  7.88500 45.03100 29.76200
O  6.17100 45.93600 31.00800
C  6.31200 44.86500 32.01000
H  13.49700 48.69600 28.17000
H  12.98900 46.33000 22.11200
H  6.61700 46.27800 22.85300
H  9.17100 49.11100 30.37400
H  12.11200 48.49400 30.14200
H  12.36900 50.72100 29.67600
H  10.76800 50.73200 30.55000
H  10.79600 50.82600 28.74900
H  10.39100 46.40100 30.54700
H  8.94100 47.09300 31.39800
H  11.47900 48.46200 32.11900
H  11.32700 46.77300 32.47700
H  16.43100 46.88200 26.56200
H  15.55200 47.86500 27.70900
H  16.28400 48.73200 26.38600
H  17.48000 46.76800 22.83500
H  17.12300 45.77000 24.40300
H  17.06900 47.52300 24.40200
H  10.69700 44.84100 21.24200
H  8.55000 46.91700 21.06700
H  10.21700 47.17800 19.51700
H  11.59900 46.16900 19.43100
H  11.63600 47.63400 20.49300
H  7.52700 44.30100 21.82500
H  8.82000 44.09400 20.61400
H  7.33900 46.06600 19.40200
H  6.22600 44.74800 20.05800
H  7.59600 44.39400 18.97300
H  4.63200 46.45400 23.94800
H  3.97800 47.67100 25.07300
H  3.93500 46.05200 25.61000
H  6.71400 48.02300 29.88400
H  6.91600 44.01900 31.68000
H  5.35600 44.40900 32.26700
H  6.66000 45.19100 32.99000

