158

Mg 45.00200 4.43300 47.89300
C  42.73800 7.11400 47.17400
C  42.34500 2.41100 47.68100
C  47.15400 1.86700 47.52900
C  47.66700 6.72600 47.55000
N  42.73300 4.78000 47.59000
C  42.05000 5.90200 47.28000
C  40.60300 5.60800 46.86000
C  40.44600 4.17400 47.41800
C  41.96300 3.71800 47.65700
C  39.64400 4.08300 48.80400
C  40.33700 5.79200 45.30800
C  39.40200 6.97000 44.91800
H  39.77700 7.83000 43.69800
N  44.77200 2.39600 47.61000
C  43.57100 1.72400 47.58000
C  43.74700 0.32100 47.36100
C  45.16000 0.13000 47.28400
C  45.77200 1.50400 47.48800
C  42.60700 -0.78100 47.28100
C  45.94800 -1.20900 47.20900
O  45.27100 -2.26200 47.21800
C  47.41000 -1.34300 47.17400
N  47.16600 4.29000 47.68400
C  47.84800 3.09300 47.70100
C  49.33000 3.35000 47.50000
C  49.43000 4.87900 47.57700
C  47.99600 5.37500 47.52700
C  50.23900 2.63000 48.45400
C  50.33900 5.59600 46.51100
C  51.86700 5.16800 46.64600
N  45.21700 6.50500 47.63000
C  46.36100 7.26700 47.43900
C  46.03000 8.59800 47.20500
C  44.63200 8.62400 47.21000
C  44.17300 7.29800 47.35500
C  47.03300 9.71900 47.03500
C  43.49400 9.47100 47.08200
O  43.39800 10.67700 47.12000
C  42.19600 8.50500 47.03500
C  41.39600 8.90000 48.31300
O  41.54300 8.42700 49.44600
O  40.62000 9.87800 47.99200
C  39.98800 10.52500 49.16600
H  41.46600 1.76800 47.59800
H  47.81500 1.02600 47.30600
H  48.54600 7.37200 47.52400
H  39.88300 6.25200 47.36500
H  39.90400 3.53900 46.71700
H  40.12100 3.69900 49.70600
H  38.80600 3.41500 48.60500
H  39.18700 5.03200 49.08400
H  39.72900 4.91400 45.09300
H  41.23500 5.82100 44.68900
H  39.24300 7.60900 45.78700
H  38.38700 6.62600 44.71900
H  42.57200 -1.21500 46.28100
H  41.59700 -0.40200 47.44000
H  42.78200 -1.48000 48.09900
H  47.83400 -0.72500 46.38300
H  47.74900 -2.32900 46.85500
H  47.76500 -1.27500 48.20200
H  49.52400 2.97800 46.49400
H  49.78300 5.20100 48.55600
H  49.70200 1.92000 49.08200
H  50.71600 3.25800 49.20700
H  50.95400 2.10600 47.82000
H  50.15900 6.66500 46.39400
H  49.83500 5.35500 45.57500
H  52.14600 4.54900 45.79400
H  51.96100 4.55500 47.54200
H  52.41600 6.10600 46.72900
H  47.55300 9.74300 46.07700
H  47.75700 9.70700 47.85000
H  46.41700 10.61700 47.08200
H  41.62000 8.58100 46.11200
H  39.90200 9.89700 50.05200
H  38.98900 10.90000 48.94100
H  40.64900 11.35500 49.41400
Mg 35.08600 3.47500 30.40000
C  32.70700 4.55400 32.71600
C  37.40100 3.59500 32.98800
C  37.29900 2.74500 28.16600
C  32.58800 3.73600 27.90500
N  35.00800 4.03500 32.59000
C  33.92200 4.35900 33.31300
C  34.25600 4.25300 34.86600
C  35.85800 4.29900 34.88100
C  36.08800 3.90400 33.38200
C  36.39500 5.72300 35.13900
C  33.72200 2.95700 35.59200
C  34.01300 2.76000 37.08900
H  34.44900 3.98100 37.91300
N  37.10400 3.12200 30.60500
C  37.93600 3.14500 31.72600
C  39.28900 2.72800 31.36600
C  39.30700 2.76200 29.92000
C  37.86800 2.85900 29.50500
C  40.41400 2.66200 32.46200
C  40.39800 2.61300 28.94100
O  40.15500 2.83300 27.76500
C  41.73300 2.08800 29.38700
N  34.94300 3.37000 28.29900
C  35.99400 2.99300 27.61300
C  35.77400 3.06600 26.01400
C  34.23100 3.29200 25.98600
C  33.86700 3.47200 27.48700
C  36.55200 4.18800 25.19300
C  33.50700 2.13900 25.26500
C  33.10700 0.94400 26.07200
N  33.07100 4.11900 30.27700
C  32.18800 4.08900 29.17400
C  30.84000 4.27000 29.66900
C  31.02100 4.50900 31.05300
C  32.41000 4.41000 31.38800
C  29.61900 4.28900 28.78200
C  30.37300 4.75500 32.29700
O  29.18700 4.93300 32.47900
C  31.39100 4.74600 33.46000
C  31.21100 6.02800 34.12100
O  30.98400 7.13200 33.56100
O  31.27900 5.81700 35.46600
C  31.49600 7.08400 36.14100
H  38.12100 3.70500 33.80200
H  38.03200 2.45200 27.41100
H  31.78400 3.67100 27.16900
H  33.78900 5.11300 35.34600
H  36.20400 3.64300 35.68000
H  36.91600 5.71400 36.09600
H  35.65900 6.52100 35.22400
H  37.15800 5.86900 34.37400
H  34.12400 2.05600 35.12900
H  32.63500 2.93400 35.51100
H  34.64300 1.87000 37.10700
H  33.15100 2.33600 37.60400
H  40.13700 3.22000 33.35600
H  41.23900 3.20800 32.00400
H  40.85700 1.70800 32.74900
H  41.50000 1.28700 30.08800
H  42.28500 2.94700 29.76800
H  42.36500 1.73800 28.57100
H  36.16700 2.13800 25.59700
H  34.01000 4.18800 25.40700
H  37.12200 4.71900 25.95600
H  35.81600 4.84100 24.72500
H  37.17700 3.63200 24.49400
H  34.18700 1.77600 24.49500
H  32.66200 2.58600 24.74200
H  33.63700 0.88000 27.02300
H  33.20300 0.08800 25.40500
H  32.04600 0.98700 26.32200
H  29.00200 3.39200 28.81300
H  29.88300 4.35100 27.72600
H  28.95300 5.11400 29.03400
H  31.06800 3.99000 34.17500
H  32.27800 7.61900 35.60100
H  31.96000 6.83200 37.09400
H  30.63200 7.74900 36.12800

