158

Mg 16.74900 -1.87500 27.92200
C  15.81200 0.08400 30.71200
C  19.28200 -3.16600 29.89500
C  18.17000 -3.20300 25.18600
C  14.56500 0.05900 25.87900
N  17.46500 -1.48500 30.00500
C  16.85800 -0.80200 30.98700
C  17.28000 -1.18000 32.45700
C  18.59400 -2.01600 32.12000
C  18.50100 -2.21100 30.58000
C  19.85500 -1.27600 32.45400
C  16.14000 -1.73500 33.35900
C  16.07200 -1.17200 34.72300
H  17.31600 -0.46500 35.41100
N  18.35600 -3.06600 27.61100
C  19.20500 -3.62500 28.57000
C  20.14000 -4.57500 27.90400
C  19.80800 -4.57400 26.55600
C  18.73800 -3.58800 26.42900
C  21.19800 -5.34300 28.67700
C  20.46700 -5.27800 25.38500
O  20.16800 -5.09500 24.24400
C  21.56500 -6.31000 25.69700
N  16.41700 -1.56500 25.83100
C  17.10400 -2.33100 24.89300
C  16.68300 -1.93200 23.45300
C  15.33100 -1.10000 23.72600
C  15.41500 -0.86500 25.24700
C  17.66100 -1.16800 22.50600
C  14.00900 -1.87800 23.45500
C  13.57400 -1.72100 21.99900
N  15.39900 -0.34000 28.19400
C  14.60600 0.37700 27.26400
C  13.84800 1.39600 27.98300
C  14.28900 1.30300 29.32800
C  15.24600 0.27400 29.40600
C  12.83100 2.34700 27.43900
C  14.02200 1.86600 30.63600
O  13.16700 2.73600 31.00300
C  15.02500 1.03700 31.63800
C  15.81300 1.98900 32.44900
O  16.91800 2.53000 32.14100
O  15.14700 2.28300 33.62300
C  15.73400 3.25800 34.51700
H  20.11800 -3.56100 30.47600
H  18.37700 -3.70500 24.23900
H  13.99800 0.76000 25.26400
H  17.57200 -0.21700 32.87800
H  18.59800 -3.01100 32.56500
H  19.57900 -0.68700 33.32900
H  20.13000 -0.60400 31.64100
H  20.67500 -1.93800 32.73400
H  16.32700 -2.80700 33.42800
H  15.18900 -1.69800 32.82800
H  15.77100 -2.01300 35.34800
H  15.16300 -0.57700 34.80300
H  20.89600 -6.38800 28.60200
H  21.12300 -5.34900 29.76500
H  22.17300 -5.04500 28.29200
H  21.32800 -6.88500 26.59300
H  22.44500 -5.67300 25.78000
H  21.57200 -6.93600 24.80500
H  16.35400 -2.87500 23.01600
H  15.31800 -0.14900 23.19300
H  17.99300 -1.70100 21.61600
H  18.55600 -1.07600 23.12100
H  17.25800 -0.18700 22.25100
H  13.28400 -1.69400 24.24800
H  14.28100 -2.93200 23.50200
H  12.49900 -1.56300 21.91500
H  13.70500 -2.64900 21.44100
H  14.01800 -0.81000 21.59700
H  12.84400 3.25500 28.04200
H  11.89400 1.81300 27.59400
H  13.14900 2.62700 26.43400
H  14.34600 0.38200 32.18400
H  15.48300 4.25800 34.16400
H  16.79000 3.11900 34.74700
H  15.18800 3.03200 35.43300
Mg -11.88200 37.42300 41.49700
C  -9.29300 35.23800 41.09600
C  -9.73100 39.97000 40.29900
C  -14.47300 39.48300 41.35700
C  -13.86000 34.75400 42.53000
N  -9.72500 37.59200 40.76500
C  -8.92500 36.51700 40.63200
C  -7.64300 36.80900 39.76100
C  -7.72300 38.46300 39.77600
C  -9.11900 38.72400 40.30000
C  -6.67600 39.18000 40.69800
C  -7.68600 36.18500 38.37100
C  -6.41700 35.44500 37.93400
H  -5.45500 36.14000 37.05100
N  -12.08800 39.46400 40.91900
C  -11.08000 40.32400 40.55000
C  -11.68100 41.63600 40.34300
C  -13.08400 41.52900 40.70300
C  -13.27700 40.17600 41.09500
C  -10.94800 42.87200 39.83100
C  -14.09400 42.69000 40.60100
O  -13.77300 43.83200 40.26500
C  -15.59500 42.50700 40.89700
N  -13.90400 37.15100 41.69900
C  -14.82500 38.19900 41.67000
C  -16.26800 37.65700 42.02500
C  -15.97100 36.21500 42.48900
C  -14.49200 35.97100 42.16700
C  -17.11400 38.52300 43.04400
C  -16.93200 35.07000 41.93300
C  -17.58800 34.16500 43.02800
N  -11.59800 35.43700 41.88700
C  -12.47700 34.46900 42.35500
C  -11.72000 33.24100 42.61200
C  -10.46000 33.45800 42.07500
C  -10.46800 34.83700 41.55900
C  -12.09900 32.06500 43.30800
C  -9.20900 32.90700 41.89100
O  -8.76400 31.90300 42.35600
C  -8.38900 33.91600 41.08400
C  -7.05100 34.00900 41.76900
O  -6.07100 33.31700 41.49100
O  -7.13600 34.93300 42.77600
C  -5.94400 35.11500 43.57100
H  -9.06500 40.78600 40.00800
H  -15.37100 40.09500 41.46100
H  -14.53800 33.94600 42.81200
H  -6.71400 36.48200 40.22700
H  -7.70600 38.72000 38.71700
H  -5.89900 39.52500 40.01500
H  -6.18000 38.63200 41.49900
H  -7.11700 39.99700 41.26900
H  -7.94000 36.97400 37.66400
H  -8.55500 35.53900 38.25000
H  -6.88200 34.61100 37.40800
H  -5.89700 35.01100 38.78800
H  -11.28300 43.79800 40.30000
H  -11.35300 43.06700 38.83800
H  -9.86800 42.78200 39.71800
H  -15.76900 41.94200 41.81200
H  -15.95900 41.96700 40.02300
H  -16.11000 43.46700 40.93800
H  -16.86500 37.59500 41.11500
H  -16.13300 36.27900 43.56500
H  -17.57800 39.29000 42.42400
H  -16.45800 39.05100 43.73600
H  -17.94700 37.95200 43.45400
H  -16.43100 34.35400 41.28100
H  -17.70200 35.45500 41.26400
H  -17.38500 33.12300 42.78000
H  -18.65700 34.37000 42.96800
H  -17.24500 34.40700 44.03400
H  -12.87500 31.52500 42.76400
H  -12.57600 32.42900 44.21800
H  -11.27900 31.36200 43.45600
H  -8.25200 33.75200 40.01500
H  -5.08900 34.47500 43.35500
H  -6.28400 34.97800 44.59800
H  -5.57400 36.12600 43.39900

