158

Mg 41.16500 8.90100 28.94300
C  42.80200 10.27700 31.67800
C  38.88800 7.63800 31.10600
C  39.58000 7.64800 26.22300
C  43.92900 9.78800 26.88200
N  40.93800 8.94100 31.19000
C  41.58900 9.78500 32.05200
C  41.00200 9.83300 33.44500
C  39.78100 8.79900 33.24700
C  39.85000 8.40900 31.71400
C  39.86500 7.52500 34.08500
C  40.58000 11.23400 33.96900
C  39.96000 11.35100 35.39800
H  40.79600 11.89900 36.59500
N  39.50300 7.78600 28.65900
C  38.68800 7.39500 29.73800
C  37.61600 6.59100 29.19100
C  37.82900 6.43600 27.76500
C  38.97700 7.36300 27.50100
C  36.49000 6.05700 30.13900
C  37.03600 5.71500 26.70400
O  37.41400 5.76300 25.54300
C  35.82300 5.01800 27.18000
N  41.64700 8.70700 26.78600
C  40.81300 8.23000 25.85500
C  41.30500 8.40700 24.41700
C  42.72500 9.04300 24.67500
C  42.84200 9.20400 26.23200
C  41.29700 7.13300 23.61400
C  42.91700 10.34300 23.90600
C  42.54000 11.67100 24.55600
N  43.04700 9.64800 29.13400
C  44.02600 10.05200 28.26500
C  45.00900 10.95200 28.92300
C  44.55600 10.92000 30.27800
C  43.40900 10.17600 30.41200
C  46.18400 11.67000 28.33000
C  44.89000 11.43900 31.54100
O  45.75500 12.21500 31.87500
C  43.74400 11.12700 32.58300
C  44.35000 10.36600 33.64100
O  45.14200 9.42000 33.46200
O  43.98600 10.82300 34.87600
C  44.70000 10.31600 36.08900
H  38.16800 7.21700 31.81100
H  39.05800 7.51600 25.27200
H  44.85300 10.08100 26.37800
H  41.72300 9.49300 34.18800
H  38.86500 9.30300 33.55600
H  40.66800 7.66600 34.81000
H  40.02700 6.67600 33.42200
H  39.00200 7.40900 34.74100
H  39.84500 11.68400 33.30200
H  41.48100 11.84600 33.95500
H  39.65800 10.37300 35.77200
H  39.01700 11.89500 35.33800
H  35.61700 6.04700 29.48700
H  36.28600 6.72000 30.98000
H  36.80500 5.12500 30.60800
H  36.09100 4.18900 27.83500
H  35.45700 4.48900 26.30000
H  35.07000 5.66200 27.63400
H  40.68900 9.13000 23.88400
H  43.44500 8.26600 24.41400
H  41.09100 6.37100 24.36500
H  42.16400 6.85900 23.01200
H  40.43900 7.17900 22.94300
H  42.29400 10.31800 23.01200
H  43.93000 10.30700 23.50500
H  43.31100 12.07700 25.21100
H  41.60800 11.43700 25.07000
H  42.28400 12.49500 23.88900
H  47.14000 11.16400 28.46800
H  46.31000 12.62100 28.84700
H  46.01900 11.83500 27.26500
H  43.27500 12.03200 32.96900
H  43.91700 10.63800 36.77500
H  45.70800 10.72900 36.11300
H  44.62200 9.22900 36.12000
Mg 9.07800 48.12600 26.33700
C  7.12500 47.71200 29.10700
C  11.82100 48.92900 28.40800
C  11.03900 48.59000 23.54400
C  6.15000 47.96300 24.28400
N  9.39600 48.44600 28.49500
C  8.44000 48.15600 29.48400
C  9.05100 48.27500 30.87200
C  10.51400 48.73400 30.62200
C  10.62100 48.66500 29.05000
C  10.95300 50.17700 31.24100
C  8.85500 47.08100 31.90600
C  9.73900 46.99200 33.17000
H  9.17700 46.29200 34.37100
N  11.19600 48.42000 26.01400
C  12.10600 48.77200 27.00900
C  13.39700 49.07400 26.36900
C  13.20700 48.79900 24.95200
C  11.77500 48.61200 24.77600
C  14.70000 49.34400 27.11700
C  14.24700 48.87700 23.79000
O  13.95200 48.87000 22.58400
C  15.63100 49.03500 24.12800
N  8.65900 48.31000 24.22000
C  9.64200 48.52600 23.30600
C  9.06800 48.49400 21.89300
C  7.53100 48.30800 22.08200
C  7.43900 48.21000 23.62200
C  9.41400 49.86200 21.17700
C  6.98100 47.14000 21.29600
C  6.53800 47.45400 19.84800
N  7.01700 47.90000 26.54200
C  5.93700 47.81500 25.67100
C  4.72600 47.49100 26.48200
C  5.18700 47.43600 27.77900
C  6.52600 47.74400 27.79700
C  3.27900 47.53000 26.04700
C  4.73100 47.25700 29.16200
O  3.61000 47.10600 29.63000
C  6.05000 47.34500 30.00000
C  6.18400 45.99600 30.49800
O  6.84500 45.09800 29.94400
O  5.48600 45.85500 31.63400
C  5.74200 44.58800 32.42600
H  12.73100 49.26800 28.90700
H  11.66500 48.74900 22.66400
H  5.22500 47.86200 23.71200
H  8.40300 49.03300 31.31400
H  11.16100 47.94500 31.00500
H  11.35200 50.89900 30.52900
H  11.75200 50.10000 31.97900
H  10.08700 50.62800 31.72400
H  8.95800 46.20900 31.26000
H  7.80100 47.05800 32.18300
H  9.91700 48.03700 33.42400
H  10.73300 46.60900 32.93600
H  15.24200 48.40200 27.03700
H  14.54800 49.48200 28.18800
H  15.27800 50.18600 26.73500
H  16.13200 48.26700 24.71800
H  15.57500 49.87500 24.82000
H  16.30500 49.30800 23.31600
H  9.43300 47.60400 21.38000
H  6.84100 49.10800 21.81700
H  9.68700 50.57300 21.95700
H  8.47900 50.17800 20.71300
H  10.22000 49.66400 20.47000
H  6.12300 46.69500 21.80000
H  7.75300 46.37600 21.38600
H  5.48600 47.20000 19.71700
H  7.14400 46.87200 19.15400
H  6.66800 48.49700 19.56000
H  3.04700 46.63800 25.46400
H  3.09900 48.30400 25.30200
H  2.70000 47.46900 26.96900
H  5.95300 48.09000 30.79000
H  6.08900 44.86300 33.42200
H  6.46500 43.92300 31.95400
H  4.71600 44.22000 32.41300

