158

Mg 25.66000 0.92700 29.64500
C  27.73900 0.63900 32.42900
C  22.98800 1.25800 31.73100
C  23.78000 0.95200 26.88800
C  28.44300 -0.00400 27.71100
N  25.48600 0.90600 31.82200
C  26.45000 0.91000 32.80300
C  25.87400 1.26600 34.21600
C  24.33000 1.32600 33.92800
C  24.25800 1.15200 32.35900
C  23.44900 0.22400 34.60200
C  26.53000 2.53900 34.92000
C  27.23700 2.48000 36.23300
H  26.73600 3.39700 37.32600
N  23.66600 1.22900 29.32500
C  22.66600 1.30800 30.29700
C  21.39200 1.43800 29.71500
C  21.60100 1.38200 28.32200
C  23.06900 1.22200 28.09400
C  20.14900 1.59000 30.42000
C  20.65500 1.39200 27.13900
O  21.03200 1.22200 25.97900
C  19.18500 1.48300 27.42800
N  26.11700 0.75100 27.47200
C  25.10900 0.71800 26.55200
C  25.71500 0.58600 25.12100
C  27.22900 0.26100 25.45100
C  27.28600 0.38500 26.98500
C  25.09000 -0.41300 24.22700
C  28.28200 1.07500 24.63300
C  29.23100 0.14900 23.75900
N  27.60400 0.34900 30.02500
C  28.62900 0.03700 29.08800
C  29.85700 -0.19200 29.72400
C  29.62300 0.11700 31.09200
C  28.18800 0.38800 31.18900
C  31.10900 -0.50100 29.13100
C  30.16100 0.16300 32.47400
O  31.33900 0.00100 32.89500
C  28.96700 0.46100 33.33000
C  28.83100 -0.59900 34.39600
O  28.21500 -1.63200 34.34700
O  29.45100 -0.17100 35.53900
C  29.32800 -1.05200 36.62800
H  22.14100 1.32700 32.41700
H  23.26500 0.78800 25.93900
H  29.24700 -0.45700 27.12800
H  26.18500 0.49100 34.91600
H  24.05700 2.35100 34.18000
H  23.32500 -0.66000 33.97700
H  22.46700 0.59000 34.90300
H  23.99400 -0.03000 35.51100
H  25.75500 3.29100 35.06700
H  27.23100 2.97500 34.20900
H  28.22300 2.93300 36.12900
H  27.25800 1.42400 36.50000
H  19.72400 2.49000 29.97500
H  20.27200 1.73800 31.49300
H  19.50100 0.71400 30.41300
H  18.99600 0.54800 27.95600
H  18.64600 1.64800 26.49500
H  18.99600 2.35500 28.05500
H  25.62200 1.58400 24.69200
H  27.36000 -0.81400 25.32700
H  24.42100 -1.13200 24.70100
H  25.77400 -0.98300 23.59800
H  24.33000 0.05500 23.60200
H  28.87400 1.74100 25.26100
H  27.79100 1.72400 23.90800
H  30.28000 0.20900 24.05000
H  29.13300 0.40100 22.70300
H  28.85100 -0.86900 23.85100
H  31.43400 0.23900 28.40000
H  31.01400 -1.48500 28.67200
H  31.82100 -0.54500 29.95500
H  29.14100 1.39000 33.87400
H  30.25300 -1.16600 37.19200
H  29.05400 -2.08400 36.40700
H  28.61300 -0.58600 37.30600
Mg -1.56000 34.91700 25.88000
C  -3.49000 33.50900 28.44800
C  -0.67700 37.42800 28.04500
C  0.14700 36.30600 23.37500
C  -2.87400 32.54300 23.68300
N  -2.06600 35.42000 28.04700
C  -2.83200 34.69500 28.85600
C  -2.69700 35.09600 30.32400
C  -1.95800 36.45700 30.18400
C  -1.59400 36.53100 28.67600
C  -2.82100 37.61800 30.70100
C  -1.99000 34.04300 31.13200
C  -1.53800 34.56900 32.49600
H  -1.79300 33.57900 33.60400
N  -0.35700 36.57700 25.70700
C  -0.11800 37.46800 26.71900
C  0.81200 38.43200 26.25400
C  1.07900 38.09300 24.88100
C  0.23400 36.99300 24.59300
C  1.49600 39.51100 27.09300
C  2.04500 38.82100 24.00800
O  2.24800 38.53300 22.84100
C  2.86100 39.96800 24.45500
N  -1.38100 34.56300 23.82500
C  -0.62200 35.23700 22.95600
C  -0.51500 34.63400 21.56500
C  -1.44200 33.40900 21.75000
C  -1.89700 33.43700 23.22500
C  -0.94100 35.61500 20.41000
C  -0.80500 32.08500 21.17100
C  -0.53600 30.94900 22.20600
N  -3.06800 33.41800 25.91400
C  -3.44000 32.53200 24.94400
C  -4.37100 31.65100 25.54700
C  -4.36600 31.96500 26.93200
C  -3.63200 33.09500 27.07300
C  -5.14100 30.44300 24.88900
C  -4.84000 31.53900 28.21200
O  -5.50400 30.54500 28.50000
C  -4.24200 32.49000 29.29200
C  -5.37100 32.87500 30.19500
O  -6.13500 33.81700 30.00000
O  -5.49400 31.93200 31.13400
C  -6.41600 32.09800 32.28100
H  -0.41700 38.20400 28.76800
H  0.75300 36.77300 22.59600
H  -3.23900 31.65900 23.15700
H  -3.69800 35.18400 30.74700
H  -1.00100 36.44300 30.70500
H  -2.20000 38.26500 31.32000
H  -3.57900 37.19200 31.35800
H  -3.21400 38.24900 29.90400
H  -1.09700 33.88700 30.52700
H  -2.60600 33.14600 31.19300
H  -1.89700 35.56900 32.74000
H  -0.45200 34.53400 32.58100
H  2.55900 39.27400 27.05000
H  1.18300 39.40400 28.13200
H  1.22100 40.49500 26.71300
H  2.42300 40.69400 25.14000
H  3.19000 40.57700 23.61300
H  3.65300 39.41100 24.95600
H  0.51300 34.27200 21.55800
H  -2.39800 33.55600 21.24800
H  -1.97400 35.42200 20.12100
H  -0.26200 35.62900 19.55700
H  -0.85100 36.65600 20.72100
H  0.20000 32.31700 20.81800
H  -1.47700 31.73000 20.38900
H  -0.10500 31.35700 23.12100
H  0.21600 30.27100 21.80200
H  -1.48000 30.41400 22.30600
H  -5.99000 30.29400 25.55700
H  -4.48400 29.57800 24.79600
H  -5.56300 30.69500 23.91600
H  -3.51600 31.81100 29.73800
H  -6.11400 33.01100 32.79500
H  -6.44000 31.24700 32.96100
H  -7.41000 32.09300 31.83200

