158

Mg 0.13300 7.95300 26.74300
C  0.82300 10.03900 29.50500
C  -0.25500 5.36300 28.76500
C  -0.60800 6.11700 24.04300
C  0.67000 10.78300 24.66600
N  0.35500 7.74200 28.79800
C  0.49000 8.68700 29.82500
C  0.40500 8.09100 31.20900
C  0.48600 6.56300 30.84700
C  0.18100 6.52100 29.35800
C  1.78700 5.89300 31.16700
C  -0.90700 8.55800 31.93500
C  -0.77600 8.68300 33.50700
H  0.38100 8.13500 34.22700
N  -0.34300 6.02900 26.46900
C  -0.54800 5.07400 27.41500
C  -0.89100 3.84500 26.89100
C  -0.89000 4.01200 25.47300
C  -0.62900 5.46000 25.28000
C  -1.30200 2.60600 27.70500
C  -1.23900 3.02500 24.42100
O  -1.34900 3.44000 23.24500
C  -1.33600 1.60600 24.65600
N  0.06900 8.47100 24.60900
C  -0.30500 7.44400 23.76700
C  -0.34900 8.00400 22.32200
C  -0.02500 9.58800 22.51800
C  0.18400 9.67100 24.01300
C  0.65400 7.30400 21.26600
C  -1.08700 10.52800 21.88900
C  -2.30200 10.89100 22.77500
N  0.78400 9.92000 26.95000
C  0.97200 10.94500 26.03700
C  1.33900 12.20200 26.74100
C  1.34300 11.83600 28.12800
C  0.94900 10.50900 28.18100
C  1.49600 13.56700 26.08800
C  1.53300 12.25200 29.42500
O  1.94500 13.28800 29.81600
C  1.11900 11.18300 30.43500
C  2.28500 10.87600 31.42200
O  3.30100 10.18300 31.20500
O  2.06000 11.50100 32.63500
C  3.07500 11.49700 33.63700
H  -0.26200 4.57200 29.51800
H  -0.68200 5.61000 23.07800
H  0.82900 11.64300 24.01100
H  1.25400 8.23200 31.87800
H  -0.20500 5.95800 31.43500
H  2.59800 6.52700 31.52300
H  2.08400 5.24800 30.33900
H  1.49600 5.14200 31.90100
H  -1.58800 7.70700 31.94100
H  -1.26300 9.49300 31.50400
H  -1.69300 8.19100 33.83200
H  -0.97200 9.70100 33.84300
H  -1.62200 2.85700 28.71600
H  -0.56400 1.80600 27.63800
H  -2.19300 2.19900 27.22700
H  -0.43300 1.40800 25.23300
H  -1.14000 1.08600 23.71800
H  -2.23700 1.30200 25.18800
H  -1.41100 7.81400 22.16300
H  0.95600 9.85400 22.12300
H  0.02100 7.04200 20.41800
H  1.08500 6.42800 21.75000
H  1.48100 7.90800 20.89300
H  -1.58400 10.18700 20.98100
H  -0.61700 11.49500 21.71000
H  -3.23600 10.44700 22.42900
H  -2.35000 11.97700 22.86300
H  -2.20500 10.58700 23.81700
H  1.28800 14.38200 26.78200
H  0.77300 13.66300 25.27800
H  2.51500 13.71700 25.73300
H  0.25100 11.53100 30.99600
H  3.01000 12.41200 34.22700
H  4.09100 11.29300 33.30000
H  2.76100 10.77300 34.38900
Mg 1.53100 42.62300 26.41700
C  2.99800 42.63400 29.75400
C  -1.34200 41.42600 27.77300
C  0.40900 41.84400 23.30400
C  4.64300 43.36000 25.11900
N  0.98100 42.00800 28.54700
C  1.58700 42.31000 29.76400
C  0.62200 42.13200 30.93300
C  -0.66300 41.78600 30.21700
C  -0.33000 41.76300 28.71100
C  -1.36000 40.50000 30.78200
C  0.51200 43.51800 31.69000
C  0.99300 43.37900 33.12600
H  0.52100 42.20200 33.97800
N  -0.30600 41.91200 25.64000
C  -1.35900 41.40700 26.36500
C  -2.38300 40.99800 25.41500
C  -1.94700 41.14600 24.08000
C  -0.57600 41.67400 24.29200
C  -3.69700 40.49000 25.94800
C  -2.61600 40.80800 22.71800
O  -1.99200 40.80200 21.67300
C  -4.06800 40.71100 22.73400
N  2.38700 42.57200 24.48500
C  1.67800 42.37000 23.32700
C  2.62500 42.28300 22.14500
C  3.98200 42.95600 22.72600
C  3.71300 43.02400 24.22600
C  2.71600 40.81300 21.61600
C  4.28200 44.40000 22.11300
C  4.96100 44.42200 20.67200
N  3.46300 42.90300 27.21200
C  4.61100 43.24600 26.53100
C  5.66600 43.34300 27.49900
C  5.06200 43.13700 28.75000
C  3.77200 42.85900 28.58200
C  7.11600 43.59100 27.10700
C  5.40800 43.01800 30.17900
O  6.45600 43.15700 30.85900
C  3.96000 42.83400 30.88000
C  4.15100 41.59100 31.72300
O  4.17100 40.43900 31.31400
O  4.57500 41.95000 32.97500
C  5.08700 40.82700 33.83200
H  -2.36100 41.19500 28.09200
H  0.10600 41.58500 22.28700
H  5.63600 43.55400 24.70800
H  0.94900 41.31500 31.57700
H  -1.40700 42.57500 30.33400
H  -1.13500 40.46700 31.84800
H  -1.12700 39.56500 30.27400
H  -2.44600 40.59500 30.80000
H  -0.52600 43.82000 31.83100
H  1.05900 44.31400 31.18500
H  0.75600 44.30700 33.64500
H  2.08300 43.33800 33.14300
H  -4.32000 41.37500 26.07700
H  -3.58500 39.91900 26.87000
H  -4.19200 39.77700 25.28900
H  -4.45400 41.46800 23.41600
H  -4.37500 39.68600 22.94100
H  -4.37400 41.10400 21.76500
H  2.14700 42.79200 21.30700
H  4.85800 42.30900 22.68300
H  3.74400 40.56200 21.35600
H  2.22600 40.54400 20.68000
H  2.37400 40.04700 22.31200
H  4.99000 44.93400 22.74700
H  3.35400 44.96800 22.04900
H  5.01400 43.36800 20.39900
H  6.02400 44.66300 20.66900
H  4.43100 45.09700 20.00000
H  7.62200 42.73500 26.65900
H  7.58300 44.04500 27.98100
H  6.99300 44.44500 26.44100
H  3.77300 43.72900 31.47200
H  5.27200 41.23300 34.82700
H  6.03900 40.63300 33.33700
H  4.47300 39.92900 33.89600

