158

Mg 40.67700 9.25900 28.95400
C  42.06000 10.54100 31.76900
C  38.24900 7.72300 30.86600
C  39.39900 7.75100 26.09700
C  43.51700 10.18000 27.08000
N  40.14300 9.28700 31.03400
C  40.82800 9.92700 32.00100
C  40.15100 9.84200 33.32700
C  39.09700 8.70100 33.07400
C  39.06200 8.60000 31.56100
C  39.36300 7.48000 33.85600
C  39.56500 11.19500 33.72600
C  38.98300 11.28100 35.12400
H  39.82300 12.01500 36.19800
N  39.11000 7.88300 28.58400
C  38.22500 7.45400 29.48100
C  37.19900 6.59900 28.81900
C  37.44700 6.66800 27.41700
C  38.66700 7.49300 27.28200
C  36.02200 5.92300 29.59900
C  36.60200 6.20900 26.29100
O  36.91700 6.37800 25.06100
C  35.34000 5.45200 26.59800
N  41.35800 9.00000 26.86700
C  40.62700 8.46600 25.93600
C  41.40300 8.52200 24.54400
C  42.66100 9.19500 24.88000
C  42.52000 9.51600 26.33000
C  41.55500 7.21200 23.70200
C  42.96300 10.50600 24.06000
C  42.37600 11.81600 24.61200
N  42.48800 10.14800 29.28100
C  43.48400 10.57400 28.44200
C  44.43100 11.36600 29.25700
C  43.97200 11.33600 30.50000
C  42.70700 10.68000 30.47700
C  45.70300 12.05000 28.78800
C  44.17900 11.72600 31.87900
O  45.08500 12.40300 32.33200
C  42.97100 11.18300 32.70000
C  43.52400 10.29300 33.65300
O  44.31500 9.39500 33.35400
O  42.97300 10.42300 34.97500
C  43.46500 9.47900 36.07200
H  37.42000 7.26900 31.41200
H  38.83600 7.46300 25.20700
H  44.41900 10.49700 26.55100
H  40.87400 9.54700 34.08700
H  38.06100 8.97600 33.27200
H  38.51200 7.06600 34.39700
H  40.12600 7.63700 34.61800
H  39.71900 6.64800 33.24900
H  38.73100 11.37300 33.04600
H  40.38800 11.90500 33.64000
H  38.56400 10.32700 35.44700
H  38.18300 11.99100 34.91600
H  35.03000 6.19200 29.23800
H  36.03900 5.98600 30.68700
H  36.11800 4.84500 29.46900
H  35.68900 4.74800 27.35400
H  34.84300 4.99400 25.74300
H  34.63200 6.15400 27.04000
H  40.81700 9.14600 23.87000
H  43.50700 8.50800 24.84200
H  41.30200 6.38700 24.36800
H  42.52900 6.99100 23.26700
H  40.86100 7.10800 22.86700
H  42.62700 10.52400 23.02300
H  44.04000 10.67800 24.07000
H  41.90300 12.37600 23.80700
H  43.23100 12.26800 25.11500
H  41.56600 11.42400 25.22800
H  45.70200 11.89400 27.70900
H  46.61000 11.51900 29.07800
H  45.71100 13.11800 29.00500
H  42.45600 12.02100 33.17100
H  44.31300 9.95600 36.56400
H  43.72300 8.47500 35.73600
H  42.61500 9.32500 36.73700
Mg 26.62700 50.60500 26.51500
C  24.70000 52.01700 29.02200
C  29.02000 49.70800 28.91900
C  28.71300 49.53900 24.02900
C  24.47800 52.03000 24.24400
N  26.82800 50.92600 28.69400
C  25.82400 51.37700 29.51300
C  26.23800 51.09100 30.97600
C  27.70000 50.55600 30.94800
C  27.84400 50.29800 29.44000
C  28.75900 51.46500 31.45100
C  25.25800 50.12600 31.73600
C  24.78100 50.50300 33.22800
H  24.94000 49.49400 34.39900
N  28.62500 49.69900 26.50100
C  29.43600 49.49300 27.57200
C  30.71100 48.92400 27.08600
C  30.64600 48.91900 25.57800
C  29.29200 49.38100 25.30500
C  31.85400 48.68700 28.09800
C  31.67700 48.51300 24.47200
O  31.57700 48.68000 23.22900
C  32.98300 47.92400 24.94100
N  26.64600 50.81700 24.46400
C  27.45300 50.12000 23.61400
C  27.01700 50.22300 22.17600
C  25.53300 50.74200 22.31600
C  25.54700 51.25300 23.75800
C  27.87400 51.21900 21.42200
C  24.42500 49.60700 22.21900
C  23.32600 49.96800 21.25300
N  24.89700 51.84200 26.56500
C  24.12300 52.25100 25.56900
C  22.94800 52.86200 26.03800
C  23.02000 52.81700 27.39900
C  24.31400 52.22200 27.70100
C  21.92700 53.53800 25.30500
C  22.47600 53.13800 28.68300
O  21.52700 53.82100 28.87700
C  23.55500 52.61100 29.77000
C  23.99100 53.81300 30.51600
O  24.61500 54.78000 30.10700
O  23.67100 53.66900 31.84300
C  24.19500 54.66700 32.78500
H  29.61700 49.25200 29.71100
H  29.23100 49.09800 23.17500
H  23.80800 52.40200 23.46600
H  26.27400 51.97800 31.60900
H  27.83600 49.57400 31.40200
H  28.56300 51.75100 32.48400
H  28.75400 52.37000 30.84500
H  29.72800 50.99300 31.61800
H  25.62400 49.10000 31.73200
H  24.41900 49.98500 31.05400
H  23.71300 50.71900 33.21200
H  25.40400 51.36600 33.46100
H  31.80800 47.66500 28.47500
H  31.87200 49.38300 28.93600
H  32.79400 48.89300 27.58500
H  32.73100 47.22600 25.73900
H  33.50700 48.76900 25.38900
H  33.60800 47.56800 24.12300
H  26.98200 49.23800 21.71100
H  25.43300 51.56000 21.60400
H  28.77700 51.59600 21.90100
H  27.32900 52.07000 21.01300
H  28.25800 50.77800 20.50200
H  23.95100 49.32500 23.15900
H  24.96500 48.75700 21.80100
H  23.62200 50.75700 20.56000
H  22.51400 50.38800 21.84700
H  23.01700 49.09300 20.68100
H  22.43900 54.18700 24.59400
H  21.31800 54.16600 25.95600
H  21.30900 52.83000 24.75300
H  23.12700 51.90200 30.47900
H  23.55000 54.51600 33.65000
H  23.97900 55.68900 32.47200
H  25.26600 54.46400 32.79000

