158

Mg 42.32200 42.02200 26.25900
C  41.52000 44.25300 28.80700
C  43.79100 39.93900 28.83700
C  43.44300 39.94700 23.86700
C  41.63200 44.45900 23.91100
N  42.72300 42.17500 28.57600
C  42.14400 43.11200 29.36300
C  42.12000 42.66600 30.83300
C  43.17400 41.45400 30.78600
C  43.22200 41.14900 29.31500
C  44.59500 41.75900 31.33500
C  40.57300 42.40600 31.20500
C  40.02900 43.06200 32.49700
H  40.93500 43.37500 33.71100
N  43.42500 40.25700 26.34600
C  43.97100 39.54700 27.39500
C  44.52700 38.33000 26.89800
C  44.37400 38.22300 25.52200
C  43.68300 39.51200 25.17400
C  45.10200 37.31300 27.89200
C  44.57600 36.99900 24.66000
O  44.29600 37.12900 23.44600
C  45.10900 35.71400 25.13900
N  42.67100 42.25600 24.11600
C  42.93900 41.18600 23.37100
C  42.91300 41.55900 21.90900
C  42.02900 42.82600 21.93200
C  42.16600 43.31600 23.34600
C  44.35500 41.80300 21.31500
C  40.58600 42.60000 21.44600
C  39.69300 41.77000 22.32700
N  41.69600 43.93000 26.24600
C  41.43300 44.82200 25.26500
C  40.94200 46.07600 25.82900
C  40.94900 45.86600 27.22400
C  41.38300 44.57100 27.39900
C  40.33900 47.24000 25.10900
C  40.47000 46.46900 28.45300
O  39.79700 47.49400 28.77000
C  40.77000 45.39900 29.55800
C  41.51100 46.12100 30.61100
O  42.69100 46.42900 30.60000
O  40.64000 46.48700 31.63500
C  41.26900 47.30300 32.67900
H  44.26400 39.26800 29.55700
H  43.41700 39.23000 23.04300
H  41.13800 45.16100 23.23600
H  42.53600 43.47700 31.43200
H  42.60000 40.75200 31.39100
H  44.63900 41.29400 32.32000
H  44.67200 42.83300 31.50900
H  45.37200 41.40100 30.66000
H  40.55300 41.31700 31.23000
H  39.88900 42.68800 30.40400
H  39.30800 42.30100 32.79600
H  39.45000 43.97400 32.35300
H  46.02500 36.83800 27.55900
H  44.41500 36.48600 28.07000
H  45.19400 37.73000 28.89500
H  46.06300 35.90200 25.63200
H  45.22000 35.17700 24.19800
H  44.40000 35.09800 25.69200
H  42.41000 40.73400 21.40400
H  42.43400 43.55600 21.23100
H  45.14500 41.26500 21.83900
H  44.58700 42.86400 21.40400
H  44.29800 41.66700 20.23500
H  40.64100 42.10600 20.47600
H  40.09900 43.54300 21.20100
H  40.23000 41.59200 23.25800
H  39.53900 40.83200 21.79300
H  38.73300 42.20700 22.60400
H  39.30100 47.39900 25.40100
H  40.27600 47.01400 24.04400
H  40.91500 48.14000 25.32700
H  39.96400 44.88600 30.08300
H  41.57400 48.25100 32.23600
H  41.99500 46.79900 33.31800
H  40.42300 47.38000 33.36100
Mg 0.41800 43.39600 25.54000
C  1.75200 43.20600 28.87900
C  -2.58500 42.46200 26.87100
C  -0.69800 43.04500 22.50200
C  3.71800 43.51900 24.36300
N  -0.37000 43.03900 27.64500
C  0.34200 43.01400 28.80200
C  -0.53500 42.88700 30.04600
C  -1.91900 42.37300 29.42300
C  -1.59200 42.49500 27.87600
C  -2.33800 40.95200 29.79000
C  -0.61200 44.23900 30.83400
C  0.02800 44.29700 32.27200
H  -0.85500 44.34000 33.49500
N  -1.45500 42.96700 24.80900
C  -2.59300 42.62300 25.46100
C  -3.73200 42.72000 24.45800
C  -3.18900 42.94700 23.15400
C  -1.70400 42.99500 23.43000
C  -5.19500 42.62400 24.87100
C  -3.84100 42.90300 21.77400
O  -3.24700 43.05100 20.73000
C  -5.22400 42.45200 21.67000
N  1.34400 43.24100 23.74100
C  0.64300 43.20700 22.55600
C  1.60800 43.22700 21.36800
C  2.92200 43.61300 21.94800
C  2.67200 43.43000 23.46600
C  1.51200 41.91500 20.55100
C  3.29400 45.01900 21.60200
C  3.70300 45.39500 20.14000
N  2.41300 43.47200 26.41700
C  3.68500 43.48900 25.78400
C  4.73500 43.69500 26.82200
C  3.96300 43.60000 28.06800
C  2.58000 43.42200 27.74800
C  6.24500 43.75900 26.74400
C  4.16200 43.30500 29.44600
O  5.20400 43.20000 30.12300
C  2.70400 43.20100 30.06700
C  2.66300 41.92200 30.76500
O  2.42000 40.83300 30.26700
O  3.13600 42.24200 32.03600
C  3.21100 41.01800 32.97500
H  -3.59500 42.30600 27.25600
H  -1.04700 42.96900 21.47000
H  4.72400 43.68800 23.97300
H  -0.13200 42.06300 30.63500
H  -2.73200 42.97600 29.82800
H  -1.88000 40.64700 30.73000
H  -1.93600 40.25700 29.05300
H  -3.42700 40.89300 29.80800
H  -1.63800 44.60500 30.86500
H  -0.08400 44.95400 30.20500
H  0.56100 45.24800 32.27800
H  0.87100 43.62500 32.43300
H  -5.88600 43.19100 24.24700
H  -5.21500 43.02600 25.88400
H  -5.48600 41.57700 24.95700
H  -5.46300 42.20400 20.63500
H  -5.81900 43.27700 22.06100
H  -5.26100 41.50100 22.20100
H  1.23500 44.05400 20.76400
H  3.73700 42.98800 21.58200
H  1.42500 41.11700 21.28900
H  2.46100 41.68200 20.06700
H  0.84200 41.98100 19.69300
H  4.15500 45.25000 22.22900
H  2.52200 45.69700 21.96600
H  3.23800 44.66100 19.48200
H  4.77200 45.54700 19.99300
H  3.24400 46.35800 19.91500
H  6.65300 43.35000 25.82000
H  6.64400 43.18400 27.58000
H  6.53500 44.81000 26.75600
H  2.53000 43.97800 30.81100
H  3.39900 40.06200 32.48700
H  2.22400 40.94400 33.42900
H  3.90300 40.95800 33.81500

