158

Mg 47.34600 25.95000 28.95100
C  48.80000 28.00400 31.53500
C  46.33500 23.77700 31.35900
C  46.78200 23.60900 26.60900
C  48.87900 28.00300 26.59500
N  47.57800 25.89900 31.24200
C  48.10800 26.90500 32.04700
C  47.89300 26.54000 33.49300
C  47.00500 25.28200 33.36100
C  46.98300 24.90400 31.91800
C  47.32300 23.97200 34.16400
C  47.19300 27.71400 34.31100
C  46.28200 27.38600 35.52300
H  46.85900 27.59900 36.94500
N  46.49900 24.01900 28.94600
C  46.18900 23.28000 30.02900
C  45.55800 21.99200 29.63500
C  45.58500 22.05000 28.19900
C  46.33100 23.26600 27.83300
C  44.85400 21.02300 30.55900
C  44.94700 21.00600 27.12700
O  45.04400 21.08000 25.90700
C  44.29900 19.72000 27.65600
N  47.92600 25.78400 26.94600
C  47.47400 24.76400 26.18300
C  47.79300 25.05000 24.70200
C  47.81800 26.59700 24.68700
C  48.37300 26.79500 26.14900
C  49.08100 24.33600 24.19900
C  46.40600 27.17200 24.56000
C  46.22400 28.05800 23.26700
N  48.55900 27.69400 28.99200
C  49.08900 28.41100 27.95300
C  49.78500 29.56600 28.46900
C  49.65800 29.46000 29.86000
C  48.91900 28.30300 30.12700
C  50.49400 30.50400 27.63000
C  50.06400 30.08100 31.14800
O  50.78300 31.07200 31.34600
C  49.40200 29.15300 32.28900
C  50.44900 28.75000 33.18800
O  51.36500 28.03000 32.87600
O  50.17400 29.23000 34.43500
C  50.92600 28.51200 35.47500
H  45.78400 23.14700 32.06100
H  46.56700 22.86200 25.84200
H  49.00400 28.70800 25.77000
H  48.81500 26.19200 33.96000
H  45.95900 25.53400 33.53100
H  48.02100 24.21800 34.96500
H  47.94500 23.25600 33.62900
H  46.46600 23.41000 34.53700
H  46.73800 28.46200 33.66100
H  48.01400 28.25700 34.78000
H  45.87700 26.37800 35.62100
H  45.37200 27.96300 35.36000
H  43.79600 20.96100 30.30400
H  44.80400 21.39700 31.58100
H  45.12800 19.96900 30.49900
H  45.06300 19.00600 27.96200
H  43.65300 19.25800 26.90900
H  43.74100 20.05400 28.53000
H  47.01900 24.74700 23.99700
H  48.52700 27.02200 23.97600
H  49.44700 23.69000 24.99700
H  49.75000 25.06900 23.74900
H  48.90800 23.68000 23.34600
H  46.30400 27.79600 25.44800
H  45.68900 26.37000 24.73700
H  45.14100 28.14400 23.17800
H  46.59900 27.55200 22.37700
H  46.59600 29.07500 23.39000
H  49.95700 31.45200 27.60300
H  50.71000 30.09700 26.64200
H  51.46100 30.79800 28.03900
H  48.56300 29.58100 32.83900
H  51.27500 27.54100 35.12400
H  50.26500 28.36900 36.33000
H  51.67200 29.21800 35.84200
Mg 50.16900 45.16700 42.32600
C  46.83400 44.97600 41.13800
C  50.47100 41.70900 41.42200
C  53.55300 45.49100 42.39600
C  49.72200 48.54000 42.74100
N  48.81300 43.53800 41.48400
C  47.52500 43.73800 41.13400
C  46.87900 42.29900 40.73800
C  48.03200 41.29600 40.92500
C  49.20800 42.22700 41.31600
C  47.70600 40.20700 41.95300
C  46.34700 42.15300 39.26100
C  47.00100 42.99200 38.15500
H  47.02200 42.31200 36.67900
N  51.72000 43.77800 42.19400
C  51.68300 42.42000 41.76600
C  53.08000 41.90000 41.72900
C  53.93000 42.92200 42.28500
C  53.06600 44.13700 42.32400
C  53.46100 40.49500 41.31400
C  55.41700 42.85900 42.54200
O  55.93700 41.74100 42.48000
C  56.20900 43.90800 43.08700
N  51.43700 46.82300 42.49900
C  52.76000 46.71600 42.43300
C  53.44100 48.11200 42.62600
C  52.23200 49.05800 42.91100
C  51.06900 48.11000 42.72700
C  54.62300 48.16600 43.61800
C  52.18000 50.41900 41.99300
C  52.06800 51.79500 42.70100
N  48.50700 46.55200 42.15600
C  48.50400 47.91800 42.29100
C  47.23400 48.40700 41.97800
C  46.53400 47.29500 41.48000
C  47.38300 46.19400 41.58900
C  46.76600 49.90700 42.16600
C  45.26700 46.90300 40.93200
O  44.27100 47.55300 40.65700
C  45.39900 45.31700 40.79800
C  44.39100 44.86900 41.76900
O  43.27500 44.56800 41.43700
O  44.98200 44.72400 43.02100
C  43.98900 44.26000 44.00000
H  50.63600 40.65800 41.17400
H  54.61500 45.54500 42.15100
H  49.69800 49.63100 42.72000
H  46.04400 42.04000 41.38800
H  48.34500 40.71000 40.06100
H  48.21500 39.26400 41.75300
H  46.67400 39.90100 41.78400
H  48.08200 40.47700 42.94000
H  45.27500 42.33200 39.18200
H  46.36100 41.09000 39.01800
H  48.05100 43.19500 38.36400
H  46.49100 43.94500 38.01500
H  54.24800 40.47900 40.56000
H  52.56900 40.06800 40.85600
H  53.92800 39.92500 42.11600
H  56.48200 44.69000 42.38000
H  57.19800 43.55800 43.38000
H  55.66000 44.29500 43.94600
H  53.83700 48.26800 41.62200
H  52.13200 49.33300 43.96100
H  54.62400 47.34600 44.33700
H  54.53000 49.10900 44.15600
H  55.54300 48.10200 43.03700
H  51.36600 50.33200 41.27300
H  53.10900 50.37700 41.42400
H  53.01200 52.27400 42.43800
H  51.95200 51.71700 43.78200
H  51.16400 52.33300 42.41700
H  46.43600 49.96900 43.20300
H  45.98100 50.24900 41.49200
H  47.66700 50.51200 42.06400
H  45.18600 44.98900 39.78000
H  43.29100 45.08600 44.13700
H  44.41400 43.93600 44.94900
H  43.38500 43.40800 43.68900

