158

Mg 44.44700 4.52900 48.09500
C  42.41000 7.23800 47.38000
C  41.94500 2.33800 47.18900
C  46.70800 1.82400 47.82500
C  47.16600 6.74000 47.60500
N  42.42600 4.83400 47.30400
C  41.72200 5.97200 47.19800
C  40.32900 5.74800 46.75500
C  40.11700 4.18200 47.06500
C  41.62100 3.74400 47.13700
C  39.34100 3.88300 48.31800
C  40.10200 6.09200 45.24900
C  39.06400 7.12100 44.91200
H  39.50600 8.18900 43.94200
N  44.30700 2.32900 47.87200
C  43.13200 1.65600 47.46500
C  43.41300 0.33000 47.31600
C  44.81900 0.10500 47.36300
C  45.34600 1.42600 47.78700
C  42.29100 -0.58300 46.74600
C  45.54300 -1.16600 47.03200
O  44.91800 -2.24600 46.79500
C  46.96400 -1.25300 46.87400
N  46.66700 4.30300 47.75700
C  47.33600 3.08800 47.78400
C  48.83300 3.31500 47.58600
C  49.06500 4.89200 47.61700
C  47.56500 5.39600 47.60700
C  49.72300 2.55100 48.60400
C  49.96800 5.39300 46.49300
C  51.41400 5.69200 46.85100
N  44.80600 6.57200 47.75800
C  45.95700 7.29400 47.73700
C  45.61400 8.72900 47.62800
C  44.23800 8.81600 47.54300
C  43.76800 7.44900 47.62500
C  46.67700 9.85400 47.57300
C  43.03900 9.62300 47.36600
O  42.84600 10.80400 47.19700
C  41.82900 8.61300 47.37200
C  40.81100 8.86500 48.43400
O  40.90700 8.40800 49.56400
O  39.74600 9.71600 47.97000
C  38.58500 9.86300 48.92800
H  41.07200 1.70300 47.02500
H  47.47800 1.05200 47.77000
H  47.96300 7.46000 47.41100
H  39.57100 6.28100 47.32800
H  39.66000 3.71300 46.19400
H  40.05200 3.43300 49.01100
H  38.49900 3.24300 48.05500
H  39.08800 4.75500 48.92300
H  39.96800 5.20800 44.62500
H  40.98800 6.63100 44.91500
H  38.58500 7.53900 45.79700
H  38.27200 6.65900 44.32100
H  42.40700 -0.34000 45.69000
H  41.41600 -0.16700 47.24500
H  42.43100 -1.61800 47.05900
H  47.26400 -2.23200 46.50000
H  47.44200 -1.17800 47.85100
H  47.35200 -0.48600 46.20400
H  49.06200 2.96600 46.58000
H  49.50700 5.20300 48.56400
H  49.26500 1.65100 49.01500
H  50.14600 3.19600 49.37400
H  50.47700 2.09600 47.96200
H  49.56100 6.31800 46.08400
H  50.06700 4.59300 45.75900
H  52.00200 5.21600 46.06600
H  51.67600 5.39900 47.86800
H  51.56300 6.77200 46.88400
H  46.86200 10.04900 46.51700
H  47.58900 9.69000 48.14700
H  46.29500 10.69200 48.15600
H  41.20000 8.83100 46.50900
H  38.01300 8.93600 48.89300
H  38.01100 10.71400 48.56100
H  38.91700 10.02000 49.95500
Mg 27.02000 49.95000 26.04200
C  25.49700 51.45900 28.67200
C  29.81000 49.35700 27.96500
C  28.80000 49.13800 23.17800
C  24.51100 51.28100 23.91500
N  27.55300 50.48100 28.04300
C  26.70200 50.94500 28.99000
C  27.08100 50.55100 30.38400
C  28.56600 50.12300 30.15100
C  28.65000 49.95700 28.67100
C  29.75900 50.93000 30.76900
C  26.17100 49.44100 31.11700
C  25.64000 49.64400 32.55800
H  26.48000 50.37400 33.62000
N  28.99900 49.22900 25.66800
C  29.97500 49.03400 26.59900
C  31.13100 48.51300 26.00200
C  30.94600 48.49000 24.59200
C  29.48200 48.96500 24.42200
C  32.25500 48.05400 26.81700
C  31.94200 48.17500 23.56100
O  31.63300 48.15800 22.36700
C  33.34700 47.82200 23.92000
N  26.76500 50.24800 23.82400
C  27.53400 49.61600 22.92900
C  26.91000 49.48200 21.49200
C  25.50600 50.15400 21.77500
C  25.52000 50.53900 23.26400
C  27.64200 50.23900 20.31300
C  24.27900 49.23200 21.63600
C  23.01000 49.98200 21.11400
N  25.33600 51.11400 26.24700
C  24.39500 51.61000 25.29500
C  23.33900 52.33300 25.97600
C  23.64100 52.25900 27.33100
C  24.88500 51.49600 27.43500
C  22.01800 52.76800 25.47100
C  23.22400 52.56000 28.68500
O  22.16200 53.04200 29.10400
C  24.49300 52.12800 29.61500
C  25.00300 53.22700 30.46800
O  25.87400 53.95800 30.12300
O  24.27400 53.34000 31.59300
C  24.72500 54.13700 32.69600
H  30.60300 49.14700 28.68600
H  29.35900 48.71200 22.34200
H  23.79400 51.58600 23.14900
H  27.09500 51.47800 30.95800
H  28.72500 49.11300 30.53000
H  30.27600 51.57000 30.05400
H  30.47700 50.20600 31.15500
H  29.36500 51.58800 31.54300
H  26.70600 48.49200 31.10200
H  25.32900 49.21400 30.46200
H  25.45300 48.63900 32.93800
H  24.62800 50.04200 32.48500
H  32.02500 47.99900 27.88100
H  33.04600 48.78600 26.65700
H  32.60300 47.09100 26.44300
H  33.36800 46.95900 24.58500
H  33.72300 48.75500 24.34100
H  33.83800 47.51800 22.99600
H  26.82700 48.46500 21.10800
H  25.33100 51.14800 21.36300
H  28.63400 49.82700 20.12600
H  27.71500 51.30600 20.52700
H  27.10700 50.14000 19.36900
H  24.01900 48.79000 22.59800
H  24.54800 48.40700 20.97700
H  23.26700 50.99700 20.80900
H  22.34200 50.14000 21.96100
H  22.53200 49.38600 20.33700
H  21.81300 52.35700 24.48300
H  21.85700 53.84200 25.57100
H  21.21200 52.34900 26.07300
H  24.19600 51.40200 30.37200
H  24.01600 54.02000 33.51500
H  24.67200 55.19600 32.44200
H  25.71500 53.78700 32.99000

