158

Mg 41.36400 41.60100 26.48700
C  40.76300 43.74200 29.18300
C  42.90200 39.39600 28.75400
C  42.04500 39.48900 23.98900
C  40.67600 44.05200 24.24400
N  41.70700 41.54500 28.72000
C  41.31600 42.48400 29.55500
C  41.48800 42.03600 31.03600
C  42.57300 40.76700 30.89700
C  42.43500 40.53900 29.39000
C  43.99000 41.03500 31.40800
C  40.18500 41.88200 31.90100
C  40.07200 42.72000 33.18900
H  39.83800 41.90700 34.48300
N  42.31500 39.70400 26.41500
C  42.86000 38.98800 27.41000
C  43.37200 37.75200 26.94600
C  43.17800 37.71200 25.54800
C  42.47700 39.02400 25.25400
C  44.08500 36.62800 27.79400
C  43.57200 36.62500 24.52100
O  43.45500 36.80700 23.34200
C  44.13000 35.34000 25.03400
N  41.41400 41.76100 24.39400
C  41.71200 40.70000 23.51900
C  41.31700 41.05100 22.04800
C  41.00600 42.63200 22.18200
C  40.97800 42.83600 23.64700
C  42.33900 40.66700 21.03200
C  39.66900 43.06100 21.49900
C  39.85300 44.29000 20.60200
N  40.80000 43.50400 26.62000
C  40.60700 44.39100 25.58500
C  40.22000 45.61600 26.15100
C  40.23800 45.44500 27.56600
C  40.60600 44.12900 27.81600
C  39.95300 46.82200 25.37000
C  39.96700 46.04800 28.90500
O  39.53200 47.19100 29.19800
C  40.29400 44.99900 29.90300
C  41.41300 45.51800 30.78000
O  42.55500 45.14900 30.74100
O  40.92100 46.41200 31.72900
C  41.81900 46.80600 32.78900
H  43.29900 38.72600 29.52000
H  42.22500 38.80900 23.15300
H  40.32200 44.80000 23.53200
H  42.10400 42.82600 31.46700
H  42.16000 39.90600 31.42100
H  44.18800 42.09700 31.26100
H  44.66800 40.32200 30.93800
H  44.00500 40.88600 32.48800
H  40.09400 40.83100 32.17700
H  39.36800 42.11400 31.21800
H  39.26100 43.43700 33.05700
H  41.00300 43.26600 33.34100
H  45.08200 36.56800 27.35600
H  43.48400 35.71900 27.79500
H  44.08700 36.97900 28.82600
H  43.43700 34.80100 25.68000
H  45.06900 35.51400 25.56000
H  44.47700 34.69000 24.23100
H  40.38100 40.58600 21.73900
H  41.85000 43.21600 21.81400
H  42.81200 41.53600 20.57600
H  41.79600 40.15300 20.23800
H  43.05000 40.14200 21.67000
H  38.93300 43.26700 22.27600
H  39.19900 42.26900 20.91600
H  40.15500 45.12800 21.23000
H  38.94800 44.61500 20.08800
H  40.54800 44.12500 19.77800
H  40.81500 46.82400 24.70300
H  39.99800 47.76700 25.91100
H  39.03600 46.67200 24.80000
H  39.45400 44.73700 30.54700
H  42.24500 47.80000 32.65100
H  42.60400 46.10200 33.06500
H  41.11600 46.99900 33.60000
Mg -3.00000 34.22700 26.42800
C  -4.76900 32.73800 29.11900
C  -2.18500 36.79700 28.67500
C  -1.20300 35.45700 24.10300
C  -4.23200 31.75900 24.30100
N  -3.55200 34.71500 28.64700
C  -4.15600 33.92000 29.53000
C  -4.13600 34.54900 30.92800
C  -3.43200 35.92900 30.69300
C  -3.07800 35.88300 29.21700
C  -4.16400 37.24900 31.17500
C  -3.35600 33.65800 32.04700
C  -3.18300 34.34800 33.35300
H  -3.49300 33.67900 34.69600
N  -1.79000 35.86700 26.43700
C  -1.61800 36.78400 27.36300
C  -0.71400 37.71000 26.89000
C  -0.30800 37.33500 25.61400
C  -1.15500 36.16600 25.33600
C  -0.26800 38.84300 27.71100
C  0.77600 38.04000 24.73700
O  1.03500 37.63700 23.65300
C  1.51700 39.24400 25.26700
N  -2.63600 33.66400 24.56300
C  -1.82000 34.25900 23.74400
C  -1.65200 33.60300 22.33600
C  -2.71600 32.53100 22.34700
C  -3.21400 32.61800 23.88800
C  -1.65400 34.63200 21.14800
C  -2.24000 31.18600 21.82400
C  -3.13600 30.56800 20.73200
N  -4.23200 32.64300 26.64500
C  -4.71600 31.71300 25.63700
C  -5.63600 30.76800 26.26000
C  -5.63800 31.15000 27.61300
C  -4.78500 32.29900 27.75800
C  -6.48200 29.68800 25.61100
C  -6.20200 30.74100 28.93300
O  -6.99300 29.88000 29.26100
C  -5.58400 31.75500 29.94400
C  -6.70400 32.36200 30.66400
O  -7.57600 32.99400 30.14100
O  -6.47900 32.34100 32.01800
C  -7.36800 33.05100 32.96100
H  -1.73800 37.38700 29.47800
H  -0.48000 35.86700 23.39500
H  -4.73300 31.08000 23.60900
H  -5.15800 34.80500 31.20700
H  -2.47500 35.95800 31.21300
H  -5.17100 37.01000 31.51600
H  -4.31000 37.93900 30.34400
H  -3.55800 37.77300 31.91400
H  -2.39400 33.34400 31.64200
H  -3.86600 32.71000 32.21900
H  -3.68100 35.31700 33.38900
H  -2.12100 34.57900 33.44300
H  -0.48600 39.73200 27.11800
H  0.77600 38.77900 28.01800
H  -0.75600 39.03100 28.66700
H  2.27100 39.49900 24.52300
H  1.94800 39.00800 26.24000
H  0.85300 40.10900 25.25200
H  -0.66600 33.15900 22.47400
H  -3.53900 32.80400 21.68700
H  -2.19000 35.49100 21.55000
H  -2.22100 34.24300 20.30100
H  -0.63400 34.95200 20.93200
H  -2.26600 30.45300 22.63000
H  -1.19300 31.20500 21.52400
H  -3.20300 29.48700 20.85500
H  -2.83600 30.76500 19.70300
H  -4.12300 31.01200 20.86200
H  -5.98400 29.25100 24.74600
H  -7.41000 30.13500 25.25700
H  -6.71900 28.90700 26.33400
H  -4.90300 31.16500 30.55500
H  -6.99600 34.06400 33.11200
H  -7.38200 32.46000 33.87700
H  -8.41900 33.06700 32.67300

