158

Mg 53.33800 23.37800 43.74600
C  50.42800 25.38900 43.54000
C  51.40300 20.76600 42.70900
C  56.17100 21.67600 43.48600
C  55.28100 26.43900 44.05300
N  51.13400 23.08700 43.13700
C  50.13200 24.03900 43.21100
C  48.73200 23.35300 43.14800
C  49.08100 21.83800 43.24000
C  50.63200 21.87200 43.01000
C  48.61800 21.17000 44.50700
C  47.77700 23.90000 42.04000
C  48.32000 24.19600 40.58400
H  47.78100 23.41000 39.39000
N  53.73900 21.48200 43.14800
C  52.80800 20.50500 42.80700
C  53.52600 19.26100 42.72700
C  54.90800 19.50800 42.91000
C  55.00500 20.90600 43.22600
C  52.87500 17.94800 42.26100
C  56.02700 18.48100 42.80200
O  55.82500 17.37100 42.50200
C  57.48300 18.82000 42.99200
N  55.36200 23.99300 43.72000
C  56.39100 23.05800 43.70900
C  57.75300 23.63400 43.92700
C  57.43500 25.21200 43.88200
C  55.89600 25.24900 43.88700
C  58.53300 23.16700 45.17600
C  58.16200 25.94000 42.68700
C  57.62200 25.57300 41.26000
N  53.01000 25.53100 43.94400
C  53.83900 26.60000 44.05700
C  52.98500 27.78500 44.37700
C  51.65100 27.35400 44.14800
C  51.70900 25.93600 43.86700
C  53.46300 29.17200 44.85400
C  50.26700 27.74100 44.13500
O  49.66300 28.73000 44.47500
C  49.48500 26.51000 43.51400
C  49.09700 26.96500 42.18300
O  49.90100 27.23000 41.20400
O  47.82600 27.34900 42.24000
C  47.15200 27.71400 40.98700
H  50.64700 20.01800 42.46100
H  57.15300 21.20300 43.42300
H  55.89400 27.33200 44.18900
H  48.17900 23.63000 44.04600
H  48.64700 21.32100 42.38400
H  49.46200 20.93100 45.15300
H  47.94700 20.35600 44.23200
H  48.05000 21.85900 45.13200
H  47.25600 24.79900 42.36900
H  46.95300 23.20700 41.86900
H  49.40500 24.12600 40.50400
H  47.97900 25.21200 40.38100
H  53.14900 17.86100 41.21000
H  51.78600 17.92900 42.27000
H  53.32000 17.15200 42.85900
H  57.75300 19.52400 42.20500
H  58.17100 17.97900 42.90000
H  57.61600 19.27200 43.97500
H  58.33500 23.26800 43.08100
H  57.75900 25.67200 44.81500
H  59.47100 22.77600 44.78100
H  57.90600 22.48400 45.74900
H  58.92700 23.99200 45.77000
H  59.21900 25.68800 42.77000
H  57.88800 26.99300 42.74100
H  58.48300 25.24600 40.67600
H  57.19400 26.47000 40.81300
H  56.91000 24.74900 41.21200
H  54.52900 29.07900 45.06500
H  52.86300 29.33900 45.74800
H  53.24500 29.83600 44.01800
H  48.63800 26.40600 44.19200
H  47.71100 27.48500 40.08000
H  46.94900 28.78400 41.03500
H  46.24500 27.10900 41.00000
Mg 40.47800 41.69400 27.07800
C  39.67700 44.09100 29.61600
C  41.31500 39.48700 29.60100
C  41.40700 39.64300 24.64400
C  40.10600 44.43900 24.85400
N  40.47500 41.79200 29.37600
C  40.06300 42.86200 30.16200
C  40.03100 42.42900 31.66400
C  40.61300 40.94500 31.63200
C  40.82900 40.68400 30.13200
C  41.85800 40.64400 32.53000
C  38.60400 42.61500 32.32800
C  38.33100 41.74100 33.55200
H  37.61100 42.46400 34.59000
N  41.27000 39.79500 27.10300
C  41.51000 39.03300 28.24000
C  42.04300 37.72400 27.77900
C  42.09400 37.75300 26.34500
C  41.59600 39.08300 25.95200
C  42.36000 36.57000 28.82000
C  42.54700 36.71600 25.34600
O  42.81000 36.95400 24.16200
C  42.88200 35.33300 25.89000
N  40.77000 42.01200 25.02800
C  41.14300 40.99000 24.22300
C  41.29100 41.44600 22.79000
C  40.80200 42.88900 22.85200
C  40.47800 43.17100 24.33900
C  42.76100 41.31700 22.21100
C  39.71800 43.14100 21.79300
C  38.31500 43.36900 22.36900
N  40.04800 43.80300 27.16200
C  39.96200 44.74000 26.16700
C  39.50100 46.02100 26.69100
C  39.36900 45.82100 28.06200
C  39.80000 44.46200 28.26500
C  39.14800 47.34200 26.06200
C  38.95900 46.39600 29.33200
O  38.60800 47.50000 29.52800
C  39.17100 45.32500 30.40700
C  40.09400 45.87100 31.46900
O  41.31200 45.89400 31.35700
O  39.37900 46.33800 32.53700
C  40.18300 46.85500 33.62900
H  41.41000 38.81300 30.45500
H  41.53300 38.94200 23.81600
H  39.82600 45.14400 24.06900
H  40.67600 43.09800 32.23500
H  39.85200 40.22200 31.92800
H  41.73000 39.68800 33.03900
H  42.00200 41.42600 33.27500
H  42.71500 40.49200 31.87300
H  37.76800 42.36300 31.67600
H  38.64400 43.66100 32.63200
H  39.22600 41.35000 34.03700
H  37.71300 40.86600 33.34700
H  41.63000 35.76100 28.79700
H  42.23600 36.80400 29.87700
H  43.37000 36.20300 28.63700
H  41.96000 35.09400 26.42000
H  43.79900 35.34200 26.48000
H  43.03200 34.66000 25.04500
H  40.69400 40.89800 22.06000
H  41.60200 43.59300 22.62500
H  43.21600 40.52700 22.80900
H  43.36300 42.21300 22.35900
H  42.77100 40.97900 21.17400
H  39.78700 42.36700 21.02900
H  40.07100 44.04900 21.30300
H  37.86200 44.32700 22.11300
H  38.16800 43.15200 23.42700
H  37.76500 42.62600 21.79000
H  38.94900 48.08100 26.83800
H  38.27900 47.23100 25.41300
H  39.91400 47.82200 25.45400
H  38.21700 45.12000 30.89300
H  40.90200 47.59700 33.28000
H  40.79200 46.13100 34.16900
H  39.56100 47.41000 34.33100

