158

Mg -1.76000 17.50400 27.61000
C  -2.37700 15.23600 30.13700
C  -2.22600 20.15400 29.62700
C  -1.36300 19.50800 24.77800
C  -1.82100 14.69800 25.33600
N  -2.31100 17.64100 29.64000
C  -2.32800 16.58000 30.51800
C  -2.53300 17.14900 31.95600
C  -2.64500 18.74900 31.71500
C  -2.32000 18.88800 30.23000
C  -4.01400 19.46500 32.15400
C  -1.47000 16.80700 33.05400
C  -1.65000 17.46600 34.46700
H  -1.26000 16.69500 35.68500
N  -1.69500 19.54700 27.25000
C  -1.90200 20.52000 28.25200
C  -1.79200 21.76600 27.66300
C  -1.55300 21.66100 26.30200
C  -1.60100 20.22300 26.01800
C  -1.98700 23.08200 28.48900
C  -1.50100 22.74100 25.28300
O  -1.44600 22.48600 24.06400
C  -1.44300 24.16900 25.68400
N  -1.78100 17.12600 25.37000
C  -1.53800 18.16400 24.49900
C  -1.20800 17.61500 23.15500
C  -0.99500 16.10100 23.38300
C  -1.59200 15.90700 24.79900
C  -2.43200 17.87500 22.17300
C  0.48300 15.65600 23.22000
C  1.53200 15.82600 24.31000
N  -2.02400 15.40800 27.71700
C  -1.97800 14.41800 26.70600
C  -2.24800 13.09900 27.31000
C  -2.55600 13.39700 28.63100
C  -2.34200 14.76900 28.85000
C  -2.29700 11.80900 26.64700
C  -2.97600 12.82300 29.88000
O  -3.19300 11.68900 30.18700
C  -2.77700 14.03300 30.92700
C  -1.77200 13.53800 31.87500
O  -0.63200 13.45500 31.65800
O  -2.47500 13.31500 33.05200
C  -1.62600 12.94400 34.18600
H  -2.33300 20.90300 30.41500
H  -1.10400 20.14000 23.92600
H  -1.70700 13.80200 24.72200
H  -3.47700 16.85300 32.41500
H  -1.82300 19.18500 32.28200
H  -4.51000 18.91500 32.95400
H  -4.60800 19.47600 31.24000
H  -3.72900 20.46200 32.49300
H  -0.48100 17.17800 32.78500
H  -1.46300 15.71700 33.05300
H  -2.65800 17.87800 34.50800
H  -0.94000 18.29300 34.47000
H  -2.83200 23.67000 28.12900
H  -1.10400 23.72200 28.46600
H  -2.19500 22.97800 29.55300
H  -1.47800 24.76500 24.77100
H  -0.56500 24.32500 26.31000
H  -2.31200 24.39000 26.30400
H  -0.37000 18.16600 22.72800
H  -1.65700 15.51500 22.74400
H  -3.05100 16.97800 22.12900
H  -2.10400 18.18400 21.18100
H  -2.96000 18.74700 22.55900
H  0.85900 16.13000 22.31400
H  0.45400 14.59600 22.96900
H  0.97100 15.88400 25.24300
H  1.81600 16.86500 24.14000
H  2.43000 15.22000 24.42700
H  -2.92800 11.16900 27.26400
H  -1.26900 11.44700 26.65600
H  -2.70500 11.66700 25.64700
H  -3.76600 14.23100 31.34000
H  -2.28000 12.71100 35.02600
H  -0.93300 13.74500 34.44300
H  -0.99000 12.12800 33.84300
Mg 0.22100 43.34700 24.89800
C  2.13900 43.28000 28.00500
C  -2.60700 42.74900 26.92100
C  -1.46600 42.80200 22.14400
C  3.20000 43.61200 23.23700
N  -0.08600 43.03000 27.28100
C  0.77600 43.15400 28.34400
C  0.07400 43.10400 29.70200
C  -1.47800 42.82500 29.22500
C  -1.44500 42.87100 27.75400
C  -1.99500 41.37100 29.56000
C  0.13200 44.33800 30.53300
C  0.57200 44.14700 32.02900
H  0.45500 42.77200 32.78800
N  -1.76900 42.98900 24.50100
C  -2.76500 42.76000 25.47000
C  -4.00500 42.44500 24.80500
C  -3.80100 42.65100 23.37500
C  -2.30000 42.81400 23.25600
C  -5.23300 42.04000 25.56100
C  -4.74900 42.72300 22.26000
O  -4.40200 42.88700 21.08800
C  -6.29200 42.65000 22.52100
N  0.81300 43.05200 22.99700
C  -0.08300 42.97600 21.99900
C  0.56800 43.14100 20.64900
C  1.93700 43.78700 21.08200
C  2.03600 43.35000 22.51200
C  0.71800 41.64000 20.02900
C  1.82900 45.34200 20.88500
C  3.13500 46.14000 20.76100
N  2.33900 43.43600 25.46000
C  3.43000 43.62900 24.63600
C  4.65300 43.75300 25.41400
C  4.18100 43.60700 26.73500
C  2.77100 43.41500 26.73400
C  6.06100 44.01900 24.90400
C  4.58900 43.53600 28.12800
O  5.76200 43.60300 28.54600
C  3.25100 43.42700 29.05200
C  3.41200 42.30700 29.89700
O  3.23800 41.14900 29.58700
O  4.02100 42.79800 31.03700
C  4.41700 41.75900 32.01700
H  -3.53700 42.74700 27.49300
H  -1.86300 42.68900 21.13300
H  4.09300 43.91400 22.68600
H  0.49700 42.25000 30.23100
H  -2.20300 43.57700 29.53500
H  -1.34900 40.90400 30.30400
H  -1.94400 40.78000 28.64500
H  -3.02400 41.49700 29.89400
H  -0.81500 44.87500 30.58600
H  0.75300 45.09400 30.05300
H  -0.19900 44.74700 32.51400
H  1.52200 44.67500 32.11600
H  -5.69600 41.33600 24.87000
H  -6.04200 42.76900 25.58100
H  -5.09500 41.64500 26.56800
H  -6.76600 42.91500 21.57600
H  -6.52200 43.54800 23.09300
H  -6.67300 41.77000 23.03800
H  -0.01000 43.80100 20.00400
H  2.76300 43.39200 20.49000
H  0.62700 41.80800 18.95600
H  -0.07200 40.93500 20.28900
H  1.64600 41.11300 20.24900
H  1.16500 45.82100 21.60500
H  1.43400 45.52800 19.88600
H  3.18400 46.54800 19.75100
H  3.94100 45.43100 20.95300
H  3.25200 46.95500 21.47500
H  6.27700 45.05700 25.15900
H  6.03600 43.86700 23.82500
H  6.69900 43.27500 25.38000
H  3.14000 44.37000 29.58700
H  3.95000 40.79900 31.79600
H  4.00700 42.09200 32.97100
H  5.48900 41.60200 32.13700

