158

Mg 2.34600 -0.44300 43.23600
C  5.71100 0.30000 42.82300
C  1.53200 2.49400 41.67600
C  -0.86700 -1.45500 43.24200
C  3.32200 -3.65000 44.37200
N  3.61000 1.16300 42.31600
C  4.95300 1.23800 42.16500
C  5.40100 2.60800 41.64500
C  4.02200 3.33600 41.42300
C  2.90400 2.30700 41.90200
C  3.86800 4.77100 42.06800
C  6.26000 2.46300 40.40000
C  5.84400 1.36300 39.32000
H  5.59000 1.91900 37.93200
N  0.55200 0.39500 42.51000
C  0.46400 1.64300 41.98500
C  -1.00000 1.90600 41.69400
C  -1.72400 0.80400 42.11700
C  -0.70200 -0.15500 42.67600
C  -1.43100 3.23700 41.07700
C  -3.28700 0.75200 42.02400
O  -3.96900 1.70400 41.52900
C  -4.09100 -0.42100 42.47300
N  1.42300 -2.32700 43.59400
C  0.05100 -2.38500 43.69200
C  -0.41900 -3.82100 44.23800
C  0.89500 -4.62200 44.34000
C  1.94500 -3.44200 44.10600
C  -1.44400 -3.82100 45.43000
C  1.17600 -5.88800 43.42400
C  1.50500 -7.22300 44.15700
N  4.15100 -1.47600 43.70200
C  4.38600 -2.72400 44.15600
C  5.75000 -2.97000 44.33900
C  6.37800 -1.76000 43.86600
C  5.32600 -0.91100 43.48600
C  6.46700 -4.21500 44.77300
C  7.66500 -1.00600 43.65400
O  8.85000 -1.33300 43.80600
C  7.21000 0.32500 42.97600
C  7.80500 1.47100 43.76400
O  8.88600 2.01700 43.55500
O  6.94300 1.73700 44.79700
C  7.39600 2.87000 45.60000
H  1.36600 3.49400 41.27000
H  -1.89900 -1.71900 43.48000
H  3.66100 -4.64100 44.68100
H  5.80800 3.08000 42.53900
H  3.85000 3.49500 40.35800
H  2.91000 4.87400 42.57700
H  3.93500 5.49000 41.25200
H  4.73500 4.92000 42.71300
H  7.29500 2.22500 40.64400
H  6.26000 3.50000 40.06400
H  4.97000 0.80500 39.65400
H  6.68000 0.66300 39.33100
H  -1.34700 3.21800 39.99000
H  -0.72000 3.99300 41.41100
H  -2.47500 3.49500 41.25900
H  -4.01300 -0.53700 43.55400
H  -3.75700 -1.33300 41.97900
H  -5.07700 -0.34900 42.01400
H  -1.01000 -4.21300 43.41000
H  0.98300 -4.86700 45.39800
H  -2.42300 -4.10600 45.04700
H  -1.41300 -2.80800 45.83300
H  -1.09900 -4.60700 46.10100
H  2.02500 -5.55100 42.83100
H  0.32800 -6.11800 42.77800
H  0.70300 -7.95700 44.07000
H  1.69800 -6.97100 45.20000
H  2.50900 -7.49200 43.82900
H  6.53900 -4.94500 43.96700
H  6.00100 -4.71900 45.62000
H  7.47300 -3.90000 45.04700
H  7.67300 0.44400 41.99600
H  7.20600 3.77800 45.02800
H  8.43700 2.66800 45.85300
H  6.84500 2.97900 46.53500
Mg 41.40700 8.15400 29.17900
C  43.32600 9.66500 31.67800
C  39.38700 6.80700 31.64300
C  39.58300 6.61800 26.73800
C  43.94200 8.99600 26.81900
N  41.40600 8.07500 31.36900
C  42.12300 8.95600 32.14600
C  41.63700 9.01300 33.57600
C  40.62900 7.89600 33.57700
C  40.41900 7.58800 32.08000
C  40.88300 6.67600 34.38200
C  41.13000 10.37200 34.06000
C  40.38800 10.31800 35.46900
H  41.00300 10.99000 36.66200
N  39.68100 7.06400 29.16900
C  38.99200 6.55400 30.28100
C  37.69000 6.02300 29.84500
C  37.67400 6.09300 28.45100
C  39.01700 6.65300 28.00900
C  36.70700 5.43400 30.80000
C  36.51600 5.77700 27.44600
O  36.62200 5.71300 26.22800
C  35.14500 5.60000 28.04900
N  41.83600 7.56400 27.14100
C  40.86100 7.05700 26.31700
C  41.43500 6.84500 24.89500
C  42.54700 7.94900 24.89400
C  42.84000 8.22100 26.40100
C  41.92900 5.40100 24.64200
C  42.11100 9.24600 24.11000
C  41.28400 10.35800 24.84400
N  43.24700 9.16300 29.16800
C  44.17400 9.46500 28.13400
C  45.13900 10.29500 28.66700
C  44.84100 10.42500 30.02800
C  43.69400 9.72300 30.31200
C  46.31000 10.87000 27.86900
C  45.31300 11.02200 31.25700
O  46.18600 11.82300 31.51000
C  44.31900 10.47200 32.38900
C  45.00200 9.76200 33.47300
O  45.40300 8.60300 33.46800
O  45.12100 10.62700 34.46300
C  45.41500 9.93800 35.73300
H  38.72700 6.54200 32.47200
H  39.00000 6.07200 25.99300
H  44.54100 9.32800 25.96900
H  42.45500 8.79700 34.26400
H  39.67800 8.27900 33.94800
H  40.59300 5.75400 33.87700
H  40.23300 6.70000 35.25600
H  41.86200 6.55100 34.84500
H  40.52100 10.84500 33.29000
H  41.97800 11.01000 34.30900
H  39.94700 9.35700 35.73500
H  39.55700 11.00900 35.32800
H  35.96600 6.09100 31.25700
H  37.37300 5.04600 31.57100
H  36.22400 4.53800 30.41100
H  35.13100 4.59600 28.47400
H  34.43900 5.49500 27.22500
H  34.73400 6.37400 28.69700
H  40.73000 7.21900 24.15300
H  43.47800 7.57200 24.47200
H  41.98300 5.30400 23.55800
H  41.23300 4.62600 24.96500
H  42.92200 5.21100 25.04900
H  41.64000 9.00200 23.15800
H  43.05600 9.74000 23.88500
H  40.46200 10.66600 24.19800
H  41.93900 11.21100 25.02200
H  40.97700 9.89800 25.78300
H  46.41400 11.94800 27.99700
H  46.15900 10.65300 26.81200
H  47.19300 10.32600 28.20500
H  43.71500 11.26600 32.82900
H  46.12300 9.11100 35.69200
H  44.46400 9.64100 36.17600
H  45.75300 10.65300 36.48200

