158

Mg -1.71600 17.08000 25.99900
C  -2.50500 14.89900 28.70300
C  -2.67700 19.63300 28.08100
C  -1.40200 18.97400 23.31200
C  -1.46700 14.20700 23.99100
N  -2.51400 17.20300 28.15800
C  -2.69400 16.17700 29.02300
C  -3.09100 16.67300 30.38700
C  -3.41000 18.23900 30.18100
C  -2.89600 18.36700 28.66900
C  -4.87200 18.74700 30.38400
C  -2.08700 16.36800 31.60300
C  -2.08300 17.29300 32.81300
H  -2.42200 16.61900 34.10600
N  -1.85600 19.12000 25.79000
C  -2.21500 20.07800 26.73600
C  -2.04700 21.31700 26.16000
C  -1.62600 21.18500 24.81600
C  -1.58300 19.69600 24.54200
C  -2.47300 22.50000 26.95100
C  -1.36100 22.19800 23.82800
O  -1.14500 21.95800 22.61200
C  -1.41500 23.65900 24.20100
N  -1.52200 16.69700 23.93700
C  -1.40600 17.63400 22.96800
C  -1.04700 17.10900 21.57200
C  -0.88300 15.61800 21.99700
C  -1.27300 15.49100 23.45500
C  -2.11900 17.47800 20.41600
C  0.50900 14.96800 21.80800
C  1.73200 15.79800 22.31000
N  -1.88400 14.96300 26.29100
C  -1.80200 13.88900 25.33700
C  -2.00300 12.62000 26.04700
C  -2.23100 12.99800 27.38100
C  -2.13400 14.38100 27.44000
C  -2.00100 11.30800 25.38900
C  -2.56500 12.36900 28.60400
O  -2.59700 11.20200 28.88600
C  -2.65100 13.63000 29.53600
C  -1.70900 13.32400 30.70400
O  -0.54800 13.61200 30.85100
O  -2.42500 12.78300 31.73900
C  -1.74700 12.43200 33.00000
H  -2.82000 20.35500 28.88800
H  -1.29500 19.57700 22.40800
H  -1.38400 13.32600 23.35000
H  -3.99700 16.13700 30.67400
H  -2.85000 19.02900 30.68100
H  -5.36400 18.87000 29.41900
H  -4.84200 19.74100 30.83000
H  -5.43300 18.16400 31.11400
H  -1.09100 16.29300 31.16600
H  -2.32100 15.35900 31.94000
H  -2.77200 18.13200 32.71100
H  -1.10600 17.73300 33.01600
H  -1.68200 23.21600 27.17400
H  -2.82900 22.23200 27.94600
H  -3.27600 23.03800 26.44700
H  -0.63500 23.83100 24.94300
H  -2.35700 23.96100 24.66000
H  -1.35300 24.20800 23.26200
H  -0.09800 17.60200 21.36000
H  -1.62500 15.14800 21.35200
H  -1.70300 18.30700 19.84500
H  -3.04500 17.76600 20.91500
H  -2.10000 16.63600 19.72400
H  0.68900 14.91400 20.73400
H  0.44900 13.94300 22.17500
H  2.37900 15.16700 22.91900
H  1.50400 16.64400 22.95800
H  2.27500 16.10600 21.41600
H  -1.87700 10.55900 26.17100
H  -1.22400 11.16400 24.63800
H  -2.92400 11.23500 24.81400
H  -3.62000 13.62000 30.03500
H  -0.93600 11.78700 32.66200
H  -2.47100 11.97100 33.67200
H  -1.33200 13.39600 33.29400
Mg -9.86100 40.96000 42.02900
C  -9.21500 37.70700 40.80800
C  -7.09100 42.00400 40.21100
C  -10.89900 44.20200 42.32600
C  -13.10100 39.85900 42.71200
N  -8.34600 39.88800 40.66100
C  -8.20100 38.60600 40.47700
C  -6.87600 38.35500 39.69400
C  -6.15500 39.75300 39.74100
C  -7.23400 40.61500 40.25900
C  -4.86200 39.69800 40.54600
C  -6.99900 37.74000 38.26700
C  -6.42700 36.31300 38.09100
H  -5.30900 36.16200 37.06300
N  -9.09500 42.89800 41.43700
C  -7.91400 43.04400 40.75400
C  -7.69900 44.51600 40.53200
C  -8.79000 45.16600 41.11100
C  -9.62400 44.10400 41.69200
C  -6.43800 45.06100 39.93600
C  -9.07200 46.63100 41.17700
O  -8.44600 47.41000 40.47400
C  -10.18100 47.32600 41.91500
N  -11.69400 41.92500 42.38900
C  -11.88000 43.22900 42.59400
C  -13.34300 43.62600 42.93100
C  -14.07700 42.22000 42.97500
C  -12.85900 41.28300 42.69100
C  -13.65200 44.51100 44.23100
C  -15.26200 42.04800 42.00000
C  -16.33500 40.99700 42.49900
N  -10.93200 39.08400 42.05900
C  -12.21400 38.77600 42.33300
C  -12.48900 37.36400 42.13800
C  -11.27200 36.87300 41.56900
C  -10.42600 37.99400 41.45500
C  -13.75500 36.58200 42.46800
C  -10.55000 35.75500 41.06600
O  -10.87600 34.59300 41.02000
C  -9.21500 36.18700 40.49000
C  -8.12400 35.44200 41.07900
O  -7.67300 35.62900 42.20200
O  -7.71200 34.44900 40.23300
C  -7.01800 33.34900 41.05400
H  -6.17500 42.36000 39.73500
H  -11.38100 45.15800 42.53700
H  -14.14000 39.54400 42.83100
H  -6.22500 37.63900 40.19700
H  -5.85700 39.92200 38.70600
H  -3.97900 39.38300 39.99000
H  -4.99900 39.00600 41.37700
H  -4.71400 40.69600 40.95800
H  -6.52700 38.33300 37.48400
H  -8.08300 37.74300 38.15200
H  -7.25100 35.65400 37.81700
H  -5.98900 35.91900 39.00800
H  -6.59200 44.80400 38.88800
H  -5.58700 44.59800 40.43500
H  -6.30100 46.14100 39.98100
H  -10.21000 47.07000 42.97400
H  -11.02200 46.79200 41.47100
H  -10.21600 48.38000 41.64100
H  -13.72500 44.21600 42.09700
H  -14.47900 42.16700 43.98700
H  -14.07200 43.89300 45.02500
H  -14.36900 45.29400 43.98600
H  -12.82600 45.10700 44.61900
H  -14.89600 41.66000 41.05000
H  -15.69200 43.04600 41.91500
H  -17.30600 41.48300 42.59300
H  -15.98300 40.52700 43.41700
H  -16.53400 40.26600 41.71500
H  -13.53900 35.66600 43.01900
H  -14.23600 36.28500 41.53600
H  -14.38200 37.15900 43.14800
H  -9.25500 35.92800 39.43100
H  -6.07700 33.74300 41.43800
H  -6.77700 32.56100 40.34100
H  -7.72000 32.99600 41.81000

