158

Mg 42.53000 41.33600 26.94500
C  41.51000 43.52400 29.40200
C  43.09900 39.05700 29.26300
C  43.87400 39.45500 24.50400
C  42.17100 44.06300 24.62000
N  42.39400 41.32000 29.15600
C  41.84800 42.30300 29.90900
C  42.02300 41.93300 31.47000
C  42.53600 40.52500 31.39800
C  42.71900 40.28000 29.86600
C  43.91700 40.25800 32.10800
C  40.64500 42.22000 32.22000
C  40.22900 41.41000 33.43800
H  39.56200 42.19200 34.57100
N  43.42700 39.45400 26.96500
C  43.48900 38.59800 27.99200
C  44.09900 37.38400 27.52200
C  44.34800 37.47400 26.11700
C  43.88300 38.80400 25.81300
C  44.55000 36.27300 28.51500
C  44.86700 36.42700 25.18300
O  45.15400 36.75100 24.04200
C  45.07100 34.99400 25.64100
N  42.97700 41.68400 24.89800
C  43.52000 40.74900 24.10800
C  43.76800 41.34000 22.69600
C  43.01200 42.66300 22.69200
C  42.68000 42.85100 24.12000
C  45.35500 41.41000 22.42500
C  41.90500 42.68500 21.66700
C  40.51900 42.06300 22.05800
N  42.09500 43.41800 26.95200
C  41.90600 44.38700 25.94100
C  41.46100 45.61400 26.54400
C  41.40300 45.32300 27.92100
C  41.61500 43.93300 28.03100
C  41.23200 46.85900 25.72600
C  41.02700 45.91400 29.17700
O  40.56700 46.97900 29.47700
C  41.07900 44.77700 30.17600
C  42.00600 45.19800 31.20100
O  43.26100 45.13700 31.06900
O  41.37900 45.77900 32.27900
C  42.25600 46.66400 33.06900
H  43.00200 38.27400 30.01900
H  44.35900 38.95600 23.66300
H  41.78800 44.84600 23.96200
H  42.78100 42.62500 31.83600
H  41.77300 39.85200 31.78900
H  44.73900 39.98200 31.44700
H  43.82500 39.41700 32.79500
H  44.20500 41.08900 32.75100
H  39.97100 42.04700 31.38100
H  40.45200 43.27200 32.42900
H  41.06300 40.82600 33.82800
H  39.45000 40.72500 33.10400
H  45.58100 36.02400 28.26300
H  43.99100 35.34400 28.40600
H  44.55500 36.65200 29.53700
H  45.86600 34.87600 26.37700
H  45.29200 34.46500 24.71400
H  44.10700 34.66800 26.03200
H  43.34600 40.63400 21.98200
H  43.74200 43.43200 22.44000
H  46.05900 41.07100 23.18500
H  45.61900 42.42200 22.11900
H  45.50800 40.71000 21.60200
H  42.18600 42.05900 20.82100
H  41.68700 43.70700 21.35600
H  39.71700 42.79400 21.95900
H  40.52800 41.61700 23.05300
H  40.24100 41.24500 21.39400
H  42.14900 47.33500 25.38000
H  40.66700 47.57900 26.31800
H  40.75500 46.40000 24.86000
H  40.10400 44.61600 30.63700
H  43.07900 47.19400 32.58900
H  42.52300 46.12100 33.97500
H  41.49900 47.41500 33.29700
Mg 0.51600 42.64300 26.22400
C  2.62200 42.56600 28.94200
C  -1.95000 41.27800 28.35800
C  -1.54200 42.46100 23.54500
C  3.20100 43.37300 24.12700
N  0.40000 41.99100 28.40700
C  1.30600 42.26300 29.37600
C  0.69400 42.00000 30.79500
C  -0.36200 40.92600 30.44600
C  -0.66600 41.41300 28.97800
C  0.14300 39.54100 30.51300
C  0.21400 43.30500 31.59600
C  0.89900 43.56000 33.01800
H  0.69300 42.46400 34.02100
N  -1.44400 42.15100 26.06600
C  -2.23900 41.51200 26.99500
C  -3.52600 41.25000 26.39300
C  -3.46600 41.64800 25.07000
C  -2.11400 42.11100 24.84200
C  -4.65300 40.63100 27.24800
C  -4.63900 41.58600 24.11600
O  -4.62300 42.06500 23.00400
C  -5.94200 40.86300 24.37200
N  0.76600 43.06200 24.13200
C  -0.23700 42.80100 23.20300
C  0.27700 43.07700 21.77800
C  1.74900 43.37400 22.00200
C  1.95000 43.35700 23.49800
C  -0.11500 41.96500 20.76500
C  2.14200 44.72600 21.28400
C  2.48500 46.01600 22.10700
N  2.45300 42.85500 26.43400
C  3.45200 43.17600 25.48600
C  4.72000 43.33000 26.16100
C  4.44600 43.06000 27.52300
C  3.04000 42.77500 27.64400
C  6.04100 43.65300 25.63800
C  5.06100 42.91100 28.76700
O  6.25300 42.86300 29.04500
C  3.89600 42.68500 29.79400
C  4.22100 41.41700 30.58400
O  4.30100 40.29800 30.08900
O  4.60600 41.75300 31.89600
C  5.14500 40.74300 32.68300
H  -2.69100 40.75100 28.96300
H  -2.21000 42.24900 22.70800
H  4.17500 43.52200 23.65800
H  1.46800 41.58900 31.44300
H  -1.25800 41.01300 31.06100
H  -0.11100 39.00500 31.42700
H  1.20200 39.53400 30.25500
H  -0.40200 39.05800 29.70200
H  -0.82300 43.11500 31.87200
H  0.28700 44.16900 30.93500
H  0.49300 44.49600 33.40000
H  1.97900 43.64800 32.89600
H  -4.52300 40.88600 28.30000
H  -4.72400 39.55100 27.11500
H  -5.58600 41.12700 26.97900
H  -5.70700 39.85200 24.70400
H  -6.36900 40.81500 23.37000
H  -6.63200 41.39500 25.02700
H  -0.29200 43.94500 21.44400
H  2.29600 42.47300 21.72400
H  0.70300 41.81600 20.06000
H  -1.04700 42.28600 20.29800
H  -0.32900 40.99700 21.21700
H  1.31900 44.99800 20.62400
H  2.99000 44.46200 20.65200
H  3.57200 46.09400 22.12200
H  2.11800 45.84000 23.11800
H  2.05300 46.80900 21.49500
H  5.91100 44.20300 24.70600
H  6.57900 42.76200 25.31500
H  6.63900 44.34200 26.23500
H  3.93900 43.49800 30.51900
H  4.84700 41.06500 33.68100
H  6.23000 40.80400 32.60700
H  4.72500 39.74500 32.56200

