158

Mg 47.15200 16.22700 28.51800
C  45.15900 15.88600 31.34700
C  49.55100 17.89900 30.41700
C  48.94600 16.87500 25.62900
C  44.41900 15.17800 26.62700
N  47.29200 16.74800 30.61500
C  46.38100 16.47400 31.59000
C  46.86600 16.99500 32.93800
C  48.10900 17.78100 32.57300
C  48.39100 17.47500 31.11000
C  48.11100 19.34500 32.84900
C  47.06400 15.76600 33.97400
C  46.34500 15.96900 35.34900
H  46.63400 17.29200 36.18200
N  49.10100 17.09400 28.10700
C  49.92600 17.68300 29.01700
C  51.23700 17.83700 28.39100
C  51.08800 17.61400 27.01700
C  49.65400 17.13800 26.83700
C  52.45500 18.36600 29.24600
C  52.12600 17.78600 25.86400
O  51.93800 17.36200 24.75500
C  53.44600 18.63000 26.09300
N  46.79200 16.06400 26.43300
C  47.64600 16.33400 25.40000
C  46.99500 16.00500 24.00700
C  45.64800 15.27100 24.46800
C  45.56200 15.57300 25.89200
C  46.91200 17.30400 23.18600
C  45.74400 13.71700 24.32100
C  45.55800 13.18600 22.86200
N  45.17300 15.70500 28.86900
C  44.14900 15.25600 28.00700
C  42.92700 14.88500 28.74300
C  43.32100 15.12400 30.05200
C  44.66700 15.55900 30.11500
C  41.63100 14.41300 28.26200
C  42.79400 15.05500 31.36000
O  41.68300 14.83800 31.78600
C  44.05900 15.58000 32.30000
C  43.56900 16.84600 32.95100
O  43.58700 18.00200 32.53900
O  42.94200 16.55100 34.09700
C  42.09400 17.52600 34.84800
H  50.22200 18.40200 31.11600
H  49.40300 17.05500 24.65300
H  43.61300 14.79200 26.00000
H  46.15500 17.70300 33.36400
H  48.99600 17.43800 33.10700
H  48.77700 19.49600 33.69900
H  47.10000 19.64700 33.12500
H  48.49000 19.81300 31.94100
H  48.13500 15.82800 34.16500
H  46.88500 14.75800 33.60000
H  46.53500 15.11600 36.00100
H  45.26200 15.90600 35.24700
H  53.14100 19.00300 28.68800
H  53.07800 17.47800 29.34800
H  52.23100 18.70800 30.25600
H  54.05700 17.95000 26.68600
H  53.24200 19.54800 26.64400
H  53.83000 18.87300 25.10300
H  47.70700 15.29000 23.59400
H  44.83900 15.74400 23.91100
H  45.91000 17.53800 22.82600
H  47.71800 17.25900 22.45400
H  47.15900 18.13200 23.85000
H  44.98800 13.23200 24.93900
H  46.66800 13.30800 24.72800
H  46.42100 12.59100 22.56400
H  45.49400 14.03800 22.18400
H  44.69900 12.53100 22.71900
H  41.44200 14.98100 27.35200
H  40.87600 14.73900 28.97700
H  41.71000 13.33200 28.14200
H  44.29900 14.85400 33.07700
H  41.85200 18.47500 34.37000
H  42.57700 17.79700 35.78600
H  41.24300 16.89300 35.09800
Mg 6.87100 53.84500 41.66900
C  6.73100 50.35800 41.30400
C  10.39400 53.55000 40.88900
C  7.11400 57.19900 41.57100
C  3.54400 53.98200 42.30700
N  8.36800 52.10400 41.08500
C  8.05400 50.79100 40.97800
C  9.29100 49.96300 40.58000
C  10.52500 50.99300 40.78100
C  9.69600 52.29800 40.86700
C  11.55300 50.79700 41.95700
C  9.32800 49.40400 39.13900
C  9.18600 50.49800 38.04200
H  7.94600 50.33600 37.17000
N  8.45000 55.21500 41.25700
C  9.80900 54.89200 41.03800
C  10.52800 56.16400 40.90700
C  9.62200 57.27100 41.11500
C  8.35100 56.55400 41.34600
C  12.07200 56.11200 40.59100
C  10.05200 58.76200 41.08400
O  11.14700 59.08500 40.69100
C  9.21800 59.79900 41.70100
N  5.35500 55.41600 41.50700
C  5.79100 56.63800 41.63700
C  4.66500 57.58100 41.89900
C  3.48100 56.55600 42.19100
C  4.16700 55.18900 42.05400
C  4.81200 58.65500 43.02700
C  2.32700 56.66700 41.21800
C  0.89300 56.63900 41.68700
N  5.40400 52.47100 41.77400
C  4.16700 52.70700 42.21400
C  3.55100 51.42900 42.41100
C  4.52700 50.44200 41.98400
C  5.65200 51.15500 41.71500
C  2.15700 51.19000 42.80700
C  4.75800 49.02700 41.79400
O  4.06700 48.02300 42.08900
C  6.23200 48.94100 41.36100
C  6.15900 48.15600 40.10900
O  5.94600 48.61400 38.98100
O  6.26600 46.80900 40.35300
C  5.60900 45.93400 39.33600
H  11.44500 53.69500 40.63100
H  7.09800 58.28700 41.47300
H  2.60300 53.97400 42.86000
H  9.36200 49.07900 41.21400
H  11.09700 50.90000 39.85800
H  12.56000 50.67800 41.55700
H  11.25900 49.92100 42.53500
H  11.35000 51.64700 42.60900
H  8.72600 48.50300 39.02400
H  10.31000 49.06100 38.81300
H  10.00000 50.44600 37.32000
H  9.28500 51.50300 38.45100
H  12.26500 55.53100 39.68900
H  12.44500 55.59000 41.47200
H  12.55200 57.08500 40.49000
H  9.80800 60.65500 42.02800
H  8.67400 59.31200 42.51100
H  8.52800 60.06700 40.90100
H  4.35600 58.21100 41.06500
H  3.11600 56.62000 43.21600
H  4.80400 59.61200 42.50600
H  5.81600 58.53100 43.43400
H  3.95400 58.45100 43.66700
H  2.48800 55.91000 40.45100
H  2.42800 57.63300 40.72400
H  0.38600 55.93600 41.02600
H  0.46900 57.63900 41.59400
H  0.75700 56.39500 42.74000
H  1.56700 52.10100 42.70600
H  2.11200 50.98900 43.87800
H  1.76300 50.36700 42.21100
H  6.84200 48.31500 42.01200
H  5.98100 46.15000 38.33500
H  4.53400 46.10200 39.26600
H  5.76900 44.91400 39.68500

