158

Mg 54.65100 24.22800 44.89900
C  52.00800 26.46500 43.87000
C  52.50200 21.58500 44.16600
C  57.37000 22.24500 44.61700
C  56.76400 27.03100 45.30700
N  52.51500 24.10100 43.98500
C  51.65300 25.13600 43.63200
C  50.31800 24.49000 43.07000
C  50.34600 23.03200 43.71500
C  51.84500 22.87500 44.02000
C  49.46900 22.86700 45.00000
C  50.19800 24.63100 41.57400
C  48.76900 24.59100 41.02400
H  48.64000 23.87400 39.63200
N  54.91700 22.21500 44.50600
C  53.92700 21.25500 44.35600
C  54.48600 19.95900 44.31700
C  55.86300 20.14200 44.29700
C  56.09800 21.55800 44.43400
C  53.75100 18.72500 43.90700
C  56.92500 19.04300 44.02800
O  56.58100 17.86300 44.02800
C  58.37900 19.30300 43.61700
N  56.78100 24.63000 44.77200
C  57.60700 23.61000 44.79400
C  59.07100 24.01700 45.18500
C  58.84400 25.56800 45.37600
C  57.39000 25.79400 45.13000
C  59.67800 23.28000 46.38800
C  59.72200 26.47100 44.30100
C  60.59200 27.63800 44.87400
N  54.42700 26.31300 44.84400
C  55.39900 27.30400 45.07100
C  54.72400 28.52500 45.04800
C  53.41400 28.28500 44.57700
C  53.27800 26.90800 44.46200
C  55.30000 29.82000 45.41400
C  52.14600 28.86800 44.18400
O  51.83900 30.03500 44.10300
C  51.19900 27.74400 43.58000
C  51.02700 28.04600 42.17300
O  51.91800 28.01700 41.33200
O  49.68200 28.25200 41.92500
C  49.37500 28.49000 40.50600
H  51.81800 20.77900 43.89400
H  58.35400 21.77500 44.67800
H  57.45400 27.83500 45.57000
H  49.53800 25.09100 43.53700
H  50.07400 22.33900 42.92000
H  50.01800 22.54500 45.88500
H  48.72700 22.10800 44.75200
H  48.90000 23.77700 45.18900
H  50.79800 23.81400 41.17500
H  50.59400 25.59800 41.26300
H  48.50300 25.64600 40.96200
H  48.15300 24.09700 41.77600
H  53.88800 18.68800 42.82700
H  52.66900 18.78000 44.01900
H  54.19000 17.85700 44.39900
H  58.59600 18.57100 42.84000
H  58.97800 19.35900 44.52600
H  58.36600 20.20300 43.00200
H  59.64600 23.79300 44.28700
H  58.98800 25.86600 46.41500
H  59.01200 22.57700 46.88800
H  60.11600 23.96300 47.11600
H  60.55700 22.74200 46.03400
H  59.03100 26.89000 43.56900
H  60.37800 25.79400 43.75400
H  60.12200 28.61900 44.80200
H  61.55900 27.72600 44.37900
H  60.86200 27.59300 45.92900
H  55.68600 29.81600 46.43300
H  54.46000 30.51300 45.44600
H  56.07800 30.15400 44.72800
H  50.33400 27.77300 44.24200
H  49.14700 29.52200 40.23900
H  48.37900 28.07100 40.36600
H  50.12700 28.19300 39.77500
Mg 2.04800 42.24400 26.37600
C  3.35300 42.15000 29.51900
C  -0.89500 40.87600 27.47600
C  0.95900 42.00600 23.08300
C  5.05500 43.49300 25.16800
N  1.31600 41.69400 28.25400
C  1.99400 41.81000 29.46100
C  1.04900 41.53000 30.69000
C  -0.26300 41.02500 29.95200
C  0.09900 41.22400 28.47700
C  -0.65400 39.59100 30.34700
C  0.77100 42.80200 31.58900
C  1.35100 42.65300 33.04800
H  1.06900 41.35500 33.79300
N  0.28800 41.46100 25.41500
C  -0.86400 41.01200 26.07800
C  -1.83800 40.72900 25.14600
C  -1.32800 41.00500 23.88200
C  0.04200 41.55000 24.03600
C  -3.11300 40.02800 25.66100
C  -2.05900 40.89300 22.42200
O  -1.65700 41.50800 21.41200
C  -3.45100 40.30200 22.42100
N  2.95400 42.53500 24.41200
C  2.26400 42.51700 23.23900
C  3.09300 43.06400 22.04500
C  4.25300 43.74000 22.83300
C  4.10000 43.22700 24.23900
C  3.62400 41.85000 21.23200
C  4.28800 45.24400 22.60300
C  4.66000 45.85800 21.16600
N  3.86900 42.63900 27.15300
C  4.99600 43.19000 26.54100
C  5.99900 43.41100 27.52600
C  5.40800 43.01700 28.72400
C  4.10400 42.56300 28.40900
C  7.43900 43.95400 27.35200
C  5.53000 42.89100 30.11600
O  6.52800 43.13600 30.84900
C  4.23400 42.31400 30.67600
C  4.56800 41.02000 31.36700
O  4.87400 39.95700 30.83600
O  4.73200 41.27600 32.70400
C  5.00800 40.08000 33.51900
H  -1.80100 40.47800 27.93800
H  0.71600 41.92800 22.02100
H  6.00700 43.89600 24.81700
H  1.55500 40.76100 31.27400
H  -1.12100 41.64200 30.22000
H  -1.73700 39.55600 30.46400
H  -0.23200 39.38000 31.33000
H  -0.26500 38.84000 29.66000
H  -0.29400 42.91900 31.79100
H  1.24600 43.62900 31.06100
H  1.04500 43.58500 33.52300
H  2.43500 42.75600 32.99100
H  -2.98500 39.43600 26.56700
H  -3.37300 39.33300 24.86300
H  -4.00100 40.62200 25.88100
H  -4.12400 40.97600 22.95100
H  -3.37400 39.31600 22.87700
H  -3.78000 40.08700 21.40400
H  2.59200 43.88400 21.53100
H  5.21900 43.33300 22.53400
H  4.46200 42.02700 20.55700
H  2.83600 41.61000 20.51800
H  3.67400 40.91200 21.78400
H  5.13700 45.59000 23.19200
H  3.38700 45.72600 22.98100
H  4.49600 44.97000 20.55600
H  5.69400 46.15800 20.99600
H  3.91400 46.62800 20.96900
H  8.19300 43.21600 27.62900
H  7.57900 44.76600 28.06500
H  7.58700 44.32400 26.33800
H  3.96200 43.15300 31.31600
H  4.40200 40.16900 34.42000
H  6.07400 39.97300 33.72200
H  4.67000 39.15300 33.05600

