158

Mg 23.90200 -4.85200 45.42000
C  26.25500 -2.66000 43.86000
C  21.43900 -3.66300 43.33900
C  22.10100 -7.51300 46.25700
C  26.81400 -6.37600 46.99600
N  23.81400 -3.21500 43.82400
C  24.93800 -2.58100 43.31900
C  24.44800 -1.85200 41.99000
C  22.91400 -1.95200 42.02000
C  22.64900 -2.94400 43.17900
C  22.32800 -0.59500 42.40600
C  25.09900 -2.52800 40.76200
C  25.75200 -1.50600 39.67000
H  25.49700 -1.83900 38.18400
N  21.94100 -5.42900 45.14300
C  21.04800 -4.78100 44.23700
C  19.76000 -5.47300 44.29300
C  19.96600 -6.55100 45.24300
C  21.36000 -6.55600 45.54800
C  18.56000 -5.10300 43.48000
C  18.87400 -7.42400 45.74100
O  17.75700 -7.34800 45.17000
C  19.04700 -8.45600 46.84100
N  24.31300 -6.67400 46.55400
C  23.40800 -7.63700 46.64900
C  23.88000 -8.82800 47.55800
C  25.41200 -8.39700 47.77200
C  25.52700 -7.06300 47.03100
C  23.02200 -8.86000 48.93300
C  26.41800 -9.48800 47.27900
C  27.46000 -10.05000 48.26000
N  26.08000 -4.46000 45.61000
C  27.07200 -5.20100 46.28100
C  28.32600 -4.49300 46.13600
C  28.05600 -3.51200 45.15000
C  26.72800 -3.45400 44.90900
C  29.58600 -4.75900 46.84400
C  28.67300 -2.42200 44.31200
O  29.85800 -2.01500 44.26300
C  27.54400 -1.94600 43.35200
C  27.48600 -0.39900 43.30900
O  27.41200 0.36800 42.36900
O  27.53700 0.07300 44.59900
C  27.24200 1.52400 44.72300
H  20.71500 -3.25600 42.63000
H  21.54000 -8.42500 46.47100
H  27.58900 -6.88000 47.57600
H  24.82200 -0.83600 42.11800
H  22.40400 -2.10100 41.06800
H  21.98200 -0.00600 41.55700
H  23.11800 0.05400 42.78500
H  21.46200 -0.61900 43.06700
H  24.38500 -3.20800 40.29800
H  25.95000 -3.10500 41.12500
H  26.78200 -1.54400 40.02600
H  25.40100 -0.50100 39.90500
H  18.72200 -4.19300 42.90300
H  17.76800 -4.84800 44.18400
H  18.19700 -5.83700 42.76000
H  19.72800 -9.22300 46.47400
H  18.03800 -8.81700 47.04300
H  19.43600 -7.93900 47.71900
H  23.75700 -9.78100 47.04300
H  25.47600 -8.13100 48.82700
H  22.09600 -8.28800 48.90200
H  23.63500 -8.51700 49.76700
H  22.81300 -9.89600 49.20100
H  26.94700 -9.10100 46.40800
H  25.77000 -10.29000 46.92500
H  28.44800 -9.67300 47.99300
H  27.37800 -11.13700 48.24600
H  27.36600 -9.62100 49.25800
H  30.35700 -4.01700 46.63600
H  29.83800 -5.72900 46.41700
H  29.32500 -4.93800 47.88700
H  27.88000 -2.42900 42.43400
H  27.09000 1.81600 45.76200
H  26.30000 1.77200 44.23400
H  28.04100 2.20400 44.42700
Mg -6.71800 25.72600 25.40000
C  -5.35000 27.14200 28.39200
C  -8.66300 23.74300 27.39300
C  -7.90500 24.11700 22.61600
C  -4.70600 27.75500 23.51400
N  -6.91100 25.44400 27.62900
C  -6.27500 26.12300 28.69100
C  -6.79800 25.62800 29.98900
C  -7.69700 24.44600 29.60200
C  -7.73200 24.46800 28.10100
C  -7.29900 23.00700 30.21700
C  -7.50200 26.76900 30.88200
C  -8.18300 26.29900 32.19900
H  -7.55500 25.12700 33.03600
N  -8.18700 24.24300 25.01200
C  -8.88600 23.57400 26.00100
C  -9.81200 22.59600 25.39600
C  -9.60100 22.70600 23.96400
C  -8.53400 23.71200 23.80800
C  -10.68400 21.64400 26.21900
C  -10.22300 21.85800 22.84700
O  -9.89200 22.05100 21.63000
C  -11.08500 20.71600 23.13200
N  -6.31100 25.86500 23.37500
C  -6.85000 25.05600 22.38500
C  -6.37100 25.43100 20.95700
C  -5.36800 26.62100 21.25400
C  -5.42500 26.73500 22.80100
C  -5.80100 24.23000 20.09300
C  -5.52800 27.97700 20.47000
C  -6.68900 29.04200 20.93000
N  -5.29600 27.19300 25.85500
C  -4.55300 27.92600 24.96000
C  -3.75200 28.84200 25.73100
C  -3.95400 28.55400 27.05900
C  -4.89500 27.47600 27.12100
C  -2.92900 29.95900 25.13200
C  -3.66100 28.89200 28.46700
O  -2.89800 29.77400 28.91300
C  -4.51600 27.93900 29.41400
C  -3.54100 27.15500 30.24400
O  -2.69800 26.34600 29.90900
O  -3.70900 27.47300 31.55600
C  -2.81100 26.75600 32.47400
H  -9.26200 23.08500 28.02600
H  -8.15200 23.51900 21.73600
H  -3.99300 28.26200 22.86000
H  -5.90900 25.26000 30.50200
H  -8.68000 24.67100 30.01600
H  -6.22200 22.85900 30.28500
H  -7.52900 22.14900 29.58500
H  -7.75900 22.97400 31.20500
H  -8.33700 27.26000 30.38100
H  -6.74900 27.50100 31.17500
H  -9.24600 26.14700 32.01200
H  -8.12300 27.19500 32.81600
H  -10.40900 20.64100 25.89200
H  -11.71400 21.81700 25.90800
H  -10.55700 21.67400 27.30100
H  -11.95700 21.10000 23.66200
H  -10.70500 19.88200 23.72200
H  -11.51700 20.30000 22.22200
H  -7.20100 25.86600 20.39900
H  -4.37200 26.25600 21.00400
H  -5.91200 23.26800 20.59300
H  -4.72300 24.35300 19.99500
H  -6.24900 24.20000 19.09900
H  -5.82800 27.66300 19.47000
H  -4.56200 28.48100 20.43400
H  -7.26700 28.61000 21.74700
H  -7.34800 29.03800 20.06200
H  -6.49600 30.09100 21.15500
H  -3.65000 30.44100 24.47100
H  -2.03100 29.68700 24.57700
H  -2.58200 30.68000 25.87200
H  -4.98800 28.64700 30.09600
H  -2.87800 27.22100 33.45700
H  -1.80400 26.75200 32.05800
H  -3.07200 25.69800 32.44300

