158

Mg -0.76500 7.43000 26.25300
C  -0.09200 9.50900 28.89300
C  -0.17900 4.75900 28.40900
C  -1.16200 5.51900 23.67600
C  -1.10700 10.34000 24.13500
N  -0.23700 7.16400 28.41500
C  -0.04600 8.18400 29.28000
C  0.24200 7.64900 30.72100
C  0.24300 6.09700 30.48900
C  0.03500 5.96400 28.97200
C  1.58500 5.39300 30.95900
C  -0.86900 8.12700 31.69600
C  -0.54800 8.07800 33.19800
H  0.54900 7.22000 33.88700
N  -0.70100 5.42500 26.06300
C  -0.40200 4.46500 26.98600
C  -0.29900 3.14900 26.35500
C  -0.58000 3.35900 24.94800
C  -0.85300 4.78900 24.84600
C  -0.01000 1.85100 27.20000
C  -0.53500 2.34600 23.76700
O  -0.95700 2.57800 22.64100
C  -0.16200 0.85000 23.97200
N  -1.11000 7.92000 24.23000
C  -1.22000 6.88900 23.36300
C  -1.44800 7.34500 21.97100
C  -1.87000 8.79500 22.20500
C  -1.28200 9.08900 23.55700
C  -0.13300 7.21500 21.10700
C  -3.46000 8.88600 22.14000
C  -3.92500 10.13600 21.33800
N  -0.62000 9.52700 26.40400
C  -0.70400 10.53400 25.48800
C  -0.42200 11.78500 26.10200
C  -0.16900 11.41400 27.48000
C  -0.31700 10.02600 27.55700
C  -0.46200 13.22100 25.61600
C  0.16900 12.03400 28.74700
O  0.47100 13.19700 29.02900
C  0.11500 10.79100 29.69700
C  1.26800 10.86000 30.58400
O  2.38200 10.88700 30.15200
O  0.90700 11.00900 31.87900
C  2.03900 11.04200 32.84200
H  0.02900 3.83500 28.95300
H  -1.42800 4.89000 22.82400
H  -1.14600 11.21800 23.48700
H  1.26900 7.95100 30.93000
H  -0.61700 5.63200 30.97200
H  2.23000 6.04800 31.54400
H  2.14700 5.06000 30.08700
H  1.26600 4.55600 31.58000
H  -1.58700 7.32000 31.55100
H  -1.32300 9.05600 31.34900
H  -1.48400 7.63100 33.53500
H  -0.57800 9.12000 33.51700
H  0.79700 1.96100 27.92500
H  0.28400 1.03600 26.53900
H  -0.93400 1.53900 27.68700
H  0.89000 0.85000 24.25900
H  -0.30400 0.43600 22.97300
H  -0.87500 0.40200 24.66300
H  -2.27500 6.81200 21.50100
H  -1.32100 9.47000 21.54900
H  -0.39100 6.37600 20.46000
H  0.79100 6.92800 21.60800
H  -0.03200 8.14500 20.54800
H  -3.85500 9.04800 23.14200
H  -4.02800 8.05000 21.73100
H  -3.24400 10.64400 20.65600
H  -4.23600 10.95900 21.98100
H  -4.84300 9.78200 20.86900
H  -0.75300 13.96600 26.35800
H  -1.16500 13.23400 24.78400
H  0.46400 13.58700 25.17200
H  -0.69200 10.86600 30.42500
H  2.64900 11.93500 32.70300
H  2.75300 10.23000 32.70000
H  1.75800 11.04400 33.89500
Mg -12.02200 38.61200 41.49100
C  -10.14900 36.07300 40.25000
C  -9.94700 40.91900 39.96400
C  -14.26000 41.01700 42.20200
C  -14.16400 36.22100 42.85300
N  -10.32600 38.55100 40.27600
C  -9.66800 37.36600 39.90700
C  -8.34600 37.71900 39.09200
C  -8.16300 39.22400 39.46000
C  -9.55100 39.65100 39.95700
C  -7.04300 39.47400 40.61400
C  -8.41800 37.31800 37.60400
C  -7.23800 36.48800 36.89800
H  -6.58200 37.13600 35.67600
N  -12.14000 40.70600 41.11200
C  -11.10600 41.49400 40.51000
C  -11.50100 42.87300 40.55200
C  -12.82700 42.93300 41.15700
C  -13.12000 41.55000 41.63000
C  -10.62000 43.93500 40.17100
C  -13.61700 44.19000 41.41500
O  -13.13900 45.26900 41.06700
C  -14.92900 44.30500 42.25200
N  -14.01700 38.57600 42.28900
C  -14.67200 39.71000 42.46500
C  -16.16800 39.31700 42.78400
C  -16.07700 37.84100 43.17000
C  -14.64700 37.49600 42.81100
C  -16.93000 40.19600 43.74800
C  -17.16000 36.93200 42.50500
C  -17.78900 35.70300 43.38100
N  -12.07400 36.51100 41.61000
C  -13.02200 35.69700 42.21200
C  -12.57700 34.37300 42.03400
C  -11.45700 34.46500 41.23200
C  -11.27400 35.77600 40.98400
C  -13.20700 33.14500 42.62100
C  -10.39400 33.68800 40.58500
O  -10.23400 32.48400 40.44600
C  -9.46100 34.74200 39.83400
C  -7.93200 34.72600 40.23300
O  -7.00600 34.38200 39.49100
O  -7.78600 35.02700 41.57100
C  -6.49000 34.72600 42.10100
H  -9.18800 41.49800 39.43500
H  -14.99600 41.66600 42.68300
H  -14.79800 35.52700 43.41000
H  -7.55400 37.21600 39.64800
H  -7.86900 39.80800 38.58700
H  -7.18500 40.46500 41.04500
H  -6.07400 39.58300 40.12600
H  -7.07800 38.54700 41.18700
H  -8.41000 38.23300 37.01200
H  -9.30500 36.74800 37.33000
H  -7.54400 35.45100 36.76100
H  -6.44900 36.53000 37.64900
H  -9.59100 43.57900 40.13000
H  -10.66800 44.77600 40.86400
H  -10.75000 44.27800 39.14500
H  -15.43700 45.23100 41.98400
H  -14.77500 44.27700 43.33000
H  -15.55800 43.48700 41.90000
H  -16.62700 39.44200 41.80300
H  -16.08100 37.85000 44.26000
H  -17.77000 40.73300 43.30800
H  -16.31100 40.89300 44.31300
H  -17.36900 39.49100 44.45500
H  -16.76300 36.51200 41.58100
H  -17.96400 37.61600 42.23700
H  -17.27500 35.85400 44.33000
H  -17.65500 34.71800 42.93300
H  -18.83200 35.94000 43.59400
H  -13.48200 33.24500 43.67100
H  -12.55200 32.30700 42.38100
H  -14.20600 33.01100 42.20700
H  -9.62100 34.61800 38.76300
H  -6.30800 33.65300 42.15900
H  -6.52900 35.10600 43.12100
H  -5.59900 35.16800 41.65600

