158

Mg 1.35900 8.51300 27.48100
C  2.12500 10.18200 30.34500
C  2.02100 5.50800 29.20500
C  1.28300 6.72600 24.55100
C  1.75800 11.41200 25.60200
N  1.84300 7.96100 29.59100
C  2.04800 8.80600 30.63700
C  2.05400 8.05100 31.98600
C  2.15400 6.50800 31.52900
C  2.09400 6.67100 29.98800
C  3.41000 5.73600 31.95700
C  0.78400 8.46300 32.90300
C  1.05600 9.00700 34.28100
H  2.26000 8.54100 35.09500
N  1.44100 6.47400 26.97800
C  1.72000 5.40600 27.83300
C  1.51100 4.15200 27.10400
C  1.09700 4.47000 25.74800
C  1.29000 5.92900 25.70800
C  1.82800 2.79300 27.72700
C  0.65800 3.57000 24.59800
O  0.20800 4.04800 23.55800
C  0.69600 2.13400 24.87600
N  1.46200 9.01000 25.31700
C  1.45300 8.10000 24.30400
C  1.85700 8.77000 22.94000
C  1.69600 10.31900 23.31500
C  1.61600 10.28800 24.82700
C  3.26800 8.18600 22.53700
C  0.58600 11.12000 22.58500
C  -0.88700 10.73300 23.10800
N  1.78000 10.46200 27.86900
C  1.86600 11.56000 27.02800
C  2.14000 12.74000 27.81700
C  2.22100 12.28000 29.15300
C  2.03800 10.87300 29.11400
C  2.37300 14.10300 27.19700
C  2.51800 12.66100 30.55600
O  2.79300 13.71800 31.12500
C  2.29500 11.35800 31.40000
C  3.48600 11.28400 32.27000
O  4.60500 10.93100 31.93800
O  3.21800 11.80400 33.50200
C  4.44700 12.00200 34.33100
H  2.05300 4.56800 29.76000
H  1.27700 6.14900 23.62400
H  1.76800 12.36200 25.06300
H  2.88300 8.30000 32.64800
H  1.23600 6.01400 31.84800
H  4.28700 6.37300 32.06500
H  3.73500 5.05200 31.17300
H  3.17800 5.00600 32.73300
H  0.09900 7.61700 32.96600
H  0.23500 9.25400 32.39300
H  0.14100 8.92400 34.86600
H  1.24400 10.07800 34.20300
H  0.92400 2.22600 27.94900
H  2.48300 2.83800 28.59700
H  2.37600 2.31800 26.91300
H  0.33900 1.39300 24.16100
H  0.06100 1.79300 25.69400
H  1.74300 1.83400 24.93600
H  1.10700 8.46000 22.21200
H  2.54900 10.95200 23.07000
H  3.27100 7.71500 21.55400
H  3.54700 7.40600 23.24600
H  3.99600 8.99600 22.58200
H  0.64000 10.73700 21.56600
H  0.82800 12.18000 22.66200
H  -1.57700 10.66600 22.26700
H  -1.21900 11.61000 23.66400
H  -0.97500 9.84200 23.72900
H  1.63800 14.22600 26.40100
H  3.40200 14.31200 26.90400
H  2.09300 14.72300 28.04800
H  1.35600 11.58000 31.90600
H  4.71800 13.04500 34.49800
H  5.34000 11.44500 34.04900
H  4.14000 11.66600 35.32200
Mg -9.17700 17.82600 41.57600
C  -5.74400 17.96000 42.13000
C  -9.08400 21.28700 40.97000
C  -12.42900 17.77400 40.59100
C  -9.06000 14.38800 41.71400
N  -7.63300 19.30400 41.39000
C  -6.23900 19.13100 41.69400
C  -5.48400 20.47500 41.41100
C  -6.66200 21.39900 41.75700
C  -7.92400 20.63000 41.36100
C  -6.65400 21.60800 43.31100
C  -5.11400 20.64100 39.91800
C  -3.74400 20.11700 39.54600
H  -3.65500 19.06800 38.49700
N  -10.57500 19.31500 40.84500
C  -10.32400 20.64200 40.70600
C  -11.46100 21.30200 40.13800
C  -12.47800 20.32700 39.99900
C  -11.84800 19.06200 40.51400
C  -11.49200 22.76500 39.88200
C  -13.92900 20.53700 39.44300
O  -14.32100 21.64500 39.16000
C  -14.93800 19.48000 39.25800
N  -10.54200 16.33200 41.16000
C  -11.86300 16.54400 41.02000
C  -12.61400 15.18100 41.11400
C  -11.56100 14.25600 41.59900
C  -10.24800 15.03500 41.42100
C  -13.80600 15.20400 42.02600
C  -11.53700 12.88100 40.78400
C  -12.35700 11.70300 41.39300
N  -7.68300 16.35800 41.83300
C  -7.80600 14.98400 41.80800
C  -6.55000 14.44800 42.05300
C  -5.68700 15.60200 42.22200
C  -6.42400 16.66600 42.11100
C  -6.10100 12.95500 42.17800
C  -4.34000 16.09800 42.48100
O  -3.33800 15.48200 42.74600
C  -4.33700 17.65800 42.38700
C  -3.81200 18.37300 43.60100
O  -4.09000 18.13500 44.73400
O  -2.95300 19.39300 43.25200
C  -2.50400 20.28500 44.33600
H  -9.02200 22.37600 41.01800
H  -13.48900 17.59400 40.40400
H  -8.98800 13.30700 41.85400
H  -4.59800 20.73400 41.99000
H  -6.58900 22.37100 41.26900
H  -5.76400 21.15800 43.75000
H  -7.45100 21.08000 43.83500
H  -6.81000 22.65200 43.58100
H  -5.18700 21.68300 39.60500
H  -5.76000 20.00700 39.31200
H  -3.23300 19.86000 40.47400
H  -3.17200 20.99700 39.25000
H  -11.07200 22.98700 38.90100
H  -11.00700 23.30100 40.69700
H  -12.50600 23.15200 39.98100
H  -14.45500 18.67900 38.69800
H  -15.89900 19.72100 38.80400
H  -15.13500 19.12300 40.26800
H  -13.06200 14.92500 40.15400
H  -11.69300 13.94900 42.63700
H  -14.57100 14.73700 41.40700
H  -14.25100 16.13700 42.37000
H  -13.84400 14.54400 42.89300
H  -10.52500 12.51600 40.61200
H  -12.05900 13.13900 39.86300
H  -12.34900 10.92600 40.62900
H  -13.34500 12.01300 41.73500
H  -11.87200 11.22000 42.24200
H  -5.80600 12.83000 43.22000
H  -5.33100 12.86000 41.41200
H  -6.94700 12.30200 41.96400
H  -3.67000 17.91200 41.56400
H  -3.17500 20.50400 45.16700
H  -2.07300 21.13600 43.81000
H  -1.65800 19.79600 44.81800

