158

Mg 8.54700 4.24600 27.79600
C  10.06100 2.96200 30.78200
C  6.55300 6.13900 29.86500
C  7.30000 5.54800 25.10200
C  10.11300 1.82900 25.97200
N  8.27800 4.36300 30.09500
C  9.07000 3.87000 31.09000
C  8.66200 4.36700 32.45300
C  7.37900 5.15300 32.13400
C  7.43000 5.28100 30.59600
C  6.00800 4.51800 32.51800
C  9.83900 5.11800 33.20400
C  10.49000 4.55700 34.49300
H  10.64800 5.39000 35.84400
N  7.28900 5.75000 27.53100
C  6.49600 6.37300 28.46000
C  5.75000 7.42100 27.74200
C  6.10800 7.37800 26.38000
C  6.93000 6.18500 26.32300
C  4.72300 8.30900 28.35600
C  5.63600 8.21600 25.21700
O  5.76600 7.94600 24.09100
C  4.97200 9.54600 25.49600
N  8.46200 3.60000 25.84000
C  8.03200 4.38200 24.91400
C  8.42200 3.95500 23.46100
C  9.32400 2.66200 23.75400
C  9.34000 2.75600 25.29900
C  7.13600 3.71600 22.58400
C  10.74200 2.71100 23.12400
C  11.10300 1.55400 22.16800
N  9.87800 2.71400 28.22700
C  10.41400 1.79600 27.39300
C  11.20400 0.84100 28.14000
C  11.15600 1.32200 29.51400
C  10.35400 2.42700 29.47600
C  12.01300 -0.19400 27.47400
C  11.55100 1.09500 30.84400
O  12.19500 0.12300 31.28200
C  10.96400 2.18400 31.75200
C  10.17700 1.36800 32.67600
O  9.20300 0.70900 32.42600
O  10.82000 1.38400 33.90300
C  10.07800 0.81900 35.09300
H  5.97000 6.77700 30.53300
H  7.20300 6.09900 24.16500
H  10.52700 1.10200 25.27000
H  8.41400 3.50800 33.07700
H  7.39500 6.08900 32.69300
H  5.61000 5.12900 33.32700
H  6.13400 3.50100 32.89000
H  5.25000 4.51400 31.73500
H  9.64400 6.14900 33.49800
H  10.66700 5.21100 32.50100
H  11.51100 4.31000 34.20300
H  9.83000 3.77500 34.87000
H  4.57200 8.13400 29.42100
H  3.74100 8.30200 27.88100
H  5.15900 9.30800 28.35600
H  4.02200 9.42500 26.01600
H  4.68500 9.92300 24.51500
H  5.72300 10.14200 26.01500
H  8.91200 4.75400 22.90300
H  8.62100 1.85400 23.54900
H  6.25000 3.78500 23.21500
H  7.28100 2.68100 22.27400
H  7.02000 4.24200 21.63700
H  11.49400 2.88000 23.89500
H  10.85600 3.58400 22.48200
H  11.57600 2.05300 21.32300
H  10.26400 0.91900 21.88300
H  11.81300 0.89100 22.66100
H  12.39100 0.13800 26.50800
H  11.37600 -1.06200 27.30400
H  12.84200 -0.50500 28.11000
H  11.63100 2.90100 32.23200
H  9.47300 1.61300 35.53100
H  10.88500 0.56200 35.77800
H  9.62000 -0.11600 34.77000
Mg 47.06400 24.96500 28.31800
C  48.29800 27.05600 30.74200
C  46.23100 22.73300 30.81300
C  46.41400 22.67700 25.95100
C  48.06400 27.16300 25.89300
N  47.18800 24.91500 30.55100
C  47.76800 25.90700 31.33600
C  47.62200 25.62900 32.87000
C  47.07500 24.11500 32.85000
C  46.84200 23.86800 31.30500
C  48.04900 23.15700 33.50000
C  46.60600 26.67000 33.53700
C  47.21100 27.36900 34.75100
H  46.36300 27.48700 35.94700
N  46.46100 22.93500 28.37500
C  46.12800 22.22900 29.52100
C  45.66100 20.86900 29.15400
C  45.79200 20.84700 27.72700
C  46.27300 22.18700 27.29400
C  45.29600 19.74300 30.20800
C  45.62200 19.67600 26.73800
O  45.74200 19.78100 25.50600
C  45.42100 18.27400 27.23500
N  47.33400 24.89000 26.22200
C  46.87900 23.95200 25.48400
C  46.71500 24.29600 24.00200
C  47.07700 25.83000 24.05500
C  47.49700 25.99500 25.45200
C  47.80200 23.56900 23.09900
C  45.85900 26.75400 23.74900
C  46.00400 27.68600 22.50400
N  48.00600 26.79600 28.26800
C  48.35000 27.56700 27.23700
C  49.12400 28.71600 27.71100
C  48.96500 28.64800 29.08500
C  48.44100 27.39500 29.36200
C  49.63800 29.80600 26.85900
C  49.22300 29.32900 30.34700
O  49.66900 30.45000 30.59300
C  48.86800 28.26700 31.48100
C  50.00900 27.94000 32.35700
O  50.84400 27.02800 32.13800
O  50.05400 28.71600 33.42400
C  51.13100 28.46700 34.42000
H  45.99100 21.93700 31.52100
H  45.98900 22.04600 25.16800
H  48.31700 27.80900 25.05000
H  48.62900 25.70000 33.27900
H  46.07600 24.11100 33.28500
H  48.47600 22.45800 32.78100
H  47.45400 22.47000 34.10200
H  48.82000 23.64700 34.09600
H  45.71300 26.21600 33.96600
H  46.39600 27.51200 32.87800
H  47.33800 28.42700 34.52100
H  48.21300 26.96200 34.88500
H  45.30800 20.13100 31.22600
H  46.11400 19.02700 30.12100
H  44.26600 19.58200 29.89000
H  46.39600 17.96800 27.61400
H  45.07300 17.57900 26.47000
H  44.67500 18.26500 28.03000
H  45.69700 24.02300 23.72200
H  47.94800 26.06700 23.44400
H  47.44700 22.54200 23.02000
H  48.72700 23.75400 23.64600
H  47.75500 24.02000 22.10800
H  45.27200 27.15900 24.57300
H  45.15500 26.05900 23.29100
H  45.44000 28.59700 22.70300
H  45.48900 27.15100 21.70600
H  47.01700 27.92800 22.18200
H  49.79500 29.63400 25.79400
H  50.64400 30.12600 27.13100
H  48.94800 30.63400 27.02200
H  48.18900 28.74700 32.18500
H  51.98400 28.00300 33.92600
H  50.85800 27.73200 35.17700
H  51.54700 29.33400 34.93500

