158

Mg 6.11700 57.17200 42.00500
C  5.11900 53.62900 41.63800
C  9.03600 56.22500 40.51100
C  6.66000 60.43800 41.37000
C  2.71300 57.79200 42.89400
N  6.78600 55.24900 41.13000
C  6.38900 53.95400 41.19000
C  7.33600 52.95200 40.55200
C  8.64100 53.72600 40.61300
C  8.10900 55.19300 40.74600
C  9.70500 53.30200 41.67000
C  6.83000 52.58700 39.05300
C  6.92100 51.14600 38.62100
H  6.31800 50.71200 37.30500
N  7.71700 58.21700 41.10000
C  8.80900 57.64000 40.58100
C  9.67500 58.78500 40.16500
C  9.05000 59.97600 40.49700
C  7.78200 59.58100 41.04000
C  11.04300 58.60600 39.50300
C  9.53800 61.36600 40.11600
O  10.66900 61.39500 39.65900
C  8.78700 62.70500 40.35900
N  4.79600 58.84900 42.09000
C  5.35400 60.09400 41.95900
C  4.23900 61.16000 42.18800
C  3.00700 60.31800 42.72000
C  3.49600 58.87900 42.68700
C  4.64000 62.28000 43.12900
C  1.57500 60.54500 42.03100
C  0.40400 60.90500 42.98200
N  4.26500 55.94100 42.24100
C  3.02300 56.40600 42.60300
C  2.14200 55.28700 42.75600
C  2.95400 54.16900 42.49400
C  4.18600 54.66200 42.03500
C  0.67800 55.28000 43.06100
C  2.98700 52.70400 42.38700
O  2.12400 51.88800 42.66300
C  4.39900 52.35800 41.90600
C  4.32900 51.31000 40.90100
O  3.85500 51.47200 39.77700
O  4.74100 50.08900 41.41500
C  4.30200 48.94000 40.65100
H  9.96000 55.88700 40.03900
H  6.88000 61.50700 41.34800
H  1.70600 58.05100 43.22800
H  7.46800 52.00600 41.07600
H  9.22900 53.73400 39.69600
H  10.53100 52.82100 41.14800
H  9.25900 52.57800 42.35200
H  10.03500 54.10400 42.33000
H  7.54400 53.14000 38.44300
H  5.86200 53.06200 38.89000
H  6.52000 50.44900 39.35600
H  7.99400 50.96300 38.67200
H  11.74900 59.31700 39.93200
H  10.94700 58.82700 38.44000
H  11.43000 57.58700 39.52800
H  7.86700 62.88900 39.80300
H  9.47600 63.53300 40.19300
H  8.55600 62.87500 41.41100
H  3.99300 61.63200 41.23700
H  2.92300 60.50100 43.79100
H  5.09000 63.10500 42.57700
H  5.47300 61.90300 43.72300
H  3.91300 62.52600 43.90300
H  1.18600 59.73800 41.41000
H  1.77900 61.40200 41.38900
H  -0.09100 59.94100 42.86700
H  -0.26100 61.70500 42.65700
H  0.82400 60.94700 43.98700
H  0.34900 54.35600 43.53600
H  0.29800 55.40000 42.04600
H  0.48700 56.15300 43.68500
H  4.84900 51.96400 42.81800
H  5.02400 48.82800 39.84200
H  3.31900 49.01100 40.18600
H  4.35100 48.09700 41.34000
Mg -9.65300 40.78300 41.46500
C  -8.62100 37.40400 40.96700
C  -6.80500 41.74900 39.83500
C  -10.73800 43.98300 41.62800
C  -12.55600 39.58600 42.74400
N  -7.95400 39.66700 40.49900
C  -7.76800 38.27300 40.40800
C  -6.42300 37.97700 39.72000
C  -5.70800 39.37800 39.72400
C  -6.88300 40.35400 40.01800
C  -4.54200 39.54300 40.65800
C  -6.74200 37.48800 38.26700
C  -5.92300 36.18500 37.84900
H  -4.95900 36.42000 36.75700
N  -8.96800 42.63200 40.67100
C  -7.64000 42.85100 40.21600
C  -7.34800 44.25000 40.10600
C  -8.58400 44.91700 40.57900
C  -9.51400 43.82500 40.96100
C  -5.98100 44.78800 39.70500
C  -8.68300 46.40200 40.57100
O  -7.77900 47.18200 40.24700
C  -9.94100 47.06200 41.12100
N  -11.50300 41.57600 41.92900
C  -11.67500 43.00200 42.03500
C  -13.09000 43.33000 42.53300
C  -13.71700 41.91900 42.65300
C  -12.52100 40.95300 42.48800
C  -13.12100 44.22900 43.75500
C  -14.95800 41.57500 41.70700
C  -16.19600 41.05400 42.37600
N  -10.41400 38.88200 41.91000
C  -11.62400 38.53400 42.45500
C  -11.68300 37.18900 42.76300
C  -10.49800 36.68300 42.20000
C  -9.80300 37.74200 41.65900
C  -12.82500 36.51500 43.43600
C  -9.69500 35.45400 42.06400
O  -9.82300 34.23900 42.45300
C  -8.50700 35.89800 41.09500
C  -7.20600 35.53400 41.76600
O  -6.92600 35.70300 42.92200
O  -6.45600 34.80400 40.83800
C  -5.26300 34.24100 41.47400
H  -5.83600 42.02500 39.41300
H  -11.03500 45.00600 41.87100
H  -13.56000 39.32000 43.08100
H  -5.73900 37.39400 40.33700
H  -5.37500 39.63400 38.71900
H  -3.68900 39.12300 40.12400
H  -4.72400 38.77200 41.40700
H  -4.39300 40.56000 41.02000
H  -6.59000 38.25300 37.50600
H  -7.75000 37.07500 38.25200
H  -6.63400 35.40300 37.58300
H  -5.33700 35.78600 38.67600
H  -5.54500 45.30200 40.56200
H  -6.14100 45.50000 38.89500
H  -5.38200 43.92900 39.40300
H  -9.99100 46.95500 42.20500
H  -10.90400 46.69900 40.76400
H  -9.83500 48.13600 40.96900
H  -13.50700 43.78000 41.63200
H  -14.01100 41.77700 43.69300
H  -13.60900 45.16400 43.47900
H  -12.12800 44.35500 44.18500
H  -13.74100 43.73100 44.50000
H  -14.73000 40.97600 40.82500
H  -15.31100 42.56400 41.41500
H  -15.85200 40.46400 43.22600
H  -16.81400 40.53500 41.64400
H  -16.85600 41.79100 42.83200
H  -12.47300 35.61200 43.93400
H  -13.54000 36.36400 42.62700
H  -13.28500 37.15500 44.18900
H  -8.61000 35.43700 40.11300
H  -4.70100 33.71800 40.70000
H  -5.41500 33.61000 42.35000
H  -4.62100 35.03000 41.86500

