158

Mg 40.15900 10.59900 29.59800
C  42.12100 11.63900 32.25300
C  38.12400 8.93300 31.75600
C  38.56500 9.19300 26.89700
C  42.75300 11.63400 27.46900
N  40.18000 10.28800 31.80000
C  40.88000 11.06100 32.68900
C  40.32600 10.83600 34.12400
C  39.18500 9.78800 33.95200
C  39.21100 9.61500 32.39700
C  39.28400 8.46500 34.78700
C  39.87400 12.26500 34.72200
C  39.26500 12.34800 36.18100
H  39.95800 13.22800 37.24900
N  38.62500 9.19700 29.36400
C  37.87000 8.65300 30.41600
C  36.78200 7.83200 29.85400
C  36.83400 8.03600 28.40800
C  38.02000 8.82700 28.17500
C  35.88300 7.08700 30.76000
C  35.84300 7.54200 27.42300
O  35.92900 7.67800 26.21700
C  34.66200 6.77400 27.90200
N  40.68800 10.30700 27.53200
C  39.77700 9.87500 26.59800
C  40.17100 10.28000 25.17700
C  41.39200 11.24300 25.39700
C  41.62400 11.05900 26.93300
C  40.49600 8.91300 24.45000
C  41.23200 12.81200 25.10800
C  39.82700 13.50900 25.25400
N  42.07600 11.54400 29.73900
C  43.07500 11.82000 28.81100
C  44.26100 12.34300 29.45600
C  43.90600 12.37000 30.77500
C  42.64600 11.71300 30.92200
C  45.56800 12.71300 28.96600
C  44.38200 12.66800 32.13800
O  45.43300 13.11600 32.62000
C  43.23300 12.32600 33.12100
C  43.81800 11.51600 34.24300
O  44.74400 10.76000 34.23100
O  43.01300 11.71400 35.36000
C  43.30200 10.93300 36.52600
H  37.39000 8.58300 32.48500
H  37.98700 8.80300 26.05700
H  43.52400 12.07400 26.83300
H  41.24000 10.42500 34.55300
H  38.26400 10.28700 34.25300
H  40.19500 8.26900 35.35100
H  39.29000 7.64300 34.07100
H  38.41900 8.35200 35.44100
H  39.18800 12.70100 33.99600
H  40.76900 12.88700 34.69200
H  39.17900 11.32300 36.54200
H  38.23400 12.63900 35.98000
H  36.28600 6.88300 31.75200
H  35.72900 6.09100 30.34600
H  34.88300 7.51800 30.71600
H  34.00700 7.34100 28.56400
H  35.01500 5.89700 28.44500
H  34.04700 6.37300 27.09700
H  39.29000 10.74600 24.73400
H  42.29200 10.81300 24.95800
H  39.60700 8.60400 23.90100
H  40.66700 8.10200 25.15700
H  41.33100 9.10100 23.77400
H  41.61800 12.97700 24.10200
H  41.95500 13.30500 25.75800
H  39.14500 12.82500 25.75900
H  39.47200 13.82700 24.27400
H  39.97400 14.34700 25.93400
H  45.53000 12.63900 27.87900
H  46.26200 11.93600 29.28700
H  45.81500 13.73700 29.24700
H  42.87400 13.24900 33.57800
H  43.94600 11.45200 37.23600
H  43.67100 9.95300 36.22200
H  42.36300 10.66200 37.00900
Mg 27.51000 50.77200 25.74400
C  25.34200 51.72100 28.44400
C  29.84700 49.83300 28.15200
C  29.60600 50.05700 23.34400
C  25.32700 52.32700 23.55800
N  27.55100 50.70000 28.03400
C  26.56400 51.13700 28.88200
C  26.85100 50.81400 30.35500
C  28.38700 50.32200 30.28200
C  28.67600 50.36400 28.74500
C  29.49800 51.17800 31.03600
C  25.82000 49.78400 30.85400
C  24.90300 50.10900 32.00400
H  24.72200 49.18800 33.25100
N  29.48200 49.98200 25.80100
C  30.26100 49.65200 26.84500
C  31.46600 48.93700 26.36600
C  31.44900 49.08300 24.94300
C  30.13600 49.71600 24.62300
C  32.39500 48.13400 27.19200
C  32.54200 48.78900 23.93500
O  32.39900 49.06200 22.70500
C  33.87100 48.27300 24.37000
N  27.50900 51.28100 23.76100
C  28.44100 50.74100 22.89300
C  28.03600 50.87200 21.40800
C  26.58000 51.33100 21.52900
C  26.45300 51.67500 23.05500
C  28.93200 51.96000 20.80800
C  25.55300 50.33400 21.04400
C  24.23000 50.83600 20.42100
N  25.84000 52.02000 25.97400
C  25.05700 52.51300 24.99400
C  23.98900 53.20500 25.49600
C  23.90300 52.91200 26.85800
C  25.11300 52.16300 27.10600
C  23.03600 53.98200 24.75200
C  23.25700 53.05500 28.17700
O  22.22300 53.60700 28.51500
C  24.15900 52.32300 29.24600
C  24.66900 53.25100 30.26900
O  25.70200 53.95400 30.24700
O  23.68000 53.25300 31.25700
C  23.83900 54.12400 32.43000
H  30.46100 49.29000 28.87400
H  30.13000 49.61100 22.49600
H  24.51500 52.61600 22.88700
H  26.81100 51.75100 30.91000
H  28.51700 49.27400 30.55300
H  30.27400 51.56700 30.37800
H  29.93600 50.54400 31.80700
H  29.01200 51.97200 31.60300
H  26.39900 48.91100 31.15400
H  25.25800 49.45000 29.98200
H  23.89800 50.31200 31.63400
H  25.24000 51.09300 32.33100
H  32.28800 47.05900 27.04600
H  32.25900 48.26500 28.26600
H  33.44000 48.41300 27.05800
H  34.63500 48.95800 24.73800
H  34.26100 47.80500 23.46600
H  33.64400 47.37700 24.94700
H  28.14600 49.89300 20.94200
H  26.37600 52.27500 21.02500
H  28.27600 52.76800 20.48400
H  29.38500 51.58900 19.88900
H  29.76200 52.21800 21.46500
H  25.30600 49.65600 21.86000
H  26.04700 49.75800 20.26000
H  24.19500 50.66300 19.34500
H  24.00000 51.82700 20.81100
H  23.42900 50.19400 20.78800
H  22.36900 53.32200 24.19700
H  23.59500 54.54400 24.00400
H  22.47000 54.56800 25.47600
H  23.45600 51.63000 29.70900
H  23.08800 53.78900 33.14600
H  23.87600 55.20900 32.33600
H  24.76300 53.75000 32.87100

