158

Mg 26.89600 50.39800 26.73900
C  24.64300 51.43700 29.22700
C  29.31900 49.71900 29.25600
C  29.24300 49.92100 24.24200
C  24.64600 51.41000 24.32300
N  26.98700 50.74000 29.01200
C  25.88800 50.89300 29.79500
C  26.19300 50.62600 31.25800
C  27.67200 50.10200 31.24400
C  28.04800 50.16100 29.73700
C  28.63800 50.84000 32.16800
C  25.17800 49.68300 31.88900
C  24.64000 49.97800 33.31200
H  24.72700 48.96400 34.42700
N  28.92900 49.88600 26.73300
C  29.71300 49.58600 27.86700
C  31.00000 49.08800 27.43700
C  31.06500 49.24600 26.01100
C  29.73900 49.72600 25.56500
C  32.02800 48.71400 28.48600
C  32.19000 48.86300 25.09500
O  32.13800 49.03400 23.87300
C  33.50000 48.19200 25.60200
N  26.97800 50.69000 24.60100
C  27.95600 50.23800 23.77500
C  27.60500 50.42000 22.27100
C  26.05100 50.63900 22.38100
C  25.87600 50.97100 23.87000
C  28.42200 51.60100 21.60800
C  25.16700 49.47600 21.90100
C  24.11700 49.84000 20.83400
N  25.12200 51.38300 26.71500
C  24.29000 51.67000 25.67300
C  23.11700 52.32000 26.10500
C  23.19500 52.19700 27.51900
C  24.38300 51.56000 27.83900
C  21.96900 52.96400 25.26900
C  22.44400 52.46000 28.76100
O  21.35000 53.02800 28.90100
C  23.39700 51.95400 29.97100
C  23.79200 53.10400 30.74400
O  24.14500 54.16900 30.34700
O  23.75300 52.79800 32.03500
C  24.33800 53.83700 32.96400
H  29.88600 49.30200 30.09200
H  29.97200 49.75200 23.44700
H  24.02200 51.73500 23.48800
H  26.07000 51.53200 31.85100
H  27.59300 49.05300 31.52900
H  28.56600 50.55500 33.21800
H  28.22600 51.84200 32.28600
H  29.63300 51.04400 31.77300
H  25.71600 48.74600 32.02600
H  24.31300 49.59800 31.23000
H  23.57200 50.16300 33.19900
H  24.97500 50.94500 33.68700
H  32.77200 49.50900 28.43400
H  32.37500 47.69900 28.28700
H  31.63100 48.66400 29.49900
H  34.09600 49.01200 26.00200
H  33.85900 47.70800 24.69400
H  33.24800 47.39000 26.29600
H  27.85700 49.51900 21.71300
H  25.83300 51.59500 21.90600
H  28.98400 51.23800 20.74800
H  29.12800 51.82700 22.40700
H  27.68000 52.35800 21.35700
H  24.73400 48.96300 22.76000
H  25.84300 48.78700 21.39500
H  24.53400 49.80000 19.82800
H  23.77900 50.86900 20.95500
H  23.17600 49.29300 20.89200
H  21.13500 53.13800 25.94900
H  21.51100 52.16600 24.68300
H  22.22800 53.85500 24.69700
H  22.84500 51.24200 30.58500
H  24.76300 53.22600 33.76100
H  23.60300 54.50800 33.41000
H  25.11500 54.54700 32.68200
Mg 10.08200 47.30300 25.42300
C  8.17100 47.30900 28.38200
C  12.55400 48.97500 27.14200
C  11.86900 47.06500 22.66300
C  7.11900 46.60300 23.69400
N  10.33000 47.92500 27.60900
C  9.47400 47.81300 28.62400
C  9.95500 48.48200 29.90300
C  11.12700 49.39600 29.31700
C  11.35100 48.76600 27.90400
C  10.85000 50.90700 29.24200
C  10.54800 47.37300 30.91600
C  10.30200 47.34100 32.43500
H  10.51000 45.98700 33.26000
N  12.01200 47.92000 24.98300
C  12.92800 48.46700 25.85200
C  14.19600 48.49200 25.16900
C  14.01400 47.87300 23.90700
C  12.57100 47.59600 23.76700
C  15.43400 48.82900 25.81800
C  14.98400 47.63600 22.76100
O  14.61800 47.29100 21.68700
C  16.38900 47.99300 22.95200
N  9.52700 47.08000 23.43000
C  10.46900 47.00800 22.46200
C  9.92100 46.47300 21.17400
C  8.42400 46.30200 21.49700
C  8.32300 46.70800 22.91300
C  10.13900 47.38400 19.90400
C  7.77800 44.90900 21.20500
C  6.35400 45.04700 20.58800
N  8.06300 46.90000 25.87100
C  7.01000 46.62000 25.07300
C  5.81800 46.40200 25.84200
C  6.25000 46.59200 27.17900
C  7.59600 46.96000 27.12800
C  4.49500 46.13700 25.31800
C  5.80100 46.56200 28.57100
O  4.70000 46.25100 29.05900
C  7.04000 46.99500 29.43500
C  7.41600 45.87900 30.38000
O  8.21300 44.96200 30.14800
O  6.77300 46.04900 31.60200
C  6.93600 44.99400 32.57500
H  13.35700 49.48400 27.68000
H  12.43700 46.69200 21.80900
H  6.16500 46.34100 23.23300
H  9.09600 49.01300 30.31300
H  12.03800 49.42300 29.91500
H  9.83400 51.03700 29.61700
H  10.93100 51.11900 28.17600
H  11.44500 51.55200 29.88900
H  11.63700 47.36700 30.85500
H  10.31200 46.37400 30.54900
H  9.23300 47.52800 32.54300
H  10.77700 48.20400 32.90100
H  16.12800 47.99000 25.87400
H  15.26900 49.19300 26.83200
H  15.86700 49.74000 25.40500
H  16.88100 47.19300 23.50400
H  16.50600 48.95700 23.44700
H  16.80600 47.95800 21.94600
H  10.44400 45.55800 20.89500
H  7.86200 47.05500 20.94400
H  10.46500 48.38400 20.18900
H  9.23100 47.57300 19.33200
H  10.98300 47.05900 19.29500
H  7.90900 44.31700 22.11100
H  8.35100 44.41100 20.42400
H  5.65100 44.26700 20.88000
H  6.26400 44.92200 19.50900
H  5.89200 46.02200 20.74200
H  4.63600 45.73400 24.31500
H  3.96200 47.08800 25.30900
H  4.02100 45.37900 25.94200
H  6.70200 47.84400 30.02900
H  7.14200 45.28600 33.60500
H  7.77500 44.31100 32.44500
H  6.00500 44.43400 32.65500

