158

Mg 41.01300 9.22600 29.13000
C  42.95800 10.60100 31.69100
C  38.90200 7.91900 31.38300
C  39.42100 7.88000 26.61100
C  43.72300 10.02900 26.92800
N  40.95800 9.30700 31.32900
C  41.77600 10.01300 32.12400
C  41.33400 9.92900 33.58300
C  40.05500 9.01200 33.53300
C  39.96500 8.62300 31.99500
C  40.04800 7.73500 34.42100
C  41.32900 11.24100 34.39000
C  40.33700 11.34500 35.51400
H  41.03300 11.67100 36.85000
N  39.40300 8.05300 29.04500
C  38.57900 7.63600 30.03700
C  37.41800 7.02700 29.50800
C  37.49600 7.19300 28.11500
C  38.82100 7.68300 27.86500
C  36.35200 6.45000 30.39000
C  36.49300 6.99400 27.10700
O  36.77200 7.33800 25.99300
C  35.10500 6.51100 27.32100
N  41.65600 8.66200 27.09100
C  40.69400 8.26000 26.23200
C  41.21700 8.11500 24.80400
C  42.32900 9.22900 24.85300
C  42.60000 9.34200 26.34100
C  41.79400 6.70900 24.42100
C  41.93200 10.65600 24.28900
C  40.44200 11.07100 24.36000
N  42.95600 10.11200 29.22100
C  43.92200 10.35400 28.28400
C  45.05800 11.06500 28.87700
C  44.74500 11.14800 30.24300
C  43.45000 10.54700 30.37300
C  46.27200 11.45100 28.16400
C  45.10300 11.72400 31.47400
O  46.06000 12.42400 31.81000
C  43.96300 11.33000 32.55600
C  44.56500 10.36500 33.42300
O  45.07100 9.32700 33.02800
O  44.58800 10.85400 34.70000
C  45.34400 10.02100 35.65500
H  38.10700 7.85600 32.12900
H  38.88900 7.49400 25.73900
H  44.48300 10.37300 26.22300
H  42.17400 9.45700 34.09300
H  39.21600 9.66900 33.75900
H  39.00900 7.40900 34.46000
H  40.63700 7.90200 35.32300
H  40.59200 6.94200 33.90700
H  41.05100 11.89500 33.56300
H  42.29200 11.62200 34.72900
H  39.85800 10.43000 35.86100
H  39.64000 12.13800 35.24200
H  35.45400 6.31500 29.78700
H  36.13800 7.01300 31.29900
H  36.68600 5.45200 30.67400
H  34.59400 6.65400 26.36900
H  34.49300 7.11600 27.99000
H  34.96600 5.43800 27.45400
H  40.42100 8.21100 24.06500
H  43.13300 8.80400 24.25300
H  41.11000 6.14000 23.79100
H  41.64100 6.15600 25.34700
H  42.81100 6.59500 24.04500
H  42.31500 10.70900 23.27000
H  42.37800 11.53700 24.75000
H  40.28700 11.64000 25.27700
H  39.78900 10.19800 24.34600
H  40.13300 11.77800 23.59100
H  47.15700 11.23500 28.76300
H  46.14500 12.52900 28.05700
H  46.34900 10.98000 27.18400
H  43.66400 12.23300 33.08900
H  45.20400 10.53000 36.60900
H  46.37200 10.06100 35.29500
H  44.91600 9.01900 35.68700
Mg 27.67600 49.82800 26.83200
C  25.54700 50.83700 29.45700
C  30.01600 49.09700 29.13900
C  29.65800 49.18400 24.20400
C  25.19600 50.73200 24.58900
N  27.67800 49.90100 29.14000
C  26.71700 50.28300 30.01000
C  27.17400 50.26800 31.51500
C  28.71400 49.87900 31.30000
C  28.81300 49.60600 29.75300
C  29.71600 50.98600 31.75700
C  26.35500 49.24300 32.28600
C  25.48200 49.76100 33.47400
H  25.30800 48.90200 34.69600
N  29.57300 49.19300 26.69700
C  30.36600 48.94900 27.76700
C  31.62300 48.50600 27.20400
C  31.62200 48.55700 25.77900
C  30.21000 48.95000 25.50000
C  32.75700 48.00500 28.08700
C  32.68900 48.16900 24.68900
O  32.50400 48.29000 23.47000
C  34.04600 47.70800 25.23500
N  27.37800 49.74900 24.59300
C  28.37200 49.47900 23.74600
C  27.96800 49.69000 22.27900
C  26.48400 50.15000 22.36800
C  26.33800 50.24600 23.90600
C  28.77900 50.68500 21.49600
C  25.41800 49.26200 21.62100
C  24.45400 50.03200 20.64100
N  25.81800 50.61500 27.02400
C  24.95900 50.91100 25.98500
C  23.81700 51.58800 26.55400
C  23.96100 51.52800 27.95700
C  25.21600 50.95800 28.12200
C  22.70500 52.18100 25.76900
C  23.31100 51.88500 29.23500
O  22.20200 52.36100 29.44300
C  24.40800 51.42900 30.29400
C  24.75500 52.63800 30.96900
O  25.74400 53.33700 30.71000
O  23.96300 52.83200 32.05700
C  24.34300 53.85300 33.02300
H  30.77900 48.91800 29.90000
H  30.34800 49.03600 23.37100
H  24.33500 50.92700 23.94700
H  27.22400 51.31400 31.81700
H  28.90900 48.93600 31.81100
H  29.21100 51.70600 32.40100
H  30.20100 51.48600 30.91800
H  30.53000 50.53300 32.32400
H  27.02500 48.51100 32.73700
H  25.64400 48.67800 31.68200
H  24.47400 50.02300 33.15500
H  25.92900 50.72200 33.72900
H  32.84100 46.93800 27.87900
H  32.70500 48.08300 29.17300
H  33.72200 48.36500 27.73100
H  34.73300 47.41000 24.44300
H  33.77000 46.92400 25.94100
H  34.48000 48.54400 25.78400
H  28.09700 48.68100 21.88800
H  26.35500 51.15300 21.96000
H  29.55000 51.17600 22.09000
H  28.22500 51.52900 21.08400
H  29.26000 50.07800 20.72800
H  24.72100 48.80300 22.32100
H  25.83000 48.50100 20.95900
H  25.05700 50.87800 20.31100
H  23.61000 50.40100 21.22400
H  24.14200 49.37500 19.82900
H  22.36000 51.56800 24.93700
H  22.98700 53.17500 25.42300
H  21.87200 52.41400 26.43300
H  23.94800 50.73100 30.99400
H  25.09700 54.55000 32.65600
H  24.56300 53.43700 34.00600
H  23.41600 54.42100 33.10600

