158

Mg 17.44600 52.46500 25.58000
C  19.16200 50.89100 28.17600
C  15.32300 53.76600 27.96900
C  15.82700 53.99400 23.12300
C  19.56500 50.94000 23.37900
N  17.20200 52.17400 27.80400
C  18.11700 51.60000 28.62300
C  17.72800 52.04800 30.10300
C  16.36500 52.76600 30.05100
C  16.23600 52.87200 28.49900
C  15.18100 52.08100 30.81100
C  18.92300 52.90700 30.72000
C  19.16000 52.78300 32.25600
H  18.09200 52.07900 33.15500
N  15.67900 53.56500 25.50300
C  15.06100 54.02800 26.62300
C  13.84800 54.74300 26.18500
C  13.92800 54.87900 24.78300
C  15.18300 54.11200 24.42700
C  12.73600 55.05200 27.18400
C  13.03000 55.71700 23.86200
O  13.23400 55.77900 22.63500
C  11.88500 56.56900 24.44300
N  17.46200 52.18900 23.59100
C  16.85500 53.09300 22.77600
C  17.12800 52.94900 21.34600
C  18.53900 52.21800 21.40400
C  18.53200 51.68000 22.86200
C  16.03900 52.12600 20.56000
C  19.78300 52.96300 20.86300
C  20.89600 52.10100 20.39000
N  18.99900 51.13000 25.70200
C  19.84600 50.66100 24.70800
C  20.98300 49.97100 25.24800
C  20.67800 49.95400 26.61500
C  19.47500 50.70400 26.84700
C  22.03000 49.12300 24.40000
C  21.19100 49.59800 27.88500
O  22.18200 49.05900 28.21200
C  20.23400 50.22500 28.99600
C  19.72100 49.19300 29.86500
O  18.95700 48.33900 29.53900
O  20.17600 49.39800 31.14600
C  19.46400 48.43500 32.06400
H  14.77000 54.42400 28.64300
H  15.40500 54.62400 22.33700
H  20.46200 50.83400 22.76500
H  17.58700 51.13700 30.68500
H  16.36000 53.76200 30.49400
H  14.60200 52.71800 31.48100
H  15.62200 51.38000 31.52000
H  14.62300 51.72000 29.94800
H  18.55600 53.92600 30.59400
H  19.78400 52.72300 30.07800
H  19.33300 53.78000 32.66200
H  20.10000 52.34200 32.58600
H  12.98800 55.95400 27.74200
H  12.61800 54.36600 28.02300
H  11.77300 55.17400 26.68800
H  12.28500 57.05100 25.33600
H  11.19100 55.73200 24.50500
H  11.45000 57.31400 23.77700
H  17.34100 53.85800 20.78300
H  18.57700 51.25600 20.89300
H  15.35300 51.77400 21.33100
H  16.55800 51.29900 20.07600
H  15.61000 52.87200 19.89100
H  20.14900 53.52700 21.72100
H  19.38600 53.56900 20.04800
H  20.57500 51.06100 20.32400
H  21.75600 52.27900 21.03600
H  21.02800 52.45100 19.36600
H  21.85100 49.20000 23.32700
H  21.93300 48.07700 24.69100
H  23.06400 49.35800 24.65200
H  20.88900 50.77100 29.67600
H  18.38700 48.60200 32.04500
H  19.82200 48.44400 33.09300
H  19.66900 47.42900 31.69900
Mg -1.38400 34.28100 28.10300
C  -3.16000 32.55700 30.47100
C  -0.26600 36.44300 30.63300
C  0.32200 36.00000 25.64200
C  -2.79600 32.22400 25.57200
N  -1.73700 34.38600 30.28100
C  -2.46400 33.56700 31.03700
C  -2.32400 33.89700 32.56700
C  -1.59700 35.26300 32.55900
C  -1.11700 35.35100 31.07800
C  -2.62700 36.43100 32.90900
C  -1.53000 32.83200 33.42400
C  -2.36300 32.22100 34.57800
H  -1.51600 32.07500 35.84500
N  -0.10700 36.02400 28.12500
C  0.11900 36.83000 29.26500
C  0.98000 37.85500 28.82700
C  1.29900 37.69000 27.47400
C  0.51900 36.55100 26.98800
C  1.33300 38.87000 29.88100
C  2.25800 38.53300 26.56900
O  2.33400 38.31200 25.36400
C  3.03800 39.64700 27.17400
N  -1.22100 34.19800 25.90800
C  -0.38400 34.89600 25.18300
C  -0.44800 34.42300 23.71600
C  -1.18000 33.06000 23.80000
C  -1.79500 33.12700 25.19300
C  -1.14100 35.42300 22.78500
C  -0.39000 31.69400 23.64200
C  0.73000 31.43900 24.68100
N  -2.73100 32.74900 27.98400
C  -3.28000 32.07000 26.94000
C  -4.21400 31.07800 27.39100
C  -4.07800 31.10600 28.79000
C  -3.26000 32.20900 29.09400
C  -5.03900 30.19800 26.57000
C  -4.49500 30.47900 30.06900
O  -5.23600 29.56000 30.39600
C  -3.95900 31.40200 31.15900
C  -5.17800 31.89100 31.95700
O  -6.14800 32.48300 31.41400
O  -5.07700 31.52400 33.24200
C  -6.20000 31.82900 34.17000
H  0.06200 36.98300 31.52300
H  0.98800 36.45000 24.90300
H  -3.20300 31.55000 24.81500
H  -3.37000 33.94900 32.86900
H  -0.76300 35.36000 33.25400
H  -3.01000 36.89200 31.99900
H  -2.02300 37.15400 33.45800
H  -3.42000 36.01000 33.52700
H  -0.59600 33.28100 33.76100
H  -1.25000 32.03000 32.74200
H  -2.76500 31.23900 34.32800
H  -3.14900 32.94500 34.79300
H  0.74600 39.77400 29.71900
H  2.38700 39.07400 29.69000
H  1.19500 38.59400 30.92600
H  3.53300 40.40000 26.56000
H  3.80300 39.19100 27.80200
H  2.30200 40.19600 27.76200
H  0.59200 34.25400 23.43700
H  -2.03200 32.96500 23.12700
H  -0.60700 35.51800 21.84000
H  -1.26200 36.42700 23.19100
H  -2.14500 35.14800 22.46100
H  0.05200 31.74800 22.64700
H  -0.97600 30.77500 23.65300
H  0.89500 30.45400 25.11800
H  0.74300 32.15100 25.50700
H  1.67000 31.62000 24.16000
H  -5.72000 30.76800 25.93800
H  -5.63700 29.68500 27.32400
H  -4.38100 29.52100 26.02600
H  -3.30500 30.88700 31.86300
H  -6.57300 30.91200 34.62700
H  -7.00300 32.37900 33.68100
H  -5.85500 32.49400 34.96200

