158

Mg 35.89700 48.36300 26.21900
C  36.08500 46.51300 29.21700
C  34.33600 50.89500 28.03100
C  35.12300 49.80600 23.30300
C  36.69300 45.50300 24.50700
N  35.30500 48.66100 28.37300
C  35.52400 47.81900 29.40200
C  35.28900 48.45200 30.78500
C  34.49200 49.78200 30.35000
C  34.77500 49.86500 28.83500
C  32.92800 49.88500 30.76400
C  36.62700 48.84600 31.56700
C  36.91500 48.21300 32.90800
H  36.86300 49.23900 34.13800
N  34.91300 50.09500 25.75300
C  34.43500 51.04700 26.63800
C  33.98500 52.16700 25.92200
C  34.09900 51.90500 24.53900
C  34.76000 50.51900 24.45800
C  33.35700 53.40900 26.68500
C  33.67700 52.72500 23.31700
O  33.91100 52.44100 22.17200
C  32.91600 53.99100 23.57900
N  36.01800 47.79500 24.19900
C  35.70900 48.56000 23.13900
C  35.98900 47.93800 21.77400
C  36.56800 46.55600 22.22100
C  36.42400 46.65100 23.72300
C  34.74200 47.85600 20.96900
C  38.11800 46.37100 21.90600
C  38.47000 45.55300 20.71800
N  36.55000 46.41300 26.67000
C  36.79400 45.34300 25.86200
C  37.14200 44.19900 26.72200
C  36.91900 44.70000 28.04200
C  36.46600 45.98300 27.95900
C  37.36100 42.80900 26.20800
C  36.88700 44.23600 29.43200
O  37.16100 43.18300 29.90800
C  36.46500 45.48200 30.25900
C  35.42500 45.16300 31.21600
O  34.21300 45.16400 30.97600
O  35.99800 44.99800 32.49700
C  35.11900 44.95600 33.65300
H  33.90100 51.66600 28.67000
H  34.97100 50.35600 22.37200
H  36.92000 44.68800 23.81700
H  34.63400 47.81400 31.37900
H  34.97500 50.69800 30.69100
H  32.92200 50.57900 31.60500
H  32.62600 48.89200 31.09700
H  32.28100 50.19800 29.94500
H  36.66300 49.92600 31.70900
H  37.43600 48.66200 30.86000
H  37.94400 47.85500 32.86500
H  36.26000 47.35600 33.06700
H  33.47200 54.30700 26.07800
H  33.91800 53.52300 27.61200
H  32.28400 53.34000 26.87000
H  32.03800 53.89500 24.21800
H  32.56200 54.31800 22.60200
H  33.49700 54.77400 24.06700
H  36.72200 48.57600 21.28000
H  35.94900 45.74300 21.84100
H  34.40100 46.83800 20.77900
H  35.08500 48.30700 20.03800
H  33.92800 48.38100 21.46800
H  38.64500 46.00600 22.78800
H  38.55700 47.36000 21.77500
H  38.15200 44.51700 20.83200
H  39.54800 45.44000 20.60300
H  37.91000 45.82200 19.82200
H  36.84400 42.14600 26.90200
H  38.43000 42.59600 26.17700
H  37.01900 42.55700 25.20500
H  37.40100 45.70500 30.77100
H  34.10100 45.15600 33.32000
H  35.40000 45.75800 34.33500
H  35.24500 43.95200 34.05800
Mg -11.77000 38.74700 40.77200
C  -9.90200 35.81900 39.98200
C  -9.12400 40.57400 39.30000
C  -13.71500 41.47800 40.61500
C  -14.40300 36.64900 41.44400
N  -9.72900 38.29700 39.72200
C  -9.23000 37.01600 39.48100
C  -7.97800 37.03700 38.61100
C  -7.66300 38.58900 38.59600
C  -8.88300 39.22300 39.31300
C  -6.33500 38.99300 39.24600
C  -8.22600 36.38500 37.23900
C  -6.96800 35.62800 36.74400
H  -6.39600 36.02300 35.40000
N  -11.38300 40.81400 40.34600
C  -10.22300 41.39900 39.81800
C  -10.47200 42.85500 39.84800
C  -11.80400 43.07200 39.98600
C  -12.38700 41.75700 40.30100
C  -9.32800 43.71200 39.36300
C  -12.53900 44.42600 39.96800
O  -11.78400 45.39600 40.02600
C  -14.02200 44.67800 40.08500
N  -13.72500 39.04500 40.92300
C  -14.27700 40.27700 41.04800
C  -15.84200 40.16600 41.22000
C  -16.05900 38.59800 41.20700
C  -14.61600 38.03400 41.27300
C  -16.56900 40.82900 42.44200
C  -16.75300 38.09400 39.88800
C  -17.59900 36.80200 40.06700
N  -12.11700 36.67900 40.90700
C  -13.19700 35.96200 41.27400
C  -12.92000 34.57800 41.32700
C  -11.66700 34.46500 40.85600
C  -11.19300 35.74700 40.59900
C  -13.93300 33.48900 41.57900
C  -10.59400 33.55300 40.59500
O  -10.56400 32.35200 40.68900
C  -9.38600 34.35700 39.98200
C  -8.32300 34.09500 40.92000
O  -7.54400 33.14900 40.74500
O  -8.07500 35.17800 41.79600
C  -6.89700 35.11500 42.73800
H  -8.47700 41.20200 38.68400
H  -14.45000 42.28500 40.62500
H  -15.27100 36.03600 41.69500
H  -7.27100 36.51300 39.25500
H  -7.57800 38.91000 37.55800
H  -5.58900 39.55200 38.68300
H  -5.83100 38.13400 39.69000
H  -6.55700 39.75400 39.99400
H  -8.60200 37.13100 36.53900
H  -9.07900 35.70800 37.29100
H  -7.19400 34.56500 36.66100
H  -6.13000 35.65300 37.44100
H  -8.32700 43.35900 39.61200
H  -9.36100 44.73400 39.74000
H  -9.36900 43.76400 38.27500
H  -14.27700 45.69500 39.78700
H  -14.33600 44.45800 41.10500
H  -14.68800 44.13400 39.41400
H  -16.28300 40.66900 40.36000
H  -16.67900 38.23000 42.02500
H  -17.22300 41.64200 42.12500
H  -15.80900 41.24600 43.10300
H  -17.15900 40.08800 42.98300
H  -15.93100 37.91500 39.19400
H  -17.42900 38.82400 39.44300
H  -17.89400 36.63700 41.10300
H  -17.03800 35.99600 39.59400
H  -18.59900 36.84300 39.63700
H  -14.72300 33.55300 40.83000
H  -14.24900 33.58500 42.61800
H  -13.60200 32.46400 41.41100
H  -9.05500 33.92900 39.03600
H  -6.33000 34.20500 42.54400
H  -7.22700 35.29400 43.76100
H  -6.21700 35.89600 42.39700

