158

Mg 35.84200 1.79900 29.59500
C  33.51100 2.75500 32.09300
C  38.22300 1.63800 32.02700
C  38.11100 1.16900 27.24900
C  33.38400 2.48500 27.22900
N  35.74800 2.05300 31.82400
C  34.70500 2.42500 32.63800
C  35.13300 2.58700 34.12600
C  36.70400 2.46700 33.98600
C  36.90600 2.01200 32.56300
C  37.49500 3.73600 34.42900
C  34.53100 1.41800 34.96800
C  34.30700 1.65800 36.49200
H  35.02400 2.86500 37.17900
N  37.88800 1.38700 29.66400
C  38.69700 1.29200 30.74400
C  40.06100 0.95300 30.32200
C  40.09800 0.85200 28.90500
C  38.66500 1.10900 28.51800
C  41.14200 0.92900 31.43200
C  41.28600 0.52300 27.98700
O  41.17000 0.56000 26.77100
C  42.65500 0.20300 28.48900
N  35.78500 1.90000 27.59500
C  36.81300 1.51300 26.76100
C  36.43700 1.49000 25.27600
C  34.86100 1.57500 25.31700
C  34.62200 2.11000 26.79800
C  37.01500 2.74800 24.59100
C  34.09000 0.24200 24.89700
C  33.84100 -0.72700 26.03900
N  33.88100 2.35500 29.61800
C  33.02200 2.63200 28.59200
C  31.76900 3.05100 29.06400
C  31.89000 3.10800 30.45500
C  33.18700 2.67500 30.71600
C  30.55400 3.33500 28.23400
C  31.19800 3.34400 31.71200
O  29.96700 3.46700 31.95500
C  32.25200 3.15700 32.82700
C  32.41100 4.42700 33.65500
O  33.13000 5.36800 33.36800
O  31.58800 4.33700 34.79700
C  31.63900 5.51800 35.60000
H  38.95600 1.52300 32.82800
H  38.76500 0.94500 26.40400
H  32.54400 2.57600 26.53700
H  34.92500 3.55900 34.57400
H  37.02700 1.60700 34.57400
H  36.89400 4.40900 35.04100
H  37.96900 4.29900 33.62400
H  38.28500 3.44100 35.11900
H  35.22400 0.57900 34.90300
H  33.63700 1.12500 34.41800
H  34.70900 0.73600 36.91200
H  33.23800 1.76500 36.67600
H  42.05900 0.43900 31.10500
H  40.74000 0.50200 32.35100
H  41.31800 1.97200 31.69500
H  42.94600 1.04300 29.12000
H  43.33900 0.21900 27.64100
H  42.66200 -0.78800 28.94300
H  36.76500 0.51100 24.92600
H  34.38600 2.25900 24.61400
H  37.39700 2.42900 23.62100
H  37.76600 3.14600 25.27300
H  36.20600 3.46100 24.43300
H  34.81000 -0.15500 24.18200
H  33.15700 0.48300 24.38800
H  34.78800 -1.25700 26.14000
H  33.09800 -1.46900 25.74800
H  33.65800 -0.25800 27.00600
H  30.23100 2.44200 27.70000
H  30.75700 4.17800 27.57300
H  29.79800 3.78400 28.87900
H  31.88700 2.30800 33.40600
H  32.61300 5.74000 36.03500
H  31.02200 5.40800 36.49200
H  31.46100 6.46000 35.08100
Mg -1.90500 34.21000 25.90500
C  -2.92500 32.42800 28.78300
C  -0.29600 36.43200 27.79400
C  -1.58200 36.13000 23.21400
C  -3.36700 31.72100 24.05400
N  -1.87100 34.43700 28.11100
C  -2.24300 33.60500 29.09800
C  -1.69700 34.04600 30.45000
C  -1.01400 35.42600 30.04400
C  -1.01400 35.46500 28.51200
C  -1.56300 36.74800 30.75000
C  -0.67400 32.90200 30.89900
C  -1.10600 32.31800 32.31600
H  -0.00300 32.24700 33.37100
N  -1.08300 36.09300 25.58700
C  -0.38000 36.78000 26.48100
C  0.38100 37.79700 25.75600
C  -0.06700 37.85100 24.48000
C  -1.00800 36.68000 24.37500
C  1.35500 38.64900 26.50600
C  0.33000 38.79900 23.35100
O  -0.06600 38.72100 22.21000
C  0.97700 40.16200 23.67800
N  -2.27400 33.86700 23.87100
C  -2.19900 34.86000 23.00500
C  -2.60400 34.32200 21.57900
C  -2.85100 32.77600 21.85700
C  -2.83000 32.78500 23.37100
C  -3.64000 35.00000 20.79300
C  -1.76100 31.80100 21.30500
C  -0.30500 31.99100 21.80100
N  -3.04200 32.50600 26.30000
C  -3.50800 31.54100 25.44900
C  -4.27800 30.55000 26.16600
C  -4.12200 30.80100 27.51500
C  -3.27100 31.99000 27.49800
C  -4.99300 29.40100 25.53200
C  -4.42300 30.40900 28.88000
O  -5.09800 29.50600 29.37200
C  -3.52200 31.34500 29.72200
C  -4.43600 31.99200 30.73600
O  -5.10200 32.98900 30.55900
O  -4.39300 31.27000 31.93200
C  -4.88100 31.84200 33.20200
H  0.31700 37.00800 28.49000
H  -1.38300 36.76000 22.34500
H  -3.77300 31.01000 23.33200
H  -2.42600 34.26500 31.23000
H  0.05500 35.42000 30.25400
H  -2.08500 36.39700 31.64000
H  -2.28800 37.18200 30.06200
H  -0.81200 37.50000 30.99600
H  0.28100 33.41200 31.02100
H  -0.51200 32.07200 30.21200
H  -1.47800 31.30800 32.14300
H  -1.83600 32.98900 32.76800
H  0.90600 39.64000 26.57500
H  2.34200 38.73400 26.05200
H  1.41100 38.35400 27.55400
H  2.04700 40.00900 23.82000
H  0.54300 40.69400 24.52500
H  0.72000 40.80900 22.84000
H  -1.65100 34.37900 21.05400
H  -3.82700 32.42400 21.52300
H  -4.08300 35.87800 21.26200
H  -4.38200 34.26600 20.48000
H  -3.19000 35.32700 19.85600
H  -1.88600 31.77500 20.22200
H  -2.03100 30.76200 21.49400
H  -0.09900 32.98100 22.20800
H  0.30000 31.87700 20.90100
H  0.02000 31.30300 22.58100
H  -4.47800 29.17500 24.59900
H  -6.02500 29.70400 25.35600
H  -4.97000 28.53000 26.18700
H  -2.86900 30.72500 30.33600
H  -4.08600 32.02100 33.92500
H  -5.65400 31.24400 33.68600
H  -5.34000 32.82400 33.08800

