158

Mg 46.45700 24.82900 28.42900
C  47.51700 27.23400 30.93000
C  45.17900 22.94600 30.92800
C  45.76600 22.45600 26.04400
C  48.33200 26.73100 26.13800
N  46.21200 25.19000 30.64600
C  46.76000 26.18000 31.47600
C  46.11900 26.03900 32.84100
C  45.58100 24.53500 32.92100
C  45.66900 24.17600 31.42200
C  46.28900 23.54500 34.01700
C  44.96200 27.07100 33.13800
C  44.99700 27.80800 34.56200
H  45.74800 27.11300 35.68000
N  45.59600 22.97800 28.48700
C  45.11200 22.39000 29.64100
C  44.57400 21.13900 29.35800
C  44.57800 20.98400 27.92400
C  45.28700 22.15600 27.40300
C  43.83400 20.23300 30.39900
C  44.04400 19.93600 26.96800
O  44.00800 20.09800 25.76200
C  43.42400 18.64300 27.43400
N  47.05000 24.58700 26.45700
C  46.48100 23.61200 25.69900
C  46.94000 23.84300 24.24500
C  47.66800 25.25800 24.16900
C  47.66600 25.54900 25.68800
C  47.71400 22.65000 23.60500
C  46.77800 26.36000 23.45000
C  47.49300 26.92500 22.22000
N  47.61200 26.68900 28.46400
C  48.33700 27.29500 27.40900
C  48.87600 28.54400 27.88400
C  48.58800 28.57100 29.26300
C  47.85700 27.37300 29.59600
C  49.64700 29.48900 26.95400
C  48.87500 29.25900 30.50700
O  49.66200 30.19600 30.72800
C  48.17100 28.40200 31.58900
C  49.21900 28.12600 32.61100
O  50.05300 27.22500 32.54400
O  48.99900 28.85100 33.76500
C  49.83600 28.57500 34.97500
H  44.81000 22.27200 31.70400
H  45.51500 21.82500 25.18900
H  48.78600 27.24800 25.29000
H  46.96900 26.12300 33.51800
H  44.51800 24.50500 33.15800
H  45.56100 23.23100 34.76500
H  47.17800 24.09500 34.32600
H  46.68400 22.71500 33.43200
H  43.97100 26.65900 32.94800
H  45.14200 27.83800 32.38500
H  43.98700 27.81800 34.97200
H  45.25600 28.85200 34.38700
H  42.79800 20.06100 30.10700
H  44.01400 20.55700 31.42500
H  44.17500 19.21700 30.20500
H  44.11600 18.08100 28.06200
H  43.18400 18.08000 26.53200
H  42.50800 18.85800 27.98400
H  45.99500 23.86000 23.70300
H  48.69600 25.23800 23.80700
H  48.29400 22.19300 24.40700
H  48.33500 23.07700 22.81700
H  47.00600 21.96300 23.14300
H  46.55900 27.20400 24.10400
H  45.80500 25.95300 23.17700
H  47.31000 26.30200 21.34500
H  48.56200 26.87500 22.42600
H  47.25700 27.98200 22.10600
H  48.95800 29.86700 26.19900
H  50.33200 28.78800 26.47600
H  50.13000 30.31400 27.47600
H  47.36300 28.97100 32.04900
H  50.24300 29.53500 35.29100
H  50.63600 27.83700 34.90600
H  49.17800 28.31300 35.80400
Mg 37.05200 49.57300 24.96200
C  37.39800 47.66800 27.89600
C  35.61300 52.05700 26.85700
C  36.18400 51.02600 22.06000
C  38.16100 46.79600 23.16400
N  36.62400 49.89500 27.17100
C  36.86800 48.95800 28.17800
C  36.58000 49.59300 29.53600
C  36.00000 51.04000 29.18100
C  36.07300 51.02300 27.64100
C  34.52500 51.39900 29.65700
C  37.83600 49.59200 30.47900
C  37.69800 48.88000 31.86300
H  36.48700 49.24500 32.74400
N  36.15600 51.36500 24.51000
C  35.65900 52.24200 25.42700
C  35.02100 53.37100 24.72800
C  35.25300 53.14700 23.31200
C  35.86400 51.81800 23.22500
C  34.40300 54.46400 25.44100
C  34.81300 53.96800 22.14900
O  35.12200 53.66400 20.97100
C  34.03600 55.24000 22.38200
N  37.20000 49.04500 22.89600
C  36.94200 49.89300 21.88000
C  37.14000 49.14200 20.48600
C  38.02800 47.96000 20.89700
C  37.80400 47.92700 22.41000
C  35.90900 48.81400 19.67200
C  39.50100 48.04800 20.51000
C  40.02500 46.75200 19.81900
N  37.55300 47.59900 25.36600
C  38.04500 46.60800 24.59400
C  38.48300 45.46800 25.36100
C  38.16900 45.83000 26.69600
C  37.73400 47.17300 26.64100
C  39.04800 44.26200 24.77500
C  38.23000 45.36700 28.05100
O  38.44500 44.30000 28.58200
C  37.81200 46.60700 28.88200
C  36.73700 46.21900 29.78800
O  35.55400 46.47800 29.62800
O  37.11900 45.47500 30.87500
C  36.06700 45.19900 31.90200
H  35.09200 52.80200 27.46200
H  35.91400 51.46500 21.09800
H  38.66100 46.09900 22.48900
H  35.77300 49.08800 30.06600
H  36.61100 51.81500 29.64400
H  34.45700 52.41400 30.05000
H  34.33000 50.80900 30.55300
H  33.78900 51.21000 28.87600
H  38.08200 50.65200 30.53100
H  38.58200 49.02800 29.92000
H  38.63400 49.04300 32.39800
H  37.65300 47.80900 31.66000
H  34.12700 54.30500 26.48300
H  33.48400 54.80100 24.96100
H  35.13900 55.26600 25.39100
H  34.30800 55.86200 23.23500
H  32.97800 55.14000 22.62700
H  34.10600 55.79300 21.44600
H  37.69800 49.84700 19.87000
H  37.55000 47.05400 20.52400
H  35.04000 49.41900 19.93200
H  35.55200 47.78600 19.60900
H  36.20800 48.97400 18.63600
H  40.07900 48.27300 21.40600
H  39.60900 48.72800 19.66500
H  39.33300 45.91200 19.88200
H  40.87100 46.48600 20.45300
H  40.23700 46.92400 18.76400
H  38.19600 43.61000 24.58800
H  39.57400 43.85900 25.64100
H  39.59300 44.39700 23.84100
H  38.75600 46.81000 29.38600
H  35.13000 44.72500 31.61100
H  35.70600 46.17900 32.21200
H  36.44000 44.58000 32.71900

