158

Mg 49.57300 45.66300 43.27800
C  46.15500 46.09500 42.34900
C  49.32500 42.35600 42.18200
C  52.88500 45.58200 43.17100
C  49.70300 49.19800 43.82600
N  47.88600 44.36200 42.53700
C  46.61600 44.76600 42.19000
C  45.77900 43.58900 41.59800
C  46.64800 42.31900 41.90600
C  48.06800 42.99400 42.22900
C  46.28000 41.34500 43.11200
C  45.39400 43.79300 40.07800
C  46.49800 43.94000 39.04600
H  46.34800 42.92500 37.84700
N  50.91500 44.15900 42.82100
C  50.60600 42.90500 42.37100
C  51.87500 42.16900 42.26600
C  52.93800 43.01700 42.50600
C  52.27900 44.34700 42.74500
C  51.84900 40.63100 42.02200
C  54.43000 42.59700 42.47600
O  54.72700 41.39400 42.33100
C  55.56400 43.67800 42.65600
N  50.95800 47.18100 43.40000
C  52.29500 46.80700 43.45900
C  53.22100 48.07900 43.58100
C  52.22500 49.20900 43.83900
C  50.84700 48.47900 43.68500
C  54.38100 47.93600 44.58900
C  52.35200 50.51700 42.91400
C  52.65900 51.85100 43.60400
N  48.20100 47.34800 43.23200
C  48.40300 48.69500 43.52900
C  47.16800 49.43200 43.23100
C  46.25100 48.43300 42.82600
C  46.93800 47.19300 42.81600
C  47.12400 50.95400 43.31200
C  44.88700 48.21100 42.33500
O  43.94500 48.97700 42.04400
C  44.80200 46.68800 42.05000
C  43.73800 46.05700 42.81200
O  42.91100 45.28400 42.33600
O  43.58200 46.52700 44.06900
C  42.50000 45.97400 44.82100
H  49.20200 41.29200 41.97000
H  53.97500 45.62900 43.14900
H  49.67800 50.22600 44.19400
H  44.84000 43.42600 42.12800
H  46.86300 41.67500 41.05300
H  46.59300 40.33400 42.84900
H  45.19100 41.39300 43.11800
H  46.78900 41.75000 43.98600
H  44.79200 44.67300 39.85100
H  44.73100 42.93200 39.98200
H  47.47800 43.74900 39.48300
H  46.58300 44.94400 38.62900
H  52.61500 40.34100 41.30200
H  50.90000 40.17900 41.73700
H  52.15600 40.20900 42.97900
H  55.43700 44.45700 41.90400
H  56.46600 43.10100 42.45300
H  55.54400 44.07400 43.67100
H  53.60400 48.18700 42.56600
H  52.32300 49.57500 44.86000
H  55.25500 47.68700 43.98700
H  54.17100 47.04300 45.17800
H  54.44200 48.77600 45.28100
H  51.40000 50.57700 42.38700
H  53.09200 50.46300 42.11500
H  51.70700 52.38100 43.63200
H  53.29200 52.52500 43.02500
H  53.00200 51.67500 44.62400
H  47.27400 51.37300 44.30700
H  46.12900 51.31300 43.04800
H  47.93000 51.17300 42.61200
H  44.53700 46.66700 40.99300
H  41.72700 46.73800 44.90200
H  42.83900 45.70100 45.82000
H  41.83200 45.17000 44.51200
Mg -11.72800 37.29500 42.92100
C  -9.60700 35.04600 41.14600
C  -10.12500 39.96700 41.35900
C  -14.40500 39.27300 43.41800
C  -13.75100 34.46000 43.75100
N  -10.15400 37.41900 41.46700
C  -9.30900 36.40100 40.92800
C  -8.06500 36.98000 40.20700
C  -8.04300 38.39500 40.76300
C  -9.55500 38.66300 41.19000
C  -7.06700 38.54400 42.02600
C  -8.00500 36.95900 38.65900
C  -6.60300 37.19200 37.98600
H  -6.05700 36.14400 37.02600
N  -12.15600 39.39500 42.62000
C  -11.33900 40.25300 41.99100
C  -11.95100 41.54800 41.98800
C  -13.13500 41.45700 42.74600
C  -13.29500 39.95500 42.91300
C  -11.36800 42.89500 41.42100
C  -14.18500 42.54900 43.03500
O  -13.96200 43.70700 42.65700
C  -15.40500 42.21100 43.82100
N  -13.83800 36.94200 43.40600
C  -14.66800 37.91400 43.66000
C  -15.95700 37.44600 44.41400
C  -15.67700 35.91000 44.61200
C  -14.30900 35.68900 43.91900
C  -16.26400 38.26200 45.74600
C  -16.74500 34.99400 44.13200
C  -17.58700 34.31300 45.21300
N  -11.58600 35.15800 42.74400
C  -12.41400 34.15200 43.24500
C  -11.75500 32.86400 43.00500
C  -10.61300 33.19700 42.26700
C  -10.61200 34.56700 42.06200
C  -12.20300 31.58100 43.51000
C  -9.41300 32.61900 41.64600
O  -9.06900 31.42300 41.61400
C  -8.70600 33.78200 40.84300
C  -7.28100 33.87900 41.08300
O  -6.42900 33.44800 40.30900
O  -7.13500 34.32800 42.35500
C  -5.76300 34.13800 42.94000
H  -9.45300 40.72000 40.94100
H  -15.36800 39.72400 43.66400
H  -14.30900 33.60200 44.13000
H  -7.17800 36.52700 40.64900
H  -7.73500 39.06400 39.96000
H  -6.26300 39.22500 41.74700
H  -6.63800 37.60600 42.37800
H  -7.66800 38.99900 42.81400
H  -8.84500 37.50600 38.23100
H  -8.13600 35.88900 38.49500
H  -5.87600 37.06800 38.78900
H  -6.79800 38.14400 37.49400
H  -11.06400 43.56900 42.22100
H  -12.00300 43.44300 40.72500
H  -10.49000 42.61500 40.83800
H  -15.82600 43.13600 44.21400
H  -15.17600 41.64700 44.72500
H  -16.10600 41.73200 43.13700
H  -16.66300 37.69700 43.62300
H  -15.45900 35.78000 45.67200
H  -16.92900 37.61800 46.32200
H  -16.78700 39.17000 45.44600
H  -15.33600 38.50900 46.26200
H  -16.36200 34.28500 43.39800
H  -17.35300 35.63300 43.49200
H  -18.63500 34.61200 45.18100
H  -17.13900 34.34600 46.20600
H  -17.72400 33.24600 45.03600
H  -11.30200 31.05200 43.82200
H  -12.71600 31.07800 42.69100
H  -12.86400 31.70000 44.36900
H  -8.82400 33.64900 39.76700
H  -5.83200 34.67700 43.88600
H  -4.99800 34.61400 42.32700
H  -5.55500 33.12000 43.27000

