158

Mg 25.41100 1.40700 30.20700
C  27.71800 0.94300 32.92200
C  22.87600 1.72300 32.51300
C  23.27600 1.53700 27.65700
C  28.02600 0.55400 28.07100
N  25.33500 1.28700 32.51100
C  26.40400 1.26300 33.37500
C  25.92900 1.57300 34.84900
C  24.39700 1.70500 34.68100
C  24.14500 1.59000 33.14300
C  23.79600 0.48500 35.41100
C  26.68300 2.87100 35.49000
C  27.10300 2.85700 36.98700
H  26.39500 3.93300 37.88300
N  23.37200 1.59900 30.11500
C  22.52400 1.76600 31.18700
C  21.15200 1.93900 30.65000
C  21.23400 1.69000 29.27900
C  22.65900 1.54700 28.95500
C  19.86700 2.27600 31.37800
C  20.20000 1.66000 28.23900
O  20.45700 1.28900 27.13800
C  18.77100 1.91900 28.62600
N  25.49000 0.85800 28.12200
C  24.55600 1.30700 27.24400
C  25.11200 1.20600 25.77200
C  26.67000 1.06100 25.93900
C  26.78300 0.86400 27.47700
C  24.50200 0.22600 24.72900
C  27.52400 2.14600 25.31300
C  27.59400 3.59100 26.02700
N  27.43100 0.88300 30.38200
C  28.41700 0.56000 29.40900
C  29.72600 0.35100 29.99200
C  29.44500 0.51100 31.37400
C  28.11600 0.80800 31.52700
C  31.07400 -0.00200 29.31200
C  30.12600 0.46500 32.63600
O  31.29700 0.34800 32.92800
C  29.03800 0.91400 33.68200
C  28.89100 -0.14600 34.88100
O  28.10300 -1.06300 34.90500
O  29.64000 0.22800 35.96300
C  29.22300 -0.49900 37.18300
H  21.97900 1.88400 33.11400
H  22.61500 1.83000 26.83800
H  28.90100 0.49600 27.42000
H  26.14700 0.69000 35.45000
H  23.84300 2.51200 35.16200
H  24.36400 0.36900 36.33400
H  23.80900 -0.30700 34.66200
H  22.77100 0.67100 35.73400
H  25.98800 3.71000 35.51100
H  27.60300 3.21900 35.02000
H  28.14200 3.17800 37.05000
H  26.95600 1.89800 37.48500
H  19.29600 1.35100 31.29200
H  19.40000 3.17100 30.96800
H  19.93000 2.38200 32.46100
H  18.22300 1.85800 27.68500
H  18.74300 2.90400 29.09100
H  18.35600 1.14900 29.27600
H  24.94600 2.20800 25.37600
H  27.21700 0.21400 25.52300
H  24.00800 0.67800 23.86900
H  23.73700 -0.44800 25.11400
H  25.22000 -0.51200 24.37100
H  27.26800 2.32000 24.26700
H  28.57500 1.85600 25.32300
H  26.94800 3.55400 26.90400
H  27.19100 4.25400 25.26100
H  28.61900 3.86100 26.27900
H  31.00400 -0.46700 28.32800
H  31.50700 -0.71200 30.01700
H  31.74600 0.84300 29.16300
H  29.32400 1.90100 34.04300
H  29.68300 -1.47900 37.31400
H  28.14900 -0.63700 37.30400
H  29.56200 0.09400 38.03200
Mg 43.30500 42.44400 26.20300
C  41.84300 44.71700 28.72200
C  44.21400 40.48700 28.81500
C  44.39900 40.33500 23.90600
C  42.21800 44.76600 23.81200
N  43.10600 42.68000 28.48900
C  42.46800 43.60400 29.27900
C  42.54800 43.26800 30.77200
C  43.63400 42.09100 30.76400
C  43.68800 41.71700 29.26800
C  44.97000 42.46100 31.38200
C  41.19700 42.69200 31.14700
C  40.68600 43.05700 32.59900
H  41.75100 43.27300 33.78900
N  44.18400 40.63400 26.33700
C  44.37600 39.96100 27.49100
C  44.91600 38.67000 27.12400
C  44.86100 38.55200 25.77100
C  44.48500 39.85100 25.28100
C  45.48200 37.65500 28.02500
C  45.14700 37.30100 24.86700
O  45.13800 37.41000 23.63100
C  45.18800 35.90500 25.32000
N  43.51200 42.63500 24.22200
C  43.90700 41.57700 23.45900
C  43.81900 41.95600 21.97400
C  43.01300 43.27100 21.93800
C  42.85300 43.59900 23.43900
C  45.22600 41.97300 21.30800
C  41.64900 43.19300 21.19100
C  40.69400 42.12800 21.85400
N  42.37200 44.39400 26.23700
C  42.09200 45.18300 25.14700
C  41.64000 46.44400 25.60300
C  41.44600 46.34500 26.98800
C  41.91800 45.04000 27.35800
C  41.35400 47.70200 24.83400
C  41.02400 46.96100 28.21300
O  40.49300 48.04300 28.31600
C  41.16500 45.87400 29.33400
C  42.05100 46.49100 30.40900
O  43.24800 46.68200 30.19900
O  41.38000 46.68000 31.59800
C  42.23300 47.03000 32.70000
H  44.62300 39.92200 29.65500
H  44.56100 39.63200 23.08600
H  41.84800 45.26500 22.91400
H  42.80500 44.13500 31.38000
H  43.38500 41.13500 31.22600
H  45.84200 42.34300 30.73900
H  45.16100 41.86900 32.27700
H  45.01500 43.51300 31.66400
H  41.21800 41.61200 30.99800
H  40.51800 43.23200 30.48700
H  39.93200 42.32200 32.88000
H  40.08100 43.96300 32.61000
H  45.69900 38.13100 28.98100
H  46.42600 37.26300 27.64700
H  44.65500 36.97400 28.23000
H  45.52500 35.16900 24.59000
H  44.25800 35.61500 25.81100
H  46.00600 35.87800 26.04000
H  43.32200 41.13600 21.45700
H  43.69200 43.97000 21.45000
H  46.12400 42.14200 21.90200
H  45.18500 42.76200 20.55800
H  45.28700 41.06700 20.70500
H  41.81300 42.74600 20.21100
H  41.20000 44.17200 21.02400
H  41.12900 41.63900 22.72600
H  40.27000 41.29600 21.29300
H  39.72300 42.55400 22.10600
H  41.45000 47.50100 23.76700
H  42.04500 48.51000 25.07200
H  40.43700 48.23400 25.08800
H  40.14500 45.72200 29.68600
H  42.86600 46.18200 32.96100
H  41.52400 47.30500 33.48100
H  42.91300 47.84100 32.44200

