158

Mg 1.77500 -1.05300 43.97900
C  5.13100 -0.40200 43.59100
C  0.95900 1.95500 42.26000
C  -1.41400 -1.81000 43.94100
C  2.61400 -4.29400 44.87000
N  2.94500 0.61000 43.05000
C  4.30200 0.60900 43.05100
C  4.74000 1.85800 42.30600
C  3.42100 2.81200 42.23100
C  2.32200 1.80300 42.60800
C  3.39500 3.93100 43.32000
C  5.33300 1.46600 40.89700
C  6.23800 2.58500 40.33000
H  5.67900 3.29100 39.09700
N  -0.03400 -0.05300 43.35200
C  -0.11900 1.11400 42.63100
C  -1.47300 1.43400 42.29000
C  -2.29500 0.40500 42.77800
C  -1.30900 -0.52600 43.42200
C  -1.79700 2.72000 41.55000
C  -3.78500 0.26300 42.65200
O  -4.46100 1.07600 42.06300
C  -4.49800 -0.68800 43.57500
N  0.73500 -2.78000 44.23200
C  -0.59900 -2.83600 44.25400
C  -1.21300 -4.20100 44.78500
C  0.08600 -5.03700 45.11000
C  1.26100 -4.01300 44.68800
C  -2.24500 -4.09700 45.96100
C  0.31100 -6.39200 44.53900
C  1.00800 -7.46500 45.45400
N  3.47200 -2.10300 44.31400
C  3.67100 -3.38900 44.67800
C  5.10900 -3.69900 44.92600
C  5.72400 -2.52900 44.47400
C  4.68200 -1.62000 44.13300
C  5.69800 -4.96000 45.34000
C  6.98800 -1.83300 44.28300
O  8.11400 -2.21300 44.58900
C  6.64000 -0.44000 43.65400
C  7.16800 0.74000 44.47200
O  7.08000 0.91500 45.67700
O  7.71100 1.72600 43.66600
C  8.53300 2.80600 44.35600
H  0.70100 2.87100 41.72400
H  -2.45400 -2.14200 43.90100
H  2.90900 -5.27900 45.23800
H  5.58800 2.27600 42.84800
H  3.26800 3.18600 41.21900
H  4.29700 3.98100 43.92900
H  2.53300 3.79200 43.97300
H  3.34300 4.88400 42.79300
H  4.48900 1.20800 40.25800
H  5.89900 0.53800 40.97100
H  7.26300 2.25900 40.15300
H  6.31000 3.35700 41.09600
H  -1.16400 2.81900 40.66800
H  -1.54600 3.59000 42.15700
H  -2.87000 2.84700 41.40600
H  -5.54400 -0.39900 43.67100
H  -4.05100 -0.71400 44.56900
H  -4.36000 -1.61600 43.02000
H  -1.80500 -4.64100 43.98300
H  0.17400 -5.12400 46.19300
H  -1.99100 -4.81800 46.73800
H  -3.25000 -4.16900 45.54500
H  -2.25300 -3.11300 46.43100
H  0.90300 -6.31700 43.62600
H  -0.68200 -6.71600 44.22900
H  0.37100 -8.35000 45.43700
H  1.17000 -7.26400 46.51300
H  2.00300 -7.72800 45.09600
H  6.67000 -4.86000 45.82300
H  5.89000 -5.52500 44.42700
H  5.07200 -5.63500 45.92200
H  7.18100 -0.32600 42.71400
H  8.31900 3.78600 43.93000
H  9.60700 2.67500 44.22000
H  8.30800 2.97900 45.40800
Mg 6.93300 53.92500 40.24600
C  6.49900 50.50300 40.39800
C  10.08200 53.62800 39.13000
C  6.96400 57.27300 39.54800
C  3.29700 54.25100 40.88000
N  8.07800 52.32500 39.67700
C  7.77300 50.96000 39.96200
C  9.01400 50.08200 39.72500
C  10.20500 51.12200 39.77100
C  9.41800 52.43000 39.42000
C  10.99500 51.16400 41.11500
C  9.02800 49.10900 38.53300
C  8.97300 49.78700 37.09300
H  7.59800 49.86000 36.48300
N  8.29600 55.26200 39.40400
C  9.52600 54.90500 38.99000
C  10.12400 56.10100 38.44600
C  9.31700 57.21900 38.65200
C  8.11700 56.60400 39.24100
C  11.51200 55.99300 37.87100
C  9.69900 58.63200 38.41800
O  10.83800 58.92000 38.04600
C  8.72400 59.79200 38.63300
N  5.20100 55.46100 40.01000
C  5.72100 56.78300 39.99200
C  4.53200 57.69400 40.26600
C  3.39300 56.77000 40.58100
C  3.99700 55.42200 40.54200
C  4.79400 58.86700 41.31600
C  2.11800 56.95000 39.67800
C  0.83100 57.51000 40.36100
N  5.17700 52.68300 40.62800
C  3.85800 52.91900 41.04500
C  3.27800 51.65100 41.51600
C  4.29400 50.70000 41.22700
C  5.37900 51.35200 40.68000
C  1.94200 51.49600 41.94400
C  4.62800 49.26100 41.20500
O  3.99300 48.34100 41.62100
C  5.99500 49.11700 40.53000
C  5.74000 48.42200 39.26800
O  5.11000 48.89400 38.36000
O  6.08300 47.12000 39.34800
C  5.98200 46.26400 38.14700
H  11.17300 53.63500 39.17300
H  6.99000 58.36400 39.59100
H  2.22900 54.37500 41.06700
H  9.15800 49.40300 40.56500
H  10.83800 50.74700 38.96700
H  12.06900 51.08400 40.94500
H  10.73600 50.28400 41.70400
H  10.76900 52.02700 41.74200
H  8.19100 48.45000 38.76400
H  9.93300 48.50600 38.60000
H  9.71700 49.19700 36.55800
H  9.29400 50.82100 37.21300
H  11.83500 54.98800 37.59700
H  12.12100 56.37500 38.69000
H  11.61000 56.65600 37.01100
H  7.95500 59.57000 37.89300
H  9.02200 60.80800 38.37100
H  8.48000 59.79700 39.69500
H  4.41300 58.30600 39.37200
H  2.98400 56.92300 41.58000
H  5.73200 58.75200 41.86000
H  3.99100 58.81500 42.05100
H  4.76500 59.85300 40.85200
H  1.95800 56.00900 39.15200
H  2.35000 57.70500 38.92600
H  1.05100 57.97500 41.32200
H  0.08400 56.72200 40.45800
H  0.31700 58.30300 39.81700
H  1.30500 50.94300 41.25400
H  1.43800 52.44300 42.13700
H  2.02900 50.85100 42.81900
H  6.65600 48.56800 41.20100
H  6.72400 45.46600 38.18600
H  6.07400 46.81300 37.21000
H  4.98200 45.83100 38.17600

