158

Mg -0.19400 7.34700 26.26500
C  0.76700 9.31600 29.05900
C  -0.08600 4.63100 28.41600
C  -0.62500 5.53700 23.66100
C  0.31900 10.20700 24.23600
N  0.28200 6.97500 28.57500
C  0.53700 7.96500 29.47700
C  0.48300 7.39500 30.92300
C  0.53200 5.83200 30.68100
C  0.29500 5.78100 29.10500
C  1.92500 5.18100 31.20700
C  -0.72100 7.82300 31.85200
C  -0.36500 7.94600 33.36800
H  0.81600 7.25000 34.02900
N  -0.35500 5.38600 26.06800
C  -0.29900 4.38700 27.05900
C  -0.59200 3.11300 26.44300
C  -0.78300 3.36200 25.03000
C  -0.53400 4.81300 24.83600
C  -0.65600 1.84600 27.21100
C  -1.20300 2.40200 23.93700
O  -1.44100 2.71100 22.75900
C  -1.71400 0.96600 24.31300
N  0.07900 7.77900 24.21600
C  -0.29600 6.81000 23.31000
C  -0.31100 7.42600 21.82900
C  -0.04500 8.93800 22.04800
C  0.15500 9.00200 23.57800
C  0.71100 6.71500 20.89700
C  -1.17200 9.85300 21.48800
C  -2.36500 10.06600 22.37500
N  0.47100 9.38600 26.51200
C  0.51300 10.44000 25.60500
C  0.83500 11.66600 26.31100
C  1.00900 11.28800 27.66700
C  0.71500 9.88500 27.74500
C  1.00700 13.04500 25.68600
C  1.36100 11.73300 28.98700
O  1.75400 12.79900 29.37900
C  1.12600 10.45700 29.93600
C  2.39000 10.19600 30.61000
O  3.37500 9.63000 30.16600
O  2.30100 10.77200 31.81300
C  3.50100 10.65900 32.69900
H  -0.25000 3.75100 29.04300
H  -1.03000 4.96500 22.82400
H  0.38800 11.11400 23.63200
H  1.40400 7.70900 31.41500
H  -0.19700 5.31100 31.30200
H  2.31200 4.63400 30.34700
H  1.71200 4.48200 32.01600
H  2.61100 6.00600 31.39900
H  -1.52900 7.09200 31.89100
H  -1.15900 8.72700 31.42900
H  -1.21700 7.58300 33.94300
H  -0.29400 8.97900 33.71100
H  -1.22000 0.98600 26.85000
H  -1.09200 1.98100 28.20000
H  0.39200 1.55200 27.27000
H  -2.56700 0.97000 24.99100
H  -0.94200 0.37000 24.80100
H  -2.11300 0.47500 23.42600
H  -1.29700 7.25500 21.39800
H  0.88300 9.12100 21.50700
H  0.78100 5.64800 21.10900
H  1.69000 7.07100 21.21800
H  0.53900 6.93800 19.84400
H  -1.53500 9.35900 20.58700
H  -0.61200 10.75900 21.25700
H  -2.39000 11.11000 22.68700
H  -2.39100 9.43400 23.26200
H  -3.29900 9.91700 21.83300
H  0.11200 13.65400 25.55900
H  1.37700 12.81000 24.68900
H  1.69800 13.56300 26.35100
H  0.32200 10.72200 30.62300
H  4.41900 11.11200 32.32400
H  3.52900 9.63800 33.08000
H  3.39400 11.17800 33.65100
Mg 17.60100 51.46300 26.70400
C  19.62500 49.91800 29.20400
C  15.26100 52.29900 28.93000
C  15.89900 52.54500 24.04600
C  20.22300 50.25900 24.37900
N  17.40500 50.97700 28.83100
C  18.39400 50.50400 29.69500
C  18.02300 50.82400 31.21100
C  16.49800 51.34600 31.03400
C  16.34800 51.58700 29.45700
C  15.32000 50.38100 31.59400
C  18.96400 51.89600 31.80300
C  19.35500 51.71000 33.26600
H  18.55200 50.79300 34.22000
N  15.82200 52.18300 26.53700
C  14.96000 52.52500 27.58600
C  13.74500 53.02900 26.98900
C  13.91600 53.24300 25.57800
C  15.24500 52.67000 25.32600
C  12.45300 53.23400 27.80300
C  12.94700 53.86800 24.50800
O  13.30500 54.03300 23.32800
C  11.59200 54.25700 24.86400
N  17.99000 51.32500 24.51700
C  17.14800 51.96400 23.68600
C  17.58000 51.93700 22.24700
C  19.07100 51.37900 22.39400
C  19.09300 50.95500 23.85600
C  16.66400 51.06500 21.30600
C  20.14000 52.51800 22.16700
C  21.50500 52.06300 21.62200
N  19.51700 50.29700 26.69300
C  20.38800 49.89000 25.75200
C  21.48400 49.12100 26.29900
C  21.24000 49.13900 27.65600
C  20.04500 49.84600 27.86600
C  22.73100 48.69500 25.48500
C  21.69100 48.75200 28.99100
O  22.65100 48.02800 29.31200
C  20.70200 49.31700 30.01300
C  20.20200 48.25900 30.84700
O  19.68100 47.26700 30.37400
O  20.51900 48.45700 32.19500
C  20.33400 47.24600 33.11300
H  14.52800 52.63100 29.66900
H  15.29200 52.80800 23.17800
H  20.99900 49.92700 23.68600
H  17.97100 49.86300 31.72400
H  16.37200 52.31200 31.52200
H  14.63000 50.98300 32.18600
H  15.73200 49.57300 32.20000
H  14.81100 49.97500 30.72000
H  18.45500 52.85900 31.76500
H  19.90200 52.12800 31.29900
H  19.40000 52.64600 33.82200
H  20.37300 51.32300 33.24700
H  11.66600 52.68500 27.28600
H  12.26100 54.30200 27.90900
H  12.59500 52.78700 28.78700
H  11.14800 54.98600 24.18600
H  11.36800 54.76600 25.80100
H  10.93700 53.38800 24.92800
H  17.53800 52.94100 21.82300
H  19.27500 50.46300 21.83900
H  15.73700 50.86300 21.84200
H  17.16300 50.12900 21.05300
H  16.33700 51.53100 20.37700
H  20.48400 52.73200 23.17900
H  19.83400 53.42900 21.65200
H  21.67200 52.76100 20.80100
H  21.44900 50.99700 21.40400
H  22.33400 52.24200 22.30800
H  23.01400 49.46400 24.76600
H  22.56400 47.71800 25.03300
H  23.51400 48.67500 26.24300
H  21.21100 50.02900 30.66200
H  20.89700 47.33900 34.04200
H  20.48200 46.24800 32.69900
H  19.29100 47.35000 33.41300

