158

Mg 23.33400 -6.29400 44.81600
C  25.58500 -3.69000 43.92900
C  20.85700 -4.57200 43.12100
C  21.52400 -9.12700 44.67200
C  25.98800 -7.92400 46.29600
N  23.27100 -4.39200 43.54500
C  24.30200 -3.51000 43.41300
C  23.71700 -2.25800 42.58100
C  22.16700 -2.38800 42.64100
C  22.05300 -3.86000 43.13000
C  21.36700 -1.28800 43.39200
C  24.24700 -2.23000 41.11400
C  24.66300 -0.93000 40.52300
H  24.83900 -0.87000 39.01000
N  21.36300 -6.78100 44.09500
C  20.51700 -5.90500 43.45300
C  19.20100 -6.62100 43.28600
C  19.43900 -8.00600 43.58200
C  20.76100 -8.00900 44.21300
C  17.99600 -5.98500 42.62500
C  18.46400 -9.14300 43.41400
O  17.35900 -8.91400 42.95400
C  18.85500 -10.63000 43.71900
N  23.78000 -8.22200 45.40000
C  22.84400 -9.22400 45.23800
C  23.35700 -10.55900 45.85100
C  24.69200 -10.18100 46.45800
C  24.82900 -8.67500 46.07600
C  22.38900 -11.31400 46.86500
C  25.94600 -11.14400 46.32300
C  26.68200 -11.67200 47.59900
N  25.40200 -5.87400 45.22400
C  26.32100 -6.63900 45.77800
C  27.59400 -5.93000 45.75200
C  27.36100 -4.79300 44.98600
C  25.99500 -4.78900 44.70500
C  28.84300 -6.34100 46.45200
C  28.02800 -3.60800 44.38500
O  29.18700 -3.22400 44.36800
C  26.85100 -2.80100 43.57300
C  26.65700 -1.48500 44.18500
O  26.34400 -1.24000 45.35400
O  27.07700 -0.48500 43.33800
C  27.39800 0.82300 43.97800
H  19.97700 -3.97900 42.86000
H  21.06700 -10.10300 44.84700
H  26.82900 -8.48700 46.70400
H  24.11400 -1.35600 43.04700
H  21.65600 -2.40900 41.67800
H  20.78100 -0.89300 42.56100
H  22.01200 -0.60300 43.94200
H  20.62400 -1.66000 44.09800
H  23.50400 -2.75300 40.51100
H  25.10100 -2.90600 41.17000
H  25.63800 -0.79600 40.99300
H  23.96400 -0.13600 40.78400
H  17.28600 -6.61100 42.08400
H  18.46300 -5.21700 42.00900
H  17.34100 -5.53100 43.36800
H  18.11400 -11.37300 43.42200
H  18.96400 -10.80500 44.79000
H  19.82900 -10.66300 43.23200
H  23.49000 -11.14600 44.94200
H  24.43200 -10.20100 47.51600
H  22.92200 -11.69600 47.73600
H  21.97700 -12.14400 46.29100
H  21.57000 -10.65800 47.16000
H  26.72500 -10.80700 45.63900
H  25.54800 -12.03800 45.84300
H  27.74600 -11.66100 47.36100
H  26.46900 -12.69400 47.91000
H  26.56800 -10.94700 48.40500
H  29.27700 -7.18500 45.91600
H  28.67100 -6.68600 47.47200
H  29.57200 -5.53400 46.52400
H  27.10300 -2.64200 42.52500
H  26.61000 1.53300 43.72700
H  28.26100 1.25500 43.47100
H  27.63900 0.76900 45.04000
Mg 30.59800 57.79300 39.96300
C  27.93100 55.40500 39.12900
C  32.84600 55.26600 39.19800
C  32.95400 60.07700 39.84100
C  28.10600 60.27600 39.85200
N  30.42700 55.67800 39.22700
C  29.23100 54.91800 39.05300
C  29.63700 53.45800 38.66800
C  31.04400 53.43500 39.31300
C  31.48700 54.82400 39.24800
C  31.00500 52.86700 40.71900
C  29.69800 53.33200 37.09900
C  28.47900 52.67100 36.46300
H  27.55400 53.38200 35.41000
N  32.60100 57.67400 39.76800
C  33.33800 56.58700 39.33800
C  34.77200 56.95100 39.21700
C  34.84700 58.33600 39.40700
C  33.45100 58.75300 39.69400
C  35.88000 56.04400 38.96000
C  36.17100 59.19300 39.29000
O  37.24300 58.71100 38.99800
C  36.20400 60.68700 39.51000
N  30.60000 59.86200 39.92400
C  31.72300 60.62800 39.98700
C  31.42500 62.08800 40.20900
C  29.84400 62.21800 40.00800
C  29.46900 60.68500 39.90000
C  31.92500 62.65300 41.56600
C  29.35300 63.01200 38.78700
C  28.48800 64.26800 39.01300
N  28.43400 57.86200 39.72400
C  27.61300 58.96800 39.62900
C  26.23500 58.54500 39.42800
C  26.30700 57.17500 39.24500
C  27.64300 56.81500 39.39200
C  25.08800 59.47800 39.27600
C  25.49300 55.96400 38.96700
O  24.29500 55.77300 38.75700
C  26.56000 54.75300 38.87300
C  26.06800 53.59200 39.68800
O  26.60200 53.24400 40.75200
O  25.02900 52.91800 39.06400
C  24.57400 51.66300 39.64700
H  33.57500 54.45500 39.14000
H  33.69500 60.87600 39.92000
H  27.26800 60.97200 39.93400
H  28.97100 52.69300 39.06500
H  31.59400 52.67900 38.75200
H  30.02000 53.09600 41.12500
H  31.82300 53.29100 41.30200
H  31.05200 51.78100 40.79800
H  30.55200 52.72500 36.79900
H  29.65800 54.27800 36.55900
H  27.85200 52.18900 37.21400
H  28.89600 51.88700 35.83200
H  36.43100 56.41400 38.09500
H  35.71600 54.96700 38.93300
H  36.50200 56.28900 39.82100
H  35.52800 60.77000 40.36100
H  35.92400 61.22400 38.60400
H  37.22400 60.93100 39.80600
H  31.99700 62.66000 39.47700
H  29.49500 62.60200 40.96600
H  31.18200 62.93600 42.31100
H  32.56100 63.53000 41.44600
H  32.56400 61.95600 42.10700
H  28.81300 62.35300 38.10700
H  30.21400 63.24200 38.16000
H  28.38800 64.58400 40.05200
H  27.42900 64.17400 38.77400
H  28.84500 65.12300 38.43900
H  24.78700 59.87900 40.24400
H  24.27800 59.00300 38.72200
H  25.36200 60.37800 38.72500
H  26.44900 54.42200 37.84000
H  25.38200 50.94000 39.75600
H  23.87100 51.07600 39.05600
H  24.16500 51.80800 40.64700

