158

Mg 40.78800 8.20000 29.80700
C  42.38400 9.82200 32.39800
C  38.53000 6.85200 32.04200
C  39.31500 6.64700 27.16000
C  43.44500 9.15300 27.64400
N  40.55300 8.29700 32.00500
C  41.17200 9.17500 32.80800
C  40.67900 9.05600 34.31900
C  39.43300 8.10900 34.19700
C  39.48100 7.71200 32.65500
C  39.41400 6.81000 35.11000
C  40.42500 10.41500 35.00500
C  39.72200 10.32400 36.33100
H  40.49600 10.32200 37.67400
N  39.16700 6.91200 29.60800
C  38.36800 6.54900 30.64700
C  37.22700 5.83500 30.08200
C  37.43800 5.74100 28.71100
C  38.71400 6.46200 28.40100
C  36.09600 5.31100 31.06100
C  36.47600 5.22200 27.63900
O  36.76900 5.08100 26.46800
C  35.18600 4.77200 28.09800
N  41.35000 7.78500 27.78300
C  40.51200 7.26500 26.86000
C  41.08500 7.35400 25.44300
C  42.15400 8.46000 25.63000
C  42.33500 8.44600 27.13200
C  41.69900 6.02700 24.92000
C  41.84200 9.95000 25.18500
C  40.42500 10.38500 25.52700
N  42.62600 9.25400 29.93300
C  43.65600 9.49900 28.98600
C  44.73700 10.27900 29.70000
C  44.30600 10.42700 31.02900
C  43.03400 9.77900 31.08400
C  45.96500 10.77500 28.98700
C  44.56900 11.07900 32.26000
O  45.44700 11.82500 32.60500
C  43.37800 10.74900 33.19000
C  43.94000 10.13200 34.45100
O  44.35400 8.96500 34.52700
O  43.98400 11.12300 35.41800
C  44.63600 10.76600 36.71600
H  37.83200 6.40700 32.75500
H  38.87800 6.16200 26.28500
H  44.12800 9.51200 26.87100
H  41.55700 8.59300 34.77000
H  38.46200 8.60200 34.23600
H  38.52600 6.65000 35.72200
H  40.19100 6.95900 35.86000
H  39.57000 5.93100 34.48500
H  39.85300 11.05100 34.32900
H  41.41300 10.83600 35.19300
H  39.16000 9.39000 36.29700
H  38.94600 11.08600 36.25800
H  35.10100 5.42500 30.63000
H  36.14000 5.79800 32.03500
H  36.31300 4.25800 31.24000
H  34.61600 5.61400 28.48900
H  35.43000 4.02800 28.85600
H  34.66800 4.25600 27.28900
H  40.17200 7.62600 24.91400
H  43.02600 8.14000 25.05900
H  41.30400 5.11800 25.37400
H  42.74600 5.98200 25.21800
H  41.48800 5.92900 23.85500
H  41.89600 10.07400 24.10300
H  42.59000 10.63700 25.58000
H  40.48900 11.43900 25.79800
H  39.84600 9.83200 26.26600
H  39.98000 10.30100 24.53600
H  45.68100 10.73300 27.93600
H  46.67500 9.95200 29.07300
H  46.38200 11.71500 29.34900
H  43.08100 11.76300 33.45700
H  45.27100 9.88000 36.69600
H  43.83800 10.42300 37.37600
H  45.11100 11.67200 37.09200
Mg 36.02000 49.71400 24.86300
C  36.09700 47.64800 27.84100
C  35.31500 52.39200 26.95100
C  35.54400 51.41100 22.10700
C  36.61200 46.65500 23.10500
N  35.74100 50.00600 27.12300
C  35.87400 49.06300 28.10300
C  35.65900 49.71400 29.52700
C  35.15000 51.12900 29.10700
C  35.39500 51.21300 27.61700
C  33.73700 51.41000 29.69300
C  37.03400 49.77200 30.41300
C  36.82000 49.39800 31.92600
H  35.59600 49.87700 32.61500
N  35.54800 51.67800 24.53200
C  35.39300 52.66000 25.55400
C  35.25800 53.93200 24.91400
C  35.15500 53.68600 23.48800
C  35.38900 52.19300 23.30000
C  35.35900 55.23500 25.67700
C  34.83800 54.72600 22.35100
O  34.76200 54.39300 21.15900
C  34.57800 56.12900 22.63600
N  35.89100 49.04000 22.84400
C  35.90600 50.01200 21.93200
C  36.35600 49.44900 20.56100
C  36.87500 47.97900 20.95000
C  36.40400 47.87000 22.40100
C  35.21400 49.52900 19.36800
C  38.44000 47.90700 20.71100
C  38.93300 47.05300 19.56600
N  36.22600 47.59800 25.28400
C  36.41500 46.49300 24.48800
C  36.67000 45.31900 25.28200
C  36.46100 45.67700 26.55200
C  36.26500 47.08300 26.57600
C  36.86200 43.90100 24.78600
C  36.37200 45.24000 27.92900
O  36.44500 44.14500 28.42700
C  36.23900 46.47900 28.75500
C  35.08200 46.35700 29.65000
O  33.87400 46.30800 29.24700
O  35.43500 46.11000 30.92800
C  34.46200 45.67000 31.85800
H  35.24400 53.25500 27.61600
H  35.42700 51.93900 21.15800
H  37.02900 45.94200 22.39100
H  34.86300 49.12500 29.98300
H  35.81500 51.90300 29.49000
H  32.91900 51.20300 29.00200
H  33.66700 52.46100 29.97400
H  33.59000 50.74000 30.54100
H  37.40500 50.79300 30.32300
H  37.76700 49.14700 29.90300
H  37.66400 49.82100 32.47000
H  36.84600 48.31200 32.02600
H  34.39100 55.72400 25.57400
H  36.13200 55.82600 25.18500
H  35.72900 55.20700 26.70200
H  35.28100 56.63800 23.29500
H  33.60900 56.05600 23.12900
H  34.63000 56.67500 21.69400
H  37.17300 50.11200 20.27800
H  36.29300 47.23200 20.41100
H  34.18700 49.78800 19.62700
H  35.18000 48.59600 18.80600
H  35.54200 50.33100 18.70800
H  38.91500 47.57100 21.63400
H  38.84200 48.91000 20.57100
H  38.43300 47.33000 18.63700
H  38.78600 45.97500 19.62300
H  39.98200 47.28700 19.38100
H  35.88300 43.46600 24.58600
H  37.40400 43.33200 25.54100
H  37.44300 43.95300 23.86500
H  37.09300 46.70500 29.39300
H  33.98100 46.40600 32.50300
H  34.97500 45.08000 32.61800
H  33.60900 45.10000 31.48900

