158

Mg 46.78100 24.74800 28.83900
C  47.64600 27.29500 31.02900
C  46.17500 22.67900 31.59600
C  46.45800 22.13400 26.76100
C  47.72200 26.64000 26.05900
N  46.76500 25.02500 31.02100
C  47.10800 26.15500 31.68800
C  46.75200 25.96600 33.13400
C  46.53200 24.46800 33.37300
C  46.49100 23.98300 31.89100
C  47.65000 23.76500 34.21500
C  45.52400 26.88100 33.59000
C  45.39900 27.22400 35.12600
H  46.32900 26.75300 36.13600
N  46.25300 22.75400 29.10800
C  46.12300 22.06600 30.32500
C  45.91900 20.67200 30.07200
C  45.91100 20.51600 28.63000
C  46.22000 21.84400 28.09200
C  45.82700 19.61000 31.16500
C  45.66500 19.24600 27.83700
O  45.53100 19.20300 26.62400
C  45.45300 17.99500 28.53000
N  47.06200 24.35300 26.73300
C  46.83200 23.26800 26.12100
C  47.12100 23.38200 24.60800
C  47.11100 24.95900 24.38300
C  47.26900 25.42400 25.82500
C  48.41000 22.64000 24.12100
C  45.85000 25.49900 23.72200
C  44.49600 25.15300 24.39100
N  47.53600 26.57300 28.57300
C  47.91500 27.16200 27.42200
C  48.59400 28.42200 27.81100
C  48.46900 28.52500 29.17100
C  47.82500 27.34200 29.60500
C  49.26500 29.35200 26.83200
C  48.82600 29.30100 30.35300
O  49.48700 30.33500 30.33000
C  48.21200 28.59900 31.56600
C  49.38900 28.35200 32.43800
O  50.40800 27.67800 32.23000
O  49.02800 28.94000 33.67900
C  50.09800 28.68900 34.72500
H  45.92700 22.08500 32.47900
H  46.16500 21.37500 26.03300
H  47.99300 27.37800 25.30100
H  47.63100 26.21300 33.73000
H  45.54000 24.19300 33.73100
H  47.39000 22.90900 34.83700
H  48.37000 24.42900 34.69300
H  48.20300 23.09700 33.55600
H  44.64200 26.30900 33.30000
H  45.43800 27.83800 33.07500
H  44.37200 26.99900 35.41500
H  45.26800 28.29100 35.30800
H  45.94800 19.89400 32.21000
H  46.60400 18.86700 30.98300
H  44.91300 19.05800 30.94400
H  46.29600 17.80000 29.19300
H  45.43700 17.28200 27.70600
H  44.55100 17.78500 29.10500
H  46.37000 22.94500 23.95000
H  47.98900 25.22700 23.79500
H  49.27300 23.05200 24.64400
H  48.49700 22.88000 23.06200
H  48.45100 21.56300 24.28900
H  45.88700 25.04800 22.73000
H  46.02700 26.55800 23.53700
H  44.61000 24.37100 25.14200
H  43.93400 24.65300 23.60100
H  44.02000 26.05800 24.76600
H  50.22500 28.98800 26.46400
H  49.42300 30.24000 27.44400
H  48.63700 29.57100 25.96800
H  47.55200 29.30800 32.06400
H  51.12100 28.54900 34.37800
H  49.75000 27.73400 35.11900
H  50.10800 29.49700 35.45700
Mg 26.63200 49.87700 26.58800
C  24.39100 50.93800 29.03500
C  28.84400 49.01200 29.00700
C  28.70400 48.84600 24.19000
C  24.41600 51.00100 24.22500
N  26.54400 50.08300 28.75500
C  25.50300 50.31200 29.58600
C  25.81600 49.87900 31.02400
C  27.32100 49.43400 30.93300
C  27.57900 49.48400 29.41400
C  28.27100 50.37300 31.70900
C  24.78900 48.84500 31.60200
C  23.80500 49.44900 32.61400
H  23.74100 48.77300 34.03900
N  28.51000 49.06300 26.56200
C  29.26200 48.79800 27.70300
C  30.48600 48.17900 27.28500
C  30.51200 48.27800 25.84800
C  29.21200 48.74600 25.47200
C  31.57000 47.69100 28.17600
C  31.64300 48.06700 24.82700
O  31.56800 48.38800 23.62400
C  32.96200 47.59300 25.41200
N  26.68200 50.05200 24.47000
C  27.57000 49.46600 23.66600
C  27.07500 49.41900 22.20900
C  25.60900 49.95600 22.36700
C  25.58200 50.34700 23.77500
C  27.96500 50.27100 21.19800
C  24.53200 48.88500 21.95900
C  24.34400 47.75200 22.94500
N  24.84300 50.74900 26.52100
C  24.08300 51.28100 25.53600
C  22.89900 51.92300 26.03200
C  22.99700 51.84000 27.41900
C  24.15700 51.12700 27.66600
C  21.84700 52.67600 25.27100
C  22.33300 52.23900 28.63000
O  21.34200 52.92900 28.82400
C  23.13800 51.47800 29.78600
C  23.49800 52.56800 30.81000
O  24.47000 53.30400 30.77400
O  22.53200 52.56200 31.73900
C  22.69000 53.66300 32.73700
H  29.42400 48.46600 29.75400
H  29.36900 48.63300 23.35000
H  23.60500 51.16600 23.51200
H  25.81700 50.76500 31.66000
H  27.34900 48.45200 31.40600
H  29.05300 50.79600 31.07900
H  28.85500 49.91100 32.50500
H  27.74800 51.24000 32.11200
H  25.38700 48.11200 32.14400
H  24.23100 48.40700 30.77400
H  22.79900 49.47200 32.19500
H  23.98600 50.50100 32.83400
H  31.80000 46.63700 28.02500
H  31.48000 47.84700 29.25100
H  32.39100 48.37100 27.94900
H  33.38100 48.24000 26.18300
H  33.55800 47.42500 24.51500
H  32.71600 46.65200 25.90400
H  27.03300 48.35200 21.99200
H  25.46900 50.78200 21.67000
H  28.95500 50.48200 21.60200
H  27.50500 51.19900 20.86000
H  28.16600 49.69000 20.29800
H  24.71300 48.68200 20.90400
H  23.59800 49.44300 22.01400
H  25.07300 47.90000 23.74200
H  24.44300 46.84800 22.34400
H  23.35900 47.72400 23.41100
H  20.92600 52.81100 25.83800
H  21.63900 52.09400 24.37300
H  22.29200 53.58600 24.87000
H  22.49100 50.70300 30.19800
H  23.47600 53.27900 33.38800
H  21.79100 53.76100 33.34500
H  22.89100 54.57800 32.17900

