158

Mg 30.97600 57.60100 39.01800
C  28.37600 55.59900 38.12600
C  33.21300 55.12900 38.25100
C  33.69100 59.80800 39.59500
C  28.83800 60.14300 39.98000
N  30.80200 55.71400 38.01700
C  29.59100 54.99600 37.92900
C  29.80900 53.52400 37.55600
C  31.38800 53.34100 37.78200
C  31.83800 54.83400 38.02400
C  31.94500 52.21700 38.73400
C  29.30800 52.99000 36.18400
C  29.67200 53.73100 34.87300
H  28.60600 54.35600 34.09100
N  33.18100 57.45600 38.89200
C  33.86300 56.36500 38.52900
C  35.25800 56.61900 38.60900
C  35.43500 57.94900 38.97900
C  34.08600 58.48800 39.14200
C  36.29600 55.67500 38.14000
C  36.78700 58.63500 39.06300
O  37.81900 58.04000 38.73200
C  36.85400 60.09600 39.42300
N  31.25900 59.67300 39.53300
C  32.38900 60.37400 39.74400
C  32.20600 61.81700 40.18900
C  30.62400 61.81000 40.54400
C  30.17000 60.49800 39.97100
C  33.09100 62.24200 41.41600
C  29.88300 63.16400 40.11300
C  29.14900 63.83300 41.26200
N  29.05700 57.89900 39.04800
C  28.24700 58.93400 39.53300
C  26.85200 58.51000 39.44800
C  26.83600 57.29700 38.85100
C  28.18800 56.87900 38.65500
C  25.65500 59.31500 39.72800
C  26.00700 56.26500 38.23700
O  24.80000 56.27000 38.08800
C  27.00000 55.10600 37.85500
C  26.68600 54.01500 38.78100
O  27.16300 53.82500 39.90800
O  25.55800 53.37000 38.25400
C  24.76100 52.46600 39.13400
H  33.93100 54.30800 38.18700
H  34.50300 60.46500 39.91500
H  28.11100 60.82300 40.43000
H  29.31400 52.97100 38.35500
H  31.83900 52.95600 36.86800
H  31.15000 51.47300 38.78700
H  32.37200 52.59600 39.66200
H  32.74000 51.67400 38.22400
H  28.22500 53.03200 36.30100
H  29.54600 51.93200 36.06700
H  30.09800 52.99300 34.19400
H  30.44300 54.46100 35.11900
H  36.62800 56.03300 37.16600
H  35.96000 54.64200 38.04600
H  37.09900 55.75800 38.87300
H  37.83200 60.48700 39.14400
H  36.61500 60.18700 40.48300
H  36.16400 60.65200 38.78800
H  32.33200 62.47300 39.32800
H  30.63100 61.63900 41.62000
H  32.58100 62.97800 42.03800
H  33.97300 62.79900 41.10000
H  33.21900 61.35600 42.03800
H  29.12400 63.02900 39.34300
H  30.60200 63.78700 39.58100
H  29.95900 64.10600 41.93800
H  28.40700 63.11400 41.60700
H  28.73000 64.79300 40.95800
H  24.76100 58.94500 39.22600
H  25.86800 60.31100 39.34000
H  25.48200 59.28900 40.80400
H  26.80300 54.89000 36.80500
H  24.68300 51.56000 38.53400
H  23.78400 52.90100 39.34400
H  25.40400 52.18800 39.96900
Mg 27.34600 49.97200 26.34500
C  25.28300 51.06700 29.01300
C  29.56600 48.84600 28.56100
C  29.36700 49.32600 23.62400
C  25.23200 51.79700 24.17200
N  27.41000 50.05400 28.56100
C  26.44300 50.44500 29.41500
C  26.75500 50.01400 30.85800
C  28.30300 49.56300 30.78200
C  28.46500 49.44400 29.21300
C  29.39400 50.50300 31.50000
C  25.71900 48.93000 31.34000
C  25.26500 48.91400 32.83300
H  26.19000 49.66700 33.79400
N  29.11000 49.14900 26.13800
C  29.93700 48.75100 27.20700
C  31.07700 48.09300 26.68400
C  31.05500 48.25200 25.25200
C  29.83900 49.01100 24.95000
C  32.15500 47.44600 27.53600
C  32.23700 47.90100 24.33200
O  32.12000 48.04600 23.10000
C  33.55700 47.44300 24.86400
N  27.33400 50.57500 24.20600
C  28.22100 50.07400 23.30100
C  27.73600 50.27000 21.88700
C  26.23200 50.80500 22.13800
C  26.25000 51.09900 23.59900
C  28.66000 51.18800 21.05300
C  25.20500 49.80400 21.67900
C  24.24800 50.30900 20.55500
N  25.61900 51.23200 26.53000
C  24.87000 51.93200 25.51300
C  23.75200 52.49400 26.08900
C  23.88900 52.21800 27.48700
C  25.01200 51.44800 27.68500
C  22.59000 53.15100 25.33200
C  23.27100 52.44900 28.75600
O  22.22400 53.05500 29.09300
C  24.17500 51.66200 29.90100
C  24.73300 52.72800 30.78400
O  25.80100 53.27200 30.65200
O  23.80400 53.12500 31.71200
C  24.13400 54.33000 32.43900
H  30.28400 48.56800 29.33500
H  30.03600 49.15800 22.77800
H  24.51500 52.27500 23.50000
H  26.69200 50.91300 31.47200
H  28.38800 48.57200 31.22700
H  29.91500 49.90100 32.24500
H  28.82000 51.25600 32.04000
H  30.05800 50.89000 30.72700
H  26.12000 47.94900 31.08400
H  24.83100 49.01200 30.71400
H  25.31700 47.88900 33.20300
H  24.21800 49.21600 32.86300
H  33.05000 48.06200 27.62400
H  32.39100 46.49600 27.05700
H  31.94700 47.31200 28.59800
H  34.20400 47.31100 23.99600
H  33.55000 46.49800 25.40700
H  33.89600 48.31400 25.42400
H  27.76000 49.28200 21.42800
H  26.17500 51.74900 21.59600
H  29.49200 51.61200 21.61500
H  28.09600 52.05900 20.71900
H  29.05000 50.65700 20.18400
H  24.59200 49.52700 22.53600
H  25.59100 48.81100 21.45000
H  24.25500 49.53200 19.79000
H  24.48900 51.23300 20.03000
H  23.25400 50.47600 20.97100
H  21.70700 53.32800 25.94800
H  22.29200 52.34500 24.66300
H  23.01700 53.98200 24.77100
H  23.72200 50.93600 30.57500
H  24.62800 55.07300 31.81300
H  24.76600 54.06800 33.28800
H  23.28100 54.77900 32.94800

