158

Mg 47.56600 15.42100 27.68500
C  45.35000 15.27100 30.52300
C  49.73200 17.07300 29.58500
C  49.46700 15.50500 24.99500
C  44.94200 13.79700 25.87900
N  47.47400 16.16100 29.79200
C  46.53900 15.96700 30.79700
C  47.10900 16.36600 32.17000
C  48.36800 17.18100 31.80700
C  48.54300 16.73600 30.30300
C  48.24600 18.74300 31.78500
C  47.35900 15.20300 33.11300
C  47.36700 15.49300 34.64800
H  47.11100 16.97800 35.04700
N  49.47600 16.07100 27.38500
C  50.15300 16.79300 28.29000
C  51.40700 17.12100 27.67300
C  51.38300 16.62700 26.32600
C  50.05800 16.04500 26.15300
C  52.57600 17.84200 28.35400
C  52.43700 16.70900 25.24900
O  52.34800 16.13600 24.13200
C  53.68500 17.43700 25.42600
N  47.11700 14.91300 25.67800
C  48.16300 14.94600 24.76200
C  47.65000 14.44300 23.36200
C  46.30000 13.63300 23.79700
C  46.10400 14.10900 25.22700
C  47.52000 15.55300 22.38800
C  46.35600 12.08900 23.51900
C  46.54200 11.16100 24.74100
N  45.48900 14.71300 28.02600
C  44.64500 14.01800 27.27600
C  43.50600 13.56700 28.02600
C  43.72300 14.07900 29.26300
C  44.94900 14.70900 29.24500
C  42.33900 12.87700 27.44300
C  43.20300 14.17100 30.67200
O  42.13400 13.84900 31.09400
C  44.21000 14.90900 31.53600
C  43.51900 16.09700 32.09000
O  42.98400 17.04900 31.45800
O  43.54000 15.95000 33.47600
C  42.58800 16.70800 34.19300
H  50.52000 17.62300 30.10400
H  50.03900 15.57600 24.06800
H  44.25900 13.09800 25.39100
H  46.34000 17.00400 32.60500
H  49.10000 16.83200 32.53600
H  48.01200 19.14700 30.80000
H  49.21800 19.11200 32.11100
H  47.36500 19.02400 32.36200
H  48.27800 14.70100 32.80900
H  46.59700 14.47600 32.83200
H  48.33100 15.20600 35.07000
H  46.56500 14.94000 35.13700
H  52.37300 17.82000 29.42500
H  52.68600 18.79100 27.83000
H  53.56600 17.40000 28.24000
H  53.38500 18.41500 25.80100
H  54.20600 17.63800 24.48900
H  54.35900 17.01800 26.17300
H  48.42100 13.83700 22.88600
H  45.45200 14.00000 23.21800
H  46.50300 15.93900 22.45000
H  47.80800 15.11900 21.43000
H  48.21400 16.31600 22.74200
H  47.14500 11.78700 22.83100
H  45.43500 11.81300 23.00700
H  46.64000 10.10700 24.47900
H  45.73000 11.35800 25.44000
H  47.55200 11.33700 25.11100
H  42.40400 11.80700 27.64100
H  42.29000 13.03600 26.36600
H  41.39600 13.29000 27.80100
H  44.53300 14.16300 32.26200
H  42.72100 16.44600 35.24200
H  41.59100 16.41600 33.86400
H  42.74100 17.78100 34.07800
Mg -2.03500 34.50600 27.20200
C  -3.26400 32.06000 29.54800
C  -0.91100 36.27100 29.90500
C  -0.52800 36.63800 24.97700
C  -3.05600 32.52900 24.59100
N  -1.88800 34.07000 29.46500
C  -2.41700 33.01200 30.16800
C  -2.31700 33.21600 31.64600
C  -1.66900 34.61800 31.75200
C  -1.45900 35.05200 30.23700
C  -2.52400 35.68600 32.53900
C  -1.49800 32.11300 32.31600
C  -2.01500 31.47600 33.62500
H  -1.14800 31.71700 34.96200
N  -0.92100 36.23500 27.41300
C  -0.59300 36.80900 28.60300
C  0.32200 37.86700 28.30400
C  0.32400 38.08600 26.88900
C  -0.38300 36.94600 26.36500
C  1.10200 38.70500 29.36300
C  0.90800 39.24200 26.07900
O  0.79400 39.46700 24.90900
C  2.06500 40.11300 26.67300
N  -2.06900 34.69300 25.15500
C  -1.31800 35.63600 24.47600
C  -1.30800 35.40300 22.99000
C  -2.13000 34.08400 22.81100
C  -2.46800 33.74300 24.24900
C  -1.87700 36.62900 22.13000
C  -1.42200 32.89500 21.97000
C  -0.39400 31.92500 22.65800
N  -3.05500 32.73100 27.09300
C  -3.45800 32.10200 25.95600
C  -4.17300 30.85900 26.31900
C  -4.09700 30.80900 27.69800
C  -3.42400 31.95100 28.16600
C  -4.74200 29.88400 25.36400
C  -4.49600 30.07800 28.88900
O  -5.24100 29.12100 28.93200
C  -3.88100 30.73900 30.09300
C  -4.90800 31.06300 31.05600
O  -5.69600 32.02000 30.89600
O  -4.94900 30.19600 32.12500
C  -5.68100 30.83600 33.16100
H  -0.53500 36.76900 30.80100
H  0.05800 37.22700 24.26800
H  -3.34600 31.88800 23.75600
H  -3.31400 33.20900 32.08600
H  -0.64800 34.59600 32.13200
H  -2.77100 35.26900 33.51500
H  -3.41200 36.03300 32.01100
H  -1.93700 36.59300 32.68700
H  -0.53800 32.54200 32.60300
H  -1.15300 31.42100 31.54800
H  -2.14000 30.39400 33.58600
H  -2.91100 31.98500 33.98100
H  1.05900 38.29200 30.37100
H  0.63500 39.68500 29.27300
H  2.17300 38.76000 29.17000
H  1.59300 40.88800 27.27600
H  2.77400 40.47500 25.92800
H  2.68700 39.60800 27.41200
H  -0.29000 35.21800 22.64800
H  -3.05000 34.28800 22.26300
H  -2.94400 36.75300 21.94500
H  -1.36400 36.63700 21.16800
H  -1.36800 37.49400 22.55400
H  -0.93300 33.26000 21.06600
H  -2.24700 32.26600 21.63500
H  -0.14300 32.28100 23.65700
H  0.47100 31.93600 21.99400
H  -0.86100 30.94000 22.65700
H  -4.69700 28.87800 25.78200
H  -4.43700 29.87600 24.31800
H  -5.79100 30.17700 25.31900
H  -3.12200 30.16900 30.62900
H  -5.06300 31.62600 33.58800
H  -5.76500 30.05700 33.91800
H  -6.70100 31.09000 32.87100

