158

Mg 48.56800 34.67000 27.38500
C  46.41800 33.23000 29.92300
C  48.58100 37.57100 29.33500
C  49.84700 36.16700 24.70300
C  47.80800 31.82400 25.39900
N  47.60900 35.27000 29.46300
C  46.89100 34.48600 30.36500
C  46.74700 35.26200 31.69600
C  47.04000 36.73300 31.22000
C  47.74800 36.56300 29.90100
C  45.79000 37.55200 31.09600
C  47.72700 34.55200 32.71300
C  48.69300 35.49100 33.46900
H  48.04200 36.45100 34.37500
N  49.31000 36.54900 27.15400
C  49.31400 37.57300 28.06900
C  50.37300 38.47800 27.64900
C  50.61200 38.19900 26.24600
C  49.91500 36.92700 25.96100
C  50.82400 39.62900 28.53200
C  51.40100 39.05400 25.26900
O  51.61800 38.67300 24.11700
C  52.04500 40.35800 25.66800
N  48.70600 34.01900 25.36000
C  49.34300 34.82100 24.45700
C  49.52400 34.14400 23.06000
C  49.29400 32.68100 23.49100
C  48.52800 32.79200 24.80100
C  48.45700 34.63000 22.04600
C  50.61900 31.84700 23.60600
C  50.52400 30.33300 23.70800
N  47.44500 32.82200 27.62800
C  47.32800 31.74500 26.72300
C  46.58000 30.69400 27.40200
C  46.19300 31.25300 28.68000
C  46.72600 32.54500 28.73000
C  46.18600 29.26700 26.90800
C  45.43100 30.89200 29.91000
O  44.85000 29.88400 30.16400
C  45.34500 32.35500 30.63400
C  45.45500 32.00800 32.07500
O  46.52300 31.59400 32.61500
O  44.27500 32.44500 32.66500
C  44.16400 32.19300 34.10800
H  48.76300 38.49600 29.88600
H  50.23200 36.66600 23.81100
H  47.59600 30.95700 24.77100
H  45.73300 35.15000 32.08000
H  47.78000 37.17500 31.88600
H  45.62600 37.96600 32.09100
H  44.95400 36.94700 30.74600
H  45.87900 38.33400 30.34200
H  48.21400 33.77200 32.12600
H  47.26300 34.01800 33.54200
H  49.48300 35.88500 32.82900
H  49.15100 34.79500 34.17200
H  51.86500 39.86600 28.31000
H  50.77100 39.40400 29.59700
H  50.39400 40.59400 28.26400
H  51.35900 40.86900 26.34300
H  52.27800 40.99800 24.81700
H  52.93300 40.12400 26.25500
H  50.48500 34.35400 22.59000
H  48.65000 32.14900 22.79000
H  47.83300 35.37200 22.54500
H  47.70600 33.95400 21.63600
H  49.05400 34.90200 21.17500
H  51.14500 32.10000 24.52700
H  51.19700 32.17400 22.74300
H  50.69400 30.17300 24.77300
H  51.22800 29.85300 23.02700
H  49.49500 30.02900 23.51400
H  46.91500 28.79400 26.24900
H  45.24600 29.37200 26.36700
H  45.99700 28.63500 27.77600
H  44.35700 32.75800 30.40900
H  44.75900 31.40500 34.57000
H  43.10900 31.94200 34.21400
H  44.30200 33.15000 34.61100
Mg 1.49800 42.58200 26.57100
C  3.12300 42.75900 29.65000
C  -1.37900 41.61500 28.24500
C  0.12500 41.87600 23.66800
C  4.56700 43.10600 25.06600
N  0.95000 42.31400 28.61500
C  1.73400 42.51900 29.73300
C  0.86600 42.29700 31.03100
C  -0.38700 41.73500 30.52700
C  -0.32400 41.89500 29.02800
C  -0.77300 40.34700 31.11500
C  0.82300 43.69300 31.73100
C  1.12700 43.65300 33.25900
H  0.83800 42.35400 34.00600
N  -0.45700 41.92500 26.01700
C  -1.46200 41.54500 26.83100
C  -2.50600 40.95300 26.00500
C  -2.12600 41.07600 24.63800
C  -0.78000 41.64400 24.73600
C  -3.60500 40.21500 26.61800
C  -2.81200 40.68200 23.37100
O  -2.27500 40.78800 22.23400
C  -4.28900 40.18900 23.48600
N  2.38300 42.35400 24.65700
C  1.50100 42.14300 23.61400
C  2.25400 42.09000 22.26500
C  3.62900 42.68500 22.64100
C  3.56500 42.74400 24.20900
C  2.47700 40.63800 21.67300
C  3.85800 44.15500 22.01700
C  2.84200 45.24700 22.45700
N  3.51100 43.07900 27.16700
C  4.60300 43.19300 26.46800
C  5.67000 43.55300 27.34600
C  5.14800 43.40300 28.59300
C  3.77300 43.13500 28.47300
C  7.09400 43.83100 26.96200
C  5.46400 43.30800 30.05400
O  6.56300 43.44600 30.60300
C  4.11400 43.04500 30.72400
C  4.33500 42.09200 31.74500
O  4.04800 40.95100 31.57100
O  4.68700 42.66300 32.96400
C  4.93300 41.61500 33.97300
H  -2.27100 41.36400 28.82300
H  -0.21900 41.77800 22.63600
H  5.56100 43.27600 24.64700
H  1.29400 41.66700 31.81100
H  -1.20700 42.42000 30.74400
H  -0.97600 39.75700 30.22100
H  -1.73100 40.42800 31.62700
H  -0.05800 39.88700 31.79700
H  -0.16100 44.12200 31.53700
H  1.56500 44.33200 31.25200
H  0.69800 44.56800 33.66800
H  2.17700 43.94800 33.25900
H  -4.50300 40.37600 26.02100
H  -3.84400 40.45600 27.65400
H  -3.35900 39.15600 26.68700
H  -4.98700 40.89300 23.93800
H  -4.42000 39.18400 23.88600
H  -4.69200 40.10600 22.47600
H  1.90400 42.77300 21.49100
H  4.56200 42.12200 22.60500
H  3.50700 40.28400 21.72200
H  2.08400 40.67000 20.65700
H  1.86900 39.87000 22.15200
H  3.81500 43.98400 20.94100
H  4.87200 44.43600 22.30200
H  2.40000 45.05400 23.43400
H  2.07900 45.31100 21.68000
H  3.42200 46.16800 22.51800
H  7.15500 44.91500 26.86600
H  7.29000 43.37800 25.99000
H  7.76100 43.36600 27.68700
H  3.81700 44.01900 31.11200
H  5.96100 41.29700 33.79600
H  4.26100 40.78200 33.76700
H  4.68200 42.03800 34.94600

