158

Mg 43.28100 3.92200 46.75200
C  41.17600 6.68400 46.37600
C  40.57700 1.88000 46.71400
C  45.39900 1.28200 46.23800
C  46.00900 6.02600 46.42000
N  41.06600 4.26300 46.31300
C  40.40800 5.46200 46.41600
C  38.91200 5.32100 46.63600
C  38.80900 3.79200 46.83900
C  40.26700 3.26500 46.61900
C  38.15500 3.40900 48.23500
C  38.06700 5.97200 45.49700
C  38.51500 5.59800 44.09600
H  39.53200 6.56900 43.40000
N  43.01700 1.88300 46.56300
C  41.81600 1.23200 46.62300
C  41.97600 -0.18100 46.44200
C  43.38400 -0.44700 46.43000
C  44.02000 0.93500 46.41100
C  40.73600 -1.16900 46.53500
C  44.00600 -1.79100 46.41600
O  43.27800 -2.75800 46.41800
C  45.55700 -1.92300 46.34800
N  45.46500 3.67300 46.40400
C  46.07700 2.53400 46.28400
C  47.60800 2.67700 46.15700
C  47.81600 4.19600 46.30100
C  46.37300 4.68700 46.41900
C  48.39500 1.67200 46.99600
C  48.54800 4.87000 45.15400
C  49.60200 4.15900 44.30500
N  43.61000 5.88500 46.39700
C  44.74100 6.63500 46.40300
C  44.42500 8.02100 46.50600
C  43.03400 8.09300 46.45000
C  42.55600 6.74200 46.25900
C  45.40300 9.14400 46.53200
C  41.91300 8.97200 46.58900
O  41.75700 10.14800 46.88600
C  40.62300 8.11300 46.38900
C  39.74000 8.32200 47.50700
O  39.94100 7.85300 48.65200
O  38.73200 9.16600 47.15000
C  37.89200 9.64400 48.29800
H  39.69200 1.24000 46.71900
H  46.16300 0.53100 46.02700
H  46.87000 6.69600 46.37400
H  38.70900 5.87600 47.55200
H  38.19600 3.40100 46.02600
H  37.83500 4.30700 48.76300
H  38.86700 2.83100 48.82400
H  37.24800 2.80900 48.15800
H  37.87700 7.03500 45.64500
H  37.04900 5.59000 45.57500
H  37.67500 5.43700 43.42000
H  38.98600 4.61500 44.09800
H  40.51400 -1.52600 45.52900
H  39.79800 -0.73700 46.88600
H  40.85200 -1.99100 47.24200
H  46.08100 -1.33200 47.09900
H  46.02000 -1.55300 45.43300
H  45.91200 -2.93900 46.51800
H  47.62100 2.54900 45.07500
H  48.40800 4.40400 47.19200
H  48.51400 0.73200 46.45700
H  47.89200 1.47300 47.94200
H  49.36600 2.15200 47.11900
H  49.15700 5.67700 45.56100
H  47.89600 5.32900 44.41100
H  49.29800 4.26800 43.26300
H  49.61000 3.07700 44.44300
H  50.55400 4.65900 44.47800
H  44.93900 9.92200 45.92600
H  46.41000 8.89600 46.19600
H  45.46200 9.43700 47.58000
H  40.29700 8.39800 45.38800
H  38.44700 10.13300 49.09900
H  37.24900 8.81500 48.59500
H  37.37900 10.47500 47.81600
Mg -11.49200 38.00900 41.98000
C  -9.49900 35.29500 40.89600
C  -9.29300 40.10600 40.37900
C  -13.64700 40.43500 42.48600
C  -14.02800 35.60300 42.87000
N  -9.59400 37.71000 40.83900
C  -8.90300 36.52100 40.56700
C  -7.58800 36.75400 39.78600
C  -7.45300 38.31800 39.86200
C  -8.91300 38.73800 40.36200
C  -6.38800 38.85200 40.83000
C  -7.66100 36.22100 38.34100
C  -6.51500 35.32600 37.84500
H  -5.79100 35.79100 36.57900
N  -11.36600 40.04600 41.52400
C  -10.40400 40.72400 40.86500
C  -10.70900 42.16300 40.80400
C  -11.97700 42.31400 41.50900
C  -12.38400 40.92700 41.88800
C  -9.87300 43.23600 40.08300
C  -12.67200 43.59000 41.77500
O  -12.17200 44.60200 41.31800
C  -13.99100 43.69700 42.42800
N  -13.63700 37.93800 42.34000
C  -14.20900 39.14200 42.62500
C  -15.63700 38.98700 43.19600
C  -15.81000 37.43300 43.31500
C  -14.46600 36.90900 42.74100
C  -15.85100 39.75200 44.56600
C  -17.04700 36.83200 42.59400
C  -18.29100 36.82600 43.57200
N  -11.70000 35.90800 42.04400
C  -12.71200 35.06300 42.49700
C  -12.17400 33.72900 42.53900
C  -10.99600 33.80600 41.80600
C  -10.74700 35.14600 41.55100
C  -12.85800 32.55600 43.15000
C  -9.93500 32.94000 41.26400
O  -9.84800 31.70500 41.49800
C  -8.86400 33.86800 40.68100
C  -7.64700 33.58100 41.41200
O  -7.53200 33.41000 42.59800
O  -6.61900 33.56300 40.56900
C  -5.30100 33.73900 41.11900
H  -8.59200 40.68900 39.77800
H  -14.18800 41.26900 42.93800
H  -14.83200 34.95600 43.22800
H  -6.80300 36.26100 40.36000
H  -7.25000 38.81600 38.91300
H  -5.58600 38.11400 40.82300
H  -6.77700 39.10300 41.81700
H  -6.02400 39.73100 40.30000
H  -7.76500 37.12000 37.73200
H  -8.59700 35.70300 38.13400
H  -6.86500 34.31300 37.64500
H  -5.70600 35.15300 38.55400
H  -8.94300 42.81100 39.70700
H  -9.50800 44.01700 40.75000
H  -10.46100 43.67600 39.27700
H  -14.72600 43.07600 41.91600
H  -14.44600 44.68600 42.46700
H  -13.87900 43.38700 43.46700
H  -16.30600 39.43900 42.46300
H  -15.88800 37.14600 44.36400
H  -16.32200 39.24500 45.40800
H  -16.53500 40.55700 44.29600
H  -14.88600 40.14400 44.88800
H  -16.81500 35.80000 42.33000
H  -17.21200 37.50800 41.75500
H  -18.06900 35.93600 44.16000
H  -19.21900 36.56300 43.06400
H  -18.26200 37.73100 44.17800
H  -12.71900 31.68000 42.51700
H  -13.93000 32.74900 43.12600
H  -12.57100 32.36900 44.18500
H  -8.69800 33.70100 39.61600
H  -5.19300 32.89700 41.80400
H  -5.29200 34.58500 41.80600
H  -4.54900 33.78800 40.33200

