158

Mg 8.89000 3.76100 26.57100
C  10.22300 2.08600 29.42900
C  6.98300 5.60700 28.63800
C  7.81400 5.37100 23.92700
C  10.45600 1.35000 24.56800
N  8.46100 3.63400 28.81700
C  9.30100 3.04700 29.70800
C  8.96700 3.51600 31.15400
C  7.79200 4.58900 30.88700
C  7.71500 4.61700 29.35300
C  6.46900 4.31700 31.72100
C  10.16400 4.14400 31.91500
C  9.82700 5.04300 33.10600
H  10.73000 4.97800 34.31400
N  7.53200 5.33100 26.36800
C  6.90400 6.05500 27.28900
C  6.13100 7.12800 26.58200
C  6.28600 6.99400 25.17300
C  7.25400 5.91400 25.08700
C  5.22500 8.03200 27.41400
C  5.70600 7.79100 23.95700
O  5.94500 7.45700 22.75900
C  4.66600 8.86600 24.26100
N  9.04300 3.26700 24.56000
C  8.47600 4.15200 23.66200
C  8.86300 3.79000 22.22700
C  9.78200 2.55100 22.41400
C  9.75100 2.35900 23.92100
C  7.67300 3.66000 21.27200
C  11.20900 2.82500 21.87700
C  11.74100 1.67400 20.97800
N  10.14000 2.07000 26.85500
C  10.72300 1.16000 25.90300
C  11.54800 0.22900 26.61100
C  11.40400 0.59000 27.98900
C  10.45600 1.56000 28.09800
C  12.46500 -0.74500 25.99500
C  11.83100 0.25000 29.31300
O  12.61500 -0.66200 29.66200
C  11.12900 1.28700 30.31900
C  10.50500 0.52800 31.45600
O  9.54700 -0.20800 31.38400
O  11.16900 0.90800 32.57000
C  10.52400 0.55300 33.86600
H  6.28600 6.14800 29.28200
H  7.67800 5.99500 23.04100
H  10.94500 0.66500 23.87200
H  8.58700 2.67400 31.73300
H  7.94100 5.65000 31.08700
H  5.54400 4.21500 31.15300
H  6.39400 5.13800 32.43400
H  6.61800 3.36500 32.23000
H  10.85000 4.64300 31.23000
H  10.72200 3.24400 32.17400
H  8.83800 4.80800 33.49900
H  9.77300 6.10300 32.85500
H  5.38400 7.99600 28.49200
H  4.22300 7.75000 27.09100
H  5.51200 9.03900 27.11000
H  4.15700 9.35400 23.42900
H  5.27400 9.63600 24.73700
H  3.90100 8.58600 24.98500
H  9.48400 4.59100 21.82700
H  9.32200 1.74700 21.84000
H  7.67200 4.14800 20.29700
H  6.88300 4.20600 21.78800
H  7.28000 2.64700 21.19400
H  11.85500 2.88400 22.75300
H  11.35100 3.78400 21.37900
H  12.56800 1.16300 21.47100
H  12.23600 2.13400 20.12300
H  11.02800 0.91300 20.66000
H  12.91500 -1.31500 26.80800
H  13.25500 -0.25400 25.42800
H  11.92800 -1.30600 25.23000
H  12.02500 1.83200 30.61500
H  9.95600 -0.37700 33.89900
H  9.89000 1.39100 34.15900
H  11.24300 0.54400 34.68500
Mg 24.12000 -5.71400 45.23500
C  26.46700 -3.63900 43.97100
C  21.83700 -4.35500 43.24400
C  22.26900 -8.57500 45.58700
C  26.67900 -7.35200 47.07200
N  24.14900 -4.12800 43.89400
C  25.17800 -3.34100 43.53800
C  24.78600 -2.30500 42.45300
C  23.21600 -2.27700 42.66200
C  23.00300 -3.67700 43.27000
C  22.64200 -1.16100 43.53300
C  25.29500 -2.79300 41.01500
C  26.13400 -1.87600 40.11400
H  25.77600 -1.93000 38.62800
N  22.26200 -6.39400 44.53000
C  21.39800 -5.62300 43.77200
C  20.22000 -6.35100 43.49000
C  20.34000 -7.59500 44.17300
C  21.64700 -7.61000 44.80600
C  19.04300 -5.76300 42.80400
C  19.31200 -8.70500 44.18000
O  18.29400 -8.58700 43.48400
C  19.47600 -9.94600 44.94600
N  24.52800 -7.80100 46.10900
C  23.50100 -8.65600 46.22500
C  23.85200 -9.77000 47.27900
C  25.22100 -9.29300 47.92300
C  25.48300 -8.02900 47.02700
C  22.69200 -10.01700 48.31000
C  26.33300 -10.31700 47.86100
C  26.99100 -10.62200 49.22800
N  26.18800 -5.60400 45.51200
C  27.13500 -6.29200 46.30100
C  28.47600 -5.78100 46.08300
C  28.27300 -4.76700 45.16200
C  26.89500 -4.65900 44.88200
C  29.70600 -6.20000 46.93100
C  28.87500 -3.66300 44.38800
O  30.08400 -3.30300 44.40300
C  27.76000 -2.95200 43.54000
C  27.91400 -1.49100 43.86000
O  28.54800 -0.66100 43.25000
O  27.22700 -1.24500 45.04900
C  27.39100 0.14700 45.50100
H  21.05100 -3.91300 42.62800
H  21.66200 -9.48200 45.62300
H  27.48400 -7.68400 47.73100
H  25.19200 -1.33500 42.73900
H  22.75000 -2.18500 41.68000
H  23.43100 -0.48000 43.84900
H  22.09200 -1.57300 44.37900
H  21.97800 -0.61800 42.86000
H  24.45300 -3.23700 40.48500
H  25.88700 -3.69700 41.15500
H  27.16700 -2.19200 40.25800
H  25.92300 -0.85600 40.43500
H  18.65200 -6.46700 42.06900
H  19.24400 -4.79200 42.35200
H  18.25900 -5.62900 43.54900
H  20.31900 -10.55600 44.62100
H  18.63000 -10.60800 44.76600
H  19.37600 -9.62000 45.98100
H  24.04400 -10.68700 46.72300
H  25.09000 -8.91600 48.93700
H  22.20400 -10.97400 48.12500
H  21.94700 -9.22300 48.37100
H  23.16400 -10.24500 49.26500
H  27.01600 -9.96800 47.08700
H  25.97400 -11.24000 47.40700
H  26.20800 -10.95000 49.91200
H  27.47300 -9.69900 49.55000
H  27.61400 -11.51500 49.17000
H  30.21500 -7.04800 46.47300
H  29.34600 -6.51300 47.91100
H  30.39200 -5.38300 47.15100
H  27.97100 -3.02000 42.47300
H  26.70300 0.37000 46.31700
H  27.35800 0.97600 44.79400
H  28.38600 0.20500 45.94300

