158

Mg 1.51800 9.10200 26.78300
C  1.74200 11.34000 29.57100
C  1.70700 6.51400 29.00300
C  2.13200 7.02800 24.09400
C  1.78600 11.76000 24.64400
N  1.74800 8.98300 29.00600
C  1.45300 9.98300 29.84100
C  1.23600 9.43700 31.25400
C  1.53500 7.93900 31.16600
C  1.63300 7.77200 29.62700
C  2.79500 7.37000 31.90200
C  -0.26100 9.75500 31.68700
C  -0.47400 9.57500 33.20000
H  0.70700 9.01400 34.10900
N  1.76200 6.96300 26.54900
C  1.83500 6.15100 27.64900
C  1.99500 4.77700 27.12300
C  2.00800 4.84900 25.66500
C  1.96100 6.30000 25.35200
C  1.98900 3.52600 28.11300
C  1.98500 3.85700 24.53600
O  1.86700 4.16400 23.33500
C  2.20500 2.44500 24.87500
N  1.68200 9.32900 24.73700
C  1.98100 8.37500 23.84400
C  2.01500 8.94800 22.44200
C  1.41900 10.35100 22.65800
C  1.66600 10.47700 24.11300
C  3.47900 9.01500 21.86000
C  -0.14600 10.45200 22.32100
C  -0.46200 11.46900 21.18400
N  1.76900 11.18800 26.95700
C  1.89100 12.16000 25.99500
C  2.12000 13.44400 26.69100
C  2.08000 13.13800 28.09800
C  1.91000 11.74800 28.21000
C  2.38900 14.80800 26.03400
C  2.16800 13.67700 29.42400
O  2.51700 14.80000 29.64500
C  1.83100 12.52900 30.46700
C  2.93000 12.48100 31.44700
O  4.08700 12.37800 31.16200
O  2.45000 12.57200 32.69500
C  3.40300 12.44100 33.74000
H  1.73900 5.73700 29.77000
H  2.28400 6.52300 23.13800
H  1.71300 12.61000 23.96200
H  1.97500 9.95300 31.86800
H  0.67000 7.37200 31.51000
H  3.21500 7.89900 32.75800
H  3.63800 7.17600 31.23900
H  2.51600 6.42800 32.37400
H  -0.86000 9.12100 31.03400
H  -0.60400 10.76800 31.47900
H  -1.29200 8.86900 33.33800
H  -0.57200 10.58300 33.60200
H  2.70400 3.73300 28.90900
H  2.24700 2.57600 27.64700
H  1.01200 3.46800 28.59300
H  1.27300 2.10900 25.33000
H  2.90100 2.35000 25.70800
H  2.54200 1.87600 24.00900
H  1.39200 8.35300 21.77400
H  1.92300 11.13800 22.09600
H  3.85400 10.03800 21.85500
H  3.27300 8.64000 20.85700
H  4.17600 8.47500 22.50100
H  -0.71900 10.76100 23.19500
H  -0.38600 9.48800 21.87200
H  0.45500 11.37900 20.60100
H  -0.45200 12.50900 21.51100
H  -1.39300 11.36200 20.62700
H  1.56400 15.50000 26.20600
H  2.58200 14.74800 24.96300
H  3.40500 15.00500 26.37600
H  0.91700 12.81900 30.98600
H  4.16900 11.68300 33.57700
H  2.78300 12.16500 34.59200
H  3.74000 13.46400 33.90100
Mg -0.15900 44.03500 26.56900
C  1.98300 43.84900 29.24700
C  -2.92200 43.35500 28.89500
C  -2.50800 43.58400 24.02000
C  2.35300 44.17500 24.30300
N  -0.44100 43.59300 28.81900
C  0.63800 43.65900 29.71000
C  0.07400 43.42600 31.10500
C  -1.41100 43.05800 30.89900
C  -1.58700 43.43400 29.42200
C  -1.88500 41.60700 31.25200
C  0.31900 44.68600 31.95600
C  0.29300 44.55300 33.49400
H  -0.02600 43.22300 34.08500
N  -2.39500 43.55400 26.53300
C  -3.27400 43.32600 27.50900
C  -4.60500 42.98800 27.06500
C  -4.54800 43.34600 25.65400
C  -3.08400 43.50600 25.34000
C  -5.70900 42.56300 27.96100
C  -5.66400 43.52700 24.63300
O  -5.44300 43.59600 23.43900
C  -7.05700 43.57400 25.22800
N  -0.04200 43.76600 24.40600
C  -1.14100 43.74100 23.58600
C  -0.70900 43.73000 22.18100
C  0.72400 44.24300 22.22000
C  1.08300 44.04500 23.70400
C  -0.90900 42.30300 21.64800
C  0.99700 45.65100 21.82000
C  1.61900 45.72800 20.37500
N  1.74600 44.10000 26.69200
C  2.74400 44.23600 25.70100
C  4.01500 44.34600 26.30300
C  3.78400 44.15400 27.72000
C  2.37600 44.03300 27.88600
C  5.32600 44.31700 25.58600
C  4.48200 44.08000 29.01300
O  5.68300 44.08500 29.32400
C  3.29100 43.81300 30.01800
C  3.48300 42.58100 30.68300
O  3.65400 41.53900 30.07900
O  3.69900 42.76300 32.01300
C  4.24500 41.59500 32.73200
H  -3.67100 43.14900 29.66300
H  -3.11500 43.48800 23.11700
H  3.13300 44.39800 23.57200
H  0.61000 42.57900 31.53400
H  -2.00200 43.77900 31.46400
H  -2.08500 41.02700 30.35100
H  -2.86300 41.60500 31.73400
H  -1.07300 41.20900 31.86000
H  -0.49800 45.37900 31.75800
H  1.24500 45.16500 31.63800
H  -0.35100 45.30100 33.95500
H  1.28700 44.85300 33.82700
H  -5.39500 42.30400 28.97200
H  -6.34900 41.81900 27.48700
H  -6.37100 43.41900 28.09300
H  -7.30500 44.55200 25.64000
H  -7.32200 42.73200 25.86800
H  -7.74000 43.49000 24.38300
H  -1.40500 44.42800 21.71600
H  1.36400 43.54400 21.68100
H  -1.92900 42.14200 21.29800
H  -0.62400 41.56500 22.39700
H  -0.25500 42.24300 20.77800
H  1.59900 46.15600 22.57500
H  0.05000 46.19000 21.85700
H  1.24400 46.66600 19.96700
H  1.35200 44.87900 19.74600
H  2.66200 46.00000 20.53300
H  5.06100 44.67400 24.59100
H  5.68000 43.28700 25.57400
H  6.02800 44.96400 26.11200
H  3.24800 44.61600 30.75300
H  5.31800 41.70100 32.57300
H  3.93400 40.56800 32.54000
H  4.03800 41.90400 33.75700

