158

Mg 46.87800 16.64700 28.31700
C  44.86700 16.25000 31.14600
C  49.20600 18.24500 30.25900
C  48.64300 17.26300 25.60900
C  44.40700 14.96900 26.42700
N  46.93900 17.22300 30.40400
C  46.08500 16.92900 31.40500
C  46.67600 17.29900 32.79400
C  47.89500 18.16000 32.39800
C  48.06500 17.84900 30.89800
C  47.71300 19.71600 32.69600
C  46.97500 16.05800 33.62600
C  46.27200 16.00400 35.06200
H  46.63900 17.19600 35.98600
N  48.70000 17.59000 27.94000
C  49.57800 17.98200 28.92000
C  50.71300 18.52700 28.30600
C  50.52000 18.38600 26.88800
C  49.20700 17.77500 26.71200
C  51.97300 19.15300 29.06100
C  51.35000 18.91000 25.71900
O  50.91500 18.91200 24.57900
C  52.72400 19.53600 25.95300
N  46.47400 16.49300 26.31200
C  47.40100 16.67600 25.34500
C  46.98900 16.18700 23.96300
C  45.70900 15.47500 24.29900
C  45.49300 15.65500 25.80000
C  46.85200 17.27100 22.85200
C  45.66800 14.05800 23.77500
C  46.52100 12.97100 24.63700
N  45.00800 15.79000 28.66400
C  44.13900 15.09800 27.83800
C  42.97700 14.58200 28.60500
C  43.27100 14.95500 29.90700
C  44.46100 15.77200 29.88300
C  41.81100 13.76200 28.15900
C  42.74300 14.98500 31.27600
O  41.71600 14.54200 31.76000
C  43.92000 15.73400 32.12100
C  43.22300 16.80800 32.88600
O  43.13000 17.99900 32.54200
O  42.93100 16.32200 34.11100
C  42.07200 17.10700 35.04700
H  50.01000 18.56600 30.92500
H  49.27300 17.12400 24.72800
H  43.70900 14.42500 25.78800
H  45.84800 17.83100 33.26300
H  48.76200 17.81800 32.96300
H  46.93300 19.98700 33.40700
H  47.33100 20.16100 31.77700
H  48.69000 20.14200 32.92400
H  48.05600 15.96900 33.73500
H  46.73100 15.19600 33.00500
H  46.76900 15.11700 35.45400
H  45.18500 15.92000 35.02900
H  52.88300 18.66200 28.71700
H  52.07300 18.94900 30.12700
H  52.07500 20.21000 28.81500
H  52.62900 20.40900 26.59900
H  53.11800 19.75300 24.96000
H  53.41300 18.76000 26.28500
H  47.69900 15.45800 23.57200
H  44.85000 15.84100 23.73700
H  45.93700 17.06000 22.29800
H  47.62900 17.20800 22.09000
H  46.76400 18.23400 23.35500
H  46.20900 14.03300 22.82800
H  44.63400 13.74600 23.63200
H  47.42200 13.38600 25.08700
H  46.84400 12.20500 23.93300
H  45.83800 12.60900 25.40600
H  41.90600 13.71900 27.07400
H  40.84200 14.26200 28.13800
H  41.82400 12.75100 28.56600
H  44.31400 14.97600 32.79700
H  42.60200 17.39200 35.95500
H  41.26800 16.47400 35.42400
H  41.69100 18.00400 34.55900
Mg 16.83300 51.84700 26.45600
C  18.70400 50.68200 29.13200
C  14.51600 52.89500 28.94200
C  14.93200 52.83500 24.08100
C  19.13200 50.55300 24.23000
N  16.72100 51.94700 28.75500
C  17.58800 51.37100 29.60900
C  17.28700 51.71500 31.10300
C  15.75800 52.17000 31.01600
C  15.62500 52.31700 29.49600
C  14.68600 51.07900 31.47300
C  18.27200 52.80100 31.69900
C  18.65300 52.62000 33.24800
H  17.69800 51.77500 34.13200
N  15.05000 52.81900 26.45100
C  14.28900 53.23200 27.56400
C  13.11900 53.99600 26.99700
C  13.14600 53.90300 25.56600
C  14.40600 53.18100 25.29000
C  12.10000 54.61000 27.96400
C  12.09600 54.23600 24.54200
O  12.19200 53.91400 23.37000
C  10.89000 54.97300 25.01000
N  16.97000 51.67000 24.38400
C  16.11100 52.32300 23.58400
C  16.48000 52.10600 22.12100
C  17.94900 51.62500 22.24900
C  18.07700 51.36100 23.69700
C  15.63700 50.98300 21.43700
C  18.97500 52.64100 21.72500
C  20.25600 52.06300 21.13400
N  18.54800 50.87500 26.64300
C  19.38200 50.38900 25.64300
C  20.56100 49.82400 26.24400
C  20.25300 49.88500 27.61200
C  19.07700 50.57100 27.78200
C  21.79200 49.35900 25.56800
C  20.89800 49.51700 28.86100
O  21.98700 49.00900 29.09400
C  19.74800 50.05400 29.89200
C  19.20200 48.96900 30.77900
O  18.17100 48.31600 30.53400
O  19.90600 48.95400 32.01400
C  19.36100 48.02900 33.01700
H  13.76000 53.23300 29.65400
H  14.31000 53.26500 23.29300
H  19.95800 50.32100 23.55400
H  17.51800 50.83600 31.70500
H  15.46700 53.13600 31.42800
H  14.07300 51.48900 32.27600
H  15.12500 50.18300 31.91100
H  13.98500 50.90600 30.65700
H  17.83200 53.79400 31.60900
H  19.11800 52.95400 31.02900
H  18.50200 53.63600 33.61200
H  19.71100 52.37900 33.35000
H  11.73500 55.62000 27.77400
H  12.62900 54.70600 28.91200
H  11.25200 53.94800 28.14200
H  11.12700 55.89000 25.54900
H  10.36800 54.32400 25.71400
H  10.20800 55.18900 24.18700
H  16.43100 53.08700 21.64800
H  18.05600 50.62700 21.82500
H  15.18700 50.42500 22.25800
H  16.14900 50.31400 20.74600
H  14.83500 51.41300 20.83800
H  19.29400 53.27600 22.55200
H  18.35600 53.22800 21.04700
H  21.12400 52.32300 21.74000
H  20.39700 52.47500 20.13500
H  20.17500 50.97600 21.15200
H  22.05800 50.17500 24.89600
H  21.42400 48.64000 24.83600
H  22.63800 49.13500 26.21800
H  20.30200 50.72800 30.54600
H  18.30900 47.90000 32.76100
H  19.36000 48.32600 34.06600
H  19.84600 47.05900 32.90700

