158

Mg 30.29000 57.79300 40.48400
C  27.57400 55.96400 39.29400
C  32.42600 55.30400 39.30400
C  32.77900 59.99800 40.58100
C  28.07800 60.49100 41.18400
N  30.00300 55.88400 39.31100
C  28.79200 55.28600 38.99000
C  29.11200 53.98800 38.33400
C  30.52300 53.60100 38.80700
C  31.03700 55.01000 39.19700
C  30.55100 52.61600 40.08100
C  29.01500 53.83400 36.83600
C  28.05100 52.64500 36.35000
H  27.15400 53.04900 35.18300
N  32.33100 57.68700 39.95200
C  33.00900 56.57900 39.53200
C  34.38900 56.83200 39.52500
C  34.50100 58.21200 39.94700
C  33.15400 58.72200 40.16800
C  35.45300 55.82200 39.11600
C  35.86400 58.96400 40.10300
O  36.87900 58.41100 39.78500
C  36.13100 60.29800 40.72600
N  30.40000 59.98400 40.82400
C  31.56600 60.58400 40.87900
C  31.42300 62.07300 41.16800
C  29.84400 62.13500 41.55300
C  29.38500 60.82700 41.09400
C  32.39300 62.52700 42.35800
C  28.96500 63.33000 41.05300
C  29.63000 64.65100 40.84500
N  28.29300 58.09000 40.53900
C  27.52800 59.22000 40.83200
C  26.11100 58.98800 40.67000
C  26.15600 57.68700 40.06700
C  27.44000 57.24800 39.95100
C  25.06500 59.85600 41.17100
C  25.19400 56.63700 39.51100
O  23.96900 56.57300 39.34200
C  26.12700 55.45800 39.00800
C  25.80300 54.27400 39.78300
O  25.62400 54.25100 40.96000
O  25.58400 53.20700 38.94400
C  25.17800 51.96800 39.59200
H  32.99000 54.40000 39.06500
H  33.61700 60.69800 40.60900
H  27.45600 61.27900 41.61400
H  28.39600 53.29900 38.78200
H  31.11800 53.15100 38.01200
H  30.81100 51.70500 39.54200
H  29.66800 52.29000 40.63200
H  31.27000 52.95700 40.82600
H  29.97400 53.80100 36.31900
H  28.61800 54.76200 36.42400
H  27.42300 52.48500 37.22700
H  28.57300 51.74500 36.02600
H  35.36800 55.60400 38.05100
H  35.33400 54.86900 39.63200
H  36.39100 56.20700 39.51500
H  37.21400 60.39500 40.80600
H  35.60300 60.39000 41.67500
H  35.68700 61.05700 40.08300
H  31.56800 62.57800 40.21300
H  29.76600 62.21700 42.63700
H  33.09000 63.32200 42.09000
H  32.89700 61.71300 42.87800
H  31.81400 62.98800 43.15800
H  28.28000 63.39000 41.89800
H  28.49900 63.05100 40.10800
H  30.49300 64.55500 41.50400
H  28.88000 65.41700 41.04100
H  29.80000 64.69300 39.76900
H  25.47400 60.29500 42.08100
H  24.26300 59.17700 41.46100
H  24.70700 60.59300 40.45300
H  26.00400 55.27600 37.94000
H  24.52300 51.36100 38.96800
H  24.77600 52.06700 40.60000
H  26.10700 51.40900 39.70600
Mg 16.80500 51.93600 26.57900
C  18.66700 50.19700 29.19900
C  14.33000 52.52000 28.81800
C  15.08600 53.15700 24.09400
C  19.32000 50.69200 24.34000
N  16.59600 51.53000 28.73400
C  17.43300 50.82000 29.61400
C  17.04300 51.09500 31.04800
C  15.59800 51.59100 30.90900
C  15.45600 51.86500 29.38000
C  14.42600 50.62200 31.23900
C  18.01100 52.14400 31.69400
C  18.50600 51.91300 33.15000
H  17.62700 51.03600 34.05100
N  15.06000 52.90900 26.54400
C  14.11700 52.95200 27.51300
C  12.91700 53.53800 27.04100
C  13.16800 53.87000 25.68400
C  14.51200 53.32800 25.37400
C  11.72200 53.83700 27.87600
C  12.24300 54.52000 24.66100
O  12.49700 54.49600 23.49300
C  11.06500 55.29800 25.15700
N  17.14100 51.81900 24.48900
C  16.19700 52.38800 23.74400
C  16.54400 52.19400 22.21300
C  17.96000 51.46200 22.31700
C  18.17600 51.23800 23.77700
C  15.66400 51.32000 21.27000
C  19.16700 52.06300 21.64600
C  19.55800 53.54900 22.03800
N  18.62800 50.70900 26.73500
C  19.49100 50.30700 25.71700
C  20.62700 49.64500 26.29800
C  20.31500 49.53700 27.67900
C  19.11400 50.15100 27.91200
C  21.76600 49.09400 25.53000
C  20.76900 48.98500 28.91600
O  21.80600 48.39800 29.20300
C  19.73500 49.47800 30.00000
C  19.38100 48.38700 30.86700
O  18.80200 47.37200 30.59800
O  19.80600 48.69200 32.12200
C  19.60600 47.61200 33.13100
H  13.48100 52.49100 29.50500
H  14.50300 53.25900 23.17700
H  20.16800 50.29200 23.78000
H  17.12000 50.15200 31.59000
H  15.44400 52.56500 31.37500
H  13.64400 51.09000 31.83700
H  14.94100 49.85700 31.82000
H  14.06000 50.14300 30.33100
H  17.57500 53.13600 31.81600
H  18.95100 52.21000 31.14700
H  18.70400 52.90800 33.54900
H  19.46300 51.39400 33.09600
H  11.51400 54.90700 27.86200
H  11.78000 53.50300 28.91200
H  10.88500 53.28300 27.45100
H  10.56600 55.83500 24.35000
H  11.53800 56.02300 25.81900
H  10.37000 54.52600 25.48600
H  16.65700 53.14000 21.68200
H  17.84700 50.41100 22.05300
H  14.69300 51.07000 21.69600
H  16.13200 50.41800 20.87500
H  15.48500 51.96100 20.40700
H  18.82500 52.04500 20.61100
H  20.14700 51.58600 21.67400
H  19.24000 53.78200 23.05500
H  19.11700 54.32200 21.40800
H  20.63900 53.68800 22.05600
H  21.87700 49.31900 24.46900
H  21.67800 48.01200 25.61900
H  22.66600 49.21900 26.13200
H  20.33700 50.14900 30.61300
H  20.09800 46.65000 32.98800
H  18.56300 47.35400 33.31100
H  20.06500 48.07100 34.00800

