158

Mg 47.76600 25.04300 28.44100
C  49.01300 27.21300 30.99200
C  46.96500 22.83500 30.81600
C  47.65400 22.86000 26.09500
C  49.04700 27.51900 26.12800
N  47.88200 25.16200 30.63100
C  48.21400 26.19000 31.47300
C  47.90000 25.88700 32.89800
C  47.44500 24.37700 32.79000
C  47.39400 24.06500 31.33300
C  48.21400 23.45300 33.73800
C  46.99800 27.02400 33.55000
C  46.09500 26.72100 34.74700
H  46.04500 27.74800 35.90900
N  47.32100 23.07800 28.44000
C  46.95900 22.31300 29.53600
C  46.54800 20.97600 29.19900
C  46.86200 20.93400 27.80000
C  47.28600 22.28600 27.37300
C  45.98000 19.87800 30.12200
C  46.77100 19.73000 26.81900
O  47.17100 19.87100 25.65300
C  46.20200 18.33300 27.35100
N  48.24700 25.13200 26.38900
C  48.08700 24.09300 25.62000
C  48.31900 24.47200 24.13500
C  48.49800 25.98500 24.15300
C  48.55500 26.26900 25.63000
C  49.66500 23.78400 23.57500
C  47.33900 26.76600 23.30700
C  47.74200 27.35100 22.00200
N  48.81500 26.98300 28.49000
C  49.19700 27.85800 27.50600
C  49.96300 28.96700 28.05200
C  49.86600 28.85900 29.41700
C  49.23600 27.54300 29.61700
C  50.43400 30.12100 27.22600
C  50.07100 29.47700 30.77400
O  50.68500 30.47800 31.14300
C  49.47400 28.42700 31.78900
C  50.54400 28.17100 32.75100
O  51.42600 27.38500 32.48000
O  50.30600 28.72700 34.00400
C  51.27700 28.33000 35.05400
H  46.63800 22.12500 31.57900
H  47.56500 22.17500 25.24900
H  49.33800 28.30200 25.42600
H  48.86100 26.05700 33.38300
H  46.39300 24.42500 33.07000
H  48.93500 23.98700 34.35600
H  48.76700 22.69200 33.18700
H  47.47600 22.94100 34.35600
H  46.27200 27.16200 32.74800
H  47.66500 27.84900 33.80100
H  46.43500 25.73600 35.06900
H  45.08100 26.50200 34.41000
H  44.98400 19.67800 29.72700
H  45.83200 20.34200 31.09700
H  46.58600 18.97500 30.19300
H  45.26500 18.42700 27.89900
H  46.97600 18.03700 28.05900
H  46.13300 17.62100 26.52900
H  47.52100 24.04700 23.52600
H  49.48100 26.25400 23.76500
H  50.53200 24.44200 23.63200
H  49.64400 23.46500 22.53300
H  49.85900 22.91800 24.20700
H  47.11900 27.62600 23.93900
H  46.44800 26.13900 23.31900
H  47.13100 26.95600 21.19100
H  48.75200 27.05700 21.71600
H  47.69400 28.43900 21.97100
H  50.83600 29.77000 26.27500
H  51.09500 30.77400 27.79500
H  49.62900 30.83300 27.04600
H  48.65000 28.95300 32.27100
H  52.26100 28.79800 35.07100
H  51.37400 27.24900 34.95800
H  50.88700 28.73400 35.98900
Mg 42.83900 41.42100 26.47800
C  41.49500 43.64500 28.72000
C  43.60300 39.24000 29.02200
C  43.93800 39.29800 24.17100
C  41.80600 43.66500 23.94600
N  42.67600 41.48100 28.61600
C  42.07900 42.57000 29.35100
C  42.07600 42.18100 30.85000
C  42.82200 40.79200 30.94800
C  43.05100 40.45800 29.42600
C  44.18900 40.75600 31.74700
C  40.69300 42.12500 31.53600
C  40.44200 43.05500 32.74600
H  39.93400 42.43600 34.06900
N  43.65200 39.51100 26.58500
C  43.88500 38.77500 27.75200
C  44.42700 37.55300 27.36300
C  44.79100 37.54900 25.99600
C  44.09300 38.82700 25.51500
C  44.68100 36.52800 28.39400
C  45.53200 36.59500 25.01700
O  45.85000 36.83700 23.85900
C  45.84600 35.30600 25.58900
N  42.79700 41.49900 24.40700
C  43.33700 40.49300 23.66900
C  43.03800 40.62600 22.18200
C  42.42200 42.08200 22.01700
C  42.31900 42.46300 23.56600
C  44.22600 40.33700 21.26000
C  41.14400 42.38100 21.16300
C  41.22900 43.66400 20.24400
N  41.92500 43.30600 26.33700
C  41.63700 44.11000 25.28100
C  40.94400 45.31900 25.71800
C  40.88400 45.16000 27.08600
C  41.48000 43.89300 27.38700
C  40.42400 46.38200 24.86300
C  40.45400 45.82200 28.24500
O  39.83200 46.86500 28.38900
C  40.86600 44.87100 29.45100
C  41.65000 45.68900 30.39000
O  42.78700 46.08900 30.18200
O  40.94000 45.97200 31.51300
C  41.55800 46.52900 32.67100
H  44.04300 38.55600 29.75200
H  44.21900 38.50100 23.47900
H  41.58400 44.34600 23.12300
H  42.68700 42.88800 31.41200
H  42.13300 40.08500 31.41200
H  44.05500 39.92400 32.43900
H  44.27300 41.66600 32.34000
H  45.03600 40.70800 31.06300
H  40.47400 41.17600 32.02500
H  39.90800 42.26700 30.79300
H  39.65600 43.72000 32.38900
H  41.37700 43.53400 33.03700
H  44.77100 35.58700 27.85100
H  43.93400 36.42800 29.18200
H  45.66300 36.72100 28.82500
H  46.60700 35.53900 26.33400
H  46.35700 34.68200 24.85700
H  45.08100 34.62200 25.95700
H  42.24300 39.88600 22.09500
H  43.22400 42.73500 21.67300
H  44.99900 39.75000 21.75600
H  44.70400 41.26200 20.93700
H  43.91300 39.77100 20.38300
H  40.34300 42.49900 21.89300
H  40.80800 41.51700 20.59100
H  41.66900 43.44500 19.27100
H  41.97800 44.35300 20.63400
H  40.33800 44.29100 20.19900
H  40.81700 46.37600 23.84700
H  40.73500 47.28500 25.38800
H  39.34600 46.22200 24.87600
H  39.92800 44.66000 29.96500
H  42.47600 47.09700 32.52100
H  41.79800 45.76400 33.40900
H  40.91100 47.28600 33.11400

