158

Mg 15.76400 -2.11500 27.64300
C  14.60600 0.13700 30.19400
C  17.78500 -3.42100 30.04000
C  17.08700 -3.93800 25.19400
C  13.81500 -0.25900 25.39000
N  16.33800 -1.50200 29.79100
C  15.60800 -0.74200 30.64000
C  16.10900 -0.85400 32.04900
C  17.22700 -1.90000 31.96900
C  17.19200 -2.24900 30.49600
C  18.62800 -1.55000 32.53400
C  15.08200 -1.26500 33.16900
C  15.15100 -0.64700 34.56000
H  16.43200 0.09900 34.99700
N  17.11800 -3.56600 27.65400
C  17.73900 -4.06200 28.78200
C  18.50400 -5.19300 28.41200
C  18.27100 -5.39400 27.00700
C  17.41200 -4.29200 26.56000
C  19.33200 -5.89800 29.43600
C  18.98500 -6.36300 26.01700
O  18.84000 -6.29000 24.79300
C  19.93500 -7.49100 26.47200
N  15.68500 -1.95900 25.52600
C  16.32500 -2.81800 24.72600
C  16.11800 -2.53200 23.30000
C  14.86400 -1.54100 23.36700
C  14.70100 -1.23900 24.83200
C  17.27500 -2.11500 22.39300
C  13.51900 -2.07500 22.76600
C  13.02600 -1.32100 21.44200
N  14.50000 -0.42500 27.70700
C  13.71900 0.11600 26.72600
C  12.90300 1.24300 27.31300
C  13.22300 1.21800 28.63400
C  14.13900 0.20400 28.85900
C  11.96500 2.08600 26.54700
C  13.04100 1.91500 29.88800
O  12.36500 2.85400 30.21500
C  13.84200 1.17100 31.01400
C  14.83900 2.07300 31.76300
O  15.98600 2.37400 31.44900
O  14.17800 2.65200 32.85700
C  14.96300 3.60800 33.66100
H  18.09500 -3.95800 30.93900
H  17.40400 -4.58400 24.37300
H  13.10700 0.21900 24.70900
H  16.58300 0.12000 32.17200
H  16.89100 -2.81600 32.45500
H  18.87100 -2.14300 33.41500
H  18.69600 -0.48100 32.73900
H  19.42800 -1.79200 31.83400
H  15.05500 -2.34800 33.29100
H  14.09600 -0.93800 32.83900
H  14.93100 -1.45200 35.26200
H  14.34000 0.08000 34.50900
H  18.74200 -6.18100 30.30700
H  20.05600 -5.19000 29.83900
H  19.82800 -6.82500 29.14300
H  20.31700 -7.89400 25.53500
H  19.65600 -8.29100 27.15800
H  20.80400 -7.04600 26.95800
H  15.73400 -3.43600 22.82700
H  15.11900 -0.58800 22.90300
H  17.14900 -1.06100 22.14700
H  17.50300 -2.79400 21.57100
H  18.02800 -2.23400 23.17200
H  12.74900 -1.96100 23.52800
H  13.65800 -3.14800 22.63300
H  12.59600 -2.04900 20.75400
H  13.84700 -0.73000 21.03700
H  12.26900 -0.57200 21.67500
H  11.01600 1.91900 27.05800
H  11.81200 1.61900 25.57400
H  12.19000 3.14100 26.39200
H  13.05400 0.89100 31.71300
H  15.89600 4.04800 33.30800
H  15.12500 3.20200 34.66000
H  14.42200 4.53700 33.84100
Mg 48.00400 25.21100 30.31600
C  49.20900 27.62400 32.67400
C  46.90900 23.48600 32.88500
C  47.22700 23.04000 28.04800
C  49.69500 27.18100 27.83700
N  47.89100 25.65600 32.51400
C  48.46600 26.62800 33.29800
C  48.06600 26.43500 34.80900
C  47.44500 25.00600 34.79600
C  47.37500 24.71400 33.27500
C  48.17100 23.94400 35.78800
C  47.12900 27.55600 35.36600
C  47.66000 28.18900 36.66500
H  46.64900 28.53200 37.82600
N  47.15500 23.34700 30.49100
C  46.74400 22.77900 31.62700
C  46.12500 21.49300 31.30800
C  46.21900 21.33500 29.83300
C  46.89600 22.56900 29.35900
C  45.34700 20.62800 32.26300
C  45.74200 20.29200 28.93700
O  46.22000 20.28700 27.76300
C  44.92900 19.13900 29.36000
N  48.50800 25.13600 28.32800
C  47.97900 24.13100 27.61600
C  48.31400 24.20400 26.11100
C  49.20500 25.46800 26.07400
C  49.10900 26.01700 27.49600
C  48.93500 22.92300 25.47400
C  48.77000 26.43000 25.04600
C  47.39000 27.12400 25.36000
N  49.23400 26.95700 30.17200
C  49.78600 27.69400 29.14100
C  50.47100 28.87100 29.57000
C  50.22300 28.88700 30.93400
C  49.53800 27.70400 31.27400
C  51.20000 29.85000 28.70500
C  50.45400 29.63600 32.18100
O  50.89800 30.78100 32.37600
C  49.85400 28.82300 33.32800
C  51.02500 28.44000 34.28100
O  51.98300 27.78700 34.03600
O  50.76600 29.02900 35.50500
C  51.62000 28.79500 36.66400
H  46.48300 22.87900 33.68700
H  46.84100 22.46500 27.20400
H  50.27500 27.69200 27.06500
H  48.97200 26.43000 35.41500
H  46.39200 25.04200 35.07400
H  48.54000 23.08300 35.23100
H  47.44000 23.70800 36.56200
H  49.00500 24.39700 36.32400
H  46.07800 27.28900 35.47100
H  47.06800 28.28100 34.55400
H  48.23300 29.09200 36.45200
H  48.42600 27.73200 37.29000
H  44.29900 20.57500 31.96600
H  45.44000 20.75400 33.34200
H  45.68800 19.59800 32.15700
H  44.00700 19.50700 29.81000
H  45.49400 18.50200 30.04100
H  44.69800 18.56800 28.46100
H  47.38500 24.35800 25.56200
H  50.26600 25.27400 25.91900
H  48.95800 22.13300 26.22400
H  49.89300 23.17600 25.02100
H  48.19100 22.63700 24.73100
H  48.80600 25.83200 24.13500
H  49.46200 27.27100 24.99600
H  47.60700 28.19200 25.38200
H  46.92000 26.71200 26.25300
H  46.78400 26.87700 24.48800
H  50.90900 29.83300 27.65500
H  52.26500 29.61800 28.72900
H  51.07900 30.82900 29.16900
H  49.09800 29.37000 33.89200
H  52.58300 28.37000 36.37800
H  51.14900 28.09400 37.35300
H  51.82800 29.71900 37.20400

