158

Mg 1.52400 -1.94300 44.16900
C  4.92100 -1.05900 43.70500
C  0.75300 1.06500 42.60500
C  -1.61000 -3.04700 43.94400
C  2.65600 -5.19700 44.98000
N  2.69000 -0.17900 43.27700
C  4.10500 -0.03200 43.23900
C  4.54600 1.26700 42.58900
C  3.15900 2.06100 42.51300
C  2.08000 0.95400 42.84500
C  2.93600 3.33100 43.36200
C  5.18800 0.96500 41.26500
C  6.64100 1.55700 41.11500
H  6.64800 2.54400 39.90800
N  -0.19800 -1.15700 43.34800
C  -0.31700 0.10300 42.73600
C  -1.61400 0.27500 42.17200
C  -2.41600 -0.90000 42.51700
C  -1.44300 -1.78100 43.31600
C  -1.94900 1.35700 41.23500
C  -3.80700 -1.15900 42.10500
O  -4.35500 -0.22800 41.48400
C  -4.49900 -2.46500 42.45300
N  0.71300 -3.84100 44.39200
C  -0.68000 -3.99500 44.42400
C  -1.14700 -5.48400 44.66500
C  0.27000 -6.11700 44.88500
C  1.27000 -4.96400 44.84400
C  -2.06400 -5.72500 45.93200
C  0.46200 -7.26600 43.80200
C  0.01100 -8.69200 44.23800
N  3.43700 -2.96100 44.52400
C  3.75500 -4.25800 44.83200
C  5.17800 -4.39700 44.89400
C  5.62800 -3.14500 44.62900
C  4.55200 -2.32700 44.26300
C  5.80600 -5.70600 45.20700
C  6.81900 -2.44000 44.48000
O  7.98400 -2.79600 44.70300
C  6.40600 -1.01700 43.96300
C  6.78000 0.09600 44.88600
O  6.10600 0.43800 45.78400
O  7.91000 0.76200 44.47900
C  8.37600 2.02100 45.17800
H  0.62200 2.06100 42.17700
H  -2.68100 -3.25100 43.88300
H  3.01200 -6.17500 45.31000
H  5.22200 1.81200 43.24800
H  2.85400 2.37800 41.51500
H  3.97600 3.62700 43.50500
H  2.47900 3.15800 44.33600
H  2.45000 4.18300 42.88700
H  4.57900 1.34000 40.44200
H  5.21300 -0.09200 40.99900
H  7.35100 0.74100 40.98000
H  6.89900 2.04800 42.05400
H  -2.30200 0.95400 40.28600
H  -1.13300 2.00700 40.91800
H  -2.67700 1.98700 41.74600
H  -5.45200 -2.54600 41.93100
H  -4.63900 -2.54900 43.53000
H  -3.92900 -3.28600 42.01700
H  -1.57400 -5.73700 43.69500
H  0.42400 -6.63800 45.83000
H  -3.09100 -5.53500 45.62200
H  -1.64800 -5.04500 46.67500
H  -2.08100 -6.71100 46.39500
H  1.51300 -7.28900 43.51500
H  -0.00900 -6.90000 42.89000
H  -0.71100 -9.07900 43.51900
H  -0.46100 -8.67500 45.22000
H  0.86100 -9.37000 44.31400
H  5.58200 -6.36300 44.36700
H  5.47500 -6.08200 46.17500
H  6.85300 -5.48200 45.41100
H  6.92700 -0.85600 43.01900
H  8.18900 2.94800 44.63700
H  9.45500 2.06300 45.32600
H  7.88400 2.07900 46.14900
Mg 35.94000 2.69500 30.64100
C  33.21600 3.40500 33.01600
C  38.17300 2.76900 33.36900
C  38.38600 1.94300 28.57000
C  33.59700 2.92000 28.15000
N  35.66700 3.08900 32.90200
C  34.49100 3.31800 33.61400
C  34.84800 3.32500 35.13100
C  36.42500 3.52400 35.13500
C  36.83900 3.13100 33.67800
C  36.91600 4.97700 35.50600
C  34.36100 2.03000 35.84900
C  33.87000 2.15200 37.32600
H  34.30500 3.41300 38.06000
N  37.99200 2.24200 30.95200
C  38.66800 2.23100 32.16000
C  40.04700 1.78400 31.83600
C  40.12700 1.62900 30.46900
C  38.79600 1.98300 29.95600
C  41.12400 1.69600 32.86800
C  41.27100 1.22200 29.61500
O  41.19100 1.04600 28.40500
C  42.56000 0.82700 30.31300
N  36.03600 2.59400 28.62600
C  37.18000 2.25400 27.93600
C  36.92000 2.35400 26.44500
C  35.34500 2.58200 26.33200
C  34.98000 2.72300 27.81700
C  37.83700 3.45200 25.83700
C  34.54200 1.33400 25.82500
C  33.49800 1.78500 24.84400
N  33.76500 3.17400 30.55200
C  33.00700 3.18800 29.43000
C  31.69300 3.46800 29.78000
C  31.62500 3.56000 31.18300
C  33.01100 3.40000 31.60700
C  30.53000 3.50800 28.83000
C  30.83300 3.75400 32.38200
O  29.66000 3.91100 32.51200
C  31.85800 3.69100 33.64800
C  31.86600 4.96300 34.39200
O  32.58900 5.94400 34.22100
O  30.96200 4.84000 35.41800
C  30.98600 5.98700 36.37000
H  38.79400 2.79900 34.26700
H  39.17200 1.79600 27.82600
H  32.87500 2.94300 27.33100
H  34.30700 4.14300 35.60700
H  36.88500 2.91000 35.90900
H  37.41900 4.93600 36.47200
H  36.04200 5.62800 35.51100
H  37.62700 5.22800 34.72000
H  35.15300 1.30600 35.66100
H  33.54100 1.69000 35.21600
H  34.08900 1.20900 37.82700
H  32.78000 2.15400 37.31300
H  41.69000 0.76500 32.83100
H  40.69200 1.67900 33.86800
H  41.88000 2.48100 32.86800
H  42.24400 -0.12100 30.75000
H  42.93000 1.61000 30.97300
H  43.26200 0.61400 29.50700
H  37.18400 1.36600 26.06700
H  35.06700 3.48900 25.79400
H  37.20400 4.13700 25.27400
H  38.64100 3.02500 25.23600
H  38.24000 4.09200 26.62100
H  34.05200 0.77100 26.61900
H  35.15100 0.63200 25.25600
H  33.79800 1.41100 23.86500
H  33.20700 2.82600 24.98800
H  32.58300 1.25300 25.10500
H  30.40900 2.54200 28.34100
H  30.61000 4.37600 28.17500
H  29.59500 3.65000 29.37100
H  31.58800 2.97600 34.42500
H  29.97000 6.37700 36.43300
H  31.60200 6.86700 36.18800
H  31.32600 5.64200 37.34600

