158

Mg 44.39800 4.72400 46.47800
C  42.02900 7.18500 46.02000
C  41.89900 2.35400 46.21600
C  46.73200 2.23700 46.35600
C  46.95100 7.15500 46.07100
N  42.19700 4.77300 46.04000
C  41.46400 5.93800 45.97700
C  39.98400 5.56300 45.97300
C  39.96600 4.06300 46.11400
C  41.44300 3.68400 46.09200
C  39.20200 3.70500 47.46500
C  39.27500 6.08900 44.76300
C  40.10000 6.02200 43.41100
H  39.18900 5.84000 42.17200
N  44.38400 2.58500 46.39300
C  43.21600 1.83000 46.33800
C  43.55000 0.41500 46.29300
C  44.96100 0.37300 46.54100
C  45.43900 1.79000 46.47600
C  42.50100 -0.72900 46.19600
C  45.76300 -0.91800 46.85100
O  45.23800 -1.98800 47.04800
C  47.21600 -0.94200 46.84600
N  46.55000 4.69000 46.01700
C  47.26200 3.55600 46.26600
C  48.72900 3.87500 46.12900
C  48.81200 5.39200 46.07900
C  47.35300 5.82300 45.92300
C  49.53900 3.25500 47.37100
C  49.68300 5.94400 44.89300
C  51.19600 5.85600 45.03300
N  44.55000 6.76800 46.22900
C  45.59900 7.62200 46.16400
C  45.12500 8.96600 46.18800
C  43.73100 8.85700 46.10700
C  43.46100 7.47700 46.16400
C  45.86800 10.24100 46.12800
C  42.48600 9.58800 45.91600
O  42.30400 10.77000 45.88800
C  41.35700 8.55700 45.94100
C  40.53200 8.86500 47.09500
O  40.78400 8.41400 48.20400
O  39.38100 9.51100 46.76800
C  38.47800 9.81100 47.92400
H  41.06200 1.66000 46.31500
H  47.52700 1.49000 46.39700
H  47.82800 7.79200 46.20200
H  39.48700 5.97600 46.85100
H  39.41800 3.61500 45.28500
H  38.47900 4.48500 47.70300
H  39.79500 3.73200 48.37900
H  38.70100 2.75100 47.29800
H  38.80100 7.03900 45.00800
H  38.38600 5.49300 44.55700
H  40.86300 5.24700 43.34900
H  40.65300 6.95800 43.32500
H  41.46500 -0.39400 46.14100
H  42.49300 -1.41100 47.04600
H  42.62900 -1.24400 45.24300
H  47.64900 -0.29300 47.60800
H  47.54900 -0.71700 45.83300
H  47.61700 -1.90100 47.17500
H  49.12900 3.30400 45.29100
H  49.11300 5.99300 46.93700
H  48.78300 2.96700 48.10300
H  50.03900 4.14200 47.75900
H  50.18500 2.42700 47.08000
H  49.58700 7.02600 44.80500
H  49.50400 5.20100 44.11600
H  51.55300 6.88500 44.99300
H  51.65100 5.26100 44.24100
H  51.48500 5.44200 45.99900
H  46.64800 10.10000 45.37900
H  46.24500 10.68500 47.04900
H  45.27500 11.03800 45.68000
H  40.75000 8.64200 45.03900
H  38.29900 8.84800 48.40200
H  37.55400 10.26800 47.56900
H  39.05800 10.46400 48.57600
Mg 10.34900 47.45500 25.31700
C  8.65100 47.74700 28.46000
C  13.11000 48.70200 26.87400
C  11.81500 47.45900 22.28600
C  7.22200 46.95800 23.89700
N  10.77400 48.07800 27.50000
C  10.02100 48.07100 28.61400
C  10.76300 48.53700 29.81100
C  12.07700 49.11300 29.19600
C  12.04900 48.51100 27.78400
C  12.17100 50.70300 29.15000
C  10.98400 47.37800 30.86600
C  10.42100 47.56000 32.32800
H  10.42300 46.29000 33.20500
N  12.26900 47.68900 24.73500
C  13.21500 48.20900 25.54800
C  14.46400 48.35000 24.83100
C  14.14800 47.91600 23.49000
C  12.73500 47.65400 23.42400
C  15.70200 48.81000 25.48900
C  15.04200 47.85700 22.30600
O  14.62200 47.45200 21.25500
C  16.46100 48.32500 22.34000
N  9.64600 47.38000 23.48200
C  10.43400 47.27300 22.35300
C  9.63800 47.07000 21.03900
C  8.30000 46.60700 21.60400
C  8.39200 46.99400 23.09900
C  9.62400 48.34100 20.11900
C  8.01100 45.06600 21.31500
C  8.26200 43.98600 22.43000
N  8.30000 47.44700 25.97700
C  7.09300 47.14700 25.29200
C  6.00500 47.16800 26.21900
C  6.62400 47.46600 27.42900
C  7.95400 47.57200 27.24000
C  4.66600 46.65100 25.80100
C  6.21700 47.51000 28.81300
O  5.10100 47.45100 29.35100
C  7.55700 47.68700 29.55400
C  7.69100 46.45900 30.52000
O  8.32900 45.46500 30.16300
O  6.85800 46.54600 31.59500
C  6.72200 45.29500 32.37200
H  13.94200 49.10300 27.45700
H  12.21700 47.44100 21.27100
H  6.28000 46.63600 23.44900
H  10.06700 49.28200 30.19500
H  12.83300 48.76200 29.89800
H  11.19100 51.16200 29.01500
H  12.79200 51.08900 28.34300
H  12.57100 51.03600 30.10800
H  12.06000 47.40400 31.03700
H  10.77200 46.40400 30.42700
H  9.38500 47.84300 32.14200
H  10.87500 48.29300 32.99500
H  16.15500 49.62600 24.92600
H  16.35300 47.97800 25.75700
H  15.58700 49.24300 26.48300
H  17.02100 47.79900 21.56700
H  16.90700 48.12800 23.31400
H  16.44900 49.40900 22.22600
H  10.12800 46.25300 20.50900
H  7.47200 47.26000 21.32600
H  8.57200 48.62800 20.12300
H  9.86600 48.10800 19.08200
H  10.33300 49.05100 20.54400
H  8.67700 44.72400 20.52300
H  7.04700 44.88500 20.83900
H  8.15400 44.39000 23.43600
H  9.20400 43.44600 22.34400
H  7.47500 43.23900 22.32800
H  3.97000 47.28000 26.35600
H  4.45700 45.59500 25.97000
H  4.48400 46.75600 24.73100
H  7.69100 48.54500 30.21200
H  7.64700 44.71800 32.40400
H  6.02500 44.61400 31.88400
H  6.46600 45.40200 33.42600

