158

Mg 25.30800 1.58000 29.23300
C  27.50100 1.17000 32.07100
C  22.70100 1.91100 31.39300
C  23.51400 1.94800 26.47100
C  28.13200 0.85200 27.25300
N  25.10500 1.42900 31.52500
C  26.09200 1.40200 32.45500
C  25.55700 1.57800 33.87300
C  23.99400 1.76200 33.60100
C  23.90300 1.76100 32.03700
C  23.01500 0.70300 34.26400
C  26.33200 2.61800 34.78700
C  25.42000 3.32400 35.71900
H  25.97400 4.07400 36.95000
N  23.33100 1.92200 28.95200
C  22.36300 1.87500 29.97100
C  21.11100 1.89000 29.27600
C  21.32700 1.97400 27.89300
C  22.76400 1.97700 27.71000
C  19.84800 1.96200 30.00000
C  20.34200 1.95300 26.75800
O  20.61900 2.18100 25.57900
C  18.84200 1.48900 27.03200
N  25.79800 1.45900 27.20500
C  24.87800 1.79300 26.19400
C  25.47400 1.67400 24.77200
C  27.00400 1.39900 25.07600
C  27.01200 1.15900 26.58800
C  24.89800 0.49400 23.84700
C  27.93600 2.66300 24.71700
C  27.75700 3.86500 25.53100
N  27.39900 1.06400 29.53600
C  28.40700 0.74400 28.63100
C  29.56300 0.38800 29.34800
C  29.29700 0.56300 30.65900
C  27.97000 0.97400 30.75100
C  30.86700 0.09900 28.67800
C  29.84100 0.45300 31.94100
O  30.90900 -0.04400 32.27900
C  28.72000 0.99100 32.98700
C  28.48400 -0.02900 34.09800
O  27.60500 -0.89400 34.06100
O  29.29600 0.12600 35.16800
C  29.03000 -0.73500 36.26800
H  21.81100 2.04500 32.01100
H  22.95200 2.08500 25.54500
H  28.95100 0.56500 26.59000
H  25.77400 0.65800 34.41600
H  23.65700 2.71600 34.00800
H  22.45600 0.15200 33.50800
H  22.19800 1.06400 34.88900
H  23.49900 0.00400 34.94500
H  26.87300 3.32500 34.15900
H  27.12000 1.99200 35.20500
H  24.53100 2.75700 35.99800
H  25.03100 4.09600 35.05600
H  19.13400 2.57700 29.45200
H  20.02300 2.48800 30.93800
H  19.47700 0.93700 30.02800
H  18.67500 0.80900 27.86700
H  18.49900 1.15000 26.05400
H  18.20200 2.35800 27.18400
H  25.19400 2.56700 24.21400
H  27.40500 0.47000 24.67000
H  24.24600 -0.09300 24.49400
H  25.71000 -0.07700 23.39600
H  24.40400 1.00900 23.02400
H  27.68300 2.95900 23.69900
H  28.94000 2.23900 24.74500
H  27.24200 3.61400 26.45800
H  27.23200 4.68100 25.03500
H  28.67800 4.32300 25.89200
H  30.82000 -0.91100 28.27100
H  31.65100 0.13400 29.43400
H  31.01000 0.74000 27.80900
H  28.97400 1.96400 33.40800
H  28.01000 -0.57300 36.61700
H  29.72500 -0.43300 37.05200
H  29.23100 -1.77100 35.99600
Mg 48.54400 35.20500 26.80000
C  46.44700 33.91100 29.27700
C  49.42800 37.90700 28.83600
C  50.12100 36.56600 24.10200
C  47.60400 32.56300 24.77300
N  48.01400 35.83200 28.74800
C  47.20200 35.07200 29.63400
C  47.46600 35.52300 31.06900
C  48.00600 37.03100 30.82700
C  48.55900 36.91400 29.38000
C  46.97000 38.11200 30.89200
C  48.65000 34.64800 31.80600
C  48.60600 34.44000 33.35200
H  47.73600 35.24500 34.34100
N  49.65700 36.99400 26.47900
C  49.98400 37.89200 27.46100
C  50.68400 38.97100 26.86900
C  50.80500 38.67800 25.51300
C  50.22300 37.29100 25.30400
C  51.16800 40.11600 27.76200
C  51.51900 39.54400 24.40900
O  51.56700 39.21200 23.21600
C  52.20800 40.84000 24.75600
N  48.70800 34.67500 24.69000
C  49.45700 35.32900 23.83000
C  49.55900 34.64900 22.41900
C  48.84500 33.25900 22.72000
C  48.37800 33.50500 24.14400
C  49.04500 35.45300 21.22800
C  49.71400 32.06500 22.46700
C  49.78300 31.56200 21.08500
N  47.38700 33.52400 26.95400
C  47.12300 32.51900 26.05400
C  46.20200 31.47500 26.63800
C  45.88600 32.05500 27.85100
C  46.62600 33.26100 28.01500
C  45.90600 30.09400 25.99700
C  45.10600 31.80200 29.02600
O  44.35800 30.89100 29.30100
C  45.40200 33.05600 29.96000
C  45.83800 32.58500 31.37200
O  46.72500 31.71700 31.56100
O  44.86100 33.04800 32.34300
C  44.96400 32.40300 33.67400
H  49.62700 38.70700 29.55200
H  50.71000 36.96300 23.27300
H  47.39400 31.70200 24.13500
H  46.59700 35.68300 31.70700
H  48.79000 37.40400 31.48500
H  45.98200 37.66900 30.77000
H  47.15200 38.77000 30.04100
H  46.92600 38.77500 31.75600
H  49.65400 34.98900 31.55700
H  48.63100 33.62900 31.42000
H  49.66600 34.57500 33.56700
H  48.60800 33.36800 33.55100
H  50.60300 41.00300 27.47500
H  52.22600 40.31800 27.59400
H  51.21500 39.97500 28.84200
H  52.67500 41.28700 23.87700
H  53.08500 40.48500 25.29800
H  51.63000 41.50900 25.39300
H  50.64500 34.65300 22.32900
H  47.91900 33.21100 22.14700
H  48.32900 36.17800 21.61500
H  48.43400 34.80300 20.60200
H  49.76900 36.05200 20.67400
H  49.36100 31.38900 23.24600
H  50.75700 32.27000 22.70700
H  50.76600 31.13900 20.87900
H  49.49700 32.32400 20.36000
H  49.10800 30.71000 21.00400
H  46.62400 29.88100 25.20600
H  44.91200 30.18600 25.55800
H  45.98000 29.27200 26.70900
H  44.59800 33.76500 30.16000
H  44.80300 31.32800 33.59100
H  44.25200 32.92100 34.31700
H  45.97300 32.53000 34.06400

