158

Mg 16.34900 -1.19400 27.99500
C  15.69300 0.92700 30.62600
C  18.77300 -2.80900 30.06700
C  17.67800 -2.86600 25.33600
C  14.87300 1.09500 25.90100
N  16.95600 -1.11300 30.17300
C  16.48100 -0.19100 31.07900
C  17.16000 -0.33900 32.49500
C  18.28100 -1.44100 32.20700
C  18.02100 -1.77900 30.72900
C  19.77100 -1.00500 32.63300
C  16.09500 -0.67600 33.52700
C  16.23100 -0.03300 34.90100
H  17.59700 0.50400 35.32000
N  17.91400 -2.72500 27.74400
C  18.72500 -3.24100 28.77200
C  19.30000 -4.49100 28.25800
C  18.97400 -4.65000 26.84900
C  18.18600 -3.39800 26.58600
C  20.02900 -5.47600 29.15800
C  19.33100 -5.76100 25.88900
O  19.16300 -5.65200 24.66800
C  19.89000 -7.02600 26.35200
N  16.14500 -1.01600 25.91000
C  16.80200 -1.74500 24.96100
C  16.45900 -1.18800 23.49000
C  15.24700 -0.20700 23.78600
C  15.41900 -0.06000 25.28300
C  17.68300 -0.52900 22.78800
C  13.86000 -0.85200 23.62200
C  12.83600 0.10400 23.00100
N  15.23700 0.53700 28.15600
C  14.72700 1.36700 27.24300
C  14.16100 2.49100 27.88700
C  14.55100 2.46200 29.20800
C  15.22600 1.20800 29.30400
C  13.51900 3.70400 27.25100
C  14.50300 3.17500 30.45000
O  13.83700 4.14600 30.76200
C  15.26300 2.21900 31.43700
C  16.42900 2.94000 31.99500
O  17.57800 2.98800 31.59900
O  15.98600 3.62300 33.07900
C  16.86400 4.56700 33.77700
H  19.55600 -3.21300 30.71200
H  18.07100 -3.34300 24.43600
H  14.30900 1.75900 25.24300
H  17.59700 0.61200 32.79900
H  18.24500 -2.34400 32.81600
H  19.75300 -0.13000 33.28200
H  20.35100 -0.75700 31.74400
H  20.27400 -1.83200 33.13500
H  16.01700 -1.74600 33.72300
H  15.18900 -0.32900 33.03000
H  15.98600 -0.75300 35.68100
H  15.54700 0.81500 34.91100
H  20.84600 -5.96800 28.63000
H  19.34700 -6.22500 29.55900
H  20.63100 -5.01300 29.94000
H  19.36100 -7.32300 27.25800
H  20.96900 -6.87700 26.35100
H  19.80300 -7.85900 25.65400
H  16.20200 -2.14900 23.04500
H  15.37500 0.75200 23.28500
H  17.73800 0.52600 23.05800
H  17.39900 -0.40900 21.74200
H  18.64500 -1.02300 22.92100
H  13.42200 -1.23200 24.54600
H  13.90500 -1.74100 22.99200
H  12.42800 -0.25800 22.05800
H  13.31200 1.07400 22.85700
H  11.98400 0.24400 23.66600
H  14.04500 4.57400 27.64300
H  12.49300 3.56800 27.59400
H  13.65600 3.50500 26.18800
H  14.53200 1.99800 32.21500
H  16.74800 5.54300 33.30700
H  17.90900 4.27400 33.67300
H  16.61600 4.55200 34.83800
Mg -12.42600 16.48900 42.15000
C  -9.29800 14.99500 41.88000
C  -11.29700 19.36100 40.81600
C  -15.69600 17.55600 42.02800
C  -13.72400 13.22300 42.76100
N  -10.50100 17.02200 41.25900
C  -9.28800 16.30700 41.29100
C  -8.09200 17.14700 40.79000
C  -8.72500 18.54400 40.68900
C  -10.27100 18.32600 40.92500
C  -8.04500 19.60600 41.63800
C  -7.50800 16.64000 39.53000
C  -6.03200 16.17900 39.72300
H  -5.51700 15.04400 38.83000
N  -13.34000 18.22900 41.49800
C  -12.67700 19.26400 40.97900
C  -13.55700 20.40700 40.90200
C  -14.83900 19.98400 41.25400
C  -14.70000 18.52300 41.65500
C  -13.15800 21.76600 40.36100
C  -16.05800 20.81100 41.16100
O  -16.08100 21.98600 40.81700
C  -17.38000 20.19000 41.53400
N  -14.44700 15.51500 42.37400
C  -15.60100 16.19400 42.26100
C  -16.80400 15.36700 42.44400
C  -16.19100 13.92600 42.52100
C  -14.72100 14.17200 42.40900
C  -17.63100 15.66300 43.67000
C  -16.66900 12.79400 41.43000
C  -17.01500 11.45600 42.13200
N  -11.74100 14.54500 42.43300
C  -12.35700 13.33300 42.71200
C  -11.36300 12.26500 42.76100
C  -10.15800 12.89000 42.51500
C  -10.44900 14.31500 42.29900
C  -11.59300 10.84600 43.09300
C  -8.65500 12.69000 42.38400
O  -7.96400 11.68300 42.50500
C  -8.12700 14.01900 41.97400
C  -7.16100 14.44900 42.96400
O  -7.35800 15.26200 43.84500
O  -5.94100 13.90000 42.69900
C  -4.79800 14.37500 43.48100
H  -10.83800 20.26700 40.41500
H  -16.72900 17.87000 41.86300
H  -14.21100 12.25300 42.88500
H  -7.31200 17.03100 41.54200
H  -8.59900 19.06400 39.74000
H  -8.56900 20.56100 41.60400
H  -7.05200 19.80400 41.23400
H  -8.21800 19.29700 42.66900
H  -7.39700 17.43400 38.79200
H  -8.15300 15.91600 39.03300
H  -5.78800 15.87200 40.74000
H  -5.37300 17.03400 39.57300
H  -13.75100 21.99100 39.47600
H  -12.17400 21.67100 39.90200
H  -13.11300 22.62200 41.03400
H  -17.60300 19.36100 40.86300
H  -18.17900 20.92100 41.41400
H  -17.48100 19.93300 42.58900
H  -17.31100 15.38400 41.47900
H  -16.44000 13.55700 43.51600
H  -17.50300 16.67900 44.04400
H  -17.40100 15.05500 44.54400
H  -18.67600 15.70400 43.36200
H  -15.82500 12.55000 40.78400
H  -17.46400 13.22700 40.82300
H  -16.65000 11.49300 43.15900
H  -16.48400 10.61600 41.68500
H  -18.09800 11.34400 42.08700
H  -10.71600 10.20100 43.13600
H  -12.28500 10.35400 42.41000
H  -11.92300 10.83100 44.13100
H  -7.58400 13.88800 41.03700
H  -4.25900 15.20000 43.01700
H  -4.17400 13.48200 43.45100
H  -5.07400 14.66800 44.49400

