158

Mg 0.97700 7.69900 27.42900
C  1.66700 9.76700 30.28900
C  0.31900 5.11600 29.80300
C  0.08800 5.77400 24.95800
C  1.69600 10.43400 25.36400
N  1.19700 7.34500 29.84000
C  1.29800 8.44100 30.72400
C  1.04900 8.00900 32.19700
C  0.74800 6.45300 32.00000
C  0.73700 6.27400 30.49700
C  1.79600 5.52200 32.72400
C  -0.20900 8.69300 32.69400
C  -0.26400 9.13100 34.15200
H  0.37400 8.26600 35.28200
N  0.34700 5.75500 27.39000
C  0.25400 4.80600 28.41000
C  -0.16500 3.54400 27.86300
C  -0.29500 3.71500 26.47400
C  0.05100 5.12300 26.17900
C  -0.24000 2.31100 28.80500
C  -0.66300 2.66600 25.41000
O  -0.63200 2.90300 24.21000
C  -1.11700 1.33900 25.86300
N  0.82800 8.07300 25.48800
C  0.55200 7.08200 24.61800
C  0.59800 7.58200 23.13800
C  1.14600 8.99200 23.25000
C  1.19100 9.25700 24.78100
C  1.35000 6.60500 22.23800
C  0.31600 10.07800 22.38800
C  -0.78500 10.84300 23.02100
N  1.70700 9.57700 27.69000
C  1.91400 10.56900 26.71700
C  2.20800 11.81600 27.43000
C  2.00200 11.54700 28.79900
C  1.80600 10.19000 28.92900
C  2.40200 13.16800 26.80800
C  2.05100 12.10000 30.10300
O  2.26300 13.26000 30.39800
C  1.78500 11.02400 31.11300
C  2.72900 11.11400 32.16800
O  3.89200 10.80300 32.11600
O  2.17000 11.73800 33.21200
C  3.01800 11.89500 34.39400
H  -0.00900 4.35900 30.51900
H  -0.17300 5.08300 24.15400
H  1.93100 11.20300 24.62400
H  1.93300 8.17400 32.81300
H  -0.21700 6.27100 32.47200
H  2.45000 4.93200 32.08100
H  1.20200 4.80200 33.28700
H  2.31400 6.14000 33.45800
H  -1.11800 8.10400 32.57300
H  -0.42900 9.52500 32.02500
H  -1.35200 9.18000 34.20200
H  0.09000 10.15300 34.28600
H  0.56300 1.60400 28.60100
H  -1.17900 1.77100 28.68200
H  -0.11400 2.55400 29.86000
H  -1.63800 0.84300 25.04300
H  -1.82700 1.48200 26.67700
H  -0.33900 0.66000 26.21200
H  -0.42900 7.60900 22.77300
H  2.19900 9.03400 22.97100
H  1.30800 7.01700 21.22900
H  0.84500 5.64100 22.29800
H  2.38100 6.50700 22.57700
H  -0.17200 9.56700 21.55800
H  1.06000 10.77000 21.99300
H  -1.56300 11.09800 22.30100
H  -0.44500 11.77500 23.47300
H  -1.33400 10.22400 23.73100
H  1.40300 13.59800 26.74200
H  2.96800 13.14100 25.87600
H  2.93000 13.85900 27.46500
H  0.83000 11.27800 31.57300
H  3.10500 10.93900 34.91100
H  2.53200 12.57700 35.09100
H  4.01400 12.29200 34.19700
Mg 0.20400 44.03100 25.67000
C  1.93300 43.74200 28.77500
C  -2.67100 43.28200 27.58000
C  -1.31400 43.58400 22.86600
C  3.28600 44.30800 24.08800
N  -0.29900 43.75000 27.97600
C  0.57100 43.69100 29.04300
C  -0.16100 43.56900 30.34400
C  -1.66200 43.27200 29.94100
C  -1.55700 43.49400 28.37700
C  -2.26600 41.92100 30.32800
C  0.01800 44.93500 31.19600
C  0.33000 44.62500 32.70000
H  -0.33900 43.46800 33.42800
N  -1.77800 43.72800 25.26800
C  -2.78600 43.37100 26.16000
C  -3.96500 43.21100 25.42400
C  -3.70000 43.46500 24.06500
C  -2.17000 43.54200 23.96500
C  -5.30100 42.90900 26.04000
C  -4.55600 43.51100 22.78000
O  -4.12200 43.74000 21.67400
C  -6.07300 43.55100 22.91400
N  0.94600 43.91100 23.82400
C  0.03600 43.89000 22.78600
C  0.76000 43.67100 21.42800
C  2.21300 44.13400 21.83600
C  2.17300 44.27900 23.34000
C  0.69800 42.19900 21.00700
C  2.73900 45.35800 21.09900
C  2.86500 46.72900 21.75000
N  2.27300 44.02400 26.24400
C  3.35200 44.21300 25.48300
C  4.51900 44.29900 26.38500
C  4.02200 43.95100 27.68500
C  2.61000 43.91300 27.53700
C  5.92900 44.66300 25.98600
C  4.36600 43.85200 29.10800
O  5.44800 43.83900 29.67100
C  3.01400 43.64800 29.80900
C  3.08300 42.53100 30.77100
O  2.71300 41.35000 30.62500
O  3.51200 43.01400 31.97000
C  3.63500 42.10900 33.12800
H  -3.54700 42.98000 28.15700
H  -1.67900 43.48700 21.84200
H  4.22200 44.38800 23.53000
H  0.24500 42.68300 30.83300
H  -2.27900 44.07700 30.34000
H  -2.16300 41.19600 29.52100
H  -3.29600 42.07000 30.65200
H  -1.75500 41.59400 31.23400
H  -0.87500 45.55700 31.25900
H  0.82000 45.60500 30.88800
H  0.11600 45.53400 33.26200
H  1.39500 44.46100 32.86100
H  -6.10200 43.63700 25.91400
H  -5.15400 42.59600 27.07400
H  -5.67100 42.01600 25.53700
H  -6.55600 42.58200 23.04100
H  -6.39300 43.91900 21.93900
H  -6.34700 44.27700 23.68000
H  0.36800 44.30500 20.63200
H  2.85700 43.29000 21.58700
H  0.42600 41.61600 21.88700
H  1.55200 41.87000 20.41500
H  -0.24800 42.04100 20.48800
H  2.09400 45.57000 20.24700
H  3.68700 45.04400 20.66200
H  2.34400 46.64000 22.70300
H  2.29300 47.42200 21.13300
H  3.91500 47.01100 21.82900
H  6.42400 44.51300 26.94500
H  6.10900 45.71500 25.76500
H  6.23600 44.00500 25.17200
H  3.03200 44.52000 30.46300
H  4.68400 41.81300 33.12200
H  2.91300 41.29900 33.22700
H  3.51200 42.71000 34.02900

