158

Mg 0.24800 8.73800 26.65700
C  0.85600 10.86300 29.63900
C  0.06900 6.15600 28.84300
C  0.28000 6.81600 23.95000
C  0.56000 11.64300 24.77200
N  0.62800 8.58400 29.03900
C  0.74900 9.50000 30.01700
C  0.42300 8.93100 31.37000
C  0.43000 7.41100 31.11000
C  0.35700 7.37100 29.57100
C  1.69700 6.61100 31.65200
C  -0.97300 9.43500 31.92400
C  -1.09700 9.88800 33.37300
H  -0.05900 9.66400 34.38300
N  0.24800 6.68600 26.43200
C  0.06900 5.77900 27.46300
C  -0.28800 4.51000 26.89100
C  -0.12400 4.60900 25.47500
C  0.16300 6.07200 25.21500
C  -0.79000 3.35000 27.76300
C  -0.20400 3.58800 24.43700
O  0.02500 3.82900 23.25300
C  -0.51400 2.14000 24.88500
N  0.37300 9.18000 24.72800
C  0.43100 8.21200 23.77100
C  0.38700 8.82900 22.35800
C  0.22800 10.37300 22.58000
C  0.42400 10.43500 24.09300
C  1.75600 8.58100 21.63300
C  -1.11100 11.04300 22.15800
C  -0.95300 12.10600 20.97900
N  0.55000 10.84100 27.06100
C  0.71400 11.88700 26.17100
C  1.01400 13.11100 26.82800
C  1.07600 12.74300 28.19800
C  0.80300 11.37100 28.33000
C  1.32200 14.41600 26.19300
C  1.22700 13.26100 29.47800
O  1.30200 14.48400 29.79500
C  1.06400 12.06000 30.51300
C  2.33400 11.84400 31.20400
O  3.18300 10.97700 31.04500
O  2.35700 12.70900 32.26600
C  3.41800 12.59500 33.21800
H  -0.04400 5.25400 29.44800
H  0.14200 6.18500 23.07000
H  0.63400 12.51200 24.11500
H  1.21700 9.26300 32.03900
H  -0.42800 6.94300 31.59200
H  2.30000 7.26500 32.28200
H  2.39700 6.36900 30.85200
H  1.33900 5.67900 32.09000
H  -1.72000 8.66400 31.73600
H  -1.21900 10.31800 31.33400
H  -1.94600 9.33500 33.77400
H  -1.50000 10.90100 33.39100
H  -1.77300 3.04300 27.40800
H  -1.19900 3.74900 28.69200
H  -0.07700 2.52600 27.78600
H  0.37400 1.82000 25.42900
H  -0.73300 1.54400 23.99900
H  -1.35300 1.97700 25.56200
H  -0.45200 8.37000 21.83500
H  1.01700 11.00000 22.16600
H  2.48100 8.30700 22.39900
H  1.98100 9.48100 21.06200
H  1.75500 7.59400 21.17000
H  -1.38200 11.73900 22.95200
H  -1.90100 10.30000 22.05100
H  -1.57100 11.77700 20.14300
H  0.08100 12.28700 20.68600
H  -1.40600 13.02900 21.34000
H  0.45700 14.79400 25.64800
H  2.10900 14.32400 25.44400
H  1.57700 15.18700 26.92000
H  0.30600 12.23700 31.27500
H  3.30400 13.20100 34.11700
H  4.37600 12.97100 32.85900
H  3.59400 11.58300 33.58300
Mg 25.98000 50.08100 26.75900
C  23.97300 51.58700 29.18300
C  28.17800 49.03300 29.14100
C  27.91200 48.77600 24.31900
C  23.95100 51.58900 24.33700
N  26.05400 50.32400 28.97300
C  25.09200 50.91700 29.72600
C  25.38400 50.68200 31.25400
C  26.81000 50.04600 31.21400
C  27.08200 49.80200 29.69700
C  27.89600 50.84700 31.93700
C  24.33100 49.66400 31.80500
C  23.80700 50.07900 33.23900
H  24.75500 50.73100 34.28000
N  27.81800 49.01400 26.72400
C  28.53200 48.73100 27.81500
C  29.63200 47.89100 27.37300
C  29.53500 47.76100 25.98000
C  28.39200 48.50100 25.59300
C  30.74600 47.34900 28.29400
C  30.41300 46.98400 25.00500
O  30.28400 47.09800 23.78400
C  31.35900 46.01800 25.50100
N  25.89100 50.12800 24.67800
C  26.79600 49.55900 23.91500
C  26.53900 49.78200 22.39000
C  25.16300 50.47200 22.42100
C  25.03300 50.79000 23.90700
C  27.75300 50.50500 21.71700
C  24.00000 49.61200 21.76300
C  23.59900 49.97500 20.31900
N  24.26300 51.27300 26.69100
C  23.60500 51.94000 25.67000
C  22.47500 52.66200 26.11400
C  22.59700 52.49300 27.50500
C  23.65500 51.71700 27.77300
C  21.46400 53.39300 25.19700
C  22.05200 52.83600 28.80400
O  21.05000 53.48800 29.11600
C  22.93500 52.24900 29.91600
C  23.32300 53.34300 30.80600
O  24.10700 54.27400 30.54000
O  22.86800 53.04200 32.04900
C  23.19500 54.03500 33.09600
H  28.97400 48.79400 29.85000
H  28.50900 48.44400 23.46700
H  23.42500 52.09700 23.52600
H  25.45900 51.61200 31.81900
H  26.80000 49.07400 31.70800
H  28.04400 50.47400 32.95000
H  27.51700 51.86600 32.01400
H  28.84200 50.71000 31.41200
H  24.67700 48.65300 32.01900
H  23.47800 49.56400 31.13400
H  23.27000 49.25400 33.70700
H  23.00400 50.78500 33.03000
H  30.60000 46.26900 28.29400
H  30.62300 47.66800 29.32900
H  31.74500 47.59100 27.93000
H  32.25300 46.48000 25.92200
H  31.70800 45.42000 24.65900
H  30.98800 45.22500 26.15000
H  26.50000 48.76800 21.99200
H  25.29000 51.39100 21.84800
H  27.61700 51.56300 21.49400
H  27.89500 49.91100 20.81400
H  28.72300 50.50100 22.21400
H  23.16700 49.73400 22.45600
H  24.32200 48.57100 21.74200
H  23.82400 49.16300 19.62700
H  24.28400 50.74300 19.96000
H  22.56000 50.28800 20.21600
H  22.04700 53.93900 24.45600
H  21.03000 54.16500 25.83300
H  20.71000 52.73400 24.76700
H  22.29100 51.54200 30.44100
H  24.25800 54.25000 33.20600
H  22.73400 53.81000 34.05800
H  22.94100 55.06500 32.84500

