158

Mg 1.70900 -1.29700 43.39800
C  5.10600 -0.25400 43.32200
C  0.96800 1.57900 41.72200
C  -1.42900 -2.42500 42.97700
C  2.82400 -4.47800 44.18400
N  2.88300 0.27400 42.53100
C  4.18700 0.59800 42.61700
C  4.62800 1.94300 42.00300
C  3.18600 2.56300 42.03000
C  2.27200 1.38000 42.07900
C  2.94200 3.73900 43.04500
C  5.15800 1.63600 40.52300
C  6.12700 2.72100 39.80000
H  5.52800 3.62000 38.65700
N  -0.02800 -0.48900 42.59100
C  -0.12400 0.71200 41.91700
C  -1.49000 0.91100 41.49200
C  -2.25400 -0.17900 41.98800
C  -1.25000 -1.08900 42.58100
C  -2.04800 2.20500 40.90300
C  -3.77100 -0.22800 42.13100
O  -4.50900 0.66100 41.70500
C  -4.49100 -1.34700 42.75800
N  0.84100 -3.18700 43.53500
C  -0.49700 -3.40200 43.31400
C  -0.80200 -4.92400 43.40400
C  0.48400 -5.45100 44.09700
C  1.46900 -4.29700 43.90500
C  -2.03300 -5.32600 44.16100
C  1.01300 -6.82900 43.66200
C  1.79300 -7.71800 44.71200
N  3.52700 -2.22400 43.71200
C  3.82100 -3.55400 43.98200
C  5.28800 -3.74300 44.04300
C  5.81400 -2.49400 43.88400
C  4.74200 -1.59400 43.61900
C  6.07100 -4.95500 44.47900
C  6.98800 -1.80300 43.90000
O  8.16200 -2.13500 44.11200
C  6.59500 -0.25000 43.42400
C  6.99000 0.57600 44.56300
O  6.77000 0.39400 45.71500
O  7.87100 1.50800 44.08500
C  8.66400 2.24700 45.10700
H  0.77400 2.56800 41.30000
H  -2.39500 -2.88000 42.74900
H  3.15600 -5.50800 44.32500
H  5.31900 2.61200 42.51400
H  3.11400 3.03200 41.04800
H  3.77200 4.43800 42.94700
H  2.86700 3.53900 44.11300
H  2.05600 4.32000 42.78600
H  4.34800 1.23500 39.91300
H  5.75500 0.73700 40.67100
H  7.04500 2.20700 39.51500
H  6.27900 3.44500 40.60100
H  -1.28700 2.97600 40.78200
H  -2.72000 2.59600 41.66700
H  -2.52500 1.91100 39.96800
H  -5.54500 -1.10000 42.88500
H  -4.02200 -1.43100 43.73800
H  -4.27900 -2.28400 42.24400
H  -0.73600 -5.31900 42.39000
H  0.32800 -5.47600 45.17500
H  -1.85300 -5.81200 45.12000
H  -2.55500 -6.19400 43.75600
H  -2.75300 -4.51300 44.24400
H  1.52200 -6.76500 42.70100
H  0.11600 -7.40400 43.43200
H  1.14000 -8.45700 45.17600
H  2.30000 -7.20800 45.53200
H  2.49700 -8.27200 44.09100
H  5.37400 -5.50200 45.11300
H  6.90900 -4.52200 45.02600
H  6.44800 -5.46600 43.59300
H  7.26700 -0.02300 42.59700
H  8.68700 3.32500 44.94700
H  9.64700 1.77900 45.05500
H  8.41900 2.12300 46.16200
Mg 16.68300 52.40200 26.54800
C  18.84200 51.29000 29.05200
C  14.53400 53.21700 29.02900
C  14.84400 53.82900 24.29900
C  19.09700 51.64600 24.19600
N  16.62700 52.11900 28.78800
C  17.63700 51.70300 29.55900
C  17.26200 51.99600 31.02600
C  15.72900 52.16000 30.97700
C  15.57300 52.47500 29.47800
C  15.02200 50.85400 31.37700
C  17.98700 53.25500 31.54600
C  18.24100 53.25000 33.06600
H  17.23700 52.53500 33.98300
N  14.95800 53.54400 26.63500
C  14.25200 53.78000 27.77000
C  13.21000 54.77200 27.41300
C  13.20500 54.92500 26.00900
C  14.35200 54.14100 25.55100
C  12.34200 55.51000 28.48200
C  12.32400 55.79200 25.06600
O  12.63600 55.82300 23.86900
C  11.12800 56.65300 25.67700
N  16.93900 52.60500 24.55600
C  15.99600 53.21000 23.85700
C  16.39500 53.24900 22.35900
C  17.76100 52.53000 22.31200
C  17.94200 52.28100 23.80100
C  15.33300 52.78000 21.24300
C  18.84400 53.19700 21.42600
C  19.80500 54.18900 22.01600
N  18.49500 51.48100 26.50100
C  19.37900 51.24600 25.50000
C  20.58600 50.54200 25.93800
C  20.43400 50.56200 27.41500
C  19.14300 51.15200 27.68700
C  21.69800 49.91500 25.20000
C  21.06200 50.27600 28.63700
O  22.16800 49.67900 28.73500
C  20.09300 50.79800 29.84200
C  19.86200 49.61000 30.78500
O  19.46600 48.52700 30.52700
O  20.23500 50.01200 32.09000
C  20.12800 49.06700 33.23400
H  13.78300 53.45600 29.78600
H  14.47300 54.34200 23.41000
H  19.95400 51.33800 23.59300
H  17.61100 51.10400 31.54700
H  15.41600 52.90600 31.70800
H  14.47000 51.11600 32.28000
H  15.74700 50.09500 31.67100
H  14.39400 50.36700 30.63100
H  17.35000 54.09200 31.26400
H  18.99400 53.34500 31.13900
H  18.19300 54.30600 33.33400
H  19.25800 52.91400 33.26900
H  12.78800 55.40100 29.47100
H  11.35500 55.05000 28.51300
H  12.17700 56.57900 28.34400
H  10.53400 56.02300 26.33900
H  10.51900 56.99800 24.84200
H  11.56700 57.53500 26.14300
H  16.67300 54.30300 22.31900
H  17.61700 51.58800 21.78300
H  14.84400 51.90100 21.66300
H  15.92500 52.61700 20.34200
H  14.63100 53.59500 21.06900
H  18.35000 53.85000 20.70700
H  19.43700 52.42500 20.93500
H  20.76300 53.72300 21.78800
H  19.68000 54.27600 23.09600
H  19.85400 55.24500 21.75200
H  21.82000 50.27400 24.17800
H  21.78700 48.83200 25.29000
H  22.52000 50.40400 25.72300
H  20.57300 51.60100 30.40100
H  21.17800 48.93900 33.50000
H  19.68400 48.08500 33.07200
H  19.54100 49.42600 34.07900

