158

Mg 2.41600 -1.01500 44.42000
C  5.64500 -0.09200 43.37500
C  1.17300 1.61900 42.65500
C  -0.68500 -2.34400 44.68400
C  3.89000 -3.87000 45.80700
N  3.34100 0.57500 43.26800
C  4.65200 0.76900 42.92500
C  4.81100 2.05300 42.14900
C  3.48500 2.78800 42.33700
C  2.56300 1.50800 42.69500
C  3.51500 3.90600 43.36800
C  5.10700 1.81700 40.59600
C  6.51100 2.16500 40.10100
H  6.58600 2.89000 38.74000
N  0.46400 -0.42000 43.76800
C  0.18700 0.79200 43.16800
C  -1.29400 0.95200 43.12700
C  -1.85700 -0.22600 43.72800
C  -0.68100 -1.03600 44.08900
C  -1.91200 2.11500 42.49000
C  -3.33100 -0.52600 43.82900
O  -4.18600 0.25000 43.40800
C  -3.90000 -1.72500 44.53900
N  1.72900 -2.85900 45.24600
C  0.43200 -3.15800 45.19100
C  0.21200 -4.53000 45.81700
C  1.60100 -4.98700 46.33600
C  2.48000 -3.87100 45.76500
C  -1.00900 -4.71000 46.77700
C  2.04900 -6.50900 46.10200
C  2.50400 -7.42100 47.24300
N  4.29700 -1.85300 44.59300
C  4.73800 -2.93800 45.29200
C  6.17300 -2.97300 45.35700
C  6.57100 -1.89000 44.57400
C  5.42300 -1.26800 44.07400
C  7.07900 -4.03900 45.98700
C  7.68900 -1.24200 44.07800
O  8.89100 -1.51300 44.14800
C  7.14500 0.04800 43.36600
C  7.63700 1.31700 43.96000
O  7.45600 1.69800 45.11700
O  8.45500 1.89300 43.10400
C  9.24500 3.05500 43.58600
H  0.73900 2.55400 42.29500
H  -1.64800 -2.84700 44.79000
H  4.37000 -4.78300 46.16500
H  5.54500 2.70400 42.62400
H  2.99600 3.28700 41.49900
H  4.51200 4.31200 43.54000
H  3.19800 3.47500 44.31800
H  2.99900 4.78000 42.97300
H  4.35100 2.36200 40.03100
H  5.01300 0.74900 40.39900
H  7.10400 1.25500 40.00800
H  7.06700 2.76200 40.82400
H  -2.34400 2.86200 43.15500
H  -2.74100 1.76900 41.87200
H  -1.18700 2.74900 41.98000
H  -3.63000 -2.58200 43.92100
H  -4.97700 -1.67300 44.70100
H  -3.52000 -1.74900 45.56100
H  -0.00200 -5.20800 44.99200
H  1.66900 -4.82600 47.41200
H  -1.69900 -3.86600 46.79500
H  -0.68800 -4.81100 47.81300
H  -1.62300 -5.53800 46.42100
H  2.94600 -6.44100 45.48700
H  1.13700 -6.85000 45.61200
H  2.66200 -6.91400 48.19400
H  3.46200 -7.90000 47.04100
H  1.80800 -8.25900 47.23100
H  6.43800 -4.51200 46.73100
H  7.89300 -3.51100 46.48300
H  7.57100 -4.62000 45.20700
H  7.59700 -0.05900 42.38000
H  8.60100 3.93400 43.56700
H  10.10900 3.10500 42.92300
H  9.54400 2.97100 44.63100
Mg 46.61400 24.43900 28.78300
C  47.27200 26.75600 31.37400
C  45.57300 22.17300 31.08300
C  46.57600 22.04400 26.27100
C  47.95600 26.73000 26.49700
N  46.36700 24.50400 30.99600
C  46.76200 25.48300 31.84300
C  46.25000 25.16100 33.26200
C  45.69300 23.72900 33.13700
C  45.97700 23.39900 31.68800
C  46.33600 22.68400 34.08800
C  45.30800 26.22000 33.86100
C  44.46400 25.81900 35.05900
H  44.46400 26.56500 36.40500
N  46.09100 22.35900 28.72400
C  45.69900 21.59800 29.78400
C  45.43400 20.27800 29.27500
C  45.77900 20.18300 27.86900
C  46.17000 21.55500 27.55600
C  44.82000 19.13600 30.24900
C  45.81200 19.03300 26.90700
O  46.09200 19.08600 25.74700
C  45.36400 17.71000 27.34700
N  47.09800 24.35100 26.69400
C  46.86800 23.32900 25.85000
C  47.30500 23.70800 24.40100
C  47.78400 25.16200 24.56800
C  47.68200 25.42400 26.06500
C  48.42200 22.74900 23.80600
C  46.92800 26.21000 23.65200
C  45.43000 26.38200 23.96500
N  47.39600 26.38600 28.80500
C  47.88900 27.18000 27.82400
C  48.28000 28.42700 28.39600
C  48.17500 28.27600 29.79100
C  47.51500 27.02800 29.96500
C  48.96600 29.48300 27.50500
C  48.30700 28.95800 31.06200
O  48.72300 30.08800 31.37600
C  47.71800 27.96800 32.14800
C  48.54700 27.70600 33.28300
O  49.45400 26.90700 33.28000
O  48.37300 28.65700 34.17800
C  49.25900 28.72100 35.37900
H  45.26000 21.40900 31.79800
H  46.53500 21.33500 25.44100
H  48.31600 27.41400 25.72600
H  47.21200 25.13900 33.77500
H  44.61800 23.69400 33.31700
H  45.58800 21.91700 34.28700
H  46.63600 23.20500 34.99700
H  47.28200 22.24900 33.76400
H  44.66500 26.73900 33.15000
H  46.00000 26.93700 34.30100
H  44.70400 24.76800 35.22400
H  43.43700 25.84600 34.69500
H  44.74300 19.47700 31.28100
H  45.45900 18.25400 30.29300
H  43.82200 18.91000 29.87200
H  44.30400 17.70300 27.59900
H  46.08000 17.39200 28.10500
H  45.32700 17.10100 26.44400
H  46.43600 23.51700 23.77200
H  48.81900 25.29900 24.25500
H  48.79700 22.07600 24.57700
H  49.16200 23.45100 23.42000
H  48.05900 22.16800 22.95800
H  47.14100 26.09300 22.58900
H  47.37400 27.18900 23.82500
H  45.10800 27.37300 24.28400
H  45.22900 25.71300 24.80100
H  44.88800 26.07300 23.07100
H  48.56200 29.54100 26.49400
H  50.01500 29.20100 27.41700
H  48.93600 30.40300 28.08800
H  46.78800 28.44900 32.45200
H  48.86400 27.95900 36.05100
H  49.26700 29.63000 35.98100
H  50.29700 28.41800 35.23500

