158

Mg 17.47900 -0.28000 27.89100
C  16.43600 1.71700 30.54700
C  19.52700 -1.97200 30.06700
C  19.09100 -1.82400 25.24800
C  16.03700 1.89900 25.77700
N  17.94700 -0.04200 30.05100
C  17.19900 0.63700 30.94800
C  17.50100 0.25200 32.39600
C  18.64500 -0.80200 32.22400
C  18.79100 -0.91800 30.68200
C  19.99200 -0.43900 32.89400
C  16.25100 -0.39500 33.14100
C  15.98200 -0.03100 34.62400
H  17.20700 0.55900 35.42500
N  18.88100 -1.91200 27.69700
C  19.58200 -2.48500 28.72500
C  20.49500 -3.51600 28.25000
C  20.36500 -3.52100 26.77700
C  19.41700 -2.38300 26.52300
C  21.28600 -4.40000 29.19300
C  21.01600 -4.40500 25.77200
O  20.84500 -4.20500 24.56100
C  22.08000 -5.35400 26.11900
N  17.60900 -0.04100 25.78200
C  18.19700 -0.77500 24.89100
C  17.72700 -0.42000 23.45100
C  16.64400 0.67600 23.66100
C  16.73400 0.84500 25.13900
C  18.87000 0.12500 22.46800
C  15.27600 0.31400 23.03900
C  14.91200 1.08400 21.70900
N  16.41400 1.50100 28.01700
C  15.82400 2.25200 27.07700
C  15.16300 3.43500 27.67700
C  15.41300 3.27200 29.05900
C  16.14700 2.02200 29.17800
C  14.49700 4.50500 26.84700
C  15.13100 3.75100 30.40100
O  14.35000 4.69800 30.78000
C  15.67300 2.74500 31.36000
C  16.67900 3.52700 32.10900
O  17.66300 4.04000 31.65600
O  16.22200 3.65800 33.42300
C  16.87200 4.58700 34.31100
H  19.94100 -2.72600 30.74000
H  19.61500 -2.32200 24.43000
H  15.35000 2.37200 25.07200
H  17.85300 1.18900 32.82700
H  18.39000 -1.83000 32.48400
H  20.42100 -1.33400 33.34400
H  19.84800 0.41600 33.55400
H  20.79700 -0.02800 32.28300
H  16.36300 -1.47800 33.19000
H  15.27500 -0.21400 32.69000
H  15.69400 -0.89000 35.22900
H  15.04100 0.51800 34.66600
H  20.64300 -5.18700 29.58600
H  21.63800 -3.72800 29.97500
H  22.15900 -4.88500 28.75600
H  22.81300 -4.58000 26.34500
H  22.44500 -5.89900 25.24900
H  21.71100 -5.91900 26.97500
H  17.38700 -1.41600 23.16700
H  16.93900 1.61500 23.19400
H  19.87300 -0.16900 22.77600
H  18.93000 1.21200 22.53300
H  18.63000 -0.28100 21.48600
H  14.55200 0.50000 23.83300
H  15.23200 -0.75800 22.84500
H  15.74700 1.53600 21.17400
H  14.26000 1.87700 22.07600
H  14.45300 0.44800 20.95100
H  13.50500 4.24300 26.48100
H  15.08200 4.92600 26.02900
H  14.37600 5.30200 27.58100
H  14.88800 2.38300 32.02400
H  17.61300 5.20600 33.80400
H  17.55500 4.02900 34.95100
H  16.18900 5.19100 34.90900
Mg -0.42000 43.13200 26.60800
C  1.47000 43.45700 29.42000
C  -3.06300 41.89600 28.60400
C  -2.21600 42.32900 23.85800
C  2.43200 43.56100 24.66100
N  -0.66000 42.29000 28.77900
C  0.11300 42.96700 29.67400
C  -0.47400 43.15800 31.04600
C  -1.82300 42.33200 30.88500
C  -1.88200 42.08500 29.35600
C  -1.94800 41.07100 31.76400
C  -0.75100 44.65800 31.37300
C  -0.88000 45.04800 32.77900
H  -1.31300 43.93900 33.76900
N  -2.36900 42.26500 26.26900
C  -3.27300 42.02500 27.24100
C  -4.57300 41.73000 26.58000
C  -4.36900 41.81200 25.20300
C  -2.93900 42.11200 24.99200
C  -5.80100 41.64700 27.35100
C  -5.41400 41.77400 24.08200
O  -5.08800 41.89700 22.90600
C  -6.89300 41.42900 24.30800
N  0.04600 43.11900 24.66000
C  -0.90700 42.80700 23.68600
C  -0.29700 42.77800 22.22900
C  1.05200 43.58800 22.54600
C  1.21400 43.40000 24.04000
C  -0.19800 41.27600 21.69900
C  1.13300 45.11400 22.31200
C  2.37000 45.52200 21.53200
N  1.50500 43.46200 26.96500
C  2.64200 43.58800 26.07900
C  3.86300 43.74200 26.83200
C  3.41300 43.83400 28.14900
C  2.02700 43.59700 28.20800
C  5.20400 43.91300 26.37700
C  3.83200 44.03800 29.44600
O  4.92500 44.32600 29.86500
C  2.51000 43.90900 30.37700
C  2.86600 42.85700 31.34300
O  2.79100 41.66300 31.13600
O  3.21000 43.31700 32.54800
C  3.49300 42.31100 33.60700
H  -3.87500 41.53800 29.24100
H  -2.76000 42.00400 22.96900
H  3.31400 43.82700 24.07400
H  0.21100 42.72200 31.77300
H  -2.69200 42.96500 31.06200
H  -2.58800 40.35600 31.24700
H  -2.28800 41.29400 32.77500
H  -0.93700 40.66800 31.82800
H  -1.67800 45.03800 30.94300
H  0.09200 45.25200 31.02100
H  -1.61900 45.84900 32.79500
H  0.04000 45.39100 33.25300
H  -6.74200 41.94100 26.88600
H  -5.75700 42.36700 28.16800
H  -5.81700 40.64900 27.78800
H  -6.74900 40.51700 24.88800
H  -7.35100 41.26100 23.33300
H  -7.36300 42.24500 24.85700
H  -0.95400 43.27100 21.51300
H  1.79100 43.03400 21.96700
H  -1.02500 41.29300 20.98800
H  -0.43200 40.44300 22.36200
H  0.78300 41.07800 21.26800
H  1.10400 45.72900 23.21200
H  0.22200 45.36700 21.77100
H  2.98400 44.72500 21.11300
H  3.01300 46.20700 22.08500
H  1.99700 46.02100 20.63800
H  5.47000 42.89900 26.08000
H  5.94000 44.23100 27.11600
H  5.23600 44.65500 25.57900
H  2.54700 44.86000 30.90800
H  2.64100 41.75600 33.99900
H  3.88700 42.76500 34.51600
H  4.23100 41.60900 33.21800

