158

Mg -2.31500 17.24400 27.28200
C  -2.82900 15.39700 30.15600
C  -2.82600 20.12600 29.22200
C  -2.44200 19.13700 24.53500
C  -2.29700 14.33100 25.39900
N  -2.71800 17.63400 29.50600
C  -2.77700 16.75000 30.51000
C  -2.89300 17.43200 31.79000
C  -3.11900 18.88200 31.46800
C  -2.77200 18.87200 29.99300
C  -4.39800 19.55600 31.98000
C  -1.70200 17.19300 32.76000
C  -1.50600 18.05600 34.07800
H  -1.14100 17.39100 35.42700
N  -2.49900 19.35500 26.98400
C  -2.80800 20.31100 27.84200
C  -2.91700 21.56700 27.16300
C  -2.51400 21.35400 25.77600
C  -2.43000 19.86600 25.70400
C  -3.24100 22.86200 27.98000
C  -2.42100 22.36300 24.63100
O  -2.20500 22.02400 23.50500
C  -2.61800 23.81100 24.92200
N  -2.46400 16.67900 25.24300
C  -2.48600 17.68700 24.34400
C  -2.50800 17.07600 22.89600
C  -2.11200 15.63200 23.21500
C  -2.36000 15.47900 24.65600
C  -3.96800 17.28800 22.26500
C  -0.71500 15.20700 22.83300
C  0.41600 16.11700 23.17200
N  -2.40900 15.20400 27.66300
C  -2.41300 14.18600 26.80600
C  -2.58100 12.92000 27.52500
C  -2.69500 13.35300 28.85300
C  -2.59300 14.72300 28.90400
C  -2.80800 11.50200 26.99200
C  -3.05400 12.90100 30.20000
O  -3.38000 11.83100 30.77900
C  -2.93700 14.16900 31.07900
C  -1.73000 13.86500 31.83800
O  -0.62300 14.24600 31.52300
O  -2.01300 13.43500 33.04800
C  -0.92000 13.41100 34.09900
H  -3.03700 20.99800 29.84400
H  -2.47500 19.68100 23.58900
H  -1.98700 13.45400 24.82700
H  -3.80700 17.14400 32.30900
H  -2.27400 19.42400 31.89300
H  -4.12900 20.32400 32.70600
H  -4.97400 18.83300 32.55800
H  -5.04300 19.91500 31.17900
H  -0.79800 17.29200 32.16000
H  -1.69200 16.21300 33.23700
H  -2.26600 18.82900 34.19300
H  -0.57000 18.56000 33.83800
H  -3.65000 22.68100 28.97400
H  -3.95900 23.47500 27.43500
H  -2.38900 23.52300 28.14100
H  -2.32300 24.33600 24.01300
H  -2.02300 24.09500 25.79000
H  -3.69700 23.89400 25.05200
H  -1.80500 17.61800 22.26300
H  -2.73400 14.84500 22.78800
H  -4.54100 17.97500 22.88700
H  -4.57300 16.39100 22.39200
H  -3.81400 17.50700 21.20800
H  -0.76900 15.16100 21.74600
H  -0.45700 14.17700 23.08100
H  -0.08100 16.64100 23.98800
H  0.77900 16.81100 22.41500
H  1.24300 15.54100 23.58700
H  -3.85000 11.40100 27.29400
H  -2.10400 10.92300 27.58900
H  -2.73100 11.38400 25.91100
H  -3.81700 14.24000 31.71700
H  -0.87600 14.33600 34.67300
H  0.12000 13.32300 33.78300
H  -0.86500 12.64000 34.86700
Mg 49.66900 45.12600 42.88700
C  46.47800 45.84900 41.63400
C  49.39100 41.99200 41.45000
C  53.00400 44.75900 43.02400
C  50.06200 48.56600 43.41500
N  48.17900 44.13500 41.57700
C  46.94200 44.59100 41.22600
C  46.03500 43.51700 40.62400
C  46.91800 42.27700 40.85900
C  48.22900 42.82800 41.31900
C  46.26600 41.32800 42.01600
C  45.75000 43.81300 39.14600
C  44.41900 43.16400 38.63300
H  44.40300 42.16700 37.43400
N  51.00200 43.55200 42.58700
C  50.70800 42.33100 42.01000
C  51.84200 41.48700 41.95100
C  52.95600 42.24500 42.41400
C  52.32700 43.57600 42.74400
C  51.72000 40.06600 41.60500
C  54.40000 41.79700 42.65300
O  54.66500 40.65300 42.51600
C  55.45800 42.75700 43.17500
N  51.31400 46.40600 43.36600
C  52.55300 46.01900 43.30200
C  53.53400 47.17100 43.65200
C  52.60600 48.44200 43.81300
C  51.19100 47.82900 43.51900
C  54.53900 46.86900 44.78400
C  52.84600 49.64100 42.87700
C  52.94700 50.98000 43.50800
N  48.45400 46.89600 42.92000
C  48.75000 48.18400 43.07500
C  47.56600 49.03800 42.83400
C  46.60600 48.09600 42.36300
C  47.23200 46.83400 42.33700
C  47.51800 50.44100 42.98800
C  45.20500 47.93200 41.91500
O  44.16600 48.61600 41.98500
C  45.02700 46.40600 41.57000
C  44.26700 45.79800 42.60900
O  44.62700 45.76800 43.78800
O  43.16200 45.20200 42.11200
C  42.38100 44.34900 43.00500
H  49.16100 40.99000 41.08100
H  54.09400 44.81800 43.00900
H  50.19000 49.63100 43.62200
H  45.04500 43.39700 41.06500
H  47.02000 41.79300 39.88700
H  45.23100 41.61900 42.19400
H  46.80300 41.39800 42.96200
H  46.36400 40.27700 41.74200
H  46.50900 43.31900 38.54000
H  45.73200 44.89800 39.03600
H  43.73800 43.99400 38.44500
H  43.96500 42.61000 39.45500
H  52.41000 39.39400 42.11500
H  51.97500 39.99900 40.54700
H  50.69000 39.71300 41.63700
H  55.63000 43.41400 42.32200
H  56.37800 42.26200 43.48700
H  55.05400 43.30300 44.02800
H  54.22800 47.46400 42.86400
H  52.49400 48.67200 44.87200
H  54.54200 47.69100 45.50000
H  55.55200 46.97300 44.39500
H  54.45800 45.88400 45.24400
H  52.07600 49.61200 42.10600
H  53.71200 49.44500 42.24500
H  52.03700 51.49800 43.20600
H  53.79100 51.40600 42.96600
H  52.91300 50.94100 44.59700
H  47.53400 50.78400 44.02200
H  46.69300 50.87500 42.42300
H  48.41200 50.86100 42.52700
H  44.43800 46.33700 40.65500
H  41.33500 44.62300 42.87100
H  42.59100 44.45000 44.07000
H  42.46900 43.30200 42.71800

