158

Mg 7.87400 2.20200 27.87100
C  9.72700 0.83800 30.60200
C  6.11700 4.14300 30.05500
C  6.23300 3.44400 25.14300
C  9.40300 -0.31800 25.78900
N  7.94600 2.44400 30.04500
C  8.85000 1.94400 30.91300
C  8.70900 2.54400 32.28200
C  7.34400 3.32900 32.18800
C  7.04800 3.25700 30.62800
C  6.17700 2.68500 33.01800
C  9.89400 3.42400 32.68500
C  10.34500 3.05400 34.14300
H  10.35500 4.25200 35.09100
N  6.37000 3.66400 27.65200
C  5.80200 4.37100 28.67200
C  4.99900 5.42100 28.13100
C  4.88300 5.07100 26.75800
C  5.87500 4.04400 26.42500
C  4.18800 6.36000 28.98200
C  3.91000 5.67900 25.69100
O  3.90400 5.39800 24.51200
C  2.95800 6.71900 26.17400
N  7.75300 1.57600 25.76500
C  7.07800 2.42800 24.84000
C  7.37800 1.84100 23.48000
C  8.53000 0.81000 23.64600
C  8.54800 0.67600 25.16900
C  6.06400 1.28600 22.77300
C  9.93200 1.26700 23.23100
C  10.83400 0.18200 22.60700
N  9.20300 0.54300 28.07400
C  9.79100 -0.35800 27.17300
C  10.60400 -1.29000 27.90800
C  10.78200 -0.83400 29.23900
C  9.83200 0.25800 29.29900
C  11.22800 -2.40700 27.32000
C  11.42600 -0.92100 30.52100
O  12.39600 -1.65000 30.77900
C  10.81200 0.13500 31.47400
C  10.30000 -0.51200 32.63900
O  9.19800 -1.03900 32.58400
O  10.97100 -0.13200 33.73300
C  10.44700 -0.54800 35.08000
H  5.52500 4.71000 30.77800
H  5.82900 3.96700 24.27400
H  9.94500 -0.99000 25.11900
H  8.57100 1.84200 33.10400
H  7.47000 4.33400 32.59200
H  6.61500 1.90300 33.63900
H  5.49000 2.13600 32.37400
H  5.67200 3.43900 33.62100
H  9.76000 4.50200 32.59900
H  10.71200 3.17900 32.00700
H  11.38700 2.78800 33.96800
H  9.79700 2.26100 34.65200
H  3.15000 6.06400 29.13400
H  4.21800 7.39800 28.64900
H  4.59600 6.34700 29.99200
H  2.32700 6.97200 25.32200
H  3.55200 7.61000 26.37700
H  2.44600 6.34000 27.05800
H  7.72100 2.71800 22.93000
H  8.31900 -0.20300 23.30200
H  6.00900 0.20700 22.91600
H  5.97700 1.56900 21.72400
H  5.13400 1.62400 23.23100
H  10.40900 1.79500 24.05700
H  9.80500 1.98500 22.42100
H  11.34100 0.59900 21.73700
H  10.29700 -0.72000 22.31100
H  11.62600 -0.10500 23.29800
H  11.90100 -2.93000 27.99900
H  11.89400 -2.00200 26.55800
H  10.43000 -3.01800 26.89600
H  11.63100 0.83400 31.64100
H  11.25700 -0.95300 35.68800
H  9.74800 -1.38100 35.15800
H  10.00200 0.24200 35.68400
Mg 6.36200 54.09500 41.68400
C  5.90100 50.54100 41.38800
C  9.44100 53.63200 40.27200
C  6.66200 57.53500 41.50100
C  3.04600 54.49200 42.36600
N  7.47700 52.31200 40.78400
C  7.12500 50.96800 40.87700
C  8.29400 50.15400 40.30900
C  9.54300 51.10500 40.57100
C  8.76200 52.44800 40.46300
C  10.30800 50.81500 41.87500
C  8.06600 49.87600 38.80400
C  7.03800 50.66400 38.06100
H  6.70600 50.18800 36.55200
N  7.85400 55.41900 41.01300
C  9.07200 54.99100 40.43900
C  9.93600 56.14500 40.30300
C  9.21400 57.26100 40.79900
C  7.87300 56.80100 41.15800
C  11.35500 56.04700 39.82700
C  9.85800 58.65200 41.20300
O  11.00700 58.90500 40.86600
C  9.10000 59.64000 42.08200
N  4.95000 55.85700 41.89000
C  5.31900 57.14400 41.82100
C  4.16000 58.08200 42.06600
C  2.91000 57.08600 42.27600
C  3.65100 55.72800 42.09700
C  4.39000 59.01500 43.21700
C  1.76600 57.14600 41.30800
C  0.67900 58.21700 41.71200
N  4.79600 52.83700 41.97500
C  3.52000 53.15200 42.30500
C  2.79900 51.95000 42.58200
C  3.65600 50.89900 42.21400
C  4.84200 51.51500 41.82400
C  1.40600 51.77600 43.03000
C  3.79700 49.46000 42.14200
O  3.04000 48.55500 42.40600
C  5.26000 49.18400 41.48000
C  5.12800 48.41700 40.21100
O  4.39900 48.77800 39.24200
O  5.91700 47.31300 40.22100
C  5.55100 46.35400 39.16300
H  10.45400 53.42300 39.92100
H  6.79200 58.61700 41.43000
H  2.02500 54.59800 42.74000
H  8.29900 49.19400 40.82700
H  10.35600 51.08700 39.84600
H  11.34300 51.15400 41.83400
H  10.12700 49.82700 42.29900
H  9.96800 51.55900 42.59500
H  7.88100 48.80700 38.69700
H  8.97700 50.06400 38.23600
H  7.37800 51.69500 37.96300
H  6.11200 50.66100 38.63500
H  11.22200 56.18800 38.75400
H  11.73400 55.02500 39.84500
H  12.04400 56.77500 40.25400
H  8.43600 59.05600 42.71900
H  8.61200 60.14100 41.24600
H  9.68800 60.21900 42.79400
H  4.00100 58.68200 41.17000
H  2.55400 57.28900 43.28600
H  3.83200 58.64400 44.07700
H  4.12500 60.01800 42.88500
H  5.45000 59.16100 43.42200
H  1.19000 56.22100 41.33000
H  2.08800 57.40700 40.30000
H  -0.28600 57.77600 41.96200
H  0.60900 59.08400 41.05400
H  1.05400 58.80800 42.54700
H  1.25700 52.62300 43.69900
H  1.23800 50.82200 43.52800
H  0.79600 51.84700 42.12900
H  5.88300 48.53400 42.09300
H  5.97100 45.38400 39.42900
H  5.83200 46.77600 38.19800
H  4.46700 46.24700 39.18000

