158

Mg 35.06200 3.36700 29.62900
C  32.79500 4.50600 32.06400
C  37.40900 3.04000 32.05700
C  37.23200 2.81600 27.21100
C  32.55700 3.79800 27.24000
N  35.13700 3.88500 31.78900
C  34.07100 4.10500 32.62000
C  34.47900 4.25500 34.05100
C  36.03400 4.12800 33.98100
C  36.26000 3.60300 32.53300
C  36.75900 5.41800 34.38100
C  33.78200 3.26900 34.93200
C  33.81600 3.48200 36.47200
H  34.57800 4.69200 37.12500
N  37.05700 2.94100 29.65600
C  37.87200 2.74900 30.75600
C  39.17200 2.30700 30.36600
C  39.13800 2.16600 28.92700
C  37.77200 2.57200 28.55800
C  40.35500 2.12200 31.28500
C  40.18900 1.69000 27.98500
O  39.92000 1.64300 26.76100
C  41.60700 1.16000 28.41000
N  34.88200 3.40500 27.50500
C  35.92200 3.14900 26.77800
C  35.64200 3.27700 25.20500
C  34.09800 3.29500 25.21300
C  33.81500 3.51600 26.72300
C  36.24800 4.47800 24.49500
C  33.42300 2.02500 24.64000
C  32.76900 1.00900 25.63100
N  33.12300 4.11700 29.60900
C  32.23500 4.18500 28.56500
C  30.96500 4.63700 28.97200
C  31.12100 4.86000 30.39300
C  32.50300 4.59000 30.67500
C  29.76600 4.85900 28.13000
C  30.46600 5.27700 31.58300
O  29.33800 5.74200 31.71800
C  31.54800 5.07900 32.73300
C  31.75700 6.41100 33.38700
O  32.33900 7.39500 32.90900
O  31.27200 6.33700 34.64900
C  31.43400 7.60500 35.39800
H  38.21500 2.84200 32.76700
H  37.88800 2.66500 26.35100
H  31.83700 4.03700 26.45600
H  34.21700 5.29100 34.26500
H  36.40000 3.34700 34.64800
H  37.61500 5.18700 35.01500
H  36.19300 6.19200 34.89800
H  37.27200 5.86300 33.52800
H  34.28100 2.32200 34.72400
H  32.73900 3.19800 34.62400
H  34.11300 2.61400 37.06000
H  32.75500 3.56000 36.71100
H  40.76200 1.14300 31.03000
H  40.07000 2.22500 32.33200
H  40.97700 2.97000 31.00000
H  42.03400 0.84900 27.45700
H  41.48500 0.21900 28.94700
H  42.08600 1.97200 28.95700
H  36.04000 2.37400 24.74200
H  33.64600 4.19000 24.78500
H  36.88400 4.17800 23.66300
H  36.89300 4.99800 25.20400
H  35.47900 5.13900 24.09500
H  34.03100 1.46600 23.92900
H  32.60300 2.46400 24.07200
H  33.46300 0.76100 26.43300
H  32.50100 0.09000 25.11000
H  31.79300 1.39400 25.92900
H  29.08400 5.58500 28.57200
H  29.30900 3.90800 27.85600
H  30.15500 5.25800 27.19400
H  31.13100 4.32000 33.39500
H  30.97600 8.41500 34.83000
H  32.46400 7.91400 35.57300
H  30.92000 7.33300 36.32000
Mg 49.31500 35.30000 27.43600
C  47.34800 33.85900 29.87400
C  49.70600 38.08100 29.25700
C  51.26800 36.55200 24.89300
C  48.54300 32.55200 25.32800
N  48.67000 35.85800 29.37400
C  47.97400 35.11400 30.30800
C  47.71200 35.89700 31.62400
C  48.03700 37.37900 31.22100
C  48.89400 37.14500 29.93000
C  46.81100 38.37900 31.31200
C  48.64200 35.36500 32.73400
C  48.11000 34.72900 34.00800
H  48.77200 35.22200 35.29300
N  50.18300 37.14000 27.05800
C  50.31700 38.12800 27.94900
C  51.01100 39.33400 27.38600
C  51.53400 38.88300 26.12300
C  51.04500 37.42700 25.92600
C  51.12100 40.70100 28.10400
C  52.35400 39.67700 25.09400
O  52.70700 39.23400 24.01500
C  52.71900 41.07500 25.40400
N  49.86800 34.61800 25.46100
C  50.71100 35.31900 24.61400
C  51.08900 34.56000 23.33600
C  50.13900 33.30700 23.40600
C  49.37200 33.51800 24.80000
C  51.00600 35.27000 21.99300
C  50.73500 31.87400 23.14700
C  51.95200 31.76200 22.34000
N  48.20500 33.52700 27.51600
C  47.92800 32.52800 26.59900
C  47.01200 31.53900 27.20300
C  46.80300 31.99800 28.52700
C  47.56100 33.22000 28.62400
C  46.44300 30.32100 26.60700
C  46.04300 31.80100 29.79800
O  45.23500 30.92600 30.14100
C  46.55300 32.94700 30.68800
C  47.11200 32.24200 31.82900
O  48.30100 31.98200 31.94800
O  46.14200 31.85900 32.70600
C  46.59900 30.99500 33.87700
H  49.73200 39.05700 29.74500
H  51.92800 36.90700 24.09800
H  48.39100 31.70300 24.65800
H  46.69100 35.84400 32.00300
H  48.82500 37.78500 31.85500
H  45.87500 37.83700 31.17700
H  46.99200 39.11300 30.52700
H  46.82600 38.93600 32.24800
H  49.37800 36.11500 33.02100
H  49.22800 34.59800 32.22800
H  48.36600 33.67000 33.96700
H  47.02300 34.74800 33.91900
H  52.09800 40.69700 28.58800
H  50.36800 40.62600 28.88800
H  50.92500 41.62100 27.55300
H  53.28100 41.07400 26.33700
H  51.85100 41.68500 25.65700
H  53.36400 41.52500 24.64900
H  52.14400 34.36200 23.52400
H  49.33300 33.46100 22.68900
H  50.60500 36.28000 22.07700
H  50.46500 34.80600 21.16800
H  52.02600 35.44700 21.65300
H  50.00900 31.25100 22.62500
H  50.79200 31.35400 24.10300
H  52.73200 31.83600 23.09800
H  51.88200 32.51100 21.55100
H  52.02000 30.77400 21.88500
H  47.27300 29.75000 26.19000
H  45.88200 30.69500 25.75100
H  45.80800 29.83700 27.34900
H  45.72300 33.47600 31.15600
H  45.69900 30.93300 34.48900
H  47.41900 31.51600 34.37200
H  46.95900 30.01100 33.57800

