158

Mg 24.56000 -4.64900 45.73800
C  26.81900 -2.56600 44.32200
C  22.10100 -3.66900 43.62700
C  22.74800 -7.45700 46.55300
C  27.24900 -6.08900 47.74700
N  24.56600 -3.44000 43.96800
C  25.55000 -2.54300 43.70100
C  25.08600 -1.57500 42.61400
C  23.51800 -1.79300 42.52200
C  23.37900 -3.05900 43.43300
C  22.59900 -0.57400 42.81600
C  25.77300 -1.73400 41.18900
C  25.67600 -0.43700 40.33700
H  25.08700 -0.55300 38.89100
N  22.64000 -5.40300 45.24200
C  21.76200 -4.83800 44.39400
C  20.55700 -5.65000 44.29200
C  20.74300 -6.71100 45.20400
C  22.06000 -6.56300 45.70100
C  19.32100 -5.28300 43.41300
C  19.75200 -7.83500 45.55900
O  18.64900 -7.74200 45.01400
C  19.92500 -9.03900 46.44100
N  24.95700 -6.51600 46.89400
C  24.05500 -7.50700 46.99300
C  24.71800 -8.79300 47.41100
C  26.04700 -8.28900 48.11200
C  26.08800 -6.87600 47.58600
C  23.86000 -9.64900 48.34400
C  27.29200 -9.20100 47.96200
C  28.18600 -9.41100 49.19400
N  26.63700 -4.31000 46.15500
C  27.56300 -4.93800 46.96800
C  28.88100 -4.15100 46.90500
C  28.59700 -3.15800 45.85300
C  27.25000 -3.39800 45.36000
C  30.08100 -4.44600 47.80700
C  29.04100 -1.99800 45.08900
O  30.03600 -1.34000 45.18700
C  27.98900 -1.63900 44.06000
C  27.62500 -0.18800 44.25900
O  27.28000 0.26100 45.31700
O  27.64400 0.44200 43.08000
C  27.45500 1.88600 43.16500
H  21.27700 -3.09100 43.20400
H  22.27800 -8.43500 46.67200
H  28.04300 -6.50800 48.36800
H  25.16700 -0.59400 43.08100
H  23.16500 -2.00500 41.51300
H  21.74700 -0.73900 42.15700
H  23.13000 0.26400 42.36200
H  22.39800 -0.46100 43.88100
H  25.17100 -2.51500 40.72400
H  26.79300 -2.12000 41.21200
H  26.69000 -0.11800 40.09800
H  25.26300 0.38500 40.92300
H  18.34200 -5.31000 43.89300
H  19.15800 -5.92400 42.54600
H  19.30400 -4.24200 43.09200
H  19.96900 -8.76900 47.49600
H  20.73200 -9.66800 46.06300
H  19.01100 -9.63000 46.49900
H  24.94500 -9.47600 46.59200
H  25.81700 -8.16400 49.17000
H  24.35200 -9.86600 49.29300
H  23.58400 -10.55300 47.80200
H  22.99900 -9.04400 48.63000
H  27.84300 -8.81600 47.10400
H  26.96100 -10.19700 47.66600
H  29.17400 -9.35400 48.73700
H  27.98200 -10.37500 49.65900
H  28.12600 -8.65200 49.97500
H  30.74100 -5.06700 47.20100
H  29.90400 -4.94400 48.76000
H  30.65600 -3.52400 47.89700
H  28.41200 -1.73300 43.06000
H  27.87900 2.21900 44.11200
H  26.37700 1.99600 43.04700
H  27.80900 2.42400 42.28600
Mg 48.27400 16.36200 29.25900
C  46.17400 15.91200 32.18900
C  50.40000 18.17600 31.33000
C  50.12100 16.86700 26.62000
C  45.76900 14.94200 27.41300
N  48.23900 17.01600 31.56500
C  47.32900 16.67200 32.52900
C  47.74700 17.16100 33.84900
C  49.01300 18.06800 33.55700
C  49.24200 17.83600 32.07200
C  48.73900 19.46900 33.94800
C  48.00300 15.90200 34.70900
C  48.29100 16.23400 36.20500
H  47.99500 17.61500 36.76700
N  50.10500 17.35800 29.02900
C  50.88900 17.96600 29.99500
C  52.18500 18.28900 29.34100
C  52.07200 18.00500 27.94500
C  50.72300 17.42600 27.77200
C  53.32000 18.78500 30.13500
C  53.12000 18.25100 26.78000
O  52.96800 17.83100 25.63800
C  54.41700 18.92700 27.17700
N  47.95400 16.02700 27.38000
C  48.89300 16.31800 26.42300
C  48.44000 15.99700 24.98400
C  47.12900 15.14100 25.21900
C  46.93500 15.34500 26.76600
C  48.16800 17.17100 24.04800
C  47.17500 13.66900 24.81900
C  46.38600 13.33600 23.51900
N  46.31800 15.61700 29.63200
C  45.48300 15.06800 28.78200
C  44.33100 14.59000 29.42400
C  44.59300 14.87100 30.81700
C  45.81700 15.54200 30.88200
C  43.10100 13.99000 28.73600
C  44.06200 14.73300 32.18000
O  43.10900 14.09300 32.60000
C  45.07800 15.35600 33.10600
C  44.29600 16.42200 33.93600
O  43.84300 17.46500 33.44800
O  44.10500 16.01800 35.19900
C  43.26600 16.93300 36.04700
H  51.23100 18.72100 31.78400
H  50.66700 17.12000 25.70800
H  45.07600 14.24100 26.94200
H  46.87000 17.57000 34.34900
H  49.94800 17.73900 34.01100
H  47.81300 19.59900 34.50700
H  48.62700 19.99600 33.00000
H  49.57000 19.97700 34.43700
H  48.86400 15.35200 34.33000
H  47.11900 15.26900 34.63300
H  49.35400 16.04600 36.35600
H  47.62800 15.64600 36.84000
H  53.47700 18.19900 31.04100
H  53.06200 19.80000 30.44000
H  54.33000 18.79900 29.72500
H  54.17200 19.92900 27.53100
H  54.95900 19.10000 26.24700
H  55.08100 18.30600 27.77800
H  49.38000 15.52800 24.69300
H  46.24000 15.60600 24.79400
H  48.16500 18.09100 24.63200
H  47.24300 17.05100 23.48600
H  48.98800 17.05200 23.33900
H  46.65300 13.13900 25.61500
H  48.19200 13.32800 24.62500
H  46.07500 14.21900 22.96100
H  45.47800 12.79500 23.78700
H  46.97600 12.76700 22.80100
H  43.41900 13.34400 27.91700
H  42.66800 14.85100 28.22700
H  42.47100 13.42600 29.42300
H  45.35100 14.51700 33.74600
H  43.63500 17.95400 35.94300
H  43.55800 16.62500 37.05100
H  42.20000 16.78900 35.87200

