158

Mg 28.38800 56.41400 40.56100
C  26.07900 53.62200 39.95200
C  30.89200 54.56900 39.45100
C  30.16000 59.21300 40.50900
C  25.42600 58.37300 40.69900
N  28.41200 54.36200 39.86500
C  27.44700 53.39800 39.72300
C  28.08400 52.16900 39.10300
C  29.62600 52.36800 39.41700
C  29.63500 53.86100 39.57800
C  30.21000 51.67000 40.69600
C  27.66300 51.82000 37.68300
C  27.20300 52.97100 36.78200
H  27.34400 52.74900 35.22600
N  30.25800 56.81000 40.08000
C  31.15600 55.88900 39.62800
C  32.49200 56.56500 39.43600
C  32.34300 57.92200 39.76200
C  30.90200 58.01400 40.18600
C  33.76100 55.83000 39.13100
C  33.41100 58.95700 39.72700
O  34.43200 58.65100 39.11700
C  33.24900 60.35000 40.33900
N  27.83800 58.47800 40.45300
C  28.80700 59.38500 40.68600
C  28.26000 60.76100 40.81900
C  26.69900 60.58300 40.88600
C  26.66100 59.04200 40.61100
C  28.93800 61.49500 42.03100
C  25.88000 61.47300 39.86200
C  25.38900 62.77000 40.41000
N  26.20000 56.14000 40.57700
C  25.16100 56.99800 40.62900
C  23.86400 56.25400 40.65000
C  24.20500 54.96800 40.48900
C  25.58400 54.96300 40.34400
C  22.56300 56.94800 40.86400
C  23.63500 53.68200 40.30900
O  22.50100 53.23300 40.43700
C  24.80700 52.71900 39.86700
C  24.82400 51.51700 40.78200
O  24.50200 50.36900 40.51400
O  25.31700 51.93800 42.01200
C  25.81700 50.79900 42.72600
H  31.72700 53.91500 39.19100
H  30.68400 60.16000 40.64900
H  24.57100 59.04100 40.81800
H  27.83100 51.31700 39.73400
H  30.35500 52.11000 38.64800
H  29.84200 50.64400 40.67900
H  29.79800 52.16500 41.57600
H  31.29800 51.64300 40.74600
H  26.80400 51.15100 37.74100
H  28.41100 51.28400 37.09900
H  27.78900 53.85800 37.02100
H  26.13100 53.07900 36.95200
H  33.86600 55.94800 38.05200
H  33.68600 54.75000 39.25500
H  34.67600 56.14800 39.63000
H  32.70500 60.31500 41.28300
H  32.65900 60.84100 39.56600
H  34.20100 60.85300 40.50900
H  28.47700 61.28600 39.88900
H  26.22800 60.74600 41.85500
H  28.22700 62.00500 42.68200
H  29.64800 62.16700 41.55000
H  29.59100 60.78000 42.53100
H  25.05300 60.93800 39.39400
H  26.58600 61.81500 39.10600
H  25.75900 62.91500 41.42500
H  24.30500 62.85100 40.49400
H  25.81100 63.56200 39.79100
H  22.40000 57.62400 40.02500
H  22.57000 57.51100 41.79800
H  21.87200 56.10700 40.80100
H  24.63800 52.35800 38.85300
H  26.52700 51.11100 43.49200
H  26.42500 50.08800 42.16700
H  25.05000 50.26000 43.28300
Mg 10.09100 48.29200 26.29900
C  8.12200 48.79000 29.21400
C  12.77900 49.75800 27.95200
C  11.68100 48.05200 23.53700
C  7.03700 47.99100 24.59700
N  10.33300 49.15200 28.36100
C  9.47800 49.16400 29.38300
C  10.20100 49.64600 30.67600
C  11.51200 50.22300 30.09600
C  11.55100 49.68200 28.71300
C  11.59200 51.76900 30.00600
C  10.38100 48.49800 31.77400
C  9.77200 48.74900 33.13100
H  9.55600 47.53800 34.00700
N  11.95000 48.65700 25.85800
C  12.99300 49.19600 26.67700
C  14.27800 49.17800 25.89300
C  13.93900 48.63200 24.56000
C  12.49000 48.44100 24.58900
C  15.52800 49.62300 26.43900
C  14.85000 48.34900 23.39600
O  14.48000 47.87800 22.31700
C  16.25400 48.52900 23.50800
N  9.37100 48.02700 24.38200
C  10.31900 47.91200 23.43500
C  9.69900 47.55500 22.07100
C  8.18900 47.64000 22.33600
C  8.15600 47.81100 23.82500
C  10.11100 48.47700 20.86600
C  7.42300 46.43200 21.89500
C  6.74300 46.62700 20.55600
N  8.04800 48.20400 26.76900
C  6.91400 48.11200 25.98700
C  5.72800 48.21200 26.75300
C  6.12800 48.35300 28.05000
C  7.57600 48.43200 27.95800
C  4.33000 48.12500 26.18700
C  5.76200 48.52900 29.40100
O  4.59600 48.54100 29.89500
C  7.00300 48.68300 30.23500
C  7.10400 47.46500 31.15600
O  7.67900 46.40100 30.97200
O  6.20200 47.62000 32.17900
C  5.83300 46.43100 33.01900
H  13.58200 50.24800 28.50700
H  12.30600 47.82800 22.67000
H  6.07400 47.96500 24.08300
H  9.63300 50.40600 31.21200
H  12.41000 49.84400 30.58400
H  11.28500 52.13500 29.02700
H  12.59000 52.17200 30.18000
H  10.91500 52.21000 30.73700
H  11.44400 48.36600 31.97500
H  10.05600 47.52500 31.40600
H  8.78900 49.10300 32.82300
H  10.15200 49.60900 33.68200
H  15.36400 50.39100 27.19500
H  16.03300 50.20000 25.66500
H  16.16300 48.86200 26.89300
H  16.63000 48.04400 24.40900
H  16.47000 49.59700 23.47400
H  16.77100 48.04700 22.67900
H  10.00500 46.53000 21.86000
H  7.82800 48.53500 21.82800
H  9.26200 48.80100 20.26400
H  10.89300 48.02900 20.25300
H  10.66600 49.36600 21.16500
H  6.68400 46.26600 22.67900
H  8.09900 45.57800 21.86300
H  5.88200 47.27800 20.70800
H  6.37000 45.65800 20.22600
H  7.44600 47.04000 19.83200
H  3.68800 48.85900 26.67500
H  4.04800 47.07800 26.29700
H  4.28700 48.39000 25.13100
H  6.90600 49.57600 30.85200
H  4.76200 46.24500 32.94300
H  6.24000 46.67900 34.00000
H  6.39800 45.58800 32.62200

