158

Mg 52.73100 24.35600 44.48100
C  49.83200 26.34000 44.07700
C  51.03800 21.52200 43.73300
C  55.67200 22.63100 44.54900
C  54.39500 27.29200 45.61700
N  50.72700 23.96200 43.76900
C  49.69800 24.92500 43.79100
C  48.36300 24.23000 43.58300
C  48.71500 22.73000 43.78400
C  50.27500 22.67600 43.76100
C  48.16000 22.08000 44.98400
C  47.72100 24.57000 42.18300
C  48.46200 24.00800 40.94500
H  48.35700 24.73000 39.53800
N  53.28600 22.32000 44.00500
C  52.42400 21.31200 43.81200
C  53.18900 20.12600 43.55800
C  54.56300 20.45700 43.62500
C  54.58200 21.81700 44.11200
C  52.47300 18.78700 43.24600
C  55.71400 19.46100 43.52000
O  55.56100 18.26600 43.31700
C  57.17400 19.85300 43.60000
N  54.77300 24.84600 44.83500
C  55.77700 23.98900 44.91500
C  57.05700 24.56200 45.49900
C  56.70200 26.11100 45.81400
C  55.19500 26.07400 45.42000
C  57.76700 23.83500 46.70900
C  57.48600 27.28300 45.06100
C  57.99600 28.37100 45.91800
N  52.24600 26.45700 44.74000
C  53.04000 27.53400 45.24000
C  52.21100 28.76500 45.26200
C  50.94100 28.33300 44.77800
C  51.03200 26.90600 44.52700
C  52.59200 30.14200 45.80500
C  49.61800 28.75300 44.54600
O  49.08200 29.86700 44.65000
C  48.84300 27.47800 43.99700
C  48.46700 27.82400 42.61900
O  49.23500 27.93400 41.70400
O  47.13100 28.18500 42.67200
C  46.51000 28.72500 41.47600
H  50.47300 20.58700 43.72300
H  56.67000 22.18700 44.55200
H  54.84100 28.20400 46.01900
H  47.59700 24.50200 44.30900
H  48.41400 22.21700 42.87100
H  48.96100 21.86600 45.69000
H  47.67600 21.12500 44.77900
H  47.38300 22.68500 45.45200
H  47.50200 25.63200 42.07300
H  46.82500 23.95100 42.22200
H  48.08800 22.99800 40.78000
H  49.50200 24.02200 41.27300
H  52.87000 18.15700 42.45000
H  51.41400 18.82500 42.99100
H  52.48300 18.14200 44.12500
H  57.90600 19.13200 43.23500
H  57.37300 19.95300 44.66700
H  57.25200 20.81800 43.10000
H  57.81100 24.62500 44.71500
H  56.80300 26.17400 46.89800
H  57.16600 23.03900 47.14900
H  58.11500 24.49900 47.50000
H  58.67200 23.41500 46.27000
H  56.85600 27.72400 44.28900
H  58.33200 26.82800 44.54600
H  57.23100 28.67300 46.63400
H  58.36100 29.26100 45.40500
H  58.83600 27.93800 46.46100
H  53.63800 30.17200 46.11000
H  52.06200 30.19000 46.75600
H  52.47100 30.92200 45.05300
H  47.93600 27.26800 44.56500
H  47.05900 29.64000 41.25200
H  45.44100 28.86900 41.62800
H  46.52300 27.99500 40.66600
Mg 6.88600 56.54200 42.21200
C  6.03200 53.18000 42.21800
C  9.88400 55.67300 40.72500
C  7.20900 59.75200 41.64800
C  3.52500 57.25400 43.42300
N  7.77000 54.61900 41.30500
C  7.24800 53.35900 41.52900
C  8.09400 52.25500 40.80300
C  9.52900 52.99400 40.83600
C  9.09300 54.47600 41.00200
C  10.62200 52.57500 41.84500
C  7.51500 52.01800 39.40600
C  7.85400 50.54900 38.92300
H  6.91300 49.95600 37.86400
N  8.39700 57.54600 41.39100
C  9.59500 57.03400 40.92100
C  10.47000 58.16200 40.56500
C  9.69000 59.35300 40.72400
C  8.35400 58.93900 41.24600
C  11.88200 57.98200 39.85900
C  10.24800 60.74200 40.55900
O  11.29200 60.91700 39.95000
C  9.57700 61.99800 41.12500
N  5.48400 58.28900 42.39700
C  5.94600 59.49400 42.16900
C  4.82100 60.55200 42.46400
C  3.68400 59.75700 43.12900
C  4.20300 58.35800 42.92700
C  5.30800 61.73100 43.34300
C  2.27500 59.94600 42.50400
C  1.17700 60.53800 43.42500
N  5.11300 55.53200 42.68800
C  3.93300 55.87900 43.30600
C  3.16600 54.73800 43.68100
C  3.94300 53.62300 43.35300
C  5.10000 54.16600 42.74800
C  1.82800 54.66300 44.35400
C  4.09200 52.15400 43.36100
O  3.33200 51.25300 43.73100
C  5.45500 51.87400 42.66400
C  5.25100 50.87700 41.63800
O  4.67900 51.07000 40.56500
O  5.61800 49.71700 42.09300
C  5.27100 48.40500 41.50300
H  10.95600 55.53200 40.56800
H  7.44400 60.81500 41.72400
H  2.55100 57.52500 43.83500
H  8.11100 51.31600 41.35700
H  9.93100 52.71700 39.86100
H  11.50000 52.35600 41.23800
H  10.30400 51.75300 42.48600
H  10.76500 53.47100 42.44900
H  8.00600 52.66300 38.67800
H  6.45700 52.20500 39.21900
H  7.76900 49.94600 39.82700
H  8.85400 50.43600 38.50400
H  11.84800 57.59400 38.84200
H  12.44300 57.21500 40.39300
H  12.52300 58.86400 39.88100
H  9.29600 61.70800 42.13800
H  8.75900 62.31600 40.47800
H  10.24900 62.82900 41.33900
H  4.51100 60.77900 41.44400
H  3.75400 59.89100 44.20900
H  4.70300 61.91600 44.23100
H  5.30000 62.68400 42.81300
H  6.31000 61.46900 43.68200
H  2.03100 58.99600 42.02900
H  2.39400 60.76200 41.79100
H  1.08700 59.89700 44.30200
H  0.23800 60.46000 42.87700
H  1.37500 61.56400 43.73500
H  1.08600 55.36900 43.98100
H  1.96900 54.77000 45.42900
H  1.57300 53.61800 44.17500
H  6.21500 51.55000 43.37500
H  6.15600 48.16500 40.91400
H  4.37700 48.38100 40.88100
H  5.14100 47.64300 42.27100

