158

Mg 45.52900 17.34000 28.89700
C  44.04500 16.48800 31.83900
C  47.78000 19.40100 30.57600
C  47.01500 18.15600 25.82700
C  43.09100 15.49500 27.18400
N  45.70700 18.00400 30.87800
C  45.13700 17.33500 31.97300
C  45.88600 17.66000 33.25100
C  46.65900 18.94200 32.78800
C  46.73400 18.78800 31.30300
C  46.03500 20.27100 33.23200
C  46.70800 16.58200 33.88400
C  46.65200 16.56900 35.51300
H  46.58500 17.87100 36.23800
N  47.12800 18.51500 28.32800
C  47.89300 19.35000 29.13900
C  48.72900 20.18900 28.33900
C  48.61900 19.79300 26.99800
C  47.56200 18.81200 27.01100
C  49.62700 21.25600 28.85600
C  49.15300 20.44200 25.71200
O  48.61200 20.28000 24.64800
C  50.32700 21.36100 25.77400
N  45.27000 16.73800 26.75200
C  45.93700 17.25300 25.71600
C  45.37200 16.68900 24.41900
C  44.05400 15.85700 24.84100
C  44.12200 16.01400 26.35500
C  45.14800 17.79300 23.34100
C  44.06100 14.31000 24.36200
C  44.61800 13.20900 25.25000
N  43.94700 16.26100 29.36500
C  43.05700 15.57900 28.60300
C  41.92300 14.96100 29.44700
C  42.42000 15.27400 30.74300
C  43.53600 16.06700 30.63000
C  40.69200 14.12600 29.03800
C  42.15500 15.04800 32.14000
O  41.24400 14.34700 32.66000
C  43.15700 15.82000 32.86300
C  42.56700 16.72900 33.75900
O  41.83100 17.65700 33.42400
O  42.89000 16.41400 35.05800
C  42.29900 17.30100 36.11200
H  48.52700 19.99900 31.10200
H  47.55500 18.31000 24.89000
H  42.28200 14.90800 26.74300
H  45.13800 17.99300 33.97000
H  47.68000 19.02800 33.15900
H  45.87200 20.92000 32.37100
H  46.78000 20.76700 33.85500
H  45.20100 20.18200 33.92800
H  47.73200 16.62500 33.51200
H  46.30300 15.61800 33.57800
H  47.59000 16.04100 35.68700
H  45.86300 15.91600 35.88700
H  50.66000 20.97900 28.64700
H  49.45800 21.56500 29.88700
H  49.31600 22.17700 28.36300
H  50.03700 22.36400 26.08800
H  50.63300 21.31400 24.72900
H  51.05700 20.93500 26.46300
H  46.15500 16.01300 24.07800
H  43.16300 16.42000 24.56400
H  45.84300 17.62700 22.51800
H  45.30300 18.79000 23.75200
H  44.14100 17.80400 22.92300
H  44.52400 14.16900 23.38500
H  43.03400 14.00400 24.16500
H  43.83000 12.47900 25.44200
H  45.12300 13.56200 26.14900
H  45.45300 12.76500 24.70800
H  40.78500 13.99500 27.96000
H  39.85800 14.75400 29.35000
H  40.81400 13.19900 29.59800
H  43.80700 15.16100 33.44000
H  42.68900 18.30500 35.94600
H  42.58600 16.81600 37.04500
H  41.21500 17.18800 36.11800
Mg 48.25100 45.22800 42.93000
C  44.67800 44.50700 42.77200
C  48.82600 41.92300 42.46400
C  51.33700 46.09600 42.49400
C  47.38300 48.76400 42.86600
N  46.85100 43.45900 42.68200
C  45.51500 43.37400 42.66500
C  45.00300 41.96600 42.39500
C  46.32100 41.12900 42.62600
C  47.43800 42.21000 42.57900
C  46.23000 40.22400 43.93400
C  44.55100 41.96800 40.85400
C  44.88300 42.95900 39.78900
H  44.80400 42.58400 38.25100
N  49.92000 44.12100 42.52600
C  49.97100 42.75600 42.43900
C  51.37600 42.38200 42.24300
C  52.10900 43.61500 42.08400
C  51.11500 44.67200 42.39000
C  51.84300 40.88600 42.27200
C  53.62500 43.73600 41.82000
O  54.28000 42.71200 41.82400
C  54.43100 44.93000 41.78600
N  49.15800 47.13600 42.70800
C  50.48100 47.24000 42.70300
C  50.98200 48.68500 43.01600
C  49.72900 49.49400 42.87200
C  48.71100 48.39300 42.82200
C  51.66800 48.89500 44.38800
C  49.74300 50.51300 41.68800
C  49.48000 52.00500 42.08400
N  46.43100 46.46500 42.91600
C  46.27600 47.84800 42.91400
C  44.86500 48.15500 42.99100
C  44.24900 46.89100 42.96300
C  45.20700 45.87600 42.84100
C  44.33200 49.54000 42.91100
C  42.88900 46.26700 42.98900
O  41.78800 46.81400 43.07800
C  43.13800 44.65200 42.89300
C  42.74200 44.20200 44.25800
O  41.81900 43.43900 44.46000
O  43.57800 44.64600 45.27000
C  43.49900 43.99900 46.60100
H  49.07600 40.86000 42.45700
H  52.37100 46.44700 42.48100
H  47.14200 49.82900 42.83800
H  44.18300 41.67700 43.05200
H  46.41600 40.40800 41.81400
H  45.26700 40.41100 44.41000
H  47.04100 40.38300 44.64500
H  46.26600 39.23600 43.47500
H  43.46500 41.87000 40.87400
H  44.89800 41.01600 40.45200
H  45.91400 43.26700 39.96200
H  44.20900 43.79600 39.97200
H  52.20000 40.52400 41.30800
H  51.06500 40.21100 42.62800
H  52.70500 40.87700 42.93900
H  54.54200 45.45200 42.73700
H  54.01000 45.56600 41.00700
H  55.41900 44.68200 41.39900
H  51.66300 48.97600 42.21600
H  49.41400 49.96800 43.80100
H  52.75600 48.96200 44.38300
H  51.48300 48.03700 45.03400
H  51.37100 49.78200 44.94700
H  49.07900 50.22300 40.87400
H  50.76200 50.43500 41.30800
H  48.92000 51.91400 43.01400
H  48.87000 52.33800 41.24400
H  50.47200 52.44600 42.18500
H  43.26200 49.69000 43.05300
H  44.53400 49.90400 41.90400
H  44.93300 50.13500 43.59900
H  42.56700 44.11200 42.13900
H  42.88800 44.59400 47.27900
H  44.50200 44.08100 47.02000
H  43.20000 42.95300 46.53100

