158

Mg 24.29600 -5.27400 46.24900
C  26.53000 -2.88000 44.77100
C  21.83100 -4.14000 43.99300
C  22.62500 -7.93400 46.91300
C  26.87200 -6.24900 48.24600
N  24.25400 -3.79300 44.56900
C  25.22100 -2.87200 44.24200
C  24.78000 -2.04200 43.05300
C  23.18400 -2.14200 43.17200
C  23.13000 -3.48600 43.98300
C  22.45100 -0.92500 43.88800
C  25.36500 -2.69500 41.77000
C  26.32800 -1.83200 40.90400
H  26.14300 -1.81700 39.40000
N  22.39100 -5.88700 45.57200
C  21.55400 -5.32600 44.67400
C  20.37200 -6.19200 44.49100
C  20.55000 -7.25600 45.45500
C  21.85900 -7.04500 46.06900
C  19.32900 -5.91200 43.42700
C  19.56400 -8.36700 45.66500
O  18.51700 -8.27600 45.01900
C  19.83000 -9.56300 46.61800
N  24.70700 -6.91400 47.39000
C  23.85500 -7.94800 47.56200
C  24.42800 -8.91300 48.62800
C  25.76300 -8.30400 49.13400
C  25.80800 -7.06900 48.19000
C  23.45800 -9.24400 49.77100
C  27.02900 -9.30300 48.97400
C  27.11300 -10.36000 50.06500
N  26.33400 -4.75400 46.48300
C  27.22500 -5.18500 47.40900
C  28.48900 -4.48900 47.23800
C  28.30300 -3.57500 46.18900
C  26.95200 -3.78600 45.76300
C  29.75600 -4.67100 48.05900
C  28.95400 -2.58000 45.36000
O  30.07100 -2.08900 45.33400
C  27.75300 -2.06400 44.32800
C  27.57700 -0.60200 44.37900
O  27.15100 0.00400 45.38700
O  28.06700 -0.12900 43.18800
C  28.27600 1.30900 43.18100
H  21.10100 -3.75700 43.27700
H  22.05000 -8.85300 47.04700
H  27.75000 -6.46500 48.85800
H  25.09700 -1.00000 43.09500
H  22.82100 -2.27400 42.15200
H  23.13800 -0.41700 44.56400
H  21.66500 -1.36700 44.50100
H  22.00700 -0.26200 43.14400
H  24.65900 -3.21100 41.11900
H  26.01900 -3.53300 42.01000
H  27.31400 -2.25900 41.08500
H  26.39200 -0.81600 41.29400
H  19.78600 -5.29500 42.65300
H  18.45800 -5.42700 43.86900
H  18.93700 -6.87100 43.08800
H  19.83400 -9.18700 47.64100
H  20.49200 -10.37400 46.31700
H  18.89000 -10.10400 46.51300
H  24.63600 -9.86600 48.14100
H  25.64500 -7.85600 50.12000
H  23.07400 -10.25600 49.64000
H  22.62300 -8.54300 49.77200
H  23.93100 -9.20900 50.75200
H  27.97200 -8.79600 49.17700
H  27.07800 -9.82900 48.02100
H  27.23300 -11.32400 49.57100
H  26.13600 -10.39900 50.54800
H  27.87100 -10.10200 50.80400
H  29.84800 -3.98100 48.89800
H  30.67700 -4.47600 47.51000
H  29.72800 -5.71900 48.35800
H  28.04600 -2.38900 43.33000
H  27.66300 1.94700 43.81800
H  27.94100 1.70100 42.22000
H  29.31300 1.60500 43.33900
Mg 25.81700 1.26400 29.21100
C  27.75700 0.76300 32.10400
C  23.07200 1.82500 31.18200
C  23.82500 1.10800 26.38400
C  28.59800 0.40300 27.37300
N  25.37400 1.09200 31.41800
C  26.37200 1.06200 32.35300
C  25.70300 1.36800 33.79200
C  24.20700 1.67100 33.52100
C  24.25000 1.57700 31.91900
C  23.20900 0.72000 34.09900
C  26.44600 2.45700 34.59300
C  26.87400 2.17800 36.05400
H  26.58500 3.26000 37.10200
N  23.74700 1.57300 28.78800
C  22.80600 1.75900 29.76600
C  21.49200 1.99700 29.09900
C  21.73600 1.80600 27.69100
C  23.14800 1.48400 27.56300
C  20.18600 2.24500 29.76900
C  20.76500 1.99600 26.54800
O  21.09500 1.95000 25.34700
C  19.37900 2.26100 26.81200
N  26.18300 0.76000 27.16800
C  25.17700 0.74400 26.23800
C  25.73400 0.50400 24.85700
C  27.30900 0.55400 25.07600
C  27.43700 0.61400 26.62800
C  25.11700 -0.67900 24.09000
C  27.99700 1.75200 24.28500
C  28.67200 1.46600 22.97400
N  27.76600 0.63200 29.61900
C  28.84100 0.36300 28.73300
C  29.97900 0.05000 29.53500
C  29.60300 0.20100 30.89200
C  28.24400 0.55400 30.85500
C  31.28200 -0.18500 28.92900
C  30.05700 0.13700 32.24200
O  31.07100 -0.26900 32.75600
C  28.87600 0.58100 33.13500
C  28.61900 -0.40700 34.23500
O  27.96700 -1.40200 34.15700
O  29.30100 0.00100 35.38900
C  28.98900 -0.74200 36.56400
H  22.20900 2.16600 31.75800
H  23.30900 1.31100 25.44300
H  29.44200 0.20800 26.70800
H  25.82400 0.40700 34.29200
H  23.92900 2.72100 33.61100
H  22.33000 1.35600 34.20100
H  23.53500 0.23200 35.01700
H  22.83200 -0.06100 33.43900
H  25.94100 3.42000 34.66900
H  27.37500 2.65000 34.05700
H  27.92700 1.91500 36.14800
H  26.32100 1.27600 36.31700
H  19.90300 3.26000 29.49000
H  20.38500 2.25100 30.84100
H  19.34500 1.60400 29.50600
H  18.85800 1.38700 27.20300
H  18.94000 2.52700 25.85100
H  19.11400 3.11700 27.43200
H  25.40700 1.40800 24.34300
H  27.81200 -0.36100 24.76100
H  25.85500 -1.45200 23.87000
H  24.79200 -0.43500 23.07900
H  24.27100 -1.23500 24.49400
H  28.79200 2.06500 24.96200
H  27.33700 2.59700 24.08800
H  28.41700 0.50100 22.53400
H  29.73100 1.62800 23.17700
H  28.26800 2.15100 22.22900
H  31.50300 0.39300 28.03100
H  31.40000 -1.22700 28.63000
H  32.03500 0.07200 29.67300
H  29.21100 1.49500 33.62600
H  29.54000 -0.30800 37.39800
H  29.16400 -1.81600 36.49400
H  27.94900 -0.68800 36.88700

