158

Mg 54.16300 24.52100 45.41300
C  51.76400 26.77500 44.58100
C  52.08800 22.01100 44.47100
C  56.85700 22.41200 45.23700
C  56.31900 27.21300 46.04600
N  52.22100 24.43300 44.47000
C  51.37500 25.47300 44.31100
C  49.99900 24.94500 43.74000
C  50.00600 23.52400 44.33100
C  51.55000 23.26500 44.43500
C  49.26300 23.22400 45.66800
C  50.04800 25.06400 42.19800
C  48.60900 25.33900 41.62500
H  48.41400 25.63700 40.06900
N  54.44800 22.41800 45.00900
C  53.40100 21.60600 44.61300
C  53.94700 20.29900 44.38700
C  55.35700 20.31600 44.71900
C  55.61400 21.74400 45.00600
C  53.14400 19.18700 43.91500
C  56.24500 19.14000 44.73500
O  55.82600 18.02400 44.43800
C  57.68600 19.21700 45.10800
N  56.27700 24.83000 45.42000
C  57.13400 23.78600 45.37500
C  58.59600 24.24700 45.37200
C  58.47000 25.79300 45.81300
C  56.94700 26.00100 45.78500
C  59.56200 23.39400 46.32600
C  59.22900 26.86900 44.92600
C  60.33900 27.74500 45.53900
N  54.07100 26.61100 45.44500
C  54.91600 27.55300 45.87000
C  54.30000 28.87700 45.93800
C  53.02500 28.64200 45.44500
C  52.97000 27.25700 45.07800
C  54.86600 30.24300 46.46100
C  51.72400 29.19200 45.25200
O  51.32000 30.32300 45.46000
C  50.91300 28.07500 44.44900
C  50.68200 28.53300 43.08800
O  51.50100 28.50100 42.16600
O  49.38300 28.88000 42.88500
C  48.87800 29.35100 41.61400
H  51.33500 21.26200 44.21800
H  57.66900 21.71300 45.02800
H  56.80700 28.15900 46.28800
H  49.22700 25.61300 44.12200
H  49.72600 22.80500 43.56100
H  48.34700 22.72800 45.34800
H  49.03900 24.20300 46.09200
H  49.84500 22.67200 46.40500
H  50.33100 24.13600 41.70200
H  50.68900 25.82400 41.75000
H  48.11100 26.15700 42.14600
H  47.91400 24.56000 41.93600
H  53.11300 19.16100 42.82500
H  52.10700 19.26700 44.24000
H  53.50100 18.26500 44.37300
H  58.26800 19.65500 44.29600
H  58.12000 18.26200 45.40200
H  57.76700 19.92600 45.93200
H  58.97000 24.28100 44.34900
H  58.86500 25.89400 46.82400
H  59.64200 24.01500 47.21800
H  60.47400 23.38300 45.72900
H  59.18400 22.39800 46.55700
H  58.41400 27.44500 44.48600
H  59.74200 26.40700 44.08300
H  60.67000 27.33300 46.49200
H  59.97800 28.76800 45.63800
H  61.20500 27.78000 44.87800
H  55.23500 30.85000 45.63500
H  55.58500 30.16300 47.27700
H  54.00800 30.80900 46.82600
H  49.96000 27.86700 44.93600
H  47.83800 29.02800 41.57200
H  49.49600 28.96000 40.80500
H  48.94700 30.43800 41.65700
Mg 50.00400 45.85400 42.29700
C  46.54500 46.65900 41.67000
C  49.22100 42.74900 41.23700
C  53.17100 45.30100 42.39500
C  50.41100 49.23500 43.22600
N  48.00200 44.81100 41.52800
C  46.75500 45.33200 41.39900
C  45.79000 44.29000 40.77900
C  46.66200 42.99700 40.82400
C  48.03800 43.52400 41.22100
C  46.13400 41.83900 41.78300
C  45.64900 44.78600 39.37800
C  44.20000 44.70700 38.80700
H  43.91500 43.47100 37.83000
N  51.03900 44.28700 41.80200
C  50.60500 43.04500 41.46000
C  51.66000 42.15500 41.32500
C  52.86900 42.86500 41.58900
C  52.42300 44.18300 42.04600
C  51.45400 40.70400 40.91500
C  54.31800 42.24400 41.38400
O  54.45500 41.07300 41.17100
C  55.50200 43.17300 41.38400
N  51.63200 47.19000 42.78300
C  52.91400 46.66700 42.72500
C  53.92200 47.75000 43.10500
C  53.04900 48.97700 43.54200
C  51.63600 48.47600 43.16600
C  55.01800 47.43400 44.25700
C  53.53200 50.34000 42.90000
C  53.57300 51.56800 43.84800
N  48.79100 47.64100 42.48400
C  49.09300 48.94600 42.84300
C  47.92900 49.78000 42.85700
C  46.92900 48.95000 42.36200
C  47.47300 47.63700 42.13100
C  47.89600 51.27100 43.21000
C  45.55100 48.90100 41.92100
O  44.75100 49.79900 41.89800
C  45.29300 47.42500 41.37000
C  44.04500 46.94800 42.09800
O  43.92800 46.82800 43.31000
O  42.97800 46.94000 41.20400
C  41.66400 46.52700 41.78000
H  49.00400 41.72200 40.93500
H  54.23300 45.12900 42.58200
H  50.54500 50.25900 43.58200
H  44.89400 44.13800 41.38000
H  46.80000 42.38500 39.93300
H  45.04700 41.91100 41.74200
H  46.61600 41.93500 42.75600
H  46.27000 40.85700 41.33000
H  46.26000 44.20500 38.68700
H  45.98300 45.79500 39.13800
H  43.81800 45.61600 38.34100
H  43.46000 44.55100 39.59200
H  52.37500 40.18800 41.18400
H  51.28200 40.62900 39.84100
H  50.64400 40.27000 41.50100
H  55.82500 43.36500 42.40700
H  55.18800 44.11300 40.93100
H  56.22000 42.70700 40.71000
H  54.50600 47.97500 42.21300
H  52.94000 48.97900 44.62700
H  54.74500 46.46100 44.66500
H  55.00400 48.18300 45.05000
H  55.94100 47.45700 43.67800
H  52.95000 50.58200 42.01000
H  54.44300 50.19400 42.32000
H  54.59000 51.96100 43.83500
H  53.25100 51.25600 44.84200
H  52.91100 52.38200 43.55300
H  46.87200 51.39600 43.56200
H  48.08000 51.87300 42.32000
H  48.60000 51.52100 44.00400
H  45.13700 47.53700 40.29700
H  41.02400 46.46600 40.90000
H  41.21100 47.30500 42.39500
H  41.75000 45.57100 42.29700

