158

Mg 3.21600 0.07900 44.43700
C  6.09100 1.85200 44.00600
C  1.44100 2.84900 43.22000
C  0.43000 -1.89600 44.11400
C  5.10100 -2.70900 45.29800
N  3.79500 2.10700 43.56400
C  4.99500 2.61200 43.52900
C  5.06400 3.98900 42.84400
C  3.54600 4.40700 42.99700
C  2.85100 3.04000 43.27600
C  3.27900 5.44000 44.00600
C  5.64500 4.00800 41.42400
C  5.51700 2.80000 40.44800
H  5.93700 3.14400 38.94500
N  1.16500 0.39600 43.77900
C  0.64100 1.69600 43.49700
C  -0.80600 1.56900 43.35800
C  -1.10300 0.25900 43.61900
C  0.18500 -0.50600 43.90300
C  -1.70900 2.76900 42.92100
C  -2.56700 -0.39200 43.77600
O  -3.50000 0.35600 43.64800
C  -2.85400 -1.86500 44.09900
N  2.89400 -1.99800 44.40600
C  1.64700 -2.59200 44.30200
C  1.71600 -4.13500 44.69600
C  3.24800 -4.38400 45.00100
C  3.75800 -2.94100 44.98500
C  0.70500 -4.60900 45.69500
C  3.91400 -5.36900 43.98900
C  4.87300 -6.21400 44.76600
N  5.16700 -0.32900 44.87500
C  5.76300 -1.48300 45.34400
C  7.18000 -1.23100 45.52400
C  7.33200 0.12500 45.10000
C  6.08900 0.57100 44.60900
C  8.20700 -2.22100 45.96900
C  8.26300 1.20000 44.87300
O  9.47100 1.17600 45.10700
C  7.50400 2.36000 44.13800
C  7.70800 3.64300 44.87000
O  8.68600 4.36300 44.84100
O  6.60700 3.91400 45.60600
C  6.79100 5.14000 46.45700
H  0.95000 3.76100 42.87600
H  -0.38100 -2.59400 43.89600
H  5.70700 -3.56600 45.59900
H  5.76900 4.67700 43.31000
H  3.15500 4.69700 42.02100
H  4.06600 5.77300 44.68300
H  2.42900 5.15800 44.62700
H  3.02400 6.32200 43.41900
H  6.68200 4.33100 41.51600
H  5.21000 4.89200 40.95700
H  4.49600 2.42300 40.38700
H  6.08300 1.93000 40.78100
H  -2.61200 2.38100 42.45000
H  -1.38400 3.35700 42.06300
H  -2.01000 3.36500 43.78200
H  -3.91100 -2.11200 44.00100
H  -2.69800 -2.15300 45.13800
H  -2.31100 -2.58300 43.48500
H  1.41700 -4.56300 43.73900
H  3.41900 -4.73000 46.02000
H  -0.01000 -5.28600 45.22600
H  0.17100 -3.76000 46.12200
H  1.21800 -5.15600 46.48500
H  4.49100 -4.87500 43.20700
H  3.19100 -6.04700 43.53600
H  4.96000 -6.04300 45.83900
H  5.85400 -5.99400 44.34600
H  4.58600 -7.23500 44.51400
H  9.20300 -1.81200 45.79900
H  8.08500 -3.16900 45.44400
H  7.93800 -2.42500 47.00600
H  7.99900 2.40900 43.16800
H  6.07800 5.21800 47.27800
H  6.84700 6.06800 45.88700
H  7.73100 4.97700 46.98300
Mg 25.25000 51.00400 26.94800
C  22.94300 51.93800 29.33900
C  27.51500 50.17100 29.45600
C  27.83200 50.57400 24.59400
C  23.21200 52.14500 24.43800
N  25.22900 51.18100 29.10400
C  24.13100 51.46800 29.93000
C  24.42000 51.33300 31.45900
C  25.94100 50.69400 31.37200
C  26.26700 50.70700 29.89500
C  26.98200 51.56500 32.17200
C  23.44000 50.43400 32.33800
C  23.96900 50.03700 33.68300
H  23.37700 50.71800 34.95600
N  27.30000 50.31800 27.00100
C  27.98500 49.95100 28.15200
C  29.27000 49.41200 27.78700
C  29.31100 49.39100 26.40500
C  28.09700 50.11600 25.90500
C  30.29800 48.91300 28.76300
C  30.41500 48.89600 25.50300
O  30.43000 49.12300 24.31800
C  31.63500 48.07100 26.04200
N  25.58000 51.41600 24.84700
C  26.65500 51.11600 24.10100
C  26.47200 51.60300 22.63900
C  24.95300 51.91200 22.61300
C  24.54700 51.79200 24.00400
C  27.31200 52.83800 22.18400
C  24.13000 51.06900 21.72300
C  24.19300 51.42200 20.25300
N  23.50000 51.90800 26.86200
C  22.74800 52.21100 25.76300
C  21.37600 52.49600 26.23100
C  21.46500 52.57200 27.58400
C  22.74600 52.09900 27.93800
C  20.21800 52.94100 25.39200
C  20.70000 52.81100 28.78800
O  19.58800 53.24600 28.96700
C  21.68300 52.50900 29.97100
C  21.92400 53.79100 30.70000
O  22.28400 54.80900 30.16500
O  21.45000 53.64500 31.99200
C  21.44700 54.93900 32.71300
H  28.10100 49.79400 30.29700
H  28.57900 50.44900 23.80700
H  22.49700 52.42000 23.66000
H  24.24800 52.36200 31.77300
H  25.97300 49.69600 31.80900
H  27.89800 51.63400 31.58500
H  27.23900 51.15800 33.15000
H  26.60100 52.57800 32.30200
H  23.31500 49.46600 31.85300
H  22.47400 50.93800 32.35200
H  24.96000 50.46900 33.81800
H  23.99300 48.95300 33.79400
H  30.10900 49.17500 29.80400
H  31.25600 49.39300 28.55900
H  30.35500 47.82500 28.74800
H  31.20200 47.32700 26.71100
H  32.27400 48.75600 26.59800
H  32.22700 47.43200 25.38600
H  26.72500 50.87100 21.87200
H  24.76000 52.93800 22.29900
H  27.76000 53.38900 23.01000
H  26.80100 53.48100 21.46700
H  28.25200 52.57100 21.70200
H  23.05900 51.04300 21.92400
H  24.60400 50.08700 21.72000
H  24.01200 50.47600 19.74200
H  25.05100 52.05400 20.02500
H  23.29200 51.98300 20.00400
H  20.31300 52.60900 24.35800
H  20.19200 54.02500 25.50100
H  19.31600 52.57600 25.88300
H  21.18800 51.84400 30.67900
H  22.13300 55.69800 32.33600
H  21.55700 54.80200 33.78800
H  20.43800 55.33800 32.61200

