158

Mg 46.28100 45.26100 42.93300
C  43.09200 43.98900 42.94400
C  47.35500 41.98600 42.27800
C  49.53300 46.40800 42.67800
C  45.12200 48.43300 43.24700
N  45.33200 43.22600 42.69600
C  43.97800 42.96700 42.72300
C  43.64000 41.44400 42.53800
C  45.04700 40.86200 42.70500
C  45.99800 42.06500 42.53200
C  45.31300 40.08200 44.06100
C  43.01900 41.18000 41.13800
C  43.82900 41.70900 39.89800
H  43.99300 40.80200 38.71400
N  48.11100 44.35200 42.40100
C  48.35000 43.01700 42.24300
C  49.75800 42.88500 41.88300
C  50.36200 44.17600 41.72200
C  49.34200 45.06500 42.28500
C  50.45800 41.54500 41.61200
C  51.67500 44.56200 41.11200
O  52.46600 43.75100 40.65000
C  52.13600 45.93500 40.99200
N  47.16600 47.13500 42.82400
C  48.50700 47.29900 42.98600
C  48.84900 48.71400 43.49700
C  47.48600 49.45800 43.21700
C  46.50500 48.27000 43.10400
C  49.25600 48.63000 45.02100
C  47.39300 50.49100 42.02400
C  46.88900 51.90600 42.48300
N  44.48700 46.11200 43.22900
C  44.15600 47.43100 43.38900
C  42.68900 47.57100 43.56500
C  42.22000 46.25700 43.41300
C  43.34500 45.38900 43.23400
C  41.90300 48.81900 43.75600
C  41.12600 45.34700 43.41500
O  39.91700 45.51200 43.64100
C  41.59200 43.85100 43.19700
C  41.35800 43.16700 44.50900
O  41.99300 43.26900 45.56100
O  40.14400 42.43500 44.46400
C  39.61200 42.02200 45.79700
H  47.74200 40.96900 42.17600
H  50.53400 46.65000 43.03900
H  44.84000 49.47700 43.39400
H  42.93400 41.18700 43.32700
H  45.21900 40.10700 41.93700
H  44.66100 40.27800 44.91200
H  46.22800 40.48200 44.50000
H  45.46600 39.02800 43.82800
H  42.03800 41.65600 41.14800
H  42.93100 40.09900 41.02500
H  44.87400 41.95100 40.09000
H  43.29900 42.63400 39.67100
H  50.24200 41.23000 40.59200
H  50.18100 40.83600 42.39300
H  51.53600 41.68700 41.67900
H  51.35900 46.55000 40.53800
H  53.14800 46.02300 40.59700
H  52.18400 46.35200 41.99800
H  49.69600 49.10100 42.93200
H  47.15700 49.99000 44.11000
H  48.94900 47.71000 45.51800
H  48.85500 49.51600 45.51300
H  50.33700 48.75200 45.09300
H  46.66300 50.11100 41.30900
H  48.41800 50.49900 41.65500
H  47.83300 52.44700 42.54800
H  46.29500 51.81500 43.39200
H  46.35800 52.43300 41.69000
H  42.19400 49.22800 44.72400
H  40.83200 48.63000 43.81900
H  42.02500 49.49200 42.90600
H  41.13300 43.37100 42.33300
H  39.04100 41.14600 45.48800
H  39.17200 42.83100 46.38100
H  40.40300 41.57400 46.39900
Mg 8.85100 47.68900 27.20700
C  7.29000 46.99300 30.13100
C  11.87100 47.99200 28.97000
C  10.45000 48.56400 24.29700
C  5.93400 47.74500 25.43700
N  9.61600 47.17400 29.34400
C  8.69200 47.07900 30.34800
C  9.42700 47.37000 31.74600
C  10.91500 47.62000 31.38900
C  10.84800 47.59300 29.85600
C  11.35900 48.99300 31.99500
C  9.36100 46.18100 32.73300
C  9.28000 46.59400 34.23800
H  9.96800 45.64700 35.26900
N  10.89900 48.11600 26.67400
C  11.97000 48.17700 27.57800
C  13.20500 48.60800 26.81200
C  12.82400 48.74500 25.48700
C  11.33600 48.40300 25.41500
C  14.47100 48.86700 27.46800
C  13.65800 49.16500 24.29300
O  13.15500 49.16400 23.16800
C  15.04900 49.79000 24.49900
N  8.24900 48.03300 25.17200
C  9.15300 48.36600 24.19900
C  8.46800 48.59000 22.80400
C  6.99700 48.21600 23.16700
C  7.02500 48.09800 24.70100
C  8.71900 50.01200 22.24800
C  6.55600 46.78800 22.51200
C  5.13100 46.66600 21.99800
N  6.92000 47.48700 27.66000
C  5.81400 47.44100 26.84300
C  4.69000 47.13200 27.71700
C  5.23400 47.02000 29.01700
C  6.58200 47.20600 28.90500
C  3.24200 47.06700 27.29700
C  4.78000 46.78900 30.38200
O  3.65300 46.65300 30.88300
C  6.16300 46.78000 31.18800
C  6.21400 45.43500 31.82700
O  6.36300 44.37400 31.23700
O  6.03300 45.55100 33.25100
C  6.50700 44.35100 33.96700
H  12.74800 48.24800 29.56800
H  10.85900 48.98000 23.37300
H  5.08100 47.67600 24.75800
H  8.90500 48.27400 32.05900
H  11.68500 46.93800 31.74800
H  12.39400 48.71400 32.19600
H  10.87300 49.17900 32.95300
H  11.19200 49.77300 31.25200
H  10.27700 45.59100 32.72300
H  8.49600 45.57100 32.47100
H  8.22200 46.58200 34.50300
H  9.56300 47.64500 34.28400
H  14.60000 49.94900 27.42100
H  15.23700 48.32300 26.91500
H  14.58300 48.69000 28.53700
H  14.90000 50.50100 25.31200
H  15.30600 50.29300 23.56700
H  15.81500 49.04000 24.69300
H  8.96900 47.92400 22.10100
H  6.32600 49.01300 22.84600
H  9.17100 50.50100 23.11100
H  7.82900 50.48000 21.82800
H  9.38900 50.01800 21.38900
H  6.56300 45.99300 23.25800
H  7.29300 46.62300 21.72600
H  5.05000 46.39300 20.94600
H  4.76200 47.69000 22.04500
H  4.41200 46.05600 22.54500
H  2.76800 46.20600 27.76800
H  3.12000 47.05800 26.21300
H  2.69000 47.86800 27.79000
H  6.22400 47.45700 32.04000
H  6.42700 44.55200 35.03500
H  7.55700 44.08300 33.85100
H  5.90800 43.50300 33.63300

