158

Mg 41.47000 8.26100 29.62000
C  43.18600 9.71700 32.33700
C  39.14000 6.98700 31.75500
C  39.87900 6.89500 26.86400
C  43.98900 9.40100 27.49000
N  41.38000 8.14800 31.81500
C  42.04300 8.95100 32.73900
C  41.44800 8.83900 34.14000
C  40.33200 7.81100 33.88200
C  40.23500 7.66700 32.35000
C  40.62400 6.53100 34.63300
C  41.07400 10.22000 34.78500
C  39.88500 10.32500 35.84200
H  40.17500 11.25800 36.97000
N  39.78500 7.10400 29.33500
C  38.95900 6.68200 30.35900
C  37.80900 6.07400 29.75800
C  38.03400 6.02700 28.36200
C  39.31400 6.65500 28.14000
C  36.88900 5.22100 30.67700
C  37.08600 5.45100 27.29700
O  37.37700 5.29100 26.06700
C  35.66700 5.10200 27.63700
N  41.95600 8.02700 27.52100
C  41.07100 7.49100 26.55900
C  41.59800 7.74300 25.08500
C  42.72000 8.72900 25.33900
C  42.91100 8.78900 26.86000
C  42.02000 6.37500 24.41800
C  42.25800 10.08800 24.68800
C  41.08000 10.80700 25.27700
N  43.31400 9.18400 29.78300
C  44.12100 9.70800 28.84700
C  45.09200 10.55500 29.54800
C  44.77900 10.54600 30.86900
C  43.67600 9.77000 31.02200
C  46.18700 11.22000 28.83500
C  45.19200 11.09400 32.15600
O  46.13300 11.77500 32.50200
C  44.15600 10.45500 33.21600
C  44.79400 9.56700 34.22300
O  45.57100 8.64000 33.91800
O  44.27400 9.91500 35.47500
C  44.68400 8.98800 36.57800
H  38.33300 6.62300 32.39500
H  39.25900 6.72900 25.98000
H  44.65200 9.89500 26.77600
H  42.36500 8.46300 34.59400
H  39.38900 8.20400 34.26100
H  41.41000 6.59400 35.38600
H  41.00000 5.76100 33.95900
H  39.63800 6.19700 34.95600
H  40.81200 10.83200 33.92200
H  41.91500 10.61500 35.35500
H  39.70000 9.34400 36.28000
H  38.97900 10.64500 35.32800
H  35.96800 5.79800 30.76300
H  37.33800 4.93900 31.62900
H  36.78500 4.26000 30.17200
H  35.66700 4.19500 28.24200
H  35.04400 5.00000 26.74900
H  35.33200 5.86200 28.34200
H  40.84100 8.16100 24.42000
H  43.59000 8.36700 24.79200
H  41.47300 5.53200 24.84000
H  43.08500 6.21700 24.59000
H  41.88700 6.39800 23.33700
H  41.97900 9.91900 23.64800
H  43.14500 10.72200 24.69700
H  40.48500 11.21300 24.45900
H  41.44800 11.67700 25.82100
H  40.45000 10.29500 26.00400
H  46.15200 12.27900 29.09100
H  46.13500 11.02800 27.76300
H  47.07300 10.77300 29.28600
H  43.58400 11.20300 33.76500
H  45.67700 8.57300 36.40800
H  43.91500 8.23000 36.72100
H  44.73000 9.54700 37.51300
Mg 35.42300 49.99400 25.73800
C  35.71500 47.97800 28.50400
C  33.77200 52.38800 27.67000
C  34.97300 51.82400 22.90000
C  36.70100 47.39800 23.80300
N  34.73000 50.08500 27.79500
C  35.06000 49.22500 28.74900
C  34.69900 49.78600 30.14700
C  33.94000 51.09600 29.87000
C  34.11700 51.22900 28.32900
C  32.44200 51.10200 30.28100
C  35.88800 50.02500 31.14000
C  35.51800 49.73300 32.62900
H  34.07400 49.71100 33.06400
N  34.50300 51.91600 25.33600
C  33.90300 52.71800 26.28400
C  33.59900 53.98100 25.60200
C  33.81000 53.79200 24.18400
C  34.44200 52.47800 24.07600
C  33.04900 55.16400 26.38300
C  33.60800 54.76800 23.07900
O  34.00400 54.60300 21.91700
C  32.73400 55.95500 23.25800
N  35.68900 49.59900 23.64600
C  35.51000 50.58700 22.70700
C  36.11900 50.10100 21.40500
C  36.76500 48.76200 21.61100
C  36.34500 48.55900 23.04200
C  35.20600 50.03100 20.14000
C  38.32700 48.77900 21.42600
C  39.12600 49.49900 22.40500
N  35.87400 48.04700 26.00400
C  36.33600 47.06600 25.09000
C  36.51300 45.85800 25.74200
C  36.30200 46.13900 27.11900
C  35.93000 47.48700 27.20800
C  37.22900 44.71600 25.14800
C  36.43600 45.62200 28.45800
O  36.76800 44.52500 28.85900
C  36.05600 46.78000 29.43200
C  34.96800 46.38100 30.26400
O  33.77800 46.54500 30.02600
O  35.47700 45.87900 31.45200
C  34.52900 45.50000 32.48900
H  33.32500 53.19200 28.25700
H  35.05100 52.41600 21.98500
H  37.21100 46.69800 23.13800
H  33.96200 49.05000 30.47000
H  34.44600 51.96900 30.28000
H  31.76600 50.97900 29.43400
H  32.27700 52.11800 30.63900
H  32.24300 50.43100 31.11600
H  36.35300 51.00600 31.04000
H  36.60500 49.32000 30.72000
H  36.07100 50.40800 33.28200
H  35.87400 48.72400 32.83800
H  33.57700 55.19500 27.33600
H  31.96400 55.14000 26.49300
H  33.42400 56.00700 25.80200
H  32.08200 55.86500 24.12600
H  32.04300 56.07200 22.42300
H  33.44000 56.77600 23.38400
H  36.78300 50.95000 21.24400
H  36.43100 47.93200 20.98900
H  34.69200 49.07000 20.11800
H  35.84100 50.11400 19.25700
H  34.47300 50.83700 20.11000
H  38.53600 49.14000 20.41900
H  38.69200 47.75700 21.32500
H  39.35500 48.74900 23.16200
H  38.73400 50.39600 22.88300
H  40.14000 49.66100 22.03800
H  38.06300 45.13200 24.58200
H  36.69500 44.05900 24.46200
H  37.66500 44.09300 25.92900
H  36.85300 46.95100 30.15600
H  34.85700 44.62400 33.04800
H  33.53300 45.23400 32.13600
H  34.46200 46.25400 33.27300

