158

Mg 53.68600 24.09800 44.10200
C  51.33200 26.49900 43.62100
C  51.56200 21.70700 42.76600
C  56.28600 21.86200 44.02200
C  55.82800 26.54300 45.52900
N  51.68400 24.12300 43.05800
C  50.84800 25.23100 43.15300
C  49.51000 24.86900 42.44700
C  49.44700 23.30800 42.62200
C  50.98400 23.01200 42.86100
C  48.66000 22.67300 43.75300
C  49.40300 25.47800 41.00300
C  49.99500 24.66600 39.80100
H  50.61600 25.33900 38.55100
N  53.93600 22.02600 43.45600
C  52.90900 21.27300 42.93200
C  53.42400 19.94400 42.56800
C  54.82200 19.98900 42.88000
C  55.12200 21.36800 43.48000
C  52.49600 18.88700 41.99400
C  55.77300 18.84400 42.83900
O  55.28400 17.86600 42.34500
C  57.11200 18.81800 43.30600
N  55.82600 24.21500 44.64900
C  56.58300 23.16300 44.55700
C  57.96100 23.47400 45.15200
C  57.87800 24.93000 45.57400
C  56.43200 25.26500 45.30100
C  58.33500 22.50800 46.21900
C  58.78500 25.99700 44.80000
C  60.04300 26.51800 45.61600
N  53.66100 26.12900 44.46000
C  54.54000 26.97600 45.07400
C  53.95400 28.28200 45.24400
C  52.63500 28.11700 44.69600
C  52.55300 26.81000 44.20800
C  54.47700 29.42900 45.98400
C  51.32400 28.72600 44.51000
O  50.87600 29.83000 44.81800
C  50.46600 27.76100 43.80000
C  50.16900 28.41500 42.56600
O  50.89300 28.98800 41.81800
O  48.82700 28.23800 42.27500
C  48.27100 28.67800 40.99200
H  50.84000 20.89400 42.66600
H  57.19800 21.30700 43.79100
H  56.40500 27.43700 45.77800
H  48.70400 25.32600 43.02000
H  49.11700 22.95700 41.64400
H  48.23300 23.44400 44.39400
H  49.32200 22.04500 44.35000
H  47.84000 22.11900 43.29500
H  50.04500 26.35300 41.10400
H  48.38600 25.76300 40.73200
H  49.27600 23.96600 39.37700
H  50.86300 24.15700 40.22000
H  52.28000 18.98300 40.93000
H  51.52000 18.89000 42.47900
H  52.97100 17.91400 42.12000
H  57.09000 19.05400 44.37000
H  57.78400 19.47700 42.75600
H  57.60400 17.84500 43.31900
H  58.60700 23.38900 44.27900
H  57.99700 25.02900 46.65300
H  57.45000 21.95200 46.52700
H  58.77600 22.99900 47.08600
H  59.02900 21.86300 45.67900
H  58.22100 26.74900 44.24900
H  59.14700 25.37300 43.98300
H  60.08200 25.99300 46.57000
H  60.14400 27.59000 45.78400
H  60.92900 26.17600 45.08100
H  55.53900 29.39100 46.22800
H  53.97900 29.30900 46.94600
H  54.32400 30.39200 45.49600
H  49.52600 27.52800 44.30000
H  48.91900 28.53800 40.12600
H  47.94500 29.71500 41.07000
H  47.47200 27.94800 40.86200
Mg 48.72600 44.99500 42.27400
C  45.67400 45.46400 40.82000
C  48.55100 41.68000 41.35700
C  52.02300 44.75000 42.98400
C  48.99700 48.60500 42.53500
N  47.24600 43.72300 41.31900
C  46.05000 44.12000 40.82200
C  45.34600 42.99400 40.11000
C  46.21700 41.73200 40.42100
C  47.37800 42.42100 41.14500
C  45.52300 40.81300 41.45100
C  45.04100 43.09600 38.56700
C  43.70000 42.48900 37.99300
H  43.54900 41.96300 36.56900
N  50.11300 43.42700 42.22600
C  49.81100 42.14400 41.86500
C  51.06400 41.40300 41.94900
C  52.09100 42.22700 42.49200
C  51.46800 43.51600 42.63600
C  51.14000 39.99500 41.47900
C  53.51800 41.82300 42.76200
O  53.90600 40.66700 42.54800
C  54.48300 42.78900 43.32100
N  50.29500 46.52400 42.72000
C  51.55700 46.09500 42.94000
C  52.48300 47.32200 43.28900
C  51.40200 48.45300 43.30900
C  50.16700 47.83500 42.80700
C  53.30900 47.23500 44.61000
C  51.89000 49.75500 42.71100
C  51.62600 50.99100 43.54400
N  47.58100 46.73000 41.82900
C  47.74800 48.08200 42.11400
C  46.46400 48.72800 41.95000
C  45.69200 47.73800 41.31800
C  46.34900 46.53600 41.36300
C  46.09100 50.10200 42.12700
C  44.42800 47.47800 40.60400
O  43.50500 48.25100 40.46700
C  44.41500 45.97300 40.20900
C  43.17200 45.46300 40.77400
O  42.18600 45.09900 40.17000
O  43.17400 45.55500 42.14500
C  41.92300 45.79600 42.87100
H  48.45200 40.62500 41.09400
H  53.09100 44.78600 43.21100
H  49.01000 49.68400 42.70600
H  44.45100 42.87600 40.72100
H  46.46800 41.17500 39.51900
H  46.02500 39.87100 41.67300
H  44.61400 40.46700 40.95900
H  45.24800 41.29900 42.38700
H  45.78300 42.55900 37.97700
H  45.06400 44.09100 38.12300
H  42.91400 43.22400 38.17200
H  43.45500 41.65300 38.64800
H  52.07800 39.65500 41.04000
H  50.37400 39.63800 40.79200
H  50.90200 39.45000 42.39300
H  54.74600 43.67200 42.73900
H  55.45900 42.30900 43.39800
H  54.19100 43.04300 44.34000
H  53.13800 47.48400 42.43200
H  51.03800 48.67800 44.31100
H  54.19700 47.84900 44.45800
H  53.65500 46.25300 44.93300
H  52.84900 47.79000 45.42700
H  51.56400 49.97300 41.69400
H  52.97500 49.70300 42.61500
H  52.02300 50.94100 44.55800
H  50.59700 51.34100 43.62000
H  52.16200 51.80300 43.05400
H  45.58800 50.23900 43.08400
H  45.45700 50.33100 41.27000
H  46.99400 50.71100 42.09100
H  44.29800 45.94500 39.12600
H  42.13500 45.85000 43.93900
H  41.08200 45.11900 42.72300
H  41.68800 46.84800 42.70800

