158

Mg -2.66200 16.88400 26.46700
C  -2.93000 14.86700 29.28800
C  -2.96600 19.65600 28.63200
C  -2.74600 19.00000 23.71900
C  -2.90500 14.20000 24.33300
N  -2.63200 17.21800 28.73900
C  -2.95700 16.22000 29.69300
C  -3.12000 16.81700 31.10000
C  -2.97900 18.37300 30.85200
C  -2.89300 18.44000 29.29700
C  -4.13700 19.27200 31.52700
C  -2.01200 16.17200 32.13600
C  -1.33600 17.09700 33.18200
H  -0.96400 16.46600 34.49900
N  -2.74500 19.04500 26.20000
C  -2.95500 20.02000 27.21400
C  -3.00200 21.31900 26.60900
C  -2.73500 21.11100 25.19000
C  -2.73400 19.66800 24.94000
C  -3.17900 22.62500 27.37800
C  -2.55400 22.15800 24.14400
O  -2.00300 22.05900 23.07700
C  -3.05900 23.49300 24.44100
N  -2.93000 16.61500 24.36800
C  -2.86900 17.62600 23.45700
C  -2.84500 17.13200 21.96300
C  -2.86300 15.55500 22.15100
C  -2.94200 15.38800 23.71600
C  -4.03200 17.73800 21.08100
C  -1.81800 14.74800 21.24300
C  -2.44600 13.90300 20.18700
N  -2.93300 14.93500 26.75100
C  -2.96800 13.97300 25.70600
C  -3.15500 12.71800 26.34300
C  -3.04600 13.00000 27.72700
C  -2.95400 14.38300 27.93000
C  -3.27600 11.41800 25.66600
C  -3.10400 12.37500 29.02200
O  -3.06900 11.21100 29.31800
C  -3.09700 13.59300 30.08700
C  -2.00100 13.36100 31.02900
O  -0.80500 13.58500 30.83100
O  -2.46500 12.77200 32.14700
C  -1.45500 12.19500 33.10300
H  -2.99500 20.53000 29.28700
H  -2.71700 19.60500 22.81000
H  -2.96900 13.40800 23.58400
H  -4.03100 16.47900 31.59300
H  -2.05000 18.79300 31.23800
H  -4.88400 18.69100 32.06900
H  -4.63400 19.73100 30.67100
H  -3.79600 20.05500 32.20300
H  -1.26100 15.86900 31.40600
H  -2.35700 15.28200 32.66300
H  -2.02000 17.93500 33.31500
H  -0.43500 17.50900 32.72700
H  -4.17900 23.02100 27.20000
H  -2.38700 23.35300 27.19700
H  -3.16300 22.49000 28.45900
H  -4.08700 23.55600 24.79700
H  -2.91000 24.01500 23.49500
H  -2.34600 23.96100 25.12000
H  -1.87600 17.29600 21.49200
H  -3.81800 15.24000 21.73000
H  -3.83800 17.93000 20.02500
H  -4.30600 18.66000 21.59200
H  -4.99300 17.22700 21.13800
H  -1.24400 14.13600 21.93900
H  -1.17300 15.44900 20.71200
H  -2.22200 12.93300 20.63000
H  -1.95600 14.14900 19.24400
H  -3.52100 14.05500 20.08900
H  -4.27600 11.21600 25.28400
H  -3.06500 10.60800 26.36400
H  -2.52000 11.34000 24.88400
H  -4.04300 13.59700 30.62900
H  -0.65800 12.87500 33.40300
H  -0.96400 11.31200 32.69200
H  -1.97400 11.75900 33.95600
Mg 53.60100 24.41200 45.05700
C  51.08400 26.67700 44.28400
C  51.60100 21.85700 43.86800
C  56.30500 22.35800 45.20800
C  55.54300 27.01400 46.19400
N  51.60500 24.27600 44.10400
C  50.73600 25.36600 43.88700
C  49.47000 24.85500 43.26700
C  49.47300 23.32300 43.36800
C  50.95600 23.10100 43.82100
C  48.51900 22.78100 44.52100
C  49.22800 25.30400 41.82200
C  50.59200 25.42500 40.91600
H  51.45500 24.17800 40.60600
N  53.89400 22.32700 44.64600
C  52.93500 21.49000 44.28000
C  53.50600 20.18000 44.25500
C  54.84100 20.31500 44.72400
C  55.08600 21.70700 44.88500
C  52.73700 18.98300 43.81600
C  55.83400 19.11400 44.96400
O  55.49900 17.95500 44.83000
C  57.29300 19.43800 45.42400
N  55.72100 24.71500 45.45200
C  56.63100 23.68500 45.44900
C  58.02500 24.19700 45.73100
C  57.79300 25.72500 45.95700
C  56.24500 25.82000 45.88400
C  58.76800 23.37500 46.82000
C  58.37900 26.69200 44.90200
C  59.53200 27.50900 45.42000
N  53.41800 26.41200 45.27900
C  54.20500 27.32800 45.86400
C  53.53000 28.60200 45.99000
C  52.29400 28.41900 45.39100
C  52.29900 27.04000 44.94400
C  53.96400 29.94600 46.64800
C  51.03700 29.07300 45.04000
O  50.60800 30.18300 45.12300
C  50.27800 27.96500 44.25000
C  50.06700 28.47200 42.85700
O  50.92000 28.47200 42.01100
O  48.76700 28.84000 42.67200
C  48.27000 29.07200 41.30800
H  51.03300 20.93900 43.70200
H  57.21600 21.75900 45.14800
H  56.19500 27.77700 46.62300
H  48.81500 25.43800 43.91500
H  49.26300 22.88200 42.39400
H  48.80700 21.75600 44.75700
H  47.47400 22.71600 44.22000
H  48.64300 23.46900 45.35700
H  48.75300 26.28200 41.75000
H  48.58900 24.55600 41.35100
H  51.34500 26.17100 41.17300
H  50.22500 25.73200 39.93600
H  52.04500 19.34800 43.05700
H  52.21200 18.52600 44.65400
H  53.23400 18.20400 43.23800
H  57.74300 18.45500 45.56600
H  57.27900 20.03800 46.33400
H  57.85200 19.97000 44.65400
H  58.54300 24.00100 44.79200
H  58.12000 25.95500 46.97100
H  58.95500 23.98500 47.70400
H  59.62900 22.83600 46.42300
H  58.19800 22.50400 47.14300
H  57.64100 27.32100 44.40400
H  58.88200 26.16900 44.08800
H  59.34400 27.52100 46.49400
H  59.58100 28.50400 44.97800
H  60.45300 26.96900 45.20000
H  53.71800 30.72700 45.92800
H  54.96300 29.94800 47.08400
H  53.22800 30.09100 47.43900
H  49.36400 27.64800 44.75200
H  49.06300 29.53300 40.71800
H  47.46100 29.76800 41.53100
H  47.83500 28.17600 40.86700

