158

Mg 0.35800 7.45800 25.64400
C  1.07600 9.26400 28.49500
C  -0.48400 4.68900 27.66300
C  -0.07100 5.49200 22.83400
C  1.26400 10.11600 23.68800
N  0.57500 7.01800 27.78300
C  0.64100 7.92300 28.79000
C  0.35700 7.39700 30.13900
C  0.09500 5.80600 29.89300
C  0.13200 5.80000 28.29900
C  1.11200 4.80000 30.51900
C  -0.87700 8.00400 30.84500
C  -0.64700 8.55100 32.32200
H  0.46000 7.88300 33.19900
N  -0.16300 5.43300 25.29800
C  -0.62200 4.53100 26.28800
C  -1.21100 3.41300 25.67700
C  -0.99500 3.47000 24.29100
C  -0.42600 4.90600 24.03600
C  -2.09300 2.42100 26.39400
C  -1.23800 2.50100 23.19600
O  -0.94400 2.69100 22.05800
C  -1.82500 1.07800 23.48700
N  0.76800 7.73800 23.56500
C  0.44000 6.77300 22.62400
C  0.60900 7.23900 21.23900
C  0.82100 8.79900 21.48300
C  1.00100 8.93800 23.04900
C  1.79300 6.49200 20.51400
C  -0.32100 9.70000 20.81100
C  -1.73800 9.58000 21.47000
N  1.02000 9.28900 26.01600
C  1.25300 10.31100 25.14200
C  1.63400 11.52300 25.87300
C  1.53100 11.19600 27.16300
C  1.19600 9.81000 27.24400
C  1.97900 12.88300 25.27700
C  1.62100 11.71400 28.51600
O  1.94900 12.80400 28.93700
C  1.20800 10.50300 29.39400
C  2.23200 10.21100 30.48700
O  3.30700 9.60300 30.44300
O  1.75400 10.86200 31.60900
C  2.44800 10.90200 32.89500
H  -0.66800 3.77800 28.23600
H  -0.25500 4.91000 21.92900
H  1.55200 11.02700 23.15900
H  1.30500 7.54500 30.65700
H  -0.89900 5.55300 30.26200
H  1.34500 3.94000 29.89200
H  0.66000 4.31200 31.38200
H  1.94300 5.46500 30.75500
H  -1.72200 7.33100 30.98400
H  -1.19400 8.82300 30.20000
H  -1.62600 8.59300 32.79900
H  -0.30700 9.58600 32.32800
H  -1.67300 1.45600 26.68000
H  -3.00100 2.22400 25.82500
H  -2.49400 2.84100 27.31600
H  -1.17500 0.40900 24.05100
H  -2.00700 0.51700 22.57000
H  -2.77600 1.29100 23.97300
H  -0.33700 7.02200 20.74200
H  1.71100 9.03200 20.89800
H  2.31600 5.89700 21.26300
H  2.38800 7.26700 20.03000
H  1.30100 5.77300 19.85900
H  -0.43100 9.33500 19.78900
H  0.04100 10.70200 20.58400
H  -1.66500 9.12500 22.45800
H  -2.36800 8.99600 20.79800
H  -2.18000 10.57200 21.56900
H  2.49100 13.53900 25.98100
H  1.09300 13.44300 24.98000
H  2.57900 12.86500 24.36800
H  0.26900 10.74500 29.89300
H  1.75500 10.68600 33.70800
H  2.90600 11.88500 33.00200
H  3.22700 10.14300 32.82400
Mg 7.05200 52.79500 41.33000
C  6.61700 49.35700 41.15100
C  10.39900 52.39100 40.54400
C  7.26300 56.17900 41.13300
C  3.45200 53.10600 41.74000
N  8.34900 51.07900 40.88300
C  7.96000 49.72900 40.91900
C  9.27600 48.83100 40.96000
C  10.45500 49.84600 40.93000
C  9.65100 51.20400 40.77700
C  11.42900 49.85700 42.13700
C  9.39100 47.73500 39.81600
C  9.50500 48.21700 38.34700
H  8.25900 48.14100 37.38200
N  8.58300 54.17100 40.92100
C  9.89100 53.74400 40.69100
C  10.67700 54.93500 40.49300
C  9.90300 56.06200 40.67000
C  8.50700 55.53700 40.96200
C  12.13300 54.89800 40.10300
C  10.31400 57.45100 40.58400
O  11.43400 57.71400 40.18900
C  9.42100 58.62500 40.83000
N  5.48700 54.48700 41.33600
C  5.93100 55.74500 41.36700
C  4.70400 56.63200 41.62700
C  3.44800 55.69000 41.53400
C  4.15700 54.32700 41.53200
C  4.76400 57.47000 42.91600
C  2.66900 55.93900 40.26000
C  1.14400 56.07500 40.52900
N  5.31300 51.56400 41.35800
C  4.00000 51.76400 41.66000
C  3.36500 50.56100 41.80200
C  4.37300 49.59700 41.70000
C  5.50500 50.27400 41.35300
C  1.93100 50.28500 42.01600
C  4.50500 48.19000 41.87400
O  3.63900 47.30900 42.07800
C  6.00800 47.92900 41.46400
C  5.87300 47.05100 40.24500
O  5.41100 47.44800 39.20100
O  6.16100 45.69600 40.54000
C  5.65300 44.73500 39.55400
H  11.47300 52.30100 40.37200
H  7.27500 57.26600 41.23600
H  2.36900 53.21200 41.82900
H  9.37700 48.24500 41.87300
H  11.00700 50.03200 40.00900
H  11.17300 48.98300 42.73600
H  11.33200 50.72100 42.79400
H  12.44500 49.81100 41.74400
H  8.66300 46.92800 39.90100
H  10.25400 47.10900 40.04500
H  10.34100 47.64500 37.94700
H  9.76600 49.27000 38.45400
H  12.23700 55.48300 39.19000
H  12.62900 53.92900 40.04400
H  12.71100 55.38600 40.88800
H  8.55900 58.69100 40.16600
H  10.00200 59.53900 40.95100
H  9.00400 58.50200 41.83000
H  4.93700 57.34000 40.83200
H  2.79000 55.70500 42.40400
H  5.63900 57.27600 43.53600
H  3.86000 57.49000 43.52500
H  4.88900 58.54600 42.79400
H  2.70000 55.10800 39.55400
H  2.86200 56.93900 39.87100
H  0.71900 55.80200 41.49500
H  0.67700 55.26500 39.96800
H  0.83400 57.07100 40.21300
H  1.53700 50.31300 41.00000
H  1.32300 50.91600 42.66400
H  1.82200 49.27100 42.40200
H  6.52300 47.33900 42.22200
H  5.77400 43.74100 39.98500
H  6.45000 44.65500 38.81500
H  4.76900 45.02300 38.98700

