158

Mg 35.73500 1.25100 30.25400
C  33.48800 2.19100 32.74600
C  38.24100 1.10500 32.52600
C  37.83500 0.43600 27.67600
C  33.07100 1.48900 27.85200
N  35.82900 1.77200 32.38200
C  34.78600 2.02000 33.27200
C  35.31200 2.12900 34.71400
C  36.86800 2.00200 34.56600
C  37.01000 1.56700 33.07200
C  37.66000 3.26300 34.90200
C  34.72500 0.96900 35.56500
C  34.16300 1.25800 37.00800
H  34.45900 2.55500 37.59700
N  37.84400 1.05200 30.07800
C  38.65900 0.84600 31.14000
C  39.89700 0.28700 30.70500
C  39.88700 0.31000 29.29500
C  38.46400 0.63700 28.91400
C  41.01500 -0.02700 31.73200
C  40.93200 -0.05000 28.36400
O  40.77700 0.01100 27.15800
C  42.32500 -0.41600 28.90500
N  35.54400 1.10500 28.09100
C  36.59100 0.68300 27.24600
C  36.15000 0.41800 25.85100
C  34.55300 0.63400 25.95400
C  34.28600 0.95600 27.41300
C  36.73000 1.39800 24.85400
C  33.71900 -0.62400 25.50800
C  33.08600 -0.59000 24.10300
N  33.71000 1.80300 30.20200
C  32.84300 1.95200 29.18400
C  31.56700 2.37600 29.78400
C  31.75900 2.48700 31.14100
C  33.08200 2.14000 31.36000
C  30.28700 2.57200 29.02500
C  31.17000 2.87300 32.37500
O  30.02500 3.17500 32.64200
C  32.19400 2.71500 33.48900
C  32.37400 4.07600 34.00900
O  33.30900 4.83900 33.72900
O  31.32700 4.31300 34.92500
C  31.29000 5.69700 35.34900
H  38.88800 0.95700 33.39400
H  38.48600 0.27200 26.81400
H  32.28500 1.46300 27.09400
H  35.09800 3.08700 35.18900
H  37.26600 1.16000 35.13100
H  37.01000 4.06400 35.25700
H  38.21700 3.59700 34.02600
H  38.41600 2.89700 35.59600
H  35.49000 0.21500 35.75000
H  33.90100 0.44300 35.08200
H  34.51800 0.43300 37.62700
H  33.09300 1.12800 36.84700
H  41.97900 0.45100 31.55600
H  41.14100 -1.09900 31.88600
H  40.79200 0.35900 32.72700
H  42.15000 -1.32000 29.48900
H  42.58600 0.44500 29.52000
H  43.09100 -0.52700 28.13800
H  36.30800 -0.62700 25.58400
H  34.25600 1.43100 25.27200
H  37.53300 0.77500 24.46100
H  37.07700 2.33100 25.29900
H  36.03800 1.48200 24.01600
H  32.95500 -0.88700 26.24000
H  34.28900 -1.55000 25.43100
H  33.33700 0.35800 23.62600
H  32.01600 -0.74700 24.24000
H  33.49500 -1.41400 23.51800
H  30.03600 3.61800 29.20700
H  29.64000 1.77700 29.39300
H  30.46200 2.33700 27.97500
H  31.66600 2.11700 34.23200
H  30.31900 5.89300 35.80400
H  31.33700 6.28300 34.43100
H  32.14700 6.05000 35.92300
Mg -5.26400 25.57800 26.26800
C  -3.66200 26.75500 29.07200
C  -6.89700 23.28300 28.37100
C  -6.52500 23.99000 23.57200
C  -3.17500 27.43600 24.18400
N  -5.31500 25.10800 28.45100
C  -4.64300 25.77600 29.40300
C  -5.20400 25.58700 30.84400
C  -5.85900 24.23400 30.62100
C  -6.10400 24.25400 29.11700
C  -5.06700 22.95200 31.14200
C  -6.08000 26.71500 31.42500
C  -5.87600 27.12500 32.94200
H  -5.58500 26.01500 33.92400
N  -6.50900 23.88200 25.94900
C  -7.08000 23.08600 26.96200
C  -7.79700 21.96000 26.33400
C  -7.63100 22.07700 24.91800
C  -6.83200 23.35500 24.75400
C  -8.35300 20.84200 27.20100
C  -8.13000 21.20000 23.75700
O  -7.97000 21.51500 22.54100
C  -8.89700 19.93900 24.07300
N  -4.89200 25.66900 24.21200
C  -5.64900 25.01400 23.31900
C  -5.14000 25.28500 21.87300
C  -4.34500 26.64200 22.03900
C  -4.01200 26.55400 23.54100
C  -4.39800 24.10800 21.22900
C  -5.05300 28.01900 21.72000
C  -5.78000 28.27900 20.33300
N  -3.72300 26.90700 26.53000
C  -2.98500 27.62500 25.58900
C  -2.09100 28.48900 26.28600
C  -2.29200 28.16800 27.63500
C  -3.27900 27.18400 27.72600
C  -1.09200 29.50500 25.68300
C  -1.84100 28.51800 28.95200
O  -1.03700 29.42200 29.27100
C  -2.77200 27.62100 29.98800
C  -1.96900 26.66400 30.88900
O  -1.44400 25.62200 30.57100
O  -1.85500 27.25300 32.07000
C  -1.10300 26.60300 33.13600
H  -7.31700 22.50200 29.00800
H  -7.04200 23.62400 22.68200
H  -2.42100 28.00600 23.63600
H  -4.40800 25.45600 31.57700
H  -6.73200 24.25500 31.27500
H  -4.66400 23.06100 32.14900
H  -4.32700 22.75700 30.36500
H  -5.75200 22.11400 31.27200
H  -7.12200 26.40200 31.35000
H  -5.87900 27.58600 30.80200
H  -6.79100 27.47000 33.42400
H  -5.19200 27.97200 32.99300
H  -8.71400 21.14500 28.18300
H  -7.55600 20.10400 27.30100
H  -9.18100 20.42100 26.63000
H  -9.00100 19.42600 23.11700
H  -9.93900 20.10000 24.34800
H  -8.45400 19.33800 24.86700
H  -6.02800 25.50400 21.28000
H  -3.38100 26.61300 21.53100
H  -4.49600 23.26400 21.91100
H  -3.36700 24.37700 21.00100
H  -4.86500 23.79200 20.29600
H  -4.18800 28.64600 21.94100
H  -5.78700 28.11100 22.52100
H  -6.84200 28.03800 20.37900
H  -5.29500 27.72100 19.53300
H  -5.75400 29.35400 20.15100
H  -0.85600 29.18800 24.66700
H  -0.20400 29.43400 26.31000
H  -1.45700 30.52900 25.60100
H  -3.50400 28.21500 30.53600
H  -0.11300 27.04300 33.25500
H  -0.93700 25.53200 33.02000
H  -1.67300 26.87100 34.02600

