158

Mg 47.72300 14.61300 27.87800
C  45.73800 14.82100 30.65600
C  50.09400 16.62300 29.54800
C  49.56400 14.56500 25.17500
C  45.37900 12.57100 26.32400
N  47.86300 15.56800 29.91700
C  46.97200 15.40600 30.89800
C  47.44900 16.02200 32.18600
C  48.80700 16.77200 31.79300
C  48.94600 16.34200 30.32300
C  48.84000 18.33300 31.89800
C  47.49300 15.00000 33.33700
C  46.66100 15.15800 34.58500
H  47.46100 15.70600 35.79400
N  49.59100 15.47400 27.39600
C  50.41100 16.23100 28.22200
C  51.67200 16.40900 27.55500
C  51.52700 15.80600 26.27500
C  50.17000 15.28100 26.22500
C  52.78300 17.36100 28.05600
C  52.49100 15.80700 25.06400
O  52.13600 15.37200 23.94200
C  53.89400 16.38900 25.23400
N  47.38300 13.78300 25.92200
C  48.36800 13.89800 24.98900
C  47.91800 13.04400 23.72200
C  46.70500 12.31700 24.15500
C  46.42900 12.94400 25.47400
C  47.71600 13.81500 22.42800
C  46.79700 10.77900 24.03100
C  47.53900 10.09800 25.20900
N  45.98200 13.88100 28.31400
C  45.10900 12.99900 27.58500
C  43.94500 12.76200 28.39400
C  44.10900 13.50900 29.57000
C  45.38100 14.10700 29.47800
C  42.76600 11.90600 27.94000
C  43.50400 13.83400 30.82600
O  42.40800 13.60000 31.38300
C  44.57800 14.65700 31.60900
C  43.94000 15.94400 31.88300
O  43.60400 16.74700 31.04200
O  43.89900 16.16000 33.22000
C  43.37000 17.31400 33.74700
H  50.76800 17.29300 30.08500
H  50.16300 14.30000 24.30200
H  44.58500 11.94200 25.91500
H  46.58500 16.63800 32.43300
H  49.66100 16.42200 32.37300
H  48.87800 18.89900 30.96800
H  49.64000 18.50900 32.61700
H  47.84900 18.58200 32.27800
H  48.48400 14.98800 33.79000
H  47.28900 14.01600 32.91600
H  46.17200 14.20700 34.79400
H  45.83900 15.85900 34.44000
H  52.26500 18.12700 28.63300
H  53.33300 17.94900 27.32100
H  53.49600 16.79700 28.65800
H  54.20700 16.17900 26.25700
H  54.05900 17.41700 24.91100
H  54.65400 15.86200 24.65800
H  48.76100 12.36200 23.61500
H  45.83100 12.67000 23.60800
H  46.73500 14.28700 22.47400
H  47.90300 13.11500 21.61400
H  48.44800 14.62000 22.35900
H  47.37100 10.62200 23.11800
H  45.84600 10.28400 23.83400
H  47.09400 10.53400 26.10300
H  48.60700 10.31100 25.15900
H  47.32900 9.02800 25.21500
H  42.80400 10.89800 28.35400
H  42.76700 11.72500 26.86500
H  41.85500 12.46900 28.14100
H  44.91500 14.09800 32.48100
H  44.07800 18.09900 33.48100
H  43.32400 17.41800 34.83100
H  42.35700 17.42100 33.35900
Mg 47.01500 34.36100 27.23200
C  45.58100 32.55600 29.84500
C  47.11500 37.14200 29.23000
C  47.93700 36.05600 24.55900
C  46.39400 31.52600 25.15900
N  46.39200 34.80500 29.27800
C  45.94300 33.84300 30.20500
C  46.10500 34.41200 31.67200
C  46.30800 35.90500 31.40100
C  46.58500 36.02500 29.87700
C  45.11400 36.88300 31.74600
C  47.26500 33.68300 32.43500
C  47.00900 33.26000 33.85800
H  47.67800 34.14900 34.93800
N  47.44300 36.30300 26.95400
C  47.51900 37.31000 27.86700
C  48.06200 38.54700 27.27700
C  48.40200 38.18900 25.92200
C  47.92200 36.78100 25.73500
C  48.14700 39.77200 28.12200
C  49.20300 38.99200 24.91900
O  49.65700 38.52200 23.87900
C  49.68900 40.35100 25.38400
N  46.96400 33.87400 25.11100
C  47.53700 34.71900 24.28100
C  47.64000 34.17900 22.85100
C  47.36100 32.69200 23.07900
C  46.85200 32.64300 24.48600
C  46.64800 34.78000 21.89800
C  48.66900 31.70600 22.95100
C  50.06400 32.32300 23.18300
N  46.33200 32.34000 27.45900
C  46.04000 31.40100 26.51100
C  45.48400 30.26500 27.10800
C  45.22500 30.67900 28.45200
C  45.74300 31.98000 28.54800
C  45.12900 28.99600 26.41400
C  44.70900 30.21700 29.74400
O  44.29200 29.13000 30.09400
C  44.84800 31.48100 30.61400
C  45.32300 31.05200 31.96000
O  46.43600 30.59200 32.16800
O  44.35700 31.28700 32.89700
C  44.57000 30.72800 34.24700
H  47.20000 38.02100 29.87200
H  48.34200 36.49500 23.64500
H  46.24100 30.68800 24.47500
H  45.17100 34.12600 32.15700
H  47.16100 36.24400 31.98900
H  44.22000 36.32700 32.02600
H  44.96100 37.49300 30.85500
H  45.30600 37.60200 32.54200
H  48.15500 34.31200 32.44200
H  47.54800 32.73800 31.97100
H  47.43300 32.25800 33.92000
H  45.94400 33.25100 34.09000
H  48.20100 40.65500 27.48400
H  48.86700 39.80900 28.93900
H  47.20900 39.96600 28.64200
H  50.29800 40.91100 24.67400
H  50.12000 40.34600 26.38500
H  48.78500 40.94100 25.53800
H  48.62600 34.37200 22.42900
H  46.57500 32.23500 22.47700
H  47.15400 35.20400 21.03000
H  46.18800 35.57800 22.48100
H  45.85700 34.07800 21.63500
H  48.66700 31.25600 21.95800
H  48.57900 30.86000 23.63300
H  50.28400 32.72200 22.19300
H  50.72300 31.50900 23.48300
H  50.01400 33.09000 23.95500
H  44.63000 28.26700 27.05400
H  46.09900 28.56800 26.16300
H  44.62900 29.20500 25.46800
H  43.80200 31.74600 30.76600
H  45.15600 29.81100 34.19100
H  43.57100 30.58900 34.66200
H  45.19500 31.37700 34.85900

