158

Mg 2.32800 -1.45200 43.89200
C  5.72400 -0.83200 43.38700
C  1.68300 1.49300 42.23200
C  -0.80200 -2.45000 44.05100
C  3.33800 -4.81600 45.00600
N  3.57300 0.20200 43.07800
C  4.92100 0.21100 42.95300
C  5.39600 1.57800 42.44100
C  4.05200 2.44000 42.40100
C  3.05100 1.25000 42.44600
C  3.84400 3.49600 43.58600
C  6.07300 1.59700 40.98300
C  5.45100 0.70200 39.90400
H  5.03400 1.48300 38.68800
N  0.71000 -0.63400 43.15000
C  0.57200 0.58600 42.51800
C  -0.81300 0.68900 42.07200
C  -1.57200 -0.22000 42.85800
C  -0.55700 -1.17300 43.41200
C  -1.41000 1.87000 41.26500
C  -3.01000 -0.29000 42.88000
O  -3.69500 0.52500 42.30300
C  -3.79400 -1.34000 43.54000
N  1.41000 -3.38800 44.46300
C  0.06000 -3.44500 44.39500
C  -0.39600 -4.86800 44.77500
C  0.93400 -5.66800 45.01500
C  1.94100 -4.54500 44.81500
C  -1.35300 -4.87300 46.04200
C  1.08500 -6.97300 44.17200
C  1.52400 -8.17500 44.98000
N  4.13500 -2.65300 44.21800
C  4.34300 -3.89700 44.73700
C  5.77600 -3.98900 44.88100
C  6.31500 -2.88300 44.23700
C  5.29500 -2.05800 43.90500
C  6.46300 -5.24300 45.44700
C  7.58000 -2.31000 43.77400
O  8.71700 -2.68600 43.80500
C  7.27800 -0.92400 43.19800
C  7.94100 0.11000 44.03200
O  8.73900 0.91100 43.56600
O  7.29800 0.28800 45.24700
C  7.39700 1.68800 45.81400
H  1.36900 2.36200 41.65100
H  -1.79800 -2.84600 44.26100
H  3.79500 -5.70200 45.45200
H  6.12400 2.16200 43.00400
H  3.94800 3.00800 41.47700
H  3.11900 3.05400 44.27000
H  3.22800 4.34200 43.28100
H  4.79900 3.69700 44.07000
H  7.10200 1.26100 41.10800
H  6.09500 2.62300 40.61600
H  4.63600 0.14900 40.37100
H  6.19400 -0.07000 39.70100
H  -1.88800 1.41100 40.39900
H  -0.62200 2.47900 40.82200
H  -2.06500 2.52700 41.83700
H  -3.37000 -1.47800 44.53400
H  -3.69200 -2.25200 42.95200
H  -4.84300 -1.04900 43.59900
H  -0.92200 -5.24100 43.89600
H  0.96000 -5.99000 46.05600
H  -1.41600 -5.81300 46.59200
H  -2.34700 -4.50000 45.79900
H  -0.90400 -4.10300 46.66900
H  1.85800 -6.92900 43.40500
H  0.11900 -7.29900 43.78700
H  1.01900 -9.09300 44.67900
H  1.38600 -8.14600 46.06100
H  2.59800 -8.27400 44.82500
H  7.35100 -4.92400 45.99300
H  6.77600 -5.86400 44.60800
H  5.77400 -5.65600 46.18400
H  7.63700 -0.96700 42.17000
H  7.96900 1.72600 46.74100
H  6.34300 1.83800 46.05100
H  7.71500 2.41100 45.06400
Mg 41.25600 41.84200 27.03500
C  40.45000 44.10700 29.47800
C  42.30800 39.60400 29.32700
C  42.66000 39.90100 24.52900
C  40.85700 44.42900 24.63100
N  41.22700 41.83500 29.15200
C  40.73200 42.83500 29.98600
C  40.92700 42.45900 31.44500
C  41.57000 41.03700 31.37000
C  41.77300 40.83400 29.86000
C  42.85000 40.84600 32.28300
C  39.54900 42.44300 32.21600
C  39.51200 41.51700 33.43800
H  38.91900 41.96900 34.71800
N  42.04600 39.88200 26.94500
C  42.38800 39.11500 28.01200
C  42.75600 37.79800 27.55000
C  42.85300 37.89500 26.16000
C  42.53600 39.29100 25.78400
C  43.12900 36.72000 28.63900
C  43.41600 36.86000 25.17100
O  43.66400 37.16000 24.02600
C  43.69700 35.41000 25.67700
N  41.69800 42.14400 24.98200
C  42.20300 41.17900 24.06900
C  42.18000 41.65100 22.62500
C  41.24900 42.94300 22.75900
C  41.32500 43.24400 24.22100
C  43.63100 42.17500 22.25600
C  39.72900 42.76400 22.31600
C  38.81700 41.55600 22.76300
N  40.87100 43.94800 27.03000
C  40.70700 44.83900 25.96500
C  40.41400 46.13300 26.49700
C  40.37200 45.93400 27.91100
C  40.58700 44.53600 28.14000
C  40.33800 47.34900 25.71900
C  40.14800 46.56500 29.18300
O  39.99000 47.74900 29.44400
C  40.20300 45.40100 30.23400
C  41.19200 45.66200 31.34600
O  42.31100 45.99500 31.13600
O  40.54900 45.56100 32.53800
C  41.25500 45.80600 33.77100
H  42.74900 38.99300 30.11800
H  42.89100 39.26800 23.67100
H  40.45400 45.10300 23.87200
H  41.64600 43.16300 31.86300
H  40.81400 40.27100 31.54200
H  43.69200 40.63800 31.62300
H  42.80900 39.88700 32.79900
H  43.02400 41.57200 33.07700
H  38.66900 42.25900 31.60000
H  39.44800 43.42300 32.68400
H  40.47400 41.05100 33.65300
H  38.85200 40.72500 33.08400
H  43.35900 35.68400 28.39100
H  42.29600 36.60900 29.33200
H  43.92500 37.17300 29.23000
H  42.72400 34.98700 25.92900
H  44.23100 35.37900 26.62700
H  44.16200 34.81400 24.89100
H  41.73500 40.94500 21.92400
H  41.72500 43.79200 22.26900
H  43.79500 42.03700 21.18700
H  44.42200 41.63300 22.77500
H  43.77200 43.24400 22.41700
H  39.62100 42.79600 21.23100
H  39.33900 43.73100 22.63600
H  39.32800 40.77700 23.32800
H  38.48300 41.08600 21.83800
H  37.84100 41.83300 23.16300
H  39.92600 48.20100 26.26100
H  39.56400 47.03200 25.01900
H  41.20000 47.58800 25.09600
H  39.25000 45.54100 30.74400
H  41.57600 46.84100 33.65100
H  42.06900 45.12800 34.02700
H  40.62200 45.85300 34.65700

