158

Mg 24.39600 -4.72900 45.64800
C  26.50700 -2.32700 44.41300
C  22.05500 -3.84600 43.06100
C  22.71800 -7.47300 46.33000
C  27.08700 -5.91000 47.77200
N  24.27500 -3.21100 43.90300
C  25.25700 -2.38300 43.67700
C  24.86900 -1.58500 42.38200
C  23.33800 -1.83200 42.25100
C  23.18200 -3.04400 43.08900
C  22.38900 -0.72000 42.78500
C  25.60300 -2.16200 41.03800
C  26.54700 -1.18200 40.42900
H  26.32700 -1.06300 38.94600
N  22.57900 -5.47600 44.89800
C  21.82800 -4.98800 43.87400
C  20.64500 -5.84200 43.81400
C  20.80200 -6.89900 44.70300
C  22.07100 -6.62700 45.39000
C  19.41800 -5.45200 42.92400
C  19.73900 -8.02200 44.91100
O  18.74900 -8.17900 44.20500
C  19.77900 -8.90400 46.16600
N  24.92900 -6.53000 46.79000
C  23.94000 -7.37000 46.94500
C  24.42800 -8.55000 47.79000
C  25.63700 -7.97800 48.54000
C  25.96200 -6.73800 47.66000
C  23.39500 -9.18100 48.84900
C  26.79700 -9.06800 48.74000
C  27.37400 -9.39000 50.11300
N  26.39200 -4.13000 46.18100
C  27.37300 -4.71500 46.99900
C  28.62600 -3.95500 46.90300
C  28.33900 -3.00000 45.85200
C  26.93900 -3.19500 45.44800
C  29.98300 -4.30700 47.66900
C  28.85100 -1.96000 45.08100
O  29.96100 -1.51300 45.07800
C  27.71000 -1.50100 44.08300
C  27.51000 -0.05000 44.31300
O  27.57300 0.51300 45.38700
O  27.50700 0.71600 43.10100
C  27.73200 2.14000 43.30000
H  21.31700 -3.68400 42.27300
H  22.17100 -8.35900 46.65800
H  27.87700 -6.07100 48.50800
H  25.21200 -0.57400 42.60000
H  23.00800 -2.01400 41.22800
H  22.96000 0.02000 43.34500
H  21.63700 -1.05700 43.49900
H  21.92600 -0.14700 41.98200
H  24.87300 -2.43900 40.27700
H  26.12500 -3.08100 41.30300
H  27.58400 -1.48800 40.56500
H  26.50000 -0.15700 40.79900
H  19.09400 -6.31300 42.33900
H  19.54100 -4.67400 42.17100
H  18.55100 -5.19100 43.53100
H  20.33700 -9.83500 46.06800
H  18.78600 -9.33200 46.30800
H  19.95400 -8.24900 47.01900
H  24.77600 -9.34300 47.12800
H  25.31000 -7.62800 49.51900
H  23.81400 -9.65400 49.73700
H  22.81000 -9.94900 48.34400
H  22.76600 -8.36800 49.21200
H  27.64300 -8.55900 48.27800
H  26.63700 -10.02400 48.24200
H  26.83000 -8.81300 50.86100
H  28.41300 -9.07100 50.20200
H  27.19700 -10.42800 50.39400
H  30.59200 -5.08200 47.20400
H  29.82100 -4.64300 48.69300
H  30.53300 -3.37600 47.81000
H  28.10400 -1.76600 43.10200
H  28.56200 2.29400 43.99000
H  26.93800 2.71500 43.77500
H  27.94000 2.57400 42.32200
Mg 1.42600 42.53700 26.04500
C  2.62100 42.58500 29.17400
C  -1.36600 40.84500 27.26800
C  0.30600 42.16900 22.86800
C  4.32900 43.92900 24.72900
N  0.59800 41.98000 28.06400
C  1.29000 42.13400 29.17800
C  0.40600 41.86700 30.46300
C  -0.87300 41.28100 29.79000
C  -0.55200 41.33300 28.27000
C  -1.32100 39.85100 30.21900
C  0.21200 43.11600 31.39500
C  0.84700 43.17700 32.80400
H  0.72500 41.93800 33.74100
N  -0.30400 41.61400 25.22300
C  -1.26000 40.92700 25.87700
C  -2.26400 40.47500 25.01400
C  -1.85700 40.87100 23.71300
C  -0.57900 41.68000 23.88300
C  -3.57500 39.63500 25.40000
C  -2.49800 40.70600 22.34500
O  -2.09600 41.13700 21.25500
C  -3.81300 39.89000 22.18800
N  2.21500 42.95800 24.08000
C  1.50400 42.75400 22.98300
C  2.35400 42.95900 21.74200
C  3.39800 43.93200 22.31100
C  3.34400 43.66800 23.80400
C  2.84700 41.52400 21.11800
C  3.46700 45.41400 21.86100
C  2.21400 46.28700 21.88800
N  3.15600 43.00800 26.77300
C  4.22200 43.64200 26.10800
C  5.32000 43.86600 27.10200
C  4.73700 43.43500 28.34800
C  3.44600 42.91000 28.09900
C  6.64000 44.47500 26.97700
C  4.96300 43.30200 29.75100
O  6.00300 43.41400 30.39900
C  3.56900 42.75000 30.35100
C  3.84800 41.45700 31.13000
O  3.78500 40.28300 30.83600
O  4.33400 41.90100 32.36100
C  5.07700 40.86500 33.09500
H  -2.32000 40.46600 27.64100
H  0.09300 41.90600 21.83000
H  5.29000 44.26100 24.33100
H  0.94400 41.09900 31.02000
H  -1.73700 41.91800 29.97700
H  -0.60500 39.56100 30.98900
H  -1.32100 39.08800 29.44100
H  -2.29000 40.01600 30.68800
H  -0.87200 43.19800 31.48000
H  0.54400 43.99600 30.84400
H  0.40100 43.96000 33.41700
H  1.89700 43.45700 32.71200
H  -3.82400 38.95900 24.58300
H  -4.40900 40.31900 25.55400
H  -3.28000 39.17000 26.34000
H  -3.74300 38.81100 22.32500
H  -4.22100 40.13100 21.20700
H  -4.51900 40.40200 22.84200
H  1.83900 43.48100 20.93500
H  4.38500 43.60100 21.99000
H  2.10100 40.74900 21.29500
H  3.80200 41.29900 21.59300
H  2.86400 41.66000 20.03700
H  3.92000 45.38200 20.87000
H  4.16600 45.98800 22.46900
H  2.12800 46.97200 22.73100
H  1.28800 45.72200 21.77900
H  2.33800 46.88100 20.98200
H  6.47100 45.24700 26.22600
H  7.33000 43.70300 26.63600
H  6.98700 44.86500 27.93300
H  3.23400 43.41300 31.14900
H  5.74800 40.35600 32.40300
H  4.50800 40.02800 33.50000
H  5.60000 41.42700 33.86900

