158

Mg 47.84400 45.23600 42.73400
C  44.40300 45.90000 41.74300
C  47.69200 42.57500 40.77500
C  51.19000 45.26200 42.70300
C  47.82500 48.58300 43.97200
N  46.17200 44.30200 41.55600
C  44.91800 44.76400 41.25200
C  44.26100 43.85500 40.25700
C  45.27000 42.66700 40.17400
C  46.43800 43.17000 40.95600
C  44.77500 41.31400 40.80000
C  44.02700 44.55400 38.86900
C  42.68100 44.20700 38.21600
H  42.62100 43.09300 37.17200
N  49.26300 43.94000 42.01200
C  48.95900 42.87700 41.26200
C  50.12800 42.16600 40.98700
C  51.20000 42.99100 41.46800
C  50.58500 44.13500 42.09800
C  50.23900 40.83500 40.26700
C  52.72800 42.66500 41.23600
O  53.04200 41.56100 40.78700
C  53.87100 43.60100 41.52100
N  49.29100 46.65000 43.33700
C  50.58800 46.38100 43.37300
C  51.35800 47.56100 43.98100
C  50.26900 48.63400 44.12900
C  49.00500 47.87300 43.93300
C  52.16100 47.34600 45.27800
C  50.42400 49.87300 43.11100
C  51.57000 50.79100 43.36500
N  46.38500 46.77900 43.15600
C  46.55800 48.07900 43.58500
C  45.28300 48.69400 43.81800
C  44.40000 47.87000 43.07400
C  45.17500 46.79200 42.57000
C  45.01800 49.95500 44.45600
C  43.06400 47.85600 42.48100
O  42.15700 48.67000 42.52800
C  43.00400 46.51900 41.57800
C  41.91600 45.69100 42.08900
O  41.25100 45.00800 41.32900
O  41.89900 45.54100 43.44800
C  40.83900 44.65400 44.03000
H  47.53500 41.72600 40.10600
H  52.24900 45.12600 42.93400
H  47.88900 49.62900 44.27900
H  43.33700 43.44400 40.66400
H  45.55200 42.43800 39.14600
H  45.06700 40.50000 40.13700
H  43.68900 41.22300 40.75900
H  45.14300 41.17400 41.81700
H  44.82500 44.30400 38.17000
H  44.17300 45.62600 39.00600
H  42.29600 45.12300 37.76800
H  42.07900 43.82100 39.03900
H  49.28400 40.32200 40.38200
H  50.92800 40.12800 40.72800
H  50.53400 40.92400 39.22200
H  54.10600 43.49600 42.58000
H  53.63600 44.63800 41.28000
H  54.71800 43.36000 40.87900
H  52.06900 47.83200 43.20100
H  50.29200 49.13000 45.09900
H  51.82400 48.08000 46.01000
H  53.20200 47.51800 45.00600
H  52.01200 46.34200 45.67500
H  49.46100 50.38000 43.18400
H  50.43300 49.39100 42.13400
H  51.16900 51.79600 43.49700
H  52.20600 50.86900 42.48400
H  52.34600 50.60500 44.10800
H  45.88300 50.40000 44.94900
H  44.13700 49.85100 45.09000
H  44.78000 50.59200 43.60400
H  42.75400 46.87700 40.57900
H  40.56800 45.01000 45.02400
H  41.08300 43.59900 44.15800
H  39.90700 44.75800 43.47600
Mg -10.03100 40.24200 39.30700
C  -8.79300 37.04000 38.34300
C  -6.93800 41.60100 38.34700
C  -11.52400 43.25500 38.87500
C  -13.31000 38.73300 39.49800
N  -8.19500 39.44200 38.47400
C  -7.92400 38.09800 38.14900
C  -6.53900 37.95000 37.36100
C  -5.83900 39.20100 38.05100
C  -7.07300 40.18300 38.31400
C  -4.92400 38.88600 39.25000
C  -6.75400 37.98000 35.83900
C  -6.15500 36.89800 34.90400
H  -7.15300 36.17000 33.91500
N  -9.34500 42.21300 38.84500
C  -8.02500 42.49800 38.53700
C  -7.96900 43.96200 38.40300
C  -9.25500 44.48100 38.54900
C  -10.11100 43.32100 38.72500
C  -6.64500 44.77500 38.05300
C  -9.57400 45.92400 38.44900
O  -8.71700 46.81000 38.27600
C  -10.97500 46.37400 38.89500
N  -12.21100 40.88700 39.46300
C  -12.44300 42.19500 39.13900
C  -13.95700 42.45000 39.10400
C  -14.49000 40.98800 39.22100
C  -13.33700 40.06900 39.53900
C  -14.56900 43.51300 40.07000
C  -15.31100 40.41000 38.01000
C  -16.78900 39.97800 38.40200
N  -10.93300 38.27000 39.23500
C  -12.20200 37.83300 39.40300
C  -12.18500 36.39700 39.36900
C  -10.91100 36.00300 38.93800
C  -10.19300 37.22500 38.78400
C  -13.34900 35.56400 39.71600
C  -10.01000 34.89900 38.56400
O  -10.23100 33.70100 38.64200
C  -8.69900 35.59400 38.11200
C  -7.55700 34.97300 38.84300
O  -7.01000 35.41100 39.82700
O  -7.16800 33.78300 38.28400
C  -6.01700 33.03200 38.87200
H  -5.93500 42.00400 38.18800
H  -12.09400 44.12700 38.54800
H  -14.23900 38.17300 39.36800
H  -6.06700 37.00600 37.63200
H  -5.17500 39.55100 37.26100
H  -5.17000 37.98000 39.80300
H  -4.97000 39.83400 39.78500
H  -3.92200 38.70800 38.85900
H  -6.21300 38.89300 35.59000
H  -7.79500 38.03600 35.52300
H  -5.79500 36.12400 35.58200
H  -5.38000 37.44500 34.36800
H  -6.49900 45.45700 38.89000
H  -6.86500 45.27200 37.10800
H  -5.75100 44.15200 38.06600
H  -10.94400 47.43300 39.15400
H  -11.16400 45.80100 39.80200
H  -11.65600 45.97000 38.14500
H  -14.25900 42.83200 38.12900
H  -15.14800 40.93200 40.08800
H  -14.93100 42.95400 40.93300
H  -15.34300 44.14200 39.63000
H  -13.79300 44.17200 40.46000
H  -14.73100 39.66800 37.46000
H  -15.34200 41.25500 37.32300
H  -16.81700 40.00400 39.49100
H  -16.88100 38.96800 38.00200
H  -17.49700 40.72900 38.05200
H  -13.95500 36.26100 40.29500
H  -13.12000 34.72000 40.36700
H  -13.72600 35.16600 38.77500
H  -8.54100 35.46300 37.04100
H  -5.10900 33.56100 38.58500
H  -6.09800 32.04400 38.41900
H  -6.08600 32.87600 39.94900

