158

Mg 52.83100 24.43400 44.16000
C  50.19500 26.87400 43.32100
C  50.82000 22.14900 42.56600
C  55.46000 22.51100 43.68800
C  54.94700 27.28100 44.63600
N  50.83200 24.62400 42.82600
C  49.86900 25.62100 42.81900
C  48.45000 25.09700 42.36900
C  48.64100 23.56400 42.44500
C  50.20600 23.45200 42.61500
C  47.87500 22.81600 43.62600
C  47.78300 25.66400 41.02900
C  48.76900 26.04400 39.96900
H  48.40600 25.94500 38.45700
N  53.05200 22.58000 43.50000
C  52.14000 21.75900 42.86700
C  52.62500 20.41500 42.72100
C  54.01400 20.48800 43.01600
C  54.24100 21.92500 43.46300
C  51.87000 19.20200 42.13200
C  55.06300 19.37200 42.97000
O  54.66700 18.25800 42.51700
C  56.47300 19.47700 43.19300
N  54.96700 24.85100 44.11900
C  55.81400 23.82400 44.02800
C  57.26800 24.26600 44.34500
C  57.08100 25.81300 44.48500
C  55.60700 26.01000 44.46500
C  57.91900 23.37700 45.44400
C  57.82800 26.75600 43.58100
C  57.19200 27.32700 42.32100
N  52.57400 26.66200 44.21500
C  53.51200 27.60100 44.55700
C  52.81300 28.82000 44.79500
C  51.48800 28.54000 44.38700
C  51.44400 27.26900 43.90300
C  53.36700 30.07900 45.23300
C  50.19200 29.14700 44.29600
O  49.73800 30.25900 44.53300
C  49.31200 28.06600 43.59800
C  48.70100 28.71600 42.40500
O  49.44100 29.22100 41.53300
O  47.33900 28.90000 42.49300
C  46.76400 29.76600 41.42400
H  50.19900 21.28200 42.33100
H  56.29000 21.80900 43.58200
H  55.60900 28.11400 44.88400
H  47.65200 25.37300 43.05800
H  48.41600 22.99800 41.54100
H  47.30800 22.02300 43.13800
H  47.07900 23.40900 44.07600
H  48.44700 22.41000 44.46000
H  47.26900 26.60400 41.23000
H  47.03500 24.97100 40.64700
H  49.59300 25.34800 40.13000
H  48.99900 27.08100 40.21100
H  50.82200 19.41800 41.92100
H  51.92200 18.33600 42.79200
H  52.38500 19.04100 41.18500
H  56.82000 18.46300 42.99300
H  56.56600 19.75300 44.24300
H  56.97200 20.23200 42.58400
H  57.70300 24.03700 43.37200
H  57.41200 26.13400 45.47200
H  58.05900 23.94200 46.36600
H  58.91500 23.04300 45.15300
H  57.32600 22.49700 45.69100
H  58.71300 26.25300 43.19100
H  58.22900 27.56200 44.19600
H  57.14800 28.41600 42.32500
H  56.18400 26.91200 42.29600
H  57.69400 26.88300 41.46100
H  54.05300 30.37700 44.44000
H  53.88300 30.12500 46.19200
H  52.62800 30.88000 45.24000
H  48.61300 27.69200 44.34600
H  47.16200 29.44600 40.46100
H  47.17000 30.77700 41.45500
H  45.68400 29.62000 41.40200
Mg -1.82200 33.84300 27.22400
C  -3.45600 31.91300 29.66500
C  -0.77900 35.97100 29.92200
C  -0.62600 35.97400 25.01300
C  -3.20000 31.92700 24.71500
N  -2.11500 33.92700 29.60900
C  -2.75800 32.97300 30.33700
C  -2.58900 33.28400 31.81200
C  -1.82300 34.67100 31.85900
C  -1.52500 34.89100 30.36900
C  -2.48600 35.91900 32.56100
C  -1.90800 32.18100 32.59400
C  -2.58300 31.68600 33.90300
H  -1.81700 31.96300 35.22600
N  -0.77200 35.58400 27.41100
C  -0.29400 36.20600 28.57300
C  0.65500 37.21600 28.17700
C  0.68300 37.22600 26.68500
C  -0.28900 36.23500 26.32800
C  1.50400 38.06900 29.15800
C  1.35800 38.15600 25.78200
O  1.05800 38.29400 24.58100
C  2.23100 39.20700 26.36900
N  -1.99300 34.10200 25.20000
C  -1.33400 34.96600 24.44600
C  -1.46600 34.71000 22.92500
C  -1.86200 33.22000 22.91700
C  -2.50200 33.10000 24.33700
C  -2.51600 35.65500 22.32400
C  -0.76400 32.13400 22.62400
C  -1.21100 30.71700 22.25600
N  -3.22300 32.37300 27.10700
C  -3.59700 31.65500 26.01400
C  -4.35600 30.50500 26.45300
C  -4.41700 30.60000 27.87700
C  -3.65200 31.75700 28.23800
C  -4.90800 29.42000 25.51400
C  -4.90800 29.91900 29.00400
O  -5.52500 28.89900 29.13300
C  -4.31800 30.78900 30.27200
C  -5.34100 31.29600 31.19600
O  -6.14600 32.19700 30.93400
O  -5.18000 30.64800 32.37100
C  -6.27800 30.76500 33.32100
H  -0.31300 36.59800 30.68500
H  -0.17000 36.56900 24.21900
H  -3.49300 31.20500 23.94900
H  -3.59200 33.36000 32.23200
H  -0.81400 34.66800 32.27100
H  -2.98900 36.50800 31.79400
H  -1.73000 36.56700 33.00500
H  -3.22800 35.59800 33.29300
H  -0.90800 32.48900 32.90100
H  -1.72000 31.31900 31.95400
H  -2.73100 30.61200 33.78900
H  -3.54900 32.18900 33.95400
H  2.56200 37.98700 28.90900
H  1.28200 37.83900 30.20000
H  1.24900 39.12400 29.05800
H  3.07900 38.65400 26.77100
H  1.75400 39.80300 27.14700
H  2.50800 39.82600 25.51600
H  -0.53500 34.81100 22.36700
H  -2.74400 33.13300 22.28200
H  -3.33100 35.18700 21.77300
H  -2.01900 36.31000 21.60800
H  -2.83000 36.38600 23.07000
H  -0.26200 32.01400 23.58400
H  0.02600 32.47100 21.95400
H  -0.99100 30.15800 23.16500
H  -0.70100 30.26500 21.40500
H  -2.29100 30.65100 22.12400
H  -4.15000 29.21800 24.75700
H  -5.83700 29.73600 25.03800
H  -5.14700 28.60800 26.20000
H  -3.74100 30.09600 30.88500
H  -7.02700 31.50900 33.04900
H  -5.86700 31.14600 34.25600
H  -6.77800 29.81300 33.49700

