158

Mg -2.08700 17.96800 26.71500
C  -2.87400 15.82300 29.64200
C  -3.14900 20.69100 28.68000
C  -1.83500 19.90400 24.03800
C  -2.20400 15.06300 24.77200
N  -2.68900 18.16200 28.97300
C  -3.01300 17.18200 29.85000
C  -3.35800 17.88600 31.18900
C  -3.87500 19.29800 30.74400
C  -3.18200 19.40300 29.39500
C  -5.44700 19.34900 30.71700
C  -2.16300 17.97700 32.09900
C  -2.49700 17.59900 33.51600
H  -1.34000 17.38700 34.47300
N  -2.18000 20.07000 26.43400
C  -2.63200 20.98300 27.37400
C  -2.41600 22.30900 26.74800
C  -2.11300 22.16400 25.36300
C  -2.10300 20.67200 25.21600
C  -2.87600 23.61600 27.42600
C  -1.86800 23.18100 24.25300
O  -1.74000 22.83800 23.06700
C  -1.72700 24.54500 24.60800
N  -2.09400 17.48800 24.69100
C  -1.93200 18.48900 23.83400
C  -1.75500 17.94000 22.42700
C  -1.64500 16.42600 22.68900
C  -2.01500 16.26900 24.11700
C  -2.90900 18.29600 21.51600
C  -0.24100 15.76500 22.39900
C  -0.01800 15.52600 20.93800
N  -2.47900 15.84800 27.06900
C  -2.31900 14.79400 26.18700
C  -2.47800 13.56600 26.91500
C  -2.72800 13.93500 28.27200
C  -2.68700 15.31200 28.29600
C  -2.60100 12.15200 26.38600
C  -2.92600 13.39700 29.56200
O  -2.98700 12.23300 29.89300
C  -3.12800 14.61500 30.47600
C  -2.12400 14.45700 31.60500
O  -0.94600 14.82600 31.58600
O  -2.61000 13.73800 32.67100
C  -1.63000 13.39000 33.80900
H  -3.46600 21.49000 29.35300
H  -1.56900 20.45100 23.13100
H  -1.92700 14.20400 24.15700
H  -4.08500 17.25700 31.70200
H  -3.44200 20.00600 31.45100
H  -5.81200 20.09000 31.42700
H  -5.83400 18.35100 30.92600
H  -5.82100 19.59800 29.72400
H  -1.71700 18.97100 32.06700
H  -1.37000 17.34700 31.69600
H  -3.06900 16.68200 33.37600
H  -3.12800 18.30000 34.06300
H  -2.08000 24.34700 27.28600
H  -2.89800 23.59000 28.51500
H  -3.85800 23.77600 26.98000
H  -1.38700 25.13000 23.75400
H  -0.89000 24.53400 25.30600
H  -2.66200 24.83400 25.08800
H  -0.81000 18.34700 22.06800
H  -2.36300 15.85300 22.10200
H  -3.77500 17.65400 21.67500
H  -2.61000 18.21000 20.47100
H  -3.24400 19.32300 21.66400
H  0.00600 14.86200 22.95700
H  0.45000 16.56500 22.66700
H  0.47600 14.55600 20.88300
H  0.61400 16.33500 20.57000
H  -0.96900 15.40700 20.41900
H  -1.63300 11.65100 26.40900
H  -3.01800 12.12800 25.37900
H  -3.28300 11.55500 26.99100
H  -4.17100 14.54700 30.78600
H  -1.79800 14.02800 34.67600
H  -0.60400 13.39500 33.44000
H  -1.90500 12.38800 34.14000
Mg 48.43200 34.76800 26.42600
C  46.53400 33.32100 28.92500
C  48.86100 37.59200 28.23400
C  49.28200 36.45500 23.57000
C  47.49000 31.96100 24.21800
N  47.67800 35.39100 28.24600
C  47.08600 34.60400 29.18300
C  47.27300 35.27100 30.52300
C  47.44000 36.76600 30.18700
C  48.07600 36.61500 28.75500
C  46.15900 37.62500 30.18600
C  48.55500 34.68600 31.28300
C  48.44900 34.44500 32.78600
H  47.49000 35.26300 33.66700
N  49.16000 36.65700 25.97700
C  49.34100 37.65700 26.90300
C  50.11500 38.72200 26.30000
C  50.15600 38.45000 24.89800
C  49.55000 37.13100 24.75400
C  50.70600 39.84200 27.20400
C  50.92100 39.16700 23.78800
O  50.85600 38.82900 22.60300
C  51.66700 40.38500 24.11800
N  48.48900 34.24600 24.23700
C  48.76700 35.21300 23.28900
C  48.68100 34.60600 21.85700
C  48.34700 33.10300 22.20800
C  48.13500 33.07400 23.70300
C  47.68600 35.38200 20.90000
C  49.49100 32.23100 21.69900
C  49.29100 31.83300 20.28200
N  47.29400 32.89400 26.54400
C  46.97800 31.93400 25.62000
C  46.17600 30.90300 26.34800
C  46.01700 31.41100 27.63600
C  46.62000 32.62300 27.69400
C  45.65000 29.67400 25.78300
C  45.43800 31.22300 28.94200
O  44.76400 30.26700 29.33700
C  45.60400 32.46000 29.82600
C  46.15300 32.04300 31.12300
O  47.24700 31.63200 31.38500
O  45.20800 32.11700 32.14400
C  45.58600 31.53200 33.49100
H  48.94100 38.51200 28.81600
H  49.72900 36.96900 22.71600
H  47.28300 31.20900 23.45500
H  46.47900 35.17200 31.26400
H  48.09000 37.26300 30.90700
H  45.91300 37.97100 29.18200
H  46.37200 38.53400 30.74800
H  45.36300 37.07100 30.68500
H  49.42700 35.31000 31.08500
H  48.71400 33.70300 30.83900
H  49.45300 34.55900 33.19400
H  48.10900 33.42000 32.93400
H  51.78400 39.93600 27.07500
H  50.51900 39.60000 28.25000
H  50.29500 40.78800 26.85300
H  50.97000 41.22100 24.18200
H  52.26300 40.64400 23.24300
H  52.41900 40.23400 24.89200
H  49.59700 34.57000 21.26800
H  47.37400 32.86100 21.77900
H  46.78500 34.81400 20.66900
H  48.26000 35.56200 19.99100
H  47.28700 36.24100 21.43900
H  49.67600 31.40100 22.38100
H  50.45700 32.73000 21.77300
H  49.89300 32.49300 19.65800
H  48.25000 31.88400 19.96200
H  49.68100 30.82300 20.16200
H  46.43600 29.19600 25.19700
H  44.80100 29.77300 25.10700
H  45.29600 29.10600 26.64400
H  44.66700 32.95600 30.07900
H  46.64900 31.37800 33.67800
H  44.95900 30.67900 33.75000
H  45.35800 32.21600 34.30800

