158

Mg 40.60500 8.84300 28.96500
C  42.60300 10.23200 31.67400
C  38.78600 7.29700 31.53200
C  38.87300 7.72200 26.63200
C  43.12600 9.97900 26.79300
N  40.65300 8.89000 31.34000
C  41.44200 9.60500 32.17700
C  40.91300 9.62100 33.56100
C  39.90400 8.40700 33.49600
C  39.76800 8.13800 32.03400
C  40.21000 7.10500 34.32500
C  40.28800 11.08300 33.79100
C  39.56700 11.30400 35.18300
H  39.96500 12.48400 36.00800
N  39.03700 7.68400 29.02500
C  38.40800 7.13100 30.16200
C  37.18700 6.47600 29.78600
C  37.15600 6.54300 28.30700
C  38.37000 7.33400 27.92500
C  36.11100 5.96500 30.76300
C  36.24900 5.89000 27.31700
O  36.28300 6.12000 26.13000
C  35.23200 4.77000 27.91600
N  41.10200 8.71400 26.94400
C  40.03700 8.34300 26.15800
C  40.34700 8.61700 24.73900
C  41.66200 9.44900 24.82700
C  41.98900 9.38200 26.26200
C  40.46600 7.24200 23.85500
C  41.46200 10.94100 24.33600
C  40.43800 11.86700 25.10300
N  42.43500 9.78100 29.13800
C  43.37700 10.13400 28.16200
C  44.57300 10.77300 28.76300
C  44.23900 10.86600 30.06400
C  42.94100 10.31600 30.25900
C  45.76200 11.24900 28.10900
C  44.79300 11.35600 31.33500
O  45.85000 11.84400 31.65700
C  43.71000 10.94200 32.42900
C  44.38800 9.99100 33.41900
O  44.73000 8.83200 33.13800
O  44.52700 10.63000 34.56600
C  45.08500 9.80400 35.63100
H  38.20500 6.73000 32.26300
H  38.34900 7.41200 25.72600
H  43.97800 10.39400 26.25100
H  41.57300 9.33600 34.38000
H  38.98300 8.75300 33.96600
H  40.49600 6.18600 33.81300
H  39.44400 6.92000 35.07900
H  41.14000 7.32300 34.84900
H  39.57800 11.27000 32.98500
H  41.11800 11.78800 33.73800
H  39.62100 10.33500 35.68000
H  38.54600 11.55400 34.89600
H  36.06700 6.43700 31.74400
H  36.31400 4.92200 31.00700
H  35.08000 5.86200 30.42300
H  35.83000 4.23200 28.65200
H  34.94600 4.07500 27.12600
H  34.41800 5.27700 28.43200
H  39.55800 9.24200 24.32200
H  42.37700 8.89100 24.22200
H  40.52900 6.36900 24.50400
H  41.42900 7.37700 23.36300
H  39.69500 7.09400 23.09900
H  41.20000 11.00100 23.28000
H  42.48200 11.32100 24.28500
H  40.90300 12.83900 25.27000
H  40.29000 11.33900 26.04400
H  39.54600 11.84900 24.47700
H  46.33000 11.87100 28.80100
H  45.62700 11.72900 27.14000
H  46.47600 10.45500 27.89100
H  43.43600 11.88900 32.89400
H  45.66500 10.38900 36.34600
H  45.84100 9.07800 35.33300
H  44.30100 9.34500 36.23300
Mg 46.74400 24.93300 28.20400
C  47.72700 27.25300 30.68000
C  45.61000 22.82300 30.62000
C  46.34200 22.61800 25.72200
C  48.35100 27.03600 25.83500
N  46.64900 25.12700 30.41600
C  46.96300 26.21800 31.24600
C  46.52900 25.92100 32.73100
C  45.98600 24.45900 32.63600
C  46.06000 24.12600 31.10800
C  46.63700 23.36100 33.46500
C  45.47700 26.97300 33.27700
C  44.64200 26.75400 34.55400
H  45.49500 26.57600 35.89300
N  45.91700 23.05900 28.13600
C  45.60600 22.34100 29.27300
C  45.07600 21.01600 28.81700
C  45.24500 20.96800 27.41700
C  45.85200 22.26700 26.98100
C  44.51600 20.07700 29.83300
C  44.72400 19.95800 26.36500
O  45.01200 19.98000 25.16300
C  43.79600 18.99400 26.89100
N  47.18100 24.94400 26.06300
C  46.98800 23.80200 25.28600
C  47.68600 23.92700 23.87700
C  48.21000 25.37200 23.93600
C  47.85000 25.83800 25.37100
C  48.60900 22.74300 23.50000
C  47.85600 26.38900 22.74100
C  48.94100 27.38500 22.32600
N  47.69000 26.82700 28.19300
C  48.37400 27.51200 27.17100
C  49.03600 28.73300 27.66000
C  48.69300 28.68600 29.05700
C  47.93800 27.49400 29.35700
C  49.83000 29.75000 26.93000
C  48.77500 29.53500 30.27500
O  49.07600 30.71700 30.44000
C  48.17000 28.50000 31.43000
C  49.30700 28.16200 32.33500
O  50.39700 27.73100 32.01400
O  48.99100 28.60400 33.60900
C  50.17700 28.80300 34.41000
H  45.23100 22.07200 31.31600
H  46.30100 21.83100 24.96600
H  48.80400 27.70100 25.09600
H  47.40400 26.06900 33.36500
H  44.92700 24.44600 32.89400
H  47.41700 23.78600 34.09600
H  47.18900 22.66400 32.83500
H  45.96700 22.77500 34.09300
H  44.89500 27.21400 32.38700
H  45.95800 27.92100 33.52000
H  44.03400 25.85800 34.42500
H  43.98300 27.61300 34.68200
H  45.13900 19.18600 29.75700
H  43.49900 19.81300 29.54300
H  44.53000 20.40500 30.87200
H  43.32300 18.45900 26.06700
H  42.94000 19.51100 27.32300
H  44.36900 18.31300 27.52100
H  46.91700 23.88500 23.10500
H  49.29700 25.31100 23.90400
H  49.14800 22.31200 24.34400
H  49.17600 22.97800 22.60000
H  47.99000 21.87400 23.27300
H  46.98500 27.00700 22.95700
H  47.63700 25.75200 21.88400
H  49.65800 27.54600 23.13200
H  48.46100 28.36300 22.29200
H  49.42700 27.15600 21.37800
H  50.31900 29.54600 25.97800
H  50.52600 30.11800 27.68400
H  49.00300 30.44300 26.77500
H  47.29500 28.97600 31.87400
H  49.90300 28.89100 35.46100
H  50.60600 29.77800 34.17900
H  51.04400 28.16200 34.25300

