158

Mg 54.56500 25.26900 44.24000
C  51.80200 27.45800 43.95900
C  52.53400 22.71400 43.28600
C  57.26600 23.29800 43.67300
C  56.57200 27.97700 44.71900
N  52.49400 25.19300 43.56400
C  51.51500 26.08600 43.57600
C  50.15900 25.45600 43.21800
C  50.39000 23.96400 43.36400
C  51.92700 23.97700 43.47200
C  49.68100 23.28700 44.61400
C  49.53000 25.83200 41.84400
C  50.43900 26.60300 40.82200
H  50.64100 25.98300 39.48400
N  54.89900 23.23200 43.66600
C  53.84500 22.30500 43.36500
C  54.43100 21.03800 43.04900
C  55.84800 21.16000 43.09300
C  56.08900 22.58200 43.46000
C  53.61200 19.81200 42.74000
C  56.84800 20.01100 42.91700
O  56.45000 18.90400 42.58300
C  58.36100 20.27500 43.04400
N  56.62200 25.65500 43.91200
C  57.52400 24.66000 43.90400
C  58.92200 25.12500 44.12100
C  58.76700 26.65100 44.25300
C  57.15300 26.76500 44.35500
C  59.59400 24.47700 45.37700
C  59.32700 27.46700 43.10500
C  59.71700 28.94900 43.53500
N  54.28500 27.33800 44.29800
C  55.17200 28.31200 44.67400
C  54.50600 29.56900 44.88400
C  53.15300 29.30700 44.64600
C  53.10900 27.93900 44.31100
C  55.03600 30.92500 45.31500
C  51.79300 29.78800 44.67300
O  51.42000 30.84900 45.09000
C  50.85100 28.69400 44.05200
C  50.29100 29.26300 42.79200
O  50.90800 29.67800 41.81600
O  48.86000 29.17800 42.91200
C  48.24000 29.80600 41.69100
H  51.81100 22.05500 42.79900
H  58.18900 22.71700 43.62800
H  57.10300 28.88900 44.99900
H  49.42800 25.81300 43.94200
H  50.03800 23.41300 42.49200
H  50.40200 23.00900 45.38300
H  49.27300 22.29100 44.43800
H  48.89600 23.93000 45.01200
H  48.64300 26.44600 42.00300
H  49.10200 24.99800 41.28800
H  51.41900 26.89900 41.19600
H  49.86700 27.51500 40.65000
H  52.57700 19.95900 42.43400
H  53.72300 19.16100 43.60700
H  54.04000 19.35500 41.84800
H  58.83900 19.36700 42.67600
H  58.61400 20.40900 44.09600
H  58.77300 21.04000 42.38500
H  59.36500 24.74100 43.20200
H  58.98700 26.99200 45.26500
H  60.06000 25.14800 46.09900
H  60.48100 23.91900 45.07700
H  58.96900 23.68300 45.78500
H  58.57200 27.48500 42.31900
H  60.27000 27.07900 42.71800
H  58.94600 29.57000 43.07900
H  60.71500 29.24500 43.21000
H  59.61200 28.96900 44.61900
H  54.99700 30.83200 46.40000
H  54.44100 31.80100 45.05500
H  56.05700 31.11800 44.98400
H  49.98500 28.62500 44.71100
H  48.15600 29.14100 40.83000
H  48.68900 30.72500 41.31400
H  47.31400 30.19900 42.10900
Mg -11.37000 38.20300 41.25200
C  -9.36100 35.38600 40.61100
C  -8.99600 40.17500 39.93500
C  -13.64500 40.62400 40.90500
C  -13.85300 35.99600 42.25900
N  -9.38200 37.81700 40.37700
C  -8.69900 36.56900 40.27100
C  -7.28000 36.83200 39.59400
C  -7.23700 38.43900 39.57200
C  -8.63900 38.87700 39.98900
C  -6.12900 38.91700 40.63400
C  -7.30300 36.21300 38.15000
C  -6.12300 35.19700 37.83400
H  -5.19000 35.60800 36.77600
N  -11.18000 40.27400 40.88200
C  -10.19100 40.82300 40.28100
C  -10.40700 42.24700 40.11400
C  -11.80000 42.47700 40.32700
C  -12.31100 41.10600 40.73500
C  -9.38700 43.26700 39.55700
C  -12.56700 43.76400 40.13000
O  -12.02100 44.88300 39.85900
C  -14.05400 43.73500 40.18700
N  -13.52300 38.35900 41.48900
C  -14.23200 39.45600 41.35700
C  -15.73300 39.09000 41.32800
C  -15.78500 37.63700 41.99500
C  -14.27500 37.31400 41.90600
C  -16.72000 40.13300 42.05100
C  -16.70100 36.57700 41.33200
C  -17.93200 36.34200 42.19300
N  -11.59100 36.18500 41.53700
C  -12.60700 35.46400 42.03300
C  -12.20100 34.08600 42.35100
C  -10.95700 33.96400 41.65800
C  -10.57300 35.31200 41.27800
C  -12.97700 33.06300 43.11600
C  -9.83700 33.09100 41.31200
O  -9.68700 31.91400 41.57000
C  -8.84800 33.92900 40.51900
C  -7.46300 33.75400 40.99200
O  -6.60600 33.12700 40.43000
O  -7.25300 34.46400 42.13200
C  -5.92900 34.23500 42.81200
H  -8.20400 40.85100 39.60700
H  -14.47300 41.25200 40.56900
H  -14.52000 35.20500 42.60700
H  -6.52100 36.28600 40.15400
H  -6.94300 38.85100 38.60700
H  -5.10300 38.66500 40.36500
H  -6.52100 38.44700 41.53600
H  -6.20800 39.98100 40.86000
H  -7.23200 37.03300 37.43600
H  -8.27000 35.72000 38.05600
H  -6.58300 34.23600 37.60500
H  -5.54700 34.96600 38.73000
H  -9.65400 43.47900 38.52200
H  -8.34900 42.99700 39.75300
H  -9.39300 44.12100 40.23500
H  -14.44400 44.75200 40.15700
H  -14.30500 43.32100 41.16400
H  -14.47900 43.09900 39.41100
H  -16.00500 39.15900 40.27500
H  -15.87300 37.83800 43.06300
H  -17.10300 40.74900 41.23800
H  -16.24100 40.82600 42.74300
H  -17.59700 39.63400 42.46200
H  -16.25500 35.60100 41.13600
H  -17.12100 37.04600 40.44200
H  -18.01900 35.26700 42.34500
H  -18.83900 36.75100 41.74600
H  -17.87100 36.72200 43.21300
H  -14.04000 33.29600 43.17300
H  -12.58400 33.00900 44.13100
H  -12.69000 32.09800 42.69700
H  -8.76400 33.59800 39.48400
H  -5.11100 33.90700 42.17000
H  -6.05200 33.55000 43.65100
H  -5.49000 35.16700 43.16900

