158

Mg 41.34500 41.28500 26.55400
C  40.76600 43.43800 29.38300
C  43.03500 39.11600 28.74500
C  42.31700 39.52700 23.94500
C  40.41800 44.07000 24.49200
N  41.90300 41.31000 28.78200
C  41.39900 42.22100 29.68100
C  41.94400 41.83900 31.07700
C  42.98000 40.66800 30.75700
C  42.52500 40.25000 29.36200
C  44.44500 41.02600 30.82600
C  40.91400 41.46000 32.18100
C  41.09200 42.05500 33.62000
H  39.78900 42.27400 34.35300
N  42.37900 39.48000 26.36900
C  42.96700 38.77300 27.40600
C  43.26900 37.47600 26.82400
C  43.19600 37.61500 25.40500
C  42.67200 38.96500 25.17100
C  43.62100 36.30000 27.65200
C  43.54400 36.61300 24.30100
O  43.29100 36.83800 23.12900
C  44.10700 35.23900 24.63900
N  41.41100 41.78500 24.57900
C  41.70200 40.79400 23.65500
C  41.48400 41.21800 22.21600
C  40.67600 42.50300 22.42500
C  40.87600 42.80700 23.93400
C  42.73800 41.48800 21.33000
C  39.14300 42.39600 22.07100
C  38.40500 41.05700 22.36100
N  40.81600 43.30300 26.80000
C  40.45700 44.30700 25.84300
C  39.91800 45.42200 26.52100
C  40.05500 45.15700 27.92300
C  40.51100 43.81100 28.00700
C  39.29400 46.72900 25.87000
C  39.85200 45.71300 29.27900
O  39.49600 46.82500 29.58200
C  40.26100 44.58000 30.27500
C  41.20800 45.20000 31.24800
O  42.40300 45.41500 30.98600
O  40.58400 45.61700 32.35900
C  41.45700 46.33400 33.25600
H  43.54200 38.39100 29.38400
H  42.62300 38.99800 23.04000
H  39.89200 44.80600 23.88000
H  42.42200 42.75900 31.41600
H  42.78700 39.84100 31.44100
H  44.54800 42.10800 30.90200
H  45.00100 40.91300 29.89500
H  44.91000 40.44900 31.62600
H  40.79800 40.37900 32.11200
H  39.99200 41.91900 31.82200
H  41.73700 42.93100 33.54900
H  41.66600 41.33500 34.20300
H  43.45700 36.34200 28.72900
H  44.69100 36.16000 27.50300
H  42.93200 35.49000 27.41200
H  43.23900 34.72600 25.05500
H  44.87500 35.34700 25.40400
H  44.56600 34.85100 23.73000
H  40.92500 40.43500 21.70400
H  41.16000 43.33600 21.91600
H  43.16300 42.49200 21.36600
H  42.46100 41.35400 20.28500
H  43.55800 40.78400 21.47300
H  39.20700 42.50200 20.98800
H  38.57900 43.25300 22.43800
H  38.07400 40.57500 21.44100
H  37.51100 41.28900 22.94000
H  39.03500 40.36100 22.91500
H  38.75500 46.42900 24.97200
H  40.05100 47.49300 25.69400
H  38.53300 47.06800 26.57300
H  39.36400 44.21100 30.77200
H  41.93400 47.16500 32.73500
H  42.27100 45.71500 33.63300
H  40.89500 46.70900 34.11100
Mg 16.86600 52.69500 26.51800
C  18.83900 51.33700 29.04300
C  14.57400 53.65400 28.93900
C  14.82600 53.76800 24.06000
C  18.92100 51.28200 24.09900
N  16.79500 52.59000 28.72500
C  17.71900 52.05700 29.53900
C  17.37400 52.25500 30.98800
C  15.81300 52.48400 30.88800
C  15.73100 52.99900 29.41800
C  14.91600 51.22700 31.13100
C  18.20800 53.44300 31.54500
C  18.75800 53.31400 32.92100
H  17.81700 52.55700 33.86300
N  14.95100 53.56300 26.48500
C  14.28100 54.00400 27.59800
C  13.20600 54.92900 27.22400
C  13.26600 54.92800 25.80500
C  14.36000 54.05600 25.37100
C  12.35300 55.68600 28.20900
C  12.31700 55.67900 24.89700
O  12.43600 55.68500 23.69900
C  11.07000 56.38000 25.31900
N  16.77600 52.44800 24.29300
C  15.86200 53.03500 23.52000
C  16.15100 52.92300 22.05900
C  17.45900 52.10000 22.02100
C  17.76800 51.93900 23.53800
C  14.98300 52.37100 21.12000
C  18.50800 52.85700 21.20000
C  19.41600 53.99900 21.79600
N  18.52700 51.59600 26.48000
C  19.26600 51.09700 25.41800
C  20.46600 50.39600 25.92200
C  20.25700 50.43600 27.33500
C  19.13700 51.18100 27.61900
C  21.61300 49.76800 25.19000
C  20.84900 50.02100 28.55300
O  21.90600 49.43600 28.76400
C  19.92900 50.64600 29.74000
C  19.48000 49.64000 30.64600
O  18.51500 48.94100 30.38400
O  20.18700 49.65200 31.84200
C  19.66600 48.64400 32.81800
H  13.89600 53.90500 29.75700
H  14.25300 54.23700 23.25800
H  19.59700 50.87000 23.34600
H  17.55100 51.33900 31.55200
H  15.56300 53.25300 31.61900
H  14.21300 51.55800 31.89500
H  15.41000 50.33100 31.50700
H  14.43500 50.82300 30.24000
H  17.72000 54.40500 31.39000
H  19.13300 53.44600 30.96900
H  18.90800 54.30100 33.36000
H  19.70700 52.78600 33.01300
H  12.79800 55.69700 29.20400
H  11.31600 55.35300 28.24500
H  12.35000 56.73500 27.91400
H  11.41500 57.16600 25.99100
H  10.41400 55.69900 25.86000
H  10.42200 56.76600 24.53200
H  16.48900 53.90700 21.73400
H  17.21400 51.13200 21.58500
H  15.29600 51.55800 20.46500
H  14.58100 53.17400 20.50300
H  14.22100 51.98800 21.79900
H  17.96500 53.30100 20.36500
H  19.25400 52.19400 20.76400
H  19.07200 54.12400 22.82300
H  19.13100 54.94200 21.32900
H  20.49200 53.87500 21.67500
H  21.32300 49.66300 24.14400
H  21.81900 48.78600 25.61700
H  22.49200 50.37900 25.39300
H  20.49500 51.38700 30.30500
H  18.60300 48.44600 32.68200
H  19.74700 49.03800 33.83100
H  20.28900 47.74900 32.84600

