158

Mg 6.78800 53.26900 40.76300
C  6.25400 49.75200 40.39800
C  10.08500 52.70800 40.11400
C  7.17900 56.54400 40.61800
C  3.35400 53.61600 41.65300
N  7.94700 51.46500 40.08400
C  7.59600 50.11900 40.19700
C  8.78500 49.22400 39.98900
C  10.01800 50.12200 40.34200
C  9.31400 51.51200 40.19200
C  10.71900 50.00500 41.69400
C  8.94700 48.55000 38.59800
C  8.69000 49.33500 37.27200
H  7.98200 48.49700 36.16300
N  8.40400 54.43700 40.33500
C  9.72100 54.05100 40.16100
C  10.52500 55.27100 40.05400
C  9.61500 56.37100 40.02500
C  8.31500 55.80200 40.31500
C  12.01400 55.18900 39.80700
C  10.03400 57.79400 39.80900
O  11.21000 58.10400 39.70800
C  9.12100 58.91700 39.47800
N  5.40600 54.82400 41.13300
C  5.86500 56.10500 40.96400
C  4.69800 57.13100 41.18000
C  3.44600 56.20700 41.44300
C  4.14600 54.77100 41.43500
C  5.04900 58.21300 42.27400
C  2.31300 56.35300 40.34500
C  0.89300 56.41200 40.79300
N  5.06800 52.03500 40.82300
C  3.76300 52.29100 41.27900
C  2.99500 51.06300 41.24400
C  3.96600 50.07500 40.90200
C  5.21400 50.70400 40.69100
C  1.53400 50.88900 41.70700
C  4.09800 48.64700 40.63000
O  3.15400 47.80500 40.59700
C  5.56800 48.37500 40.34500
C  5.61500 47.50800 39.14800
O  5.41000 47.86000 37.96900
O  6.05700 46.19400 39.46600
C  6.00800 45.30500 38.40500
H  11.14200 52.43500 40.12100
H  7.34000 57.61900 40.50900
H  2.30600 53.80400 41.89600
H  8.81700 48.47600 40.78200
H  10.77000 50.04900 39.55700
H  10.43900 49.01500 42.05500
H  10.52400 50.77300 42.44300
H  11.79000 49.98600 41.49300
H  8.23400 47.72800 38.63800
H  9.83500 47.92500 38.49900
H  9.69800 49.38700 36.86000
H  8.26800 50.34000 37.23900
H  12.41400 55.44900 38.82700
H  12.31300 54.20100 40.15700
H  12.33200 55.85300 40.61100
H  8.68500 59.14200 40.45100
H  8.28500 58.58100 38.86500
H  9.55600 59.77100 38.95900
H  4.73800 57.84000 40.35400
H  3.00300 56.31500 42.43300
H  4.96900 59.20800 41.83700
H  5.94100 58.12000 42.89400
H  4.26600 58.22200 43.03300
H  2.32100 55.56900 39.58800
H  2.41700 57.33700 39.88700
H  0.37300 57.26700 40.36200
H  0.87200 56.50600 41.87800
H  0.59800 55.39600 40.53100
H  0.89800 50.42200 40.95500
H  1.08300 51.87700 41.62000
H  1.28200 50.41500 42.65500
H  5.85100 47.71100 41.16200
H  5.91300 44.32900 38.88000
H  6.91900 45.29200 37.80600
H  5.13800 45.34800 37.75100
Mg 10.98600 46.98100 25.86900
C  8.78800 47.20100 28.67700
C  13.40200 48.14600 27.91400
C  13.00800 46.80900 23.26800
C  8.21100 46.06100 23.97500
N  11.02400 47.70800 27.97200
C  10.08200 47.62900 28.96300
C  10.59500 47.99700 30.38500
C  11.90600 48.74400 29.99100
C  12.17700 48.20500 28.52700
C  11.77800 50.28100 30.05000
C  10.69700 46.78300 31.33000
C  10.49800 46.89300 32.83100
H  10.56400 45.60600 33.67500
N  12.86200 47.44800 25.56600
C  13.78500 47.80000 26.59500
C  15.11700 47.88600 26.07000
C  15.02500 47.58500 24.70500
C  13.57400 47.27900 24.42900
C  16.33200 48.28000 26.87500
C  16.11600 47.28400 23.68300
O  15.90900 46.83200 22.52600
C  17.51400 47.41600 24.11200
N  10.58700 46.53400 23.83800
C  11.64200 46.51200 22.98900
C  11.15700 45.91100 21.65900
C  9.53800 45.77800 21.83100
C  9.42600 46.18900 23.29700
C  11.56300 46.79000 20.41600
C  8.99100 44.32400 21.51100
C  8.98900 43.29400 22.60600
N  8.87600 46.56000 26.18400
C  7.86400 46.23900 25.29200
C  6.62800 46.18300 25.94700
C  6.87800 46.51700 27.26100
C  8.30100 46.77100 27.38500
C  5.31600 45.78400 25.20300
C  6.32900 46.65000 28.58400
O  5.25500 46.32800 29.02800
C  7.47100 46.96800 29.52800
C  7.62200 45.73700 30.38600
O  8.17100 44.71600 30.01000
O  6.93600 45.99300 31.53100
C  7.01100 44.79500 32.42600
H  14.22800 48.44700 28.56100
H  13.77600 46.80200 22.49200
H  7.40700 45.97500 23.24100
H  9.99300 48.79200 30.82500
H  12.74100 48.48000 30.64100
H  10.84900 50.66700 30.47000
H  11.69100 50.77800 29.08300
H  12.57500 50.71400 30.65300
H  11.65500 46.28900 31.17100
H  10.02500 45.97900 31.03100
H  9.52000 47.35100 32.97700
H  11.16900 47.64000 33.25400
H  17.07700 47.48600 26.92800
H  16.11000 48.27900 27.94200
H  16.76400 49.25200 26.63500
H  18.26300 47.27400 23.33300
H  17.63400 46.60200 24.82700
H  17.68500 48.41500 24.51300
H  11.60900 44.91900 21.65500
H  9.00200 46.45200 21.16200
H  10.77000 46.80400 19.66800
H  12.51800 46.41300 20.05000
H  11.70600 47.76900 20.87400
H  9.62800 44.00000 20.68800
H  7.95500 44.30500 21.16900
H  8.09100 43.20300 23.21900
H  9.70000 43.62900 23.36100
H  9.33600 42.33800 22.21500
H  4.80900 46.72200 24.97600
H  4.67800 45.15300 25.82300
H  5.68500 45.34200 24.27800
H  7.16800 47.80300 30.16000
H  6.08000 44.24900 32.27400
H  7.03300 45.03100 33.49000
H  7.88300 44.14700 32.34400

