158

Mg 40.11400 9.50700 29.07200
C  42.44500 10.85200 31.62700
C  37.97400 8.72300 31.53000
C  38.15900 8.11900 26.74300
C  42.53200 10.10400 26.80700
N  40.34300 9.60000 31.31000
C  41.19900 10.30800 32.13700
C  40.62200 10.38700 33.52400
C  39.28200 9.43800 33.53600
C  39.13700 9.23100 32.03800
C  39.35600 8.22200 34.42200
C  40.24700 11.76700 34.05100
C  39.90500 11.87800 35.56600
H  40.86000 12.44300 36.56400
N  38.27500 8.59300 29.06400
C  37.63400 8.34900 30.23000
C  36.43700 7.55700 29.86000
C  36.37400 7.49300 28.46500
C  37.64100 8.09700 28.03000
C  35.57500 6.91000 30.93200
C  35.32700 6.87100 27.52900
O  35.58500 6.88800 26.32600
C  34.01800 6.30100 27.98100
N  40.30300 9.19300 27.12700
C  39.38600 8.61500 26.29300
C  39.80900 8.54800 24.74800
C  41.21100 9.22900 24.79400
C  41.36100 9.56800 26.34500
C  39.84000 7.10800 24.17800
C  41.49800 10.31200 23.81400
C  41.06300 11.76800 24.10300
N  42.04100 10.41500 29.13500
C  42.91300 10.60000 28.07900
C  44.09800 11.23700 28.52700
C  43.97500 11.35200 29.92000
C  42.74400 10.83500 30.25800
C  45.24400 11.58400 27.66900
C  44.58800 11.85300 31.11400
O  45.58200 12.49400 31.28000
C  43.48900 11.59800 32.33300
C  44.00900 10.79700 33.50500
O  44.27400 9.63400 33.65600
O  44.09700 11.70700 34.51600
C  44.26700 11.07600 35.85600
H  37.19000 8.72700 32.29000
H  37.67000 7.57300 25.93300
H  43.31600 10.28800 26.06900
H  41.39700 9.95900 34.16100
H  38.47700 10.07100 33.90900
H  40.16400 8.27000 35.15200
H  39.51100 7.42200 33.69900
H  38.45500 8.30300 35.03100
H  39.30100 12.03400 33.58000
H  41.09900 12.41600 33.85100
H  39.73700 10.84100 35.85800
H  38.98600 12.43900 35.73300
H  36.18300 6.21200 31.50800
H  34.71200 6.33300 30.60000
H  35.13500 7.65100 31.59900
H  33.76800 7.01200 28.76900
H  34.19700 5.26100 28.25500
H  33.23000 6.49500 27.25400
H  39.21800 9.15100 24.05800
H  42.03500 8.55600 24.55900
H  40.68000 6.83900 23.53700
H  38.85700 7.02300 23.71500
H  39.86800 6.42900 25.03100
H  41.14700 9.97900 22.83700
H  42.57100 10.34000 23.62500
H  40.74900 12.19200 23.14900
H  41.85700 12.41700 24.47400
H  40.22300 11.74900 24.79700
H  45.55300 12.59800 27.92200
H  44.88900 11.47900 26.64400
H  46.10300 10.99200 27.98600
H  43.26000 12.60500 32.68200
H  45.22500 10.56600 35.95700
H  43.46600 10.35900 36.03900
H  44.21400 11.86900 36.60200
Mg 48.47600 34.95200 27.22800
C  46.78500 33.47400 29.91500
C  49.36700 37.61100 29.24100
C  49.72900 36.46400 24.46700
C  47.34200 32.28700 25.20500
N  48.11800 35.44300 29.33800
C  47.60600 34.57300 30.28300
C  47.79800 35.13200 31.67900
C  48.19800 36.60600 31.37700
C  48.63900 36.56700 29.90100
C  47.18300 37.71600 31.67800
C  48.95800 34.37500 32.44600
C  48.85000 34.25400 33.93600
H  47.90800 35.16000 34.78400
N  49.53300 36.76400 26.93800
C  49.79900 37.69900 27.88400
C  50.54900 38.68700 27.28400
C  50.81800 38.33100 25.98700
C  49.92900 37.23900 25.70700
C  51.12900 39.76200 28.06200
C  51.77700 38.96600 24.90100
O  51.93800 38.45100 23.81000
C  52.55100 40.15900 25.37400
N  48.34600 34.52300 25.06300
C  48.95000 35.32600 24.17500
C  48.89600 34.74200 22.74600
C  48.30100 33.32700 22.94000
C  48.03200 33.34200 24.55200
C  48.24000 35.66900 21.70200
C  49.10100 32.10300 22.42300
C  50.01300 31.43100 23.41100
N  47.14000 33.29100 27.47500
C  46.91100 32.23900 26.57600
C  46.08900 31.29000 27.25800
C  45.95300 31.77600 28.53400
C  46.64700 32.97600 28.61200
C  45.62600 29.97900 26.62000
C  45.34900 31.52100 29.75900
O  44.68200 30.54800 30.13600
C  45.80300 32.61900 30.72200
C  46.40000 31.90000 31.94600
O  47.46800 31.37200 32.02200
O  45.45300 31.81300 32.93200
C  45.87100 30.97600 34.18100
H  49.62800 38.42600 29.91900
H  50.03600 36.96000 23.54300
H  47.04400 31.40200 24.63800
H  46.87300 35.02400 32.24600
H  49.18700 36.79700 31.79300
H  46.42200 37.38300 32.38500
H  46.61500 37.90500 30.76700
H  47.71200 38.52200 32.18800
H  49.90500 34.78900 32.09900
H  48.94000 33.33100 32.13200
H  49.80300 34.19100 34.46300
H  48.41600 33.26000 34.03600
H  50.65800 40.67600 27.70300
H  52.21000 39.83200 27.94100
H  50.99400 39.78600 29.14400
H  53.18600 40.51300 24.56300
H  53.22500 40.05500 26.22500
H  51.77500 40.89800 25.57400
H  49.95400 34.59100 22.53100
H  47.29100 33.36100 22.53000
H  47.41300 35.17400 21.19200
H  49.00000 36.09600 21.04700
H  47.65600 36.49100 22.11600
H  49.68400 32.57500 21.63200
H  48.34700 31.37200 22.13100
H  50.99000 31.48000 22.93000
H  49.63200 30.42800 23.59900
H  50.12900 32.05700 24.29600
H  46.14800 29.08500 26.95900
H  45.83800 29.92100 25.55200
H  44.55500 29.81200 26.73900
H  44.95200 33.19200 31.09000
H  46.85200 31.27000 34.55400
H  45.88500 29.93300 33.86400
H  45.21700 30.85600 35.04400

