158

Mg 48.02800 35.09900 27.83900
C  46.30400 33.42700 30.33200
C  48.60500 37.54800 30.08200
C  49.27000 37.01200 25.22200
C  47.59900 32.44700 25.67900
N  47.45400 35.47600 29.90500
C  46.96000 34.55800 30.85200
C  47.11000 35.05000 32.23600
C  47.36200 36.54100 32.03500
C  47.87300 36.54000 30.59200
C  46.09800 37.41100 32.22300
C  48.41200 34.25100 32.78200
C  48.74500 34.44800 34.27600
H  47.67500 35.07900 35.22100
N  48.91100 36.99500 27.67900
C  49.10100 37.82000 28.70900
C  49.75600 39.02200 28.21500
C  49.77000 39.04900 26.79700
C  49.24300 37.64600 26.52000
C  50.37000 40.06500 29.16000
C  50.44400 40.07200 25.81600
O  50.38600 39.93300 24.60800
C  51.18300 41.31100 26.35500
N  48.49100 34.72800 25.77200
C  48.91500 35.65700 24.87400
C  48.97200 35.08400 23.36600
C  48.75800 33.51900 23.64100
C  48.31000 33.53600 25.13300
C  47.97400 35.86100 22.52700
C  49.99300 32.63000 23.41700
C  49.77100 31.18400 23.21100
N  47.16200 33.21300 27.95300
C  46.98500 32.30000 26.99700
C  46.32300 31.20400 27.54300
C  45.84000 31.69800 28.84100
C  46.42300 32.88400 29.02600
C  45.96200 29.92700 26.76600
C  45.11500 31.35500 30.07200
O  44.46000 30.38600 30.38600
C  45.28200 32.50700 31.06400
C  45.61500 31.95700 32.32700
O  46.57500 31.19300 32.55000
O  44.64000 32.29300 33.28200
C  44.93100 31.80700 34.63400
H  48.64400 38.35300 30.81900
H  49.55500 37.57100 24.32800
H  47.27300 31.70900 24.94200
H  46.20600 34.81700 32.80000
H  48.14600 36.84000 32.73000
H  46.28500 37.98000 33.13300
H  45.31300 36.72200 32.53400
H  45.77400 38.09000 31.43400
H  49.29100 34.68100 32.30200
H  48.34400 33.18000 32.58700
H  49.69600 34.97600 34.34100
H  48.90000 33.44400 34.67100
H  50.54900 39.60400 30.13200
H  49.72000 40.92300 29.33100
H  51.39100 40.32200 28.87600
H  50.43500 41.88400 26.90300
H  51.56100 42.04400 25.64300
H  52.04300 40.94700 26.91700
H  49.96300 35.22200 22.93400
H  48.00700 33.03900 23.01300
H  47.30600 35.15000 22.04200
H  48.39000 36.49000 21.74000
H  47.47700 36.44000 23.30600
H  50.64400 32.69600 24.29000
H  50.65100 32.95300 22.61100
H  50.01400 31.16200 22.14800
H  48.77000 30.77900 23.35400
H  50.39900 30.53800 23.82500
H  45.66200 30.27200 25.77600
H  45.19500 29.37500 27.30800
H  46.69000 29.13000 26.61200
H  44.32900 33.03000 31.14900
H  45.98600 31.62800 34.84300
H  44.37100 30.89500 34.84100
H  44.49800 32.52400 35.33100
Mg -12.63600 37.75400 41.86200
C  -10.16100 35.47400 40.85700
C  -10.56600 40.24600 40.71100
C  -15.26200 40.04200 42.22800
C  -14.61300 35.21700 42.90700
N  -10.66700 37.79100 40.62800
C  -9.77500 36.75300 40.50100
C  -8.55800 37.28300 39.72500
C  -8.54300 38.77100 40.12600
C  -9.99300 38.97000 40.53300
C  -7.52100 39.17000 41.31500
C  -8.70100 36.79500 38.21800
C  -7.54400 36.00700 37.74300
H  -6.58300 36.68200 36.70700
N  -12.90200 39.90200 41.46400
C  -11.89600 40.68700 41.01700
C  -12.35500 42.03600 40.94400
C  -13.71600 42.04200 41.39300
C  -14.07000 40.63800 41.70000
C  -11.51600 43.18200 40.57900
C  -14.63100 43.32600 41.52000
O  -14.21500 44.43600 41.27500
C  -16.02100 43.13500 41.93300
N  -14.76300 37.56100 42.37000
C  -15.56200 38.65400 42.63700
C  -16.83500 38.23900 43.31100
C  -16.66900 36.62700 43.47300
C  -15.28000 36.41400 42.87900
C  -17.20600 38.84100 44.68300
C  -17.89300 35.84600 42.96100
C  -17.91500 35.79200 41.37100
N  -12.54000 35.73200 41.82700
C  -13.40200 34.81200 42.33000
C  -12.77200 33.50000 42.20700
C  -11.55100 33.65100 41.59600
C  -11.44800 35.05000 41.39600
C  -13.35900 32.33600 42.87700
C  -10.30700 33.01900 40.96800
O  -9.99600 31.83300 40.78500
C  -9.36200 34.22800 40.55800
C  -8.16500 34.16500 41.41700
O  -8.12000 34.67900 42.53100
O  -7.14600 33.43100 40.79700
C  -5.86700 33.41900 41.47300
H  -9.79300 41.00300 40.56000
H  -16.11100 40.70200 42.42200
H  -15.16800 34.40900 43.38900
H  -7.62900 36.90300 40.14900
H  -8.26500 39.41900 39.29500
H  -6.71400 38.44600 41.42700
H  -8.00900 39.40300 42.26100
H  -6.94100 40.05400 41.05000
H  -8.81700 37.67600 37.58800
H  -9.54000 36.11400 38.07500
H  -7.85700 35.10500 37.21700
H  -7.00100 35.64900 38.61700
H  -12.04100 43.93600 39.99300
H  -10.58800 42.87800 40.09300
H  -11.17800 43.63800 41.50900
H  -16.52300 42.41300 41.28800
H  -16.54500 44.08900 41.87100
H  -15.87200 42.77200 42.95000
H  -17.71000 38.50900 42.71900
H  -16.48100 36.30200 44.49700
H  -17.54300 38.06900 45.37500
H  -17.99600 39.56800 44.49400
H  -16.35300 39.25900 45.21800
H  -18.76000 36.37500 43.35600
H  -17.98100 34.83800 43.36700
H  -18.84900 35.94900 40.83100
H  -17.42600 34.88500 41.01600
H  -17.21700 36.52700 40.97000
H  -12.88300 32.08200 43.82400
H  -13.43000 31.48500 42.20000
H  -14.38700 32.47800 43.21000
H  -9.06500 34.00900 39.53200
H  -5.72200 32.42600 41.89800
H  -5.78400 34.04700 42.36000
H  -5.09300 33.48400 40.70900

