158

Mg 26.94200 52.10200 25.86400
C  25.21400 53.28200 28.60500
C  29.38000 50.81900 27.67900
C  28.54100 51.08900 22.96600
C  24.51600 53.83300 23.87600
N  27.16800 52.02300 27.90300
C  26.39500 52.54000 28.91100
C  27.13000 52.39600 30.25100
C  28.51100 51.82500 29.96600
C  28.36300 51.47900 28.43600
C  29.82300 52.63600 30.42800
C  26.28300 51.60500 31.31000
C  25.80800 52.43700 32.53600
H  26.64300 52.44200 33.81300
N  28.79500 51.10700 25.37400
C  29.61800 50.64000 26.33800
C  30.72600 49.90800 25.70300
C  30.52800 50.00800 24.32300
C  29.29000 50.74000 24.16700
C  31.85700 49.32800 26.56100
C  31.37700 49.44300 23.18300
O  31.16800 49.62600 21.99300
C  32.54100 48.59000 23.49100
N  26.70100 52.62700 23.79200
C  27.41300 51.91900 22.81000
C  26.99500 52.32800 21.39200
C  25.63300 52.99400 21.66600
C  25.61800 53.21900 23.19400
C  28.07400 53.28900 20.92900
C  24.51100 52.11100 21.10900
C  23.72600 51.12100 22.03900
N  25.22800 53.26800 26.10600
C  24.32000 53.88400 25.22800
C  23.15800 54.34800 25.86500
C  23.48300 54.14800 27.21800
C  24.74200 53.48000 27.33400
C  21.96500 55.03100 25.25800
C  23.01600 54.38500 28.53700
O  21.91800 54.81000 28.87900
C  24.10700 53.93700 29.48200
C  24.49700 54.99500 30.43000
O  25.33300 55.80900 30.21400
O  23.67200 54.99000 31.50300
C  23.90100 55.95500 32.57100
H  30.16200 50.47800 28.36000
H  28.92500 50.69300 22.02300
H  23.71200 54.26100 23.27300
H  27.30300 53.42600 30.56200
H  28.51800 50.83900 30.42900
H  29.57600 53.57200 30.93100
H  30.51700 52.74800 29.59500
H  30.32900 52.05200 31.19700
H  26.72400 50.67600 31.67100
H  25.29900 51.48100 30.85700
H  24.80100 52.11200 32.79800
H  25.69100 53.46200 32.18500
H  31.56900 48.35900 26.96700
H  31.99700 49.93800 27.45400
H  32.83000 49.27800 26.07300
H  33.23800 49.19800 24.06700
H  32.97900 48.19600 22.57400
H  32.20300 47.81900 24.18400
H  27.04600 51.50600 20.67800
H  25.54000 53.95300 21.15600
H  28.59100 53.74700 21.77300
H  27.67000 54.15300 20.40100
H  28.77700 52.73500 20.30800
H  24.89200 51.47500 20.31000
H  23.77000 52.76300 20.64700
H  24.21900 51.12700 23.01200
H  23.76900 50.15200 21.54300
H  22.71300 51.49900 22.17800
H  21.19600 54.33000 24.93300
H  22.32700 55.64600 24.43400
H  21.57300 55.71400 26.01100
H  23.78000 53.09500 30.09300
H  23.46800 56.93500 32.37400
H  24.96000 56.09700 32.78800
H  23.35100 55.47700 33.38200
Mg 9.82200 48.87300 25.65000
C  7.90200 49.29600 28.64500
C  12.44800 50.22400 27.45400
C  11.65200 48.53500 23.00600
C  6.91300 47.85000 24.10100
N  10.05600 49.69300 27.75300
C  9.17600 49.73100 28.80000
C  9.81000 50.21100 30.09900
C  11.15600 50.77800 29.60800
C  11.25100 50.18900 28.15100
C  11.27100 52.31300 29.50000
C  10.07100 49.05100 31.14500
C  9.47600 49.21200 32.48300
H  10.42200 49.88000 33.46800
N  11.81100 49.32700 25.26900
C  12.77700 49.76200 26.11300
C  14.07900 49.76900 25.48600
C  13.81600 49.36600 24.12600
C  12.34900 49.06400 24.11600
C  15.32300 50.31000 26.14200
C  14.82800 49.25900 22.97900
O  14.56800 48.94100 21.85800
C  16.25200 49.39300 23.34600
N  9.31100 48.51600 23.76000
C  10.26300 48.38600 22.80900
C  9.71200 47.81000 21.51300
C  8.24500 47.59100 21.91700
C  8.14400 47.96400 23.37000
C  9.86300 48.85800 20.38000
C  7.77000 46.13600 21.72500
C  8.41500 45.13600 22.65700
N  7.76800 48.68800 26.16800
C  6.71100 48.32900 25.42700
C  5.45400 48.45200 26.19800
C  5.93100 48.75300 27.45700
C  7.32100 48.91500 27.41800
C  4.02100 48.22400 25.78600
C  5.50000 49.01100 28.79500
O  4.37000 49.12500 29.21300
C  6.76800 49.22000 29.68500
C  6.93500 48.07300 30.55900
O  7.34600 47.00500 30.19100
O  6.41000 48.41700 31.77600
C  6.28600 47.32400 32.69300
H  13.25700 50.58400 28.09400
H  12.35700 48.23000 22.22900
H  6.01000 47.38000 23.70600
H  9.08500 50.93000 30.48000
H  11.90500 50.37200 30.28700
H  12.16800 52.50100 28.91000
H  11.44700 52.67200 30.51400
H  10.39800 52.75800 29.02300
H  11.13800 48.84800 31.23100
H  9.79800 48.12600 30.63700
H  9.05600 48.23500 32.71800
H  8.58300 49.83700 32.49500
H  15.15500 50.59400 27.18100
H  15.73400 51.12400 25.54400
H  16.02900 49.48300 26.22900
H  16.44500 50.43400 23.60800
H  16.90900 49.34200 22.47800
H  16.57600 48.62800 24.05200
H  10.24000 46.91300 21.18800
H  7.56300 48.29400 21.43900
H  10.16800 49.82200 20.78800
H  8.95100 49.06000 19.81900
H  10.53100 48.39300 19.65600
H  7.99300 45.81600 20.70700
H  6.69500 46.05100 21.88000
H  9.21300 45.64300 23.20000
H  8.83500 44.34700 22.03300
H  7.72500 44.81200 23.43700
H  3.70200 48.91400 25.00500
H  3.55000 48.60100 26.69400
H  3.88500 47.16400 25.57200
H  6.63500 50.16300 30.21600
H  5.92100 47.78900 33.60900
H  7.22800 46.83200 32.93400
H  5.52900 46.69700 32.22100

