158

Mg 16.07500 52.11300 25.17700
C  17.80600 50.97900 28.00300
C  13.33700 52.84000 27.18700
C  14.08100 52.42000 22.46100
C  18.69600 50.82100 23.20900
N  15.57500 51.76700 27.37800
C  16.57300 51.51000 28.37700
C  16.03700 51.82000 29.79000
C  14.53200 52.12700 29.45900
C  14.42700 52.28600 27.93000
C  13.57200 51.19700 30.28000
C  16.81000 52.83200 30.65500
C  17.08900 52.51800 32.06200
H  15.97500 51.84100 32.92300
N  14.03800 52.72900 24.85900
C  13.16100 53.05500 25.78300
C  11.98600 53.58700 25.21700
C  12.12400 53.53000 23.77000
C  13.49300 52.93900 23.61600
C  10.71100 54.07800 25.93800
C  11.26300 54.02000 22.66100
O  11.63100 54.00200 21.49000
C  9.95700 54.65900 22.99800
N  16.37300 51.63900 23.18200
C  15.36200 51.88200 22.27700
C  15.77700 51.29300 21.01300
C  17.33300 51.12900 21.11700
C  17.50800 51.25000 22.61800
C  15.10500 49.90000 20.70000
C  18.14800 52.18600 20.24600
C  19.39600 51.82300 19.33000
N  17.94900 51.26000 25.50900
C  18.90500 50.82900 24.61600
C  19.99900 50.31600 25.34700
C  19.58800 50.31200 26.68500
C  18.35300 50.89500 26.75100
C  21.28800 49.89400 24.71900
C  19.99600 49.93900 28.01100
O  21.06300 49.47300 28.50300
C  18.89900 50.45400 28.89300
C  18.52100 49.43000 29.89500
O  17.79400 48.46300 29.74500
O  19.19600 49.68400 31.11200
C  18.67000 48.97100 32.22400
H  12.57100 53.23400 27.85800
H  13.54700 52.45500 21.50900
H  19.46000 50.29200 22.63600
H  16.10100 50.90600 30.38200
H  14.29300 53.12500 29.82600
H  12.86500 50.84600 29.52700
H  13.07600 51.90200 30.94700
H  13.90400 50.33300 30.85600
H  16.16900 53.71300 30.63800
H  17.76900 53.07600 30.19700
H  17.41300 53.43300 32.55800
H  17.94100 51.84900 31.94100
H  10.75000 55.16700 25.92400
H  10.74800 53.80400 26.99200
H  9.86000 53.64300 25.41500
H  9.22100 53.97700 23.42300
H  9.54200 55.23000 22.16700
H  10.26200 55.36600 23.76900
H  15.51100 51.97600 20.20700
H  17.65100 50.20700 20.63000
H  14.43400 50.04400 19.85300
H  14.39300 49.68100 21.49600
H  15.79900 49.06000 20.66900
H  18.45100 52.99900 20.90400
H  17.36900 52.53500 19.56900
H  19.57500 50.74800 19.30200
H  20.28200 52.36600 19.65700
H  19.16800 52.13600 18.31100
H  21.16800 48.83800 24.48000
H  22.13900 50.00900 25.39100
H  21.51400 50.52000 23.85600
H  19.31100 51.30200 29.44000
H  19.33000 48.11200 32.34600
H  17.59700 48.77600 32.23000
H  18.82300 49.62100 33.08500
Mg -9.84500 18.07300 42.75500
C  -6.40800 17.60600 42.81800
C  -9.25800 21.36300 42.18500
C  -13.09900 18.35300 41.94900
C  -10.12100 14.50000 42.59500
N  -8.02200 19.28900 42.54700
C  -6.69600 18.89900 42.60800
C  -5.71600 20.11100 42.61800
C  -6.76700 21.31100 42.83400
C  -8.09300 20.63700 42.51400
C  -6.73200 21.90500 44.29400
C  -4.98700 20.21000 41.23000
C  -5.77500 20.30400 39.95600
H  -5.68200 19.11800 39.00500
N  -11.02700 19.65600 42.06100
C  -10.58600 20.89600 41.83500
C  -11.64300 21.75300 41.38600
C  -12.84600 20.99300 41.56200
C  -12.44100 19.60200 41.87200
C  -11.45300 23.32200 40.94800
C  -14.23100 21.58200 41.28300
O  -14.45900 22.75500 41.04400
C  -15.40000 20.69800 41.52300
N  -11.38100 16.64700 42.17500
C  -12.65600 17.02900 42.08900
C  -13.71000 15.81200 42.20400
C  -12.68900 14.61300 42.33500
C  -11.29700 15.26400 42.32500
C  -14.75500 16.00100 43.32000
C  -12.75200 13.47400 41.18200
C  -13.22200 12.09100 41.58800
N  -8.56900 16.38000 42.80500
C  -8.83500 14.99000 42.78800
C  -7.58500 14.26600 42.99100
C  -6.58700 15.28500 43.03400
C  -7.23800 16.52100 42.87100
C  -7.35600 12.76000 43.00400
C  -5.19500 15.43900 43.22300
O  -4.33200 14.60200 43.43900
C  -5.01900 17.01000 43.11800
C  -4.43100 17.42600 44.36700
O  -3.34100 18.01900 44.54500
O  -5.38600 17.30000 45.43100
C  -5.08600 17.76000 46.79000
H  -9.08800 22.43200 42.33000
H  -14.18900 18.28800 41.91200
H  -10.23400 13.41300 42.59400
H  -5.04500 19.86200 43.44100
H  -6.40100 22.09200 42.16800
H  -7.73600 21.68000 44.65400
H  -6.70300 22.99200 44.37300
H  -5.92200 21.52700 44.91800
H  -4.25100 19.41000 41.15900
H  -4.28900 21.03500 41.37500
H  -5.42200 21.16700 39.39100
H  -6.82600 20.55600 40.09500
H  -11.89000 23.45400 39.95900
H  -10.38400 23.52700 40.88600
H  -11.84100 24.00400 41.70500
H  -15.32900 19.78500 40.93000
H  -16.34300 21.22300 41.36800
H  -15.56200 20.33700 42.53800
H  -14.20900 15.70000 41.24200
H  -12.80600 14.18300 43.33000
H  -14.53400 16.79900 44.02900
H  -14.79900 15.04200 43.83700
H  -15.75700 16.20800 42.94500
H  -11.83700 13.41900 40.59200
H  -13.49300 13.92200 40.52000
H  -12.85100 11.82300 42.57700
H  -12.80100 11.33600 40.92400
H  -14.30300 11.94800 41.60900
H  -7.56700 12.45700 44.02900
H  -6.35500 12.42900 42.72500
H  -8.15300 12.35700 42.37900
H  -4.40000 17.19300 42.23900
H  -4.07900 18.17500 46.84500
H  -4.97500 16.92800 47.48500
H  -5.80100 18.52600 47.08900

