158

Mg -1.64200 17.20100 26.55500
C  -2.29300 15.15200 29.37700
C  -2.18000 19.95000 28.47400
C  -1.64500 19.18900 23.76200
C  -1.61800 14.34600 24.54800
N  -2.33900 17.53500 28.68800
C  -2.31900 16.55400 29.69000
C  -2.45000 17.20500 31.06400
C  -2.63900 18.74800 30.65500
C  -2.35900 18.71800 29.19700
C  -3.97500 19.42100 31.00700
C  -1.23000 16.78100 31.92100
C  -0.82600 17.73800 33.09000
H  -0.35100 17.09100 34.40900
N  -1.81400 19.30700 26.18600
C  -1.97600 20.33000 27.14700
C  -1.83000 21.64500 26.52200
C  -1.69500 21.39400 25.09600
C  -1.71700 19.93200 24.93700
C  -1.99600 22.97300 27.19100
C  -1.55600 22.41800 24.03700
O  -1.36000 22.00500 22.84400
C  -1.53700 23.96000 24.26200
N  -1.75800 16.84300 24.52100
C  -1.69800 17.76300 23.53600
C  -1.71100 17.14900 22.14100
C  -1.34100 15.67000 22.39600
C  -1.53600 15.58800 23.94200
C  -3.06200 17.25500 21.40700
C  0.11800 15.37800 21.85600
C  1.31000 15.77700 22.69100
N  -1.77900 15.23200 26.88600
C  -1.82500 14.16300 25.94100
C  -1.93100 12.97800 26.67700
C  -2.16200 13.29100 27.97300
C  -2.07100 14.67500 28.06300
C  -2.00900 11.63300 26.07000
C  -2.45300 12.76800 29.27100
O  -2.68300 11.62800 29.68500
C  -2.41800 13.98300 30.21100
C  -1.24600 13.76200 31.14700
O  -0.08700 14.05300 30.93400
O  -1.72900 13.22100 32.32200
C  -0.74700 12.86900 33.32500
H  -2.20300 20.78800 29.17400
H  -1.59200 19.70700 22.80200
H  -1.36700 13.51100 23.89100
H  -3.30500 16.69600 31.51000
H  -1.76300 19.21300 31.10800
H  -4.51200 18.76000 31.68600
H  -4.40600 19.89200 30.12300
H  -3.54300 20.23500 31.58900
H  -0.31200 16.75000 31.33500
H  -1.48000 15.84100 32.41500
H  -1.70200 18.37900 33.18700
H  -0.01700 18.32900 32.66200
H  -1.18700 23.67600 26.99500
H  -1.96700 22.78200 28.26400
H  -3.01000 23.34700 27.04900
H  -0.73200 24.43000 24.82700
H  -2.42000 24.21200 24.84900
H  -1.73100 24.45900 23.31200
H  -0.96000 17.64500 21.52600
H  -1.97500 14.96300 21.86100
H  -3.91700 17.25400 22.08300
H  -3.20500 16.45300 20.68400
H  -3.00500 18.21400 20.89100
H  0.27200 15.83500 20.87800
H  0.44000 14.34500 21.72700
H  1.27300 16.81300 23.02500
H  2.25700 15.69900 22.15700
H  1.29100 15.22000 23.62800
H  -1.59800 11.64500 25.06100
H  -3.07000 11.40100 25.97800
H  -1.45500 10.94600 26.70800
H  -3.31200 13.99000 30.83500
H  -0.61500 13.74700 33.95700
H  0.22900 12.63000 32.90100
H  -1.07700 12.00900 33.90700
Mg 47.00200 17.52400 28.50800
C  45.33800 16.81600 31.55100
C  49.59800 18.83900 30.31600
C  48.29400 18.32500 25.64800
C  44.25800 16.06600 26.82900
N  47.37900 17.91100 30.74200
C  46.56100 17.60000 31.76400
C  47.22300 17.96600 33.05700
C  48.42700 18.86000 32.56300
C  48.44800 18.54600 31.12000
C  48.35400 20.42200 32.78100
C  47.58100 16.77900 34.01400
C  47.27600 16.85000 35.52700
H  46.96700 18.13900 36.18300
N  48.82900 18.43800 28.06300
C  49.84200 18.75700 28.92100
C  50.99600 18.95300 28.14700
C  50.58700 19.02800 26.78700
C  49.17400 18.60200 26.75500
C  52.32600 19.24300 28.77300
C  51.44000 19.37300 25.54900
O  51.02700 19.28300 24.36100
C  52.83200 19.86400 25.73100
N  46.40500 17.20600 26.48000
C  47.10800 17.69500 25.45100
C  46.44600 17.38000 24.09000
C  45.18500 16.54700 24.46600
C  45.28100 16.53700 25.98800
C  46.17200 18.47300 23.06300
C  45.16400 15.09200 23.83100
C  44.69600 14.98400 22.37200
N  45.14600 16.72200 29.01500
C  44.18200 16.02900 28.21700
C  43.12600 15.48000 29.00400
C  43.54700 15.81700 30.31100
C  44.81300 16.48600 30.27200
C  42.02800 14.58100 28.60900
C  43.25800 15.59200 31.77000
O  42.29800 14.95300 32.32300
C  44.37100 16.35400 32.57200
C  43.66900 17.45400 33.33800
O  43.68100 18.64700 33.06600
O  43.16300 16.94600 34.50000
C  42.66400 17.99600 35.45300
H  50.43300 19.25100 30.88600
H  48.76400 18.63600 24.71300
H  43.45800 15.74400 26.15900
H  46.48900 18.58900 33.56800
H  49.29800 18.42000 33.04800
H  47.92300 20.87300 31.88700
H  49.33400 20.75100 33.12700
H  47.63900 20.49900 33.60000
H  48.64500 16.58400 33.87800
H  47.01200 15.93600 33.62200
H  48.14900 16.37100 35.97000
H  46.45100 16.20200 35.82100
H  52.20700 19.11300 29.84900
H  52.58600 20.29200 28.62900
H  53.07400 18.52400 28.43900
H  52.86000 20.77500 26.32800
H  53.13800 20.28700 24.77400
H  53.57200 19.10100 25.97500
H  47.12800 16.71800 23.55900
H  44.24100 16.97000 24.12300
H  46.40100 17.95600 22.13100
H  46.74900 19.38000 23.24400
H  45.09800 18.65700 23.07500
H  44.63100 14.37500 24.45600
H  46.13400 14.64100 24.03800
H  45.45900 14.43400 21.82000
H  44.59900 15.98900 21.96200
H  43.70900 14.55700 22.19500
H  41.92300 13.82200 29.38400
H  42.32300 14.22700 27.62100
H  41.11700 15.17500 28.54100
H  44.83100 15.78700 33.38100
H  42.54200 17.48500 36.40800
H  41.80100 18.58900 35.15200
H  43.45100 18.73200 35.61900

