158

Mg 50.68200 47.28400 43.70300
C  47.46900 47.57400 42.19100
C  50.90100 44.10400 42.25100
C  53.79100 47.22900 44.51800
C  50.67500 50.80700 44.10600
N  49.42000 46.09900 42.18300
C  48.06000 46.32200 41.97500
C  47.25300 45.17100 41.28100
C  48.41600 44.11200 41.38700
C  49.64100 44.78200 42.02600
C  47.94700 42.75100 42.04100
C  46.81700 45.61900 39.83700
C  45.38200 45.25500 39.42000
H  45.25200 44.13400 38.34400
N  52.23000 45.89200 43.40000
C  52.09400 44.60500 42.90800
C  53.42100 43.89400 43.05400
C  54.27800 44.86500 43.70600
C  53.48300 46.07300 43.88900
C  53.71700 42.53100 42.49700
C  55.81100 44.65700 44.00500
O  56.35900 43.61100 43.68700
C  56.65700 45.80100 44.46900
N  51.97700 48.86600 44.13100
C  53.16000 48.45800 44.66500
C  53.88700 49.62000 45.47900
C  53.01600 50.85800 45.12300
C  51.82300 50.14500 44.39700
C  53.95000 49.39100 47.01800
C  53.61000 51.93400 44.10200
C  53.09900 53.34800 44.34000
N  49.30300 48.86000 43.49200
C  49.46600 50.23400 43.61100
C  48.23000 50.86700 43.28000
C  47.44900 49.88100 42.71000
C  48.15700 48.71200 42.80500
C  48.00000 52.35900 43.38500
C  46.14900 49.65000 42.18700
O  45.20600 50.42400 42.05900
C  46.09400 48.14300 41.82100
C  44.99200 47.53200 42.60400
O  44.91900 47.42500 43.79100
O  44.00400 47.15500 41.67000
C  42.69400 46.62000 42.21600
H  51.08800 43.06600 41.97000
H  54.68800 47.24900 45.14000
H  50.67600 51.83700 44.46800
H  46.44200 44.96500 41.98000
H  48.69000 43.83800 40.36800
H  46.92800 42.41700 41.84700
H  48.14400 42.78700 43.11200
H  48.56900 41.87200 41.87200
H  47.31500 44.97300 39.11400
H  47.03300 46.64800 39.54900
H  44.87600 46.14800 39.05200
H  44.89900 44.97000 40.35500
H  54.38500 41.91300 43.09700
H  54.14500 42.66000 41.50300
H  52.82900 41.90900 42.37900
H  57.68900 45.54400 44.70800
H  56.33700 45.95100 45.50000
H  56.52200 46.65500 43.80500
H  54.90000 49.76900 45.10700
H  52.70900 51.39800 46.01900
H  54.87500 48.85200 47.22100
H  53.00800 48.90900 47.28000
H  54.05400 50.34300 47.53800
H  53.38800 51.81500 43.04200
H  54.69500 51.88500 44.19400
H  52.37700 53.46900 45.14700
H  52.74400 53.78200 43.40500
H  53.80600 54.08500 44.72100
H  46.91800 52.49300 43.41700
H  48.49500 53.04200 42.69400
H  48.35800 52.75300 44.33600
H  45.93400 48.10500 40.74400
H  42.34200 45.88700 41.49000
H  42.02000 47.46500 42.36400
H  42.74800 46.14000 43.19300
Mg -0.48200 34.98400 26.98300
C  -2.32100 33.04600 29.24200
C  0.82100 36.70300 29.64300
C  0.71000 37.07200 24.88500
C  -2.08600 33.21100 24.35600
N  -0.72000 34.84900 29.21500
C  -1.49800 33.95300 29.93000
C  -1.48300 34.25700 31.40600
C  -0.55900 35.50100 31.48000
C  -0.10100 35.75500 30.07500
C  -1.00800 36.83600 32.27600
C  -0.91100 33.00300 32.15200
C  -1.65500 32.52600 33.41400
H  -0.89600 32.44900 34.71700
N  0.70500 36.70100 27.23800
C  1.14300 37.24000 28.39000
C  1.95200 38.33800 28.07100
C  1.95400 38.48500 26.63300
C  1.05400 37.45900 26.22400
C  2.76400 39.15400 29.03300
C  2.66900 39.41500 25.68400
O  2.41300 39.55400 24.44000
C  3.72600 40.33400 26.25300
N  -0.51400 34.97200 24.89900
C  -0.04100 36.07300 24.23000
C  -0.34700 36.06500 22.70400
C  -1.10500 34.68900 22.56400
C  -1.23700 34.21400 24.03100
C  -1.19400 37.30700 22.25200
C  -0.55200 33.64900 21.64900
C  0.52600 32.71500 22.20600
N  -1.90300 33.43100 26.76900
C  -2.42400 32.79700 25.65800
C  -3.29900 31.72800 26.09500
C  -3.30500 31.84600 27.51600
C  -2.45300 32.88300 27.85400
C  -3.95700 30.75000 25.19100
C  -3.83900 31.22000 28.71100
O  -4.54100 30.21200 28.86700
C  -3.28300 32.11300 29.87900
C  -4.43600 32.76900 30.55100
O  -4.92100 33.82900 30.26200
O  -4.93700 31.96000 31.61000
C  -6.04300 32.52500 32.42200
H  1.29400 37.23600 30.47000
H  1.02500 37.73100 24.07500
H  -2.61200 32.68800 23.55500
H  -2.50300 34.46900 31.72900
H  0.39600 35.26600 31.95000
H  -1.37000 37.59400 31.58100
H  -0.17200 37.29600 32.80200
H  -1.75200 36.62200 33.04400
H  0.02000 33.28400 32.64400
H  -0.69000 32.13100 31.53700
H  -2.04100 31.51000 33.32400
H  -2.48400 33.23000 33.48600
H  3.79500 38.80800 29.10000
H  2.46300 39.21300 30.07900
H  2.66200 40.19300 28.71900
H  4.52100 39.87200 26.83800
H  3.28300 41.07100 26.92400
H  4.11300 40.82900 25.36200
H  0.60200 35.96900 22.17600
H  -2.09400 34.89500 22.15300
H  -1.54900 37.69100 23.20800
H  -1.99800 37.08400 21.55000
H  -0.41500 37.90000 21.77300
H  -0.16700 34.19400 20.78800
H  -1.35900 33.04400 21.23600
H  0.03800 31.99700 22.86500
H  1.26200 33.25200 22.80400
H  1.03600 32.07400 21.48700
H  -3.13600 30.51200 24.51500
H  -4.82500 31.14300 24.66200
H  -4.06200 29.81200 25.73600
H  -2.67300 31.54800 30.58400
H  -5.81600 33.11300 33.31100
H  -6.58800 31.66500 32.81200
H  -6.72200 33.12200 31.81400

