158

Mg 46.74600 24.96000 28.86900
C  47.46000 27.46300 31.26900
C  45.75900 22.91400 31.34700
C  46.58000 22.51900 26.55900
C  48.31900 26.97600 26.48600
N  46.76800 25.20000 31.01700
C  46.94400 26.29900 31.79200
C  46.58000 26.07400 33.26400
C  46.17700 24.52300 33.32900
C  46.23700 24.17400 31.80400
C  47.14300 23.62100 34.19000
C  45.35300 27.01500 33.81800
C  44.90500 26.76200 35.25400
H  45.86700 26.49700 36.46100
N  46.03300 23.02500 28.92900
C  45.72300 22.35500 30.04400
C  45.26300 21.02500 29.65000
C  45.31200 20.93800 28.16600
C  46.04700 22.20200 27.81500
C  44.80500 19.97700 30.61900
C  44.84300 19.83600 27.16900
O  44.96300 19.93700 25.95900
C  44.17500 18.63100 27.76300
N  47.42900 24.72000 26.89000
C  47.34800 23.64400 26.15500
C  48.03500 23.65800 24.82300
C  48.37400 25.17400 24.75500
C  47.94200 25.71600 26.18400
C  49.09500 22.61000 24.75000
C  47.72000 26.08100 23.64400
C  48.70400 26.79000 22.70200
N  47.60100 26.85400 28.80900
C  48.13800 27.55300 27.75500
C  48.52200 28.89500 28.20300
C  48.30900 28.89600 29.60600
C  47.81400 27.61700 29.89800
C  49.08800 29.95400 27.42200
C  48.40000 29.69300 30.82800
O  48.82300 30.81600 31.01600
C  47.97600 28.73000 31.98800
C  49.13700 28.45500 32.91900
O  50.20900 27.93700 32.62100
O  48.65200 28.59000 34.20600
C  49.73700 28.48000 35.23700
H  45.50400 22.29000 32.20600
H  46.56000 21.68400 25.85500
H  48.87000 27.65000 25.82800
H  47.45400 26.39000 33.83300
H  45.14200 24.44500 33.66400
H  46.51100 23.13100 34.93000
H  47.90000 24.24200 34.66900
H  47.70000 22.92000 33.56900
H  44.44400 26.84500 33.24200
H  45.52900 28.08800 33.73900
H  44.22100 25.91300 35.27200
H  44.25100 27.58700 35.53500
H  43.74000 20.03400 30.84500
H  45.41600 20.12000 31.50900
H  45.07300 18.99400 30.23000
H  43.48200 18.85000 28.57500
H  44.90700 17.92600 28.15900
H  43.61300 18.15300 26.96000
H  47.26500 23.46400 24.07600
H  49.44700 25.32300 24.63900
H  49.01200 21.89800 23.92800
H  49.10300 22.00600 25.65800
H  50.06400 23.09800 24.65100
H  47.10100 26.84200 24.12000
H  47.02500 25.48300 23.05600
H  48.86900 27.83400 22.96900
H  48.51400 26.75900 21.62900
H  49.71200 26.43200 22.91100
H  50.17700 29.96400 27.43900
H  48.68300 30.84800 27.89600
H  48.77200 29.89700 26.38000
H  47.25000 29.21700 32.63900
H  50.75700 28.38000 34.86400
H  49.52300 27.65400 35.91500
H  49.84800 29.48300 35.65000
Mg 0.35900 43.23100 26.05400
C  2.46700 43.44000 28.77900
C  -2.11800 42.36400 28.34100
C  -1.52500 42.63100 23.50700
C  3.10100 43.64800 23.89800
N  0.09200 43.51800 28.40200
C  1.09600 43.49700 29.26500
C  0.63800 43.42100 30.67500
C  -0.79500 42.83000 30.55300
C  -0.93900 42.88800 29.00100
C  -1.14400 41.54600 31.35200
C  0.76500 44.82500 31.37900
C  0.63300 44.79500 32.92800
H  0.68800 43.48900 33.70800
N  -1.64800 42.87300 25.93800
C  -2.51600 42.57200 26.95100
C  -3.85100 42.20900 26.40200
C  -3.62800 42.16100 24.99000
C  -2.19600 42.49300 24.75300
C  -5.10100 41.98300 27.26200
C  -4.62300 41.79300 23.98200
O  -4.31800 41.66600 22.79400
C  -6.11100 41.49800 24.35000
N  0.67200 43.27900 24.00100
C  -0.24700 42.89700 23.11800
C  0.20400 42.87200 21.59600
C  1.67600 43.41800 21.80000
C  1.83700 43.45000 23.31500
C  0.07300 41.45100 20.95800
C  1.90200 44.82200 21.11100
C  1.30000 46.01800 21.86900
N  2.37900 43.48700 26.20000
C  3.38500 43.52800 25.30700
C  4.62800 43.58900 26.00300
C  4.30800 43.50400 27.32800
C  2.93900 43.48000 27.40200
C  6.00200 43.62400 25.46300
C  4.88800 43.39500 28.60200
O  6.02400 43.40400 28.97100
C  3.75000 43.46400 29.65700
C  3.98600 42.29200 30.50800
O  3.50500 41.15700 30.40900
O  4.68500 42.69900 31.59000
C  4.97700 41.64100 32.52400
H  -2.89500 42.05200 29.04200
H  -2.11200 42.29000 22.65200
H  4.00700 43.66400 23.28900
H  1.26200 42.69300 31.19300
H  -1.51600 43.59400 30.84300
H  -1.19300 40.73200 30.62800
H  -2.15700 41.64600 31.74000
H  -0.36900 41.29100 32.07500
H  -0.12200 45.32400 30.98900
H  1.66200 45.25800 30.93500
H  -0.18800 45.42100 33.27800
H  1.56500 45.22300 33.29700
H  -5.91200 42.67800 27.04600
H  -4.83800 41.97600 28.32000
H  -5.39400 40.96200 27.01900
H  -6.31200 40.55400 24.85600
H  -6.72100 41.61700 23.45500
H  -6.43200 42.29400 25.02100
H  -0.47100 43.51800 21.03500
H  2.44500 42.75600 21.40200
H  1.07400 41.02900 21.04600
H  -0.17500 41.59600 19.90600
H  -0.71800 40.85000 21.40800
H  1.42000 44.76400 20.13500
H  2.97300 45.02400 21.10100
H  0.67800 46.54300 21.14400
H  2.13000 46.60000 22.26800
H  0.59000 45.78700 22.66300
H  6.10700 44.68100 25.21800
H  6.12400 43.02700 24.56000
H  6.77400 43.29500 26.15800
H  3.79800 44.38400 30.24000
H  5.55900 40.79400 32.15800
H  4.11200 41.22100 33.03700
H  5.60900 42.10400 33.28200

