158

Mg 42.63500 42.27500 25.84300
C  41.58100 44.34900 28.43300
C  44.01000 40.17400 28.11300
C  43.63300 40.20100 23.34700
C  41.76300 44.77700 23.63100
N  42.80000 42.26800 27.97300
C  42.13300 43.19300 28.82700
C  42.24200 42.74500 30.30300
C  43.02200 41.44200 30.15600
C  43.33300 41.24900 28.66300
C  44.40200 41.51100 30.93000
C  40.80500 42.46600 30.84400
C  40.76200 41.52700 32.08600
H  40.31200 42.10500 33.41900
N  43.62100 40.40900 25.75100
C  44.13000 39.71900 26.81000
C  44.79900 38.54000 26.35500
C  44.64000 38.49500 24.99000
C  43.88100 39.71500 24.62300
C  45.58300 37.65100 27.19100
C  45.20000 37.50100 23.89100
O  45.00800 37.60700 22.69200
C  45.95300 36.25100 24.29500
N  42.75400 42.42400 23.79100
C  43.18400 41.44600 22.97200
C  43.04500 41.94300 21.55300
C  42.32900 43.37800 21.60800
C  42.38900 43.56100 23.09600
C  44.38300 41.95100 20.73400
C  40.97200 43.44300 20.95400
C  41.03100 44.09200 19.55300
N  41.91300 44.23900 25.94800
C  41.66000 45.09300 24.98800
C  41.01100 46.28800 25.48500
C  41.00600 46.10100 26.86700
C  41.54600 44.84100 27.13100
C  40.47400 47.47600 24.62600
C  40.61200 46.57900 28.22900
O  40.02000 47.61000 28.61000
C  40.95500 45.45600 29.29200
C  41.85100 46.08500 30.30200
O  43.07300 46.25700 30.15500
O  41.17600 46.34300 31.45700
C  41.99600 47.04100 32.50200
H  44.55600 39.63900 28.89300
H  43.96300 39.60000 22.49700
H  41.56800 45.55300 22.88800
H  42.86000 43.38600 30.93200
H  42.54100 40.50700 30.44300
H  44.44500 40.50900 31.35800
H  44.59800 42.31800 31.63600
H  45.15300 41.51100 30.14000
H  40.12800 42.17900 30.03900
H  40.57200 43.45400 31.24200
H  41.66300 40.93300 32.23700
H  39.93100 40.87800 31.80900
H  45.18000 37.75600 28.19900
H  46.65700 37.71400 27.02100
H  45.29500 36.61000 27.04700
H  46.33400 35.73600 23.41300
H  45.41200 35.52600 24.90300
H  46.78800 36.60800 24.89800
H  42.37100 41.23600 21.07100
H  43.01700 44.14300 21.24700
H  45.18400 41.84400 21.46600
H  44.51000 42.83800 20.11400
H  44.44400 41.07000 20.09500
H  40.32700 44.02700 21.61100
H  40.63400 42.41400 20.83900
H  40.14300 44.70400 19.39100
H  41.06900 43.29400 18.81100
H  41.86600 44.78000 19.42700
H  41.08400 47.48900 23.72300
H  40.58400 48.42400 25.15200
H  39.45900 47.14900 24.39800
H  40.04300 45.15100 29.80400
H  42.54800 47.90600 32.13300
H  42.61700 46.26300 32.94500
H  41.27500 47.50300 33.17700
Mg 30.76000 57.84500 39.43100
C  27.77100 55.94700 38.66500
C  32.60400 55.14700 38.60500
C  33.37100 59.79900 39.81400
C  28.59900 60.61100 40.00200
N  30.16600 55.83800 38.58700
C  28.91500 55.25200 38.47300
C  29.07300 53.72400 38.29700
C  30.62600 53.49200 38.32500
C  31.18600 54.91600 38.60200
C  31.21600 52.50300 39.35000
C  28.49800 53.10500 36.91500
C  29.06300 53.78700 35.63300
H  28.08500 54.21200 34.54200
N  32.75600 57.52700 39.27700
C  33.30400 56.32600 39.01400
C  34.69400 56.45400 39.18900
C  34.96700 57.80300 39.49300
C  33.67700 58.47600 39.52400
C  35.60700 55.33300 38.88800
C  36.37900 58.45500 39.68400
O  37.37300 57.78700 39.50300
C  36.57800 59.89000 39.95700
N  30.95400 59.94800 39.68600
C  32.17900 60.53500 39.80600
C  32.00100 62.08800 39.77400
C  30.50100 62.20800 40.21500
C  29.97100 60.79100 39.97500
C  33.04900 62.87700 40.70100
C  29.77500 63.31100 39.32600
C  28.81000 64.22900 40.13500
N  28.63000 58.31700 39.33600
C  27.96300 59.40200 39.77900
C  26.48600 59.10100 39.67200
C  26.38700 57.76000 39.34700
C  27.70200 57.33200 39.13000
C  25.42600 60.15600 39.83300
C  25.44000 56.67900 39.12200
O  24.24500 56.61100 39.18500
C  26.34400 55.40100 38.68300
C  26.24500 54.42300 39.87100
O  27.07000 54.29800 40.80800
O  25.14600 53.62800 39.69700
C  24.93200 52.51400 40.61000
H  33.26000 54.32200 38.31800
H  34.16200 60.54200 39.93400
H  28.02600 61.52600 40.16300
H  28.70400 53.15100 39.14800
H  31.05400 53.22100 37.36000
H  31.37000 53.04100 40.28600
H  32.18200 52.21000 38.94100
H  30.64700 51.59300 39.54200
H  27.42200 52.96600 37.01800
H  28.88900 52.08900 36.86600
H  29.68100 53.06600 35.09700
H  29.69300 54.62700 35.92500
H  35.67400 55.01900 37.84600
H  35.27200 54.54600 39.56400
H  36.65800 55.48800 39.13100
H  37.61400 60.03500 39.65100
H  36.52800 60.06700 41.03200
H  36.05900 60.54200 39.25500
H  31.98700 62.49800 38.76400
H  30.51400 62.52000 41.25900
H  33.44200 62.21800 41.47500
H  32.46300 63.59400 41.27600
H  33.88000 63.39100 40.21700
H  29.11800 62.82600 38.60400
H  30.37500 63.90900 38.64000
H  29.04700 65.28700 40.02400
H  28.87700 63.92000 41.17800
H  27.79400 64.19000 39.74200
H  24.39000 59.82100 39.89500
H  25.57100 60.86100 39.01500
H  25.78100 60.63000 40.74800
H  26.03800 54.86400 37.78500
H  24.52600 52.83700 41.56800
H  25.88500 52.02000 40.79800
H  24.31700 51.77000 40.10300

