158

Mg -1.84500 17.26200 26.40900
C  -2.14600 14.67300 28.83400
C  -2.36100 19.56800 28.85500
C  -2.04300 19.84700 24.06700
C  -2.34300 14.80300 24.02200
N  -2.18800 17.06800 28.54300
C  -2.14100 15.98400 29.42600
C  -2.39800 16.33700 30.91400
C  -2.28800 17.91700 30.78000
C  -2.25200 18.19600 29.32500
C  -3.37700 18.67200 31.63300
C  -1.30000 15.78800 31.93600
C  -1.15600 16.47200 33.26500
H  -1.36500 15.67200 34.54600
N  -2.12300 19.38800 26.50400
C  -2.30700 20.12300 27.55200
C  -2.47400 21.53800 27.28300
C  -2.14900 21.61300 25.90800
C  -2.06700 20.25800 25.44100
C  -2.67300 22.59800 28.40000
C  -2.01100 22.91200 25.04600
O  -1.55200 22.96100 23.89300
C  -2.41800 24.18400 25.75200
N  -2.34100 17.39400 24.40300
C  -2.20300 18.48700 23.59000
C  -2.33300 18.10700 22.06700
C  -2.36600 16.59100 22.09300
C  -2.35000 16.20800 23.59100
C  -3.45200 18.88900 21.45000
C  -1.21100 15.91100 21.32200
C  -1.42000 15.65400 19.82500
N  -2.02500 15.14100 26.35700
C  -2.29600 14.33700 25.32000
C  -2.47500 12.97900 25.76100
C  -2.46300 13.08600 27.13900
C  -2.13100 14.40900 27.47100
C  -2.63600 11.69300 25.02900
C  -2.61200 12.31100 28.34000
O  -2.92100 11.09800 28.39900
C  -2.40700 13.32600 29.49800
C  -1.33600 12.85200 30.41400
O  -0.19000 13.17400 30.36500
O  -1.87800 11.87000 31.17500
C  -1.03400 11.39500 32.26600
H  -2.53300 20.29500 29.65100
H  -2.06600 20.70000 23.38500
H  -2.41500 14.07400 23.21200
H  -3.44000 16.19000 31.19900
H  -1.32600 18.20900 31.20100
H  -3.03200 19.51600 32.23100
H  -3.84800 17.97100 32.32200
H  -4.19100 18.97500 30.97600
H  -0.34300 15.73100 31.41800
H  -1.73400 14.80600 32.12200
H  -1.77600 17.36000 33.38800
H  -0.15200 16.88900 33.34600
H  -1.77000 23.20800 28.42700
H  -2.88900 22.20200 29.39300
H  -3.54300 23.24500 28.29400
H  -2.39600 25.01200 25.04400
H  -1.75100 24.31700 26.60500
H  -3.38000 24.00600 26.23200
H  -1.40700 18.34200 21.54200
H  -3.29000 16.23400 21.63700
H  -3.87300 19.48500 22.26000
H  -4.30100 18.33500 21.04900
H  -3.09000 19.38500 20.54900
H  -1.10000 14.86900 21.62100
H  -0.27700 16.44500 21.49500
H  -2.22800 16.22900 19.37300
H  -1.60800 14.60300 19.60300
H  -0.49300 15.93900 19.32700
H  -3.45000 11.07100 25.40200
H  -1.63500 11.28900 25.17600
H  -2.95300 11.87200 24.00200
H  -3.33400 13.30800 30.07200
H  -1.22400 12.19000 32.98800
H  0.03000 11.37000 32.03100
H  -1.34900 10.43700 32.68000
Mg 40.47800 9.23400 29.31600
C  42.25800 10.65000 31.83200
C  38.05600 8.13800 31.56000
C  38.66200 8.04300 26.70100
C  43.06500 10.28400 27.01300
N  40.21800 9.44200 31.44600
C  41.10300 10.02000 32.28500
C  40.54100 10.03100 33.69200
C  39.43200 9.01700 33.52900
C  39.16400 8.86100 32.06400
C  39.48600 7.66300 34.34900
C  40.06200 11.41900 34.25800
C  40.75400 11.79100 35.61100
H  39.94500 12.27200 36.81200
N  38.66000 8.11100 29.17100
C  37.79800 7.85300 30.19300
C  36.57500 7.24000 29.62000
C  36.76200 7.18900 28.21800
C  38.08200 7.79900 27.95500
C  35.45400 6.68400 30.47200
C  35.95500 6.45400 27.24300
O  36.16700 6.45000 26.02600
C  34.79500 5.62100 27.62900
N  40.88200 9.21200 27.20300
C  39.94100 8.64900 26.35100
C  40.35100 8.81600 24.86500
C  41.77000 9.45700 24.95500
C  41.93200 9.68200 26.49200
C  40.14500 7.59300 23.96800
C  41.91200 10.70400 23.97700
C  41.45200 12.10100 24.57500
N  42.25000 10.15700 29.37100
C  43.23500 10.51700 28.41100
C  44.30900 11.23800 29.00100
C  44.02500 11.33000 30.38800
C  42.73800 10.67400 30.52700
C  45.55100 11.63000 28.24900
C  44.45600 11.77100 31.61900
O  45.51600 12.32500 31.99500
C  43.33100 11.34200 32.70800
C  43.95500 10.42700 33.60700
O  44.16300 9.21700 33.45800
O  44.13000 11.06700 34.78000
C  44.78100 10.28900 35.86600
H  37.22900 7.91300 32.23700
H  38.11700 7.68900 25.82300
H  43.76400 10.75300 26.31800
H  41.25500 9.56400 34.37100
H  38.54500 9.57900 33.82000
H  40.33700 7.67900 35.03000
H  39.68900 6.80600 33.70700
H  38.63400 7.52200 35.01500
H  38.99500 11.41800 34.47800
H  40.28200 12.10300 33.43800
H  41.40700 12.65200 35.46700
H  41.33800 10.90700 35.86700
H  35.29200 5.62000 30.30000
H  34.56200 7.18900 30.10200
H  35.78300 6.94500 31.47800
H  35.05700 4.76500 28.25100
H  34.35200 5.11600 26.77000
H  34.03500 6.17900 28.17600
H  39.64000 9.58200 24.55200
H  42.53200 8.72400 24.69000
H  39.10200 7.51900 23.66100
H  40.48600 6.72400 24.53100
H  40.66100 7.66500 23.01100
H  41.23300 10.47000 23.15800
H  42.96400 10.70000 23.69400
H  41.10000 11.92900 25.59200
H  40.59300 12.54400 24.07000
H  42.31500 12.76600 24.59800
H  46.08700 12.07000 29.09000
H  45.45800 12.42800 27.51300
H  46.04700 10.73900 27.86300
H  42.86500 12.22600 33.14400
H  45.13700 9.30500 35.56100
H  44.06400 10.01000 36.63900
H  45.49600 10.96000 36.34200

