158

Mg -1.87400 17.52700 25.72100
C  -2.44500 15.35000 28.59400
C  -2.78400 20.13800 27.84600
C  -1.94500 19.40500 23.07100
C  -1.78900 14.62200 23.76000
N  -2.33500 17.67200 28.01700
C  -2.46400 16.71100 29.00600
C  -2.86400 17.34200 30.32400
C  -3.09500 18.84200 30.02700
C  -2.73300 18.92600 28.54700
C  -4.58200 19.19600 30.34800
C  -1.70000 17.16500 31.35900
C  -1.97200 16.31100 32.58100
H  -2.34800 17.10500 33.80900
N  -2.28000 19.51500 25.44300
C  -2.41400 20.41700 26.49300
C  -2.35600 21.74500 25.85100
C  -2.08500 21.59800 24.44400
C  -2.08100 20.17900 24.30500
C  -2.51100 23.00100 26.61200
C  -1.72800 22.62700 23.45500
O  -1.53200 22.35800 22.28400
C  -1.65900 24.05500 23.80600
N  -2.09700 16.99500 23.71200
C  -1.85400 18.01300 22.83100
C  -1.57700 17.50100 21.40900
C  -1.42700 15.96400 21.66100
C  -1.71200 15.85600 23.17900
C  -2.64000 17.78200 20.35000
C  -0.09800 15.24700 21.28100
C  1.02100 15.52300 22.28000
N  -1.99000 15.36700 26.08900
C  -1.87900 14.35500 25.13800
C  -1.98300 13.04400 25.82800
C  -2.23300 13.38800 27.19000
C  -2.23600 14.80300 27.30000
C  -1.98200 11.71400 25.22700
C  -2.55000 12.88600 28.52700
O  -2.61800 11.75100 28.84200
C  -2.73600 14.07700 29.51300
C  -1.73900 13.84500 30.67600
O  -0.57100 14.20200 30.67100
O  -2.31400 13.11100 31.66000
C  -1.57700 12.89200 32.90900
H  -3.03000 21.01000 28.45700
H  -1.91900 20.03000 22.17500
H  -1.70300 13.71400 23.16000
H  -3.78900 16.81400 30.55700
H  -2.49100 19.60000 30.52600
H  -4.84100 18.83800 31.34400
H  -5.35400 18.66600 29.79000
H  -4.72700 20.27500 30.28800
H  -1.26000 18.14400 31.55100
H  -0.89500 16.64000 30.84500
H  -1.04100 15.77600 32.76600
H  -2.76000 15.56400 32.48600
H  -2.34300 22.92300 27.68600
H  -3.40700 23.60800 26.48400
H  -1.81200 23.76800 26.27600
H  -0.87600 24.50900 24.41300
H  -2.60100 24.35800 24.26300
H  -1.79600 24.63600 22.89300
H  -0.63700 17.93400 21.06600
H  -2.20900 15.41400 21.13700
H  -2.85300 18.84100 20.20500
H  -3.59900 17.37000 20.66200
H  -2.42900 17.28400 19.40300
H  0.22500 15.63200 20.31400
H  -0.35400 14.18800 21.24400
H  0.79500 16.32800 22.98000
H  1.94000 15.70800 21.72300
H  1.25000 14.65900 22.90400
H  -1.49800 11.87700 24.26500
H  -2.97300 11.26300 25.18700
H  -1.36900 10.94900 25.70400
H  -3.72700 14.00900 29.96200
H  -2.18500 12.93500 33.81300
H  -0.75700 13.60000 33.03500
H  -1.25900 11.85000 32.89800
Mg -4.83700 25.27200 26.21600
C  -2.99900 27.17200 28.37900
C  -5.61100 23.13100 28.90400
C  -6.64500 23.36500 24.07000
C  -3.55600 27.20600 23.52000
N  -4.58100 25.31200 28.40700
C  -3.80800 26.20900 29.07200
C  -3.85700 25.96100 30.59300
C  -4.51100 24.55100 30.71700
C  -4.88100 24.25400 29.24300
C  -3.60900 23.45700 31.35100
C  -4.72600 27.15700 31.23000
C  -4.58900 27.63700 32.68900
H  -4.11700 26.62000 33.67000
N  -5.90400 23.50700 26.47400
C  -6.15600 22.81400 27.64300
C  -6.94200 21.63100 27.34500
C  -7.44100 21.81200 26.00400
C  -6.65400 22.91500 25.46500
C  -7.37400 20.64000 28.42900
C  -8.48100 21.05100 25.26300
O  -8.91600 21.38200 24.14800
C  -9.16600 19.81600 25.90300
N  -5.10600 25.35400 24.10100
C  -5.88900 24.40600 23.48800
C  -5.78800 24.56400 22.02300
C  -4.91500 25.84900 21.81200
C  -4.44900 26.17700 23.25000
C  -5.25700 23.27600 21.31200
C  -5.59800 27.16800 21.30500
C  -4.76000 27.93700 20.30100
N  -3.48700 26.87300 25.91400
C  -3.07300 27.51100 24.80900
C  -1.98600 28.39200 25.25200
C  -1.92900 28.30900 26.60700
C  -2.82400 27.33500 26.99700
C  -1.24400 29.36600 24.35500
C  -1.37200 28.80700 27.81700
O  -0.55100 29.67300 27.95200
C  -2.02900 28.14200 28.97700
C  -1.03600 27.50100 29.81700
O  -0.05400 26.87600 29.36300
O  -1.32300 27.67600 31.16500
C  -0.21500 27.07500 31.96000
H  -5.73500 22.35200 29.65900
H  -7.15300 22.71700 23.35300
H  -3.19400 27.63500 22.58300
H  -2.84000 25.84100 30.96800
H  -5.44600 24.48800 31.27400
H  -3.93600 23.10800 32.33100
H  -2.59700 23.81400 31.54000
H  -3.63900 22.67600 30.59100
H  -5.78300 26.94800 31.06700
H  -4.30800 28.00300 30.68400
H  -5.60900 27.97100 32.88000
H  -3.83100 28.41500 32.60400
H  -7.26100 19.71900 27.85800
H  -8.40700 20.90900 28.65100
H  -6.86500 20.67900 29.39200
H  -9.50300 19.95900 26.93000
H  -8.38800 19.06500 25.76500
H  -10.04900 19.60300 25.30100
H  -6.79400 24.76300 21.65300
H  -4.03800 25.60700 21.21200
H  -4.82200 22.62600 22.07100
H  -4.44900 23.51600 20.62100
H  -6.05000 22.70300 20.83100
H  -5.74200 27.96500 22.03400
H  -6.48100 26.91400 20.71900
H  -4.65800 28.99400 20.54700
H  -5.45400 27.96600 19.46100
H  -3.80800 27.49600 20.00600
H  -1.67400 29.47700 23.35900
H  -0.18400 29.12700 24.27600
H  -1.28200 30.39900 24.70000
H  -2.43200 28.93100 29.61200
H  0.72300 27.47500 31.57600
H  -0.24600 25.98900 31.87700
H  -0.25300 27.46200 32.97900

