158

Mg 23.90000 -6.34600 46.54100
C  26.02300 -3.99300 45.13700
C  21.41900 -5.37000 44.42500
C  21.87400 -9.21400 47.18500
C  26.58200 -7.76600 48.12700
N  23.76700 -4.88600 44.94200
C  24.75600 -4.00800 44.56100
C  24.22500 -3.07400 43.55700
C  22.68000 -3.22700 43.67400
C  22.61700 -4.59000 44.36200
C  21.87400 -2.09400 44.40600
C  24.87900 -3.33400 42.17100
C  25.48400 -2.16000 41.42400
H  24.51000 -1.64200 40.34300
N  21.88800 -7.15500 45.98500
C  21.08200 -6.53600 45.07100
C  19.89700 -7.27600 44.77400
C  19.94300 -8.41100 45.66500
C  21.24500 -8.30300 46.31100
C  18.81900 -7.02000 43.64200
C  18.84600 -9.41200 45.77200
O  17.88400 -9.50600 45.01100
C  18.86500 -10.38500 46.95700
N  24.12800 -8.13800 47.63000
C  23.20400 -9.20100 47.79000
C  23.80100 -10.39100 48.57200
C  25.33800 -9.98200 48.72000
C  25.35700 -8.54500 48.13700
C  23.02400 -10.70500 49.89600
C  26.33800 -10.88500 48.10200
C  26.17600 -12.42700 48.38800
N  25.97900 -6.01500 46.67400
C  26.88400 -6.64600 47.43300
C  28.12000 -5.85100 47.33500
C  27.82600 -4.80300 46.51000
C  26.49500 -4.95300 46.07500
C  29.44100 -6.28300 48.05300
C  28.33200 -3.56900 45.98600
O  29.38300 -2.94300 46.28900
C  27.14400 -2.96600 45.00700
C  26.76500 -1.62100 45.43900
O  25.90600 -1.26500 46.23000
O  27.46100 -0.68800 44.71600
C  27.25800 0.72600 45.11000
H  20.55800 -4.88700 43.95800
H  21.40200 -10.19400 47.27400
H  27.42000 -8.22000 48.66100
H  24.50900 -2.08000 43.90300
H  22.24200 -3.17000 42.67700
H  22.49400 -1.67100 45.19600
H  20.92100 -2.43700 44.81000
H  21.68500 -1.29400 43.69100
H  24.27900 -3.86600 41.43300
H  25.62400 -4.11100 42.34200
H  26.43100 -2.35100 40.92000
H  25.62600 -1.32900 42.11500
H  19.27200 -6.42400 42.85100
H  18.02700 -6.39500 44.05500
H  18.35800 -7.89800 43.18900
H  17.82700 -10.59100 47.22100
H  19.30800 -9.87800 47.81400
H  19.40500 -11.26500 46.60700
H  23.73900 -11.30100 47.97500
H  25.53000 -9.89300 49.78900
H  21.98900 -10.78800 49.56400
H  23.30600 -9.97500 50.65400
H  23.22200 -11.66300 50.37600
H  27.33400 -10.60900 48.44700
H  26.36800 -10.66600 47.03400
H  26.17700 -13.02200 47.47500
H  25.23900 -12.66400 48.89200
H  26.97800 -12.82500 49.01100
H  29.25400 -6.03100 49.09700
H  30.34900 -5.78100 47.72000
H  29.55800 -7.36500 48.10600
H  27.63600 -2.90800 44.03600
H  27.52600 0.91900 46.14800
H  26.21800 1.04300 45.03300
H  27.78900 1.37500 44.41300
Mg 17.21300 -1.56100 28.24400
C  16.04600 0.59200 30.77200
C  19.19400 -3.12600 30.48800
C  18.49600 -3.42600 25.61600
C  15.45200 0.38400 25.85700
N  17.55900 -1.26300 30.30200
C  16.88600 -0.42900 31.23900
C  17.11700 -0.80700 32.69000
C  18.31600 -1.76500 32.48000
C  18.39800 -2.04700 30.95500
C  19.73000 -1.13800 32.77600
C  15.88000 -1.44500 33.47500
C  15.43100 -0.73800 34.70900
H  16.56900 -0.29300 35.69200
N  18.54500 -3.12500 28.09000
C  19.25500 -3.65000 29.15100
C  20.05600 -4.75800 28.71200
C  19.87900 -4.87200 27.29700
C  18.91200 -3.82100 26.93500
C  20.90700 -5.49700 29.74500
C  20.56600 -5.79800 26.39500
O  20.45600 -5.63300 25.18900
C  21.50400 -6.87000 26.87500
N  16.99700 -1.50700 26.10900
C  17.67500 -2.37900 25.22800
C  17.56800 -1.96400 23.76900
C  16.41300 -0.84800 23.87400
C  16.25700 -0.62700 25.37300
C  18.90100 -1.61000 23.01200
C  15.01400 -1.17800 23.16100
C  13.95600 -1.90900 23.97800
N  15.93100 0.11600 28.25700
C  15.24500 0.74900 27.20500
C  14.45400 1.87700 27.75100
C  14.77500 1.86800 29.13200
C  15.66300 0.81700 29.37400
C  13.56000 2.68900 26.83000
C  14.52500 2.50000 30.41800
O  13.85600 3.44500 30.77000
C  15.31300 1.67200 31.56100
C  16.22700 2.60300 32.27600
O  17.40600 2.83700 32.07600
O  15.56400 3.07900 33.38200
C  16.38100 3.76300 34.32600
H  19.69100 -3.57900 31.34900
H  18.76000 -4.13100 24.82500
H  15.03100 0.92900 25.01000
H  17.30200 0.14100 33.19400
H  18.22200 -2.67600 33.07000
H  19.58000 -0.18000 33.27300
H  20.39400 -0.94200 31.93400
H  20.31500 -1.82700 33.38500
H  15.92400 -2.49500 33.76200
H  15.05500 -1.33800 32.77100
H  14.76800 -1.35400 35.31600
H  14.91900 0.18800 34.44900
H  20.86200 -6.58000 29.62700
H  20.60900 -5.28600 30.77200
H  21.93100 -5.20700 29.50800
H  22.20900 -6.42000 27.57400
H  21.91900 -7.36200 25.99600
H  20.82000 -7.65600 27.19600
H  17.26600 -2.83200 23.18200
H  16.86200 0.01200 23.37700
H  19.10500 -0.57100 22.75200
H  19.00200 -2.10800 22.04800
H  19.81200 -1.75900 23.59200
H  15.46000 -1.71600 22.32600
H  14.51300 -0.30900 22.73500
H  13.62500 -2.61500 23.21700
H  13.04300 -1.35800 24.20200
H  14.31100 -2.54500 24.79000
H  13.87800 3.73000 26.88900
H  12.56500 2.71700 27.27300
H  13.43400 2.36200 25.79800
H  14.53100 1.25500 32.19600
H  16.98700 4.57400 33.92100
H  17.14900 3.12300 34.75800
H  15.69200 4.35900 34.92600

