158

Mg -8.55900 40.46600 42.79400
C  -7.35200 37.35000 41.72300
C  -6.06100 41.92500 40.75000
C  -10.08800 43.55200 43.14300
C  -11.53600 38.91200 43.76000
N  -6.89500 39.71700 41.33500
C  -6.55200 38.44800 41.21100
C  -5.18900 38.25700 40.41800
C  -4.70900 39.75100 40.17000
C  -5.90200 40.50900 40.90400
C  -3.29800 40.22300 40.84200
C  -5.54200 37.34700 39.13800
C  -4.54600 36.11400 39.02200
H  -4.89300 34.97300 38.04800
N  -8.07600 42.46600 42.22600
C  -6.99600 42.79100 41.38300
C  -6.90700 44.14700 41.30000
C  -8.04200 44.77700 41.85800
C  -8.84000 43.61100 42.41100
C  -5.70400 44.82900 40.51700
C  -8.42900 46.24100 41.71500
O  -7.75100 47.01300 41.04700
C  -9.81300 46.75400 42.19100
N  -10.52200 41.11000 43.42000
C  -10.85700 42.37800 43.56700
C  -12.36500 42.53900 43.94500
C  -12.82800 41.03100 44.10300
C  -11.60700 40.29000 43.78000
C  -12.55000 43.46400 45.20000
C  -14.05500 40.65300 43.32900
C  -15.05600 39.80100 44.11400
N  -9.25700 38.52900 42.87400
C  -10.44500 38.04300 43.32800
C  -10.45100 36.61500 43.24400
C  -9.21500 36.21600 42.74700
C  -8.59300 37.46100 42.43400
C  -11.53900 35.74100 43.78600
C  -8.35500 35.11300 42.41200
O  -8.49200 33.93500 42.66400
C  -7.08400 35.76700 41.76700
C  -5.87400 35.36100 42.54400
O  -5.47200 36.11700 43.45100
O  -5.39900 34.13500 42.21200
C  -4.30500 33.57000 43.01200
H  -5.19700 42.32300 40.21400
H  -10.60500 44.49700 43.32300
H  -12.47700 38.48000 44.10800
H  -4.47000 37.70100 41.02000
H  -4.77400 39.89700 39.09100
H  -3.34800 41.28400 41.08800
H  -2.54300 40.17100 40.05800
H  -3.08000 39.58500 41.69900
H  -5.47200 38.00100 38.26900
H  -6.54000 36.91100 39.15600
H  -4.58800 35.64700 40.00600
H  -3.53000 36.48300 38.87700
H  -5.99400 45.01500 39.48300
H  -4.78400 44.24500 40.51500
H  -5.38100 45.73700 41.02600
H  -9.99000 47.79800 41.93300
H  -9.82200 46.66000 43.27700
H  -10.56500 46.08200 41.77800
H  -12.80000 42.95500 43.03600
H  -12.91000 40.79700 45.16500
H  -12.88700 42.95000 46.10100
H  -13.26800 44.27200 45.06400
H  -11.59600 43.92500 45.45500
H  -13.69000 40.21500 42.40000
H  -14.63700 41.50300 42.97300
H  -14.88100 39.89200 45.18600
H  -15.03900 38.81000 43.66100
H  -16.02800 40.24200 43.89600
H  -11.28600 34.69300 43.62500
H  -12.44700 35.98200 43.23200
H  -11.70600 35.94500 44.84300
H  -6.91000 35.24200 40.82700
H  -4.47400 33.89400 44.03900
H  -3.28300 33.85100 42.75700
H  -4.42500 32.49200 43.11300
Mg -9.59100 18.00100 42.53100
C  -6.13600 17.45800 42.55700
C  -8.91300 21.44600 41.87200
C  -12.84900 18.40100 41.69900
C  -10.06200 14.46500 42.67800
N  -7.78000 19.29700 42.33000
C  -6.48500 18.84600 42.42800
C  -5.44800 20.00100 42.15500
C  -6.40400 21.31400 42.29200
C  -7.79100 20.68700 42.19600
C  -6.13900 22.24500 43.46900
C  -4.71500 19.84500 40.72200
C  -5.64900 19.18700 39.69700
H  -5.04100 19.16700 38.30600
N  -10.74100 19.74200 42.02200
C  -10.30400 20.98300 41.72100
C  -11.41900 21.79400 41.34400
C  -12.60600 20.97000 41.45600
C  -12.11600 19.64200 41.70100
C  -11.33300 23.25300 40.94800
C  -14.06200 21.43600 41.24800
O  -14.30200 22.63100 40.91900
C  -15.27000 20.60200 41.35500
N  -11.18900 16.59200 42.16500
C  -12.42600 17.09000 41.89900
C  -13.46000 15.92500 41.91300
C  -12.56000 14.67100 42.29100
C  -11.14800 15.23300 42.31700
C  -14.67100 16.22000 42.76800
C  -12.74300 13.50800 41.29500
C  -14.06700 12.68200 41.46200
N  -8.39200 16.27000 42.70600
C  -8.69200 14.91600 42.79800
C  -7.44100 14.15700 42.95200
C  -6.46400 15.07700 42.77300
C  -7.06500 16.38600 42.68200
C  -7.28200 12.72900 43.05600
C  -5.05200 15.22600 42.81800
O  -4.13600 14.47100 43.05500
C  -4.78300 16.73900 42.59700
C  -3.74300 17.19200 43.56100
O  -2.58300 17.27800 43.35600
O  -4.37300 17.54200 44.70700
C  -3.53400 18.25100 45.68900
H  -8.89300 22.52700 41.71900
H  -13.85500 18.46900 41.27800
H  -10.18500 13.39400 42.84600
H  -4.70900 20.06400 42.95300
H  -6.19200 21.84800 41.36600
H  -5.30000 21.82700 44.02600
H  -7.11000 22.42100 43.93200
H  -5.69900 23.17500 43.10900
H  -3.79200 19.28300 40.86400
H  -4.50500 20.86800 40.41200
H  -6.56500 19.72000 39.44100
H  -5.98900 18.17400 39.91400
H  -12.15800 23.42900 40.25800
H  -10.41100 23.50200 40.42200
H  -11.29900 23.92400 41.80700
H  -15.08500 19.80200 42.07200
H  -15.50500 20.08100 40.42700
H  -16.15300 21.20900 41.55400
H  -13.87200 15.83700 40.90800
H  -12.79800 14.31400 43.29400
H  -14.63600 17.24500 43.13500
H  -14.80700 15.47800 43.55500
H  -15.58100 16.06700 42.18700
H  -11.91300 12.81500 41.43000
H  -12.76400 13.89900 40.27800
H  -14.34100 13.02900 42.45800
H  -13.71300 11.65100 41.46900
H  -14.86900 12.93900 40.77000
H  -8.23600 12.28400 42.77200
H  -6.97900 12.47300 44.07200
H  -6.46200 12.50900 42.37300
H  -4.27700 16.85200 41.63800
H  -2.62800 17.69500 45.93200
H  -4.05700 18.31300 46.64300
H  -3.35300 19.30000 45.45400

