158

Mg -12.76400 38.97000 42.37400
C  -10.83500 35.99300 41.57600
C  -10.68900 40.70800 40.18500
C  -14.69800 41.59000 42.77400
C  -15.16000 36.80500 43.72400
N  -10.92000 38.39700 41.07400
C  -10.25600 37.18800 41.03600
C  -8.96000 37.36800 40.26300
C  -8.95900 38.92400 39.90700
C  -10.31000 39.34800 40.35800
C  -7.75200 39.75800 40.46100
C  -8.83100 36.41100 38.99500
C  -7.57400 35.52700 39.00000
H  -6.65500 35.56300 37.65800
N  -12.66100 40.94400 41.65000
C  -11.74300 41.46600 40.76300
C  -12.13500 42.85000 40.34200
C  -13.34400 43.14100 41.14400
C  -13.63300 41.89700 41.89500
C  -11.73200 43.71200 39.16700
C  -14.12900 44.42100 41.05200
O  -13.75600 45.45700 40.50300
C  -15.42100 44.62300 41.76200
N  -14.64300 39.21800 43.16200
C  -15.21500 40.43800 43.30800
C  -16.63100 40.30600 43.92200
C  -16.78400 38.77800 44.18300
C  -15.48600 38.20000 43.57800
C  -16.86400 41.19200 45.19100
C  -18.10600 38.15600 43.81200
C  -18.78900 37.07100 44.68800
N  -12.87800 36.78500 42.75800
C  -13.95800 36.09700 43.35500
C  -13.70300 34.74500 43.36500
C  -12.46800 34.63800 42.78200
C  -11.97200 35.95700 42.38500
C  -14.65100 33.67500 43.81000
C  -11.47400 33.64700 42.30900
O  -11.40200 32.46400 42.43500
C  -10.40000 34.46100 41.44800
C  -9.05400 34.28600 42.06300
O  -8.26500 33.43600 41.70200
O  -8.73400 35.25000 42.94100
C  -7.42300 35.13700 43.60000
H  -10.03500 41.40400 39.65600
H  -15.49900 42.30200 42.98600
H  -15.86300 36.02200 44.01500
H  -8.15000 37.17800 40.96700
H  -8.85100 39.05300 38.83000
H  -7.00200 39.68000 39.67400
H  -7.31400 39.23600 41.31200
H  -8.01300 40.79600 40.66800
H  -8.80600 36.96300 38.05600
H  -9.69600 35.75300 38.91900
H  -7.93600 34.50300 39.09200
H  -6.99400 35.66700 39.91200
H  -12.58300 43.65400 38.48700
H  -10.78300 43.39600 38.73400
H  -11.50600 44.75500 39.39100
H  -16.08000 43.85200 41.36300
H  -15.79500 45.57300 41.38000
H  -15.37400 44.59700 42.85100
H  -17.41600 40.64300 43.24500
H  -16.66600 38.44300 45.21300
H  -17.43500 42.05900 44.85900
H  -15.91100 41.50400 45.61800
H  -17.29500 40.67200 46.04700
H  -17.98800 37.73900 42.81200
H  -18.92500 38.87100 43.74400
H  -18.84800 36.10200 44.19300
H  -19.80300 37.32600 44.99800
H  -18.23500 36.86900 45.60500
H  -14.67500 33.68300 44.89900
H  -14.32500 32.73700 43.36100
H  -15.58700 33.81200 43.26900
H  -10.25900 34.19600 40.40000
H  -6.89700 36.09200 43.58700
H  -6.78000 34.33400 43.23900
H  -7.46800 34.82600 44.64300
Mg -12.63200 16.30500 42.79600
C  -9.38300 15.08100 42.18100
C  -11.88500 19.17200 41.23300
C  -16.06100 17.08000 42.44900
C  -13.65500 13.13100 43.95700
N  -10.82000 17.04300 41.88100
C  -9.54600 16.41900 41.85400
C  -8.45600 17.43700 41.34400
C  -9.29000 18.78100 41.31900
C  -10.74400 18.29900 41.51200
C  -9.01100 19.84300 42.32300
C  -7.88600 17.00600 39.97200
C  -6.33000 16.89800 39.77400
H  -5.79400 15.66400 39.11400
N  -13.86200 17.98500 41.99300
C  -13.23100 19.05700 41.48900
C  -14.24100 20.05000 41.19700
C  -15.48200 19.40800 41.40100
C  -15.16500 18.04800 41.89700
C  -14.02200 21.38400 40.59800
C  -16.83500 20.05200 41.15600
O  -16.91800 21.15100 40.61300
C  -18.12600 19.34600 41.49200
N  -14.64600 15.20100 43.13700
C  -15.82600 15.79000 42.96400
C  -16.95700 14.85500 43.36900
C  -16.21100 13.51000 43.90300
C  -14.79400 13.96100 43.70000
C  -18.04200 15.32900 44.30400
C  -16.65500 12.25800 43.12800
C  -15.74200 11.81400 41.98700
N  -11.77900 14.48300 43.08400
C  -12.26100 13.23800 43.53300
C  -11.18100 12.25600 43.65700
C  -10.10700 12.93400 43.03900
C  -10.46100 14.29800 42.76000
C  -11.28600 10.84900 44.29700
C  -8.68400 12.80800 42.67200
O  -7.95400 11.80100 42.84300
C  -8.17700 14.18800 42.08700
C  -7.14200 14.72900 43.09000
O  -7.30500 15.50900 43.99600
O  -5.95300 14.08600 42.81700
C  -4.78200 14.49300 43.58600
H  -11.53200 20.09700 40.77300
H  -17.12600 17.29700 42.34600
H  -13.73800 12.13300 44.39200
H  -7.56800 17.54400 41.96700
H  -8.96400 19.29900 40.41700
H  -8.06500 19.57000 42.79000
H  -9.76800 19.93400 43.10200
H  -9.06600 20.79300 41.79200
H  -8.20700 17.66900 39.16800
H  -8.36000 16.10700 39.57700
H  -5.84800 16.95100 40.75000
H  -5.88800 17.76100 39.27600
H  -14.34700 21.34900 39.55800
H  -12.95600 21.57000 40.72700
H  -14.59100 22.12100 41.16400
H  -19.04500 19.91500 41.35800
H  -17.99400 19.18700 42.56200
H  -18.07400 18.41900 40.92000
H  -17.50900 14.79300 42.43100
H  -16.41100 13.30800 44.95600
H  -17.66500 16.24400 44.76300
H  -18.38500 14.64300 45.07900
H  -18.94800 15.52800 43.73200
H  -17.63700 12.34500 42.66400
H  -16.67300 11.43200 43.83900
H  -15.15100 10.94500 42.27700
H  -15.01700 12.55900 41.66100
H  -16.38800 11.68900 41.11800
H  -11.63600 10.88900 45.32800
H  -10.29800 10.40300 44.18100
H  -12.07800 10.25600 43.84100
H  -7.75600 14.16100 41.08200
H  -4.34300 15.45000 43.30500
H  -3.98100 13.78800 43.35900
H  -5.05900 14.49800 44.64000

