158

Mg -2.19700 17.00400 26.35500
C  -2.44300 14.87500 28.96300
C  -3.40100 19.61300 28.43900
C  -2.13100 19.15700 23.75400
C  -1.98000 14.38200 24.15500
N  -2.69700 17.27100 28.53700
C  -2.73600 16.21900 29.39200
C  -3.07600 16.71100 30.76100
C  -3.62000 18.20500 30.56300
C  -3.29200 18.39700 29.08900
C  -5.13300 18.52700 30.77500
C  -1.86000 16.71300 31.71800
C  -2.08600 15.91000 33.03100
H  -2.71600 16.71000 34.18500
N  -2.53400 19.13200 26.13400
C  -2.92000 20.01900 27.10500
C  -2.73400 21.40200 26.61400
C  -2.25000 21.23800 25.30700
C  -2.34200 19.76800 24.98900
C  -3.01900 22.57500 27.45100
C  -1.76500 22.32900 24.42300
O  -1.52900 22.14300 23.20600
C  -1.49200 23.63900 25.01800
N  -2.16300 16.80500 24.22100
C  -2.05500 17.80900 23.41900
C  -1.96200 17.30900 21.97300
C  -2.02000 15.77700 22.07100
C  -1.95400 15.67200 23.56400
C  -3.14900 17.84100 21.06400
C  -0.89300 15.11100 21.31000
C  0.48200 15.31900 21.89300
N  -2.17800 15.01600 26.49000
C  -2.12900 14.06900 25.54300
C  -2.17900 12.72100 26.13400
C  -2.23700 12.98600 27.49800
C  -2.27100 14.38100 27.67100
C  -2.33300 11.47600 25.38200
C  -2.25900 12.35600 28.78400
O  -2.17000 11.18800 29.06700
C  -2.43900 13.54900 29.80400
C  -1.35200 13.36100 30.84800
O  -0.24500 13.80700 30.78800
O  -1.95800 12.59000 31.82700
C  -1.03200 11.96700 32.80300
H  -3.79600 20.45300 29.01300
H  -1.93900 19.77900 22.87700
H  -1.73200 13.51100 23.54400
H  -3.91800 16.11500 31.11300
H  -3.15200 18.97800 31.17300
H  -5.65500 17.70800 31.27000
H  -5.69300 18.76200 29.87000
H  -5.30700 19.37500 31.43600
H  -1.65700 17.73900 32.02600
H  -0.95000 16.46200 31.17200
H  -1.16900 15.59900 33.53100
H  -2.87900 15.22100 32.73800
H  -2.96800 22.29700 28.50400
H  -3.93600 23.15300 27.32800
H  -2.22000 23.31200 27.53500
H  -1.14000 24.31000 24.23500
H  -0.69200 23.58500 25.75600
H  -2.49400 23.97700 25.28400
H  -1.03500 17.66600 21.52400
H  -2.97000 15.40500 21.68900
H  -3.85300 18.47300 21.60500
H  -3.74800 17.04700 20.61800
H  -2.83700 18.48300 20.24100
H  -0.88100 15.59400 20.33300
H  -1.01700 14.03700 21.17500
H  1.18000 15.92000 21.31000
H  0.88600 14.31000 21.81000
H  0.44000 15.68700 22.91800
H  -2.05500 10.57300 25.92600
H  -2.02200 11.59100 24.34300
H  -3.42100 11.40300 25.37800
H  -3.38700 13.28600 30.27400
H  -0.34800 11.39200 32.17900
H  -1.60900 11.23600 33.36800
H  -0.47700 12.67700 33.41700
Mg 9.01400 47.03700 25.78300
C  7.14200 47.02500 28.64200
C  11.62800 48.39200 27.43400
C  10.78100 47.28500 22.82600
C  6.14000 46.40200 23.86300
N  9.37600 47.53600 27.93100
C  8.46600 47.41500 28.87700
C  9.04600 47.92100 30.11600
C  10.27800 48.78500 29.67200
C  10.48900 48.16900 28.27300
C  9.98200 50.31300 29.54400
C  9.31300 46.70100 31.06900
C  8.82000 46.96700 32.52200
H  9.03500 45.93400 33.55400
N  10.94400 47.43400 25.29900
C  11.91100 47.94600 26.17900
C  13.18500 48.08100 25.41100
C  12.92100 47.70700 24.08700
C  11.49800 47.47700 23.98500
C  14.45800 48.61100 26.10500
C  13.89600 47.68200 22.92100
O  13.60300 47.51800 21.70800
C  15.37700 47.74500 23.26100
N  8.47700 47.03700 23.55700
C  9.40900 47.07400 22.58300
C  8.80500 46.76600 21.24100
C  7.24100 46.67900 21.55400
C  7.26100 46.65000 23.10500
C  9.29000 47.86500 20.20700
C  6.63300 45.43700 20.93000
C  5.30300 45.76600 20.26700
N  7.09000 46.71700 26.14000
C  6.01300 46.45800 25.29600
C  4.80700 46.31600 26.01600
C  5.21500 46.51900 27.36400
C  6.56900 46.74900 27.39000
C  3.43700 45.94600 25.49800
C  4.75000 46.55900 28.71100
O  3.64100 46.34900 29.23900
C  6.00100 46.84000 29.63800
C  6.23100 45.69200 30.52000
O  6.89700 44.67400 30.26800
O  5.53000 45.93900 31.62400
C  5.60900 44.82500 32.61900
H  12.31100 48.91200 28.10900
H  11.37000 47.16800 21.91400
H  5.24100 46.21200 23.27300
H  8.29500 48.56800 30.56800
H  11.19300 48.61400 30.23900
H  9.69200 50.53200 28.51600
H  10.85200 50.95600 29.66800
H  9.18700 50.55700 30.24900
H  10.37600 46.58200 31.28000
H  8.85300 45.79200 30.68100
H  7.75700 47.20700 32.53800
H  9.17000 47.89800 32.96900
H  15.21800 47.83100 26.08900
H  14.24800 48.88400 27.14000
H  14.69000 49.57400 25.65100
H  15.56000 48.75700 23.62400
H  15.92600 47.47500 22.35900
H  15.64700 47.08000 24.08200
H  9.38700 45.86100 21.06300
H  6.71800 47.59900 21.29500
H  8.58000 48.09100 19.41200
H  10.26700 47.53100 19.85800
H  9.48500 48.73400 20.83600
H  6.59300 44.63800 21.67000
H  7.36300 45.06500 20.21100
H  5.46300 46.30400 19.33300
H  4.65700 46.25700 20.99500
H  4.89200 44.80300 19.96600
H  3.45700 45.41800 24.54500
H  2.67700 46.72600 25.51200
H  3.01600 45.27100 26.24400
H  5.85000 47.75700 30.20800
H  5.94600 45.19400 33.58700
H  6.35900 44.07100 32.37900
H  4.71200 44.21100 32.54400

