158

Mg 47.27700 16.60900 28.14500
C  45.48700 16.25100 31.15400
C  49.83700 18.02300 29.81100
C  48.75800 17.03600 25.21300
C  44.56100 15.11700 26.48900
N  47.60100 17.11300 30.23500
C  46.71400 16.98600 31.29900
C  47.26700 17.74700 32.55800
C  48.66400 18.13100 32.08400
C  48.78300 17.65700 30.60000
C  48.99000 19.62400 32.21200
C  47.15700 16.93400 33.85300
C  46.78900 17.72000 35.17400
H  46.98100 19.26100 35.21300
N  48.98400 17.61100 27.55500
C  49.92600 18.05700 28.39800
C  51.12700 18.51900 27.67400
C  50.86400 18.22200 26.24400
C  49.51800 17.60300 26.28800
C  52.39300 19.02600 28.27500
C  51.70400 18.48000 25.03800
O  51.33500 18.37600 23.88000
C  53.11900 18.95000 25.28400
N  46.62300 16.38300 26.17400
C  47.50600 16.54500 25.18100
C  46.99200 16.03400 23.76500
C  45.71000 15.32500 24.22900
C  45.63000 15.57900 25.70700
C  46.85600 17.24700 22.83600
C  45.75200 13.74300 24.00400
C  44.89700 13.16600 22.82300
N  45.43100 15.90400 28.65800
C  44.40600 15.32900 27.86100
C  43.27600 14.84500 28.67500
C  43.64600 15.23600 29.97800
C  44.95800 15.80000 29.93100
C  42.07000 14.15000 28.28500
C  43.16300 15.36600 31.36400
O  42.07800 15.09400 31.86600
C  44.39100 16.01800 32.15800
C  43.83300 17.22100 32.79000
O  43.88600 18.33700 32.36000
O  43.40000 16.85100 34.02300
C  42.91800 17.88100 34.98900
H  50.64400 18.51700 30.35600
H  49.26400 17.13000 24.25000
H  43.72900 14.64400 25.96200
H  46.63400 18.61500 32.74000
H  49.38600 17.55300 32.66100
H  48.89900 20.16700 31.27200
H  50.04500 19.61100 32.48500
H  48.51900 20.09100 33.07800
H  48.14700 16.55600 34.10800
H  46.46100 16.09600 33.80500
H  47.32400 17.26000 36.00500
H  45.74900 17.62600 35.48700
H  52.64000 19.97800 27.80500
H  53.17900 18.27000 28.29400
H  52.15800 19.27200 29.31100
H  53.72400 18.35000 25.96300
H  52.97700 19.98900 25.58200
H  53.56300 18.94300 24.28900
H  47.81000 15.43100 23.37300
H  44.82600 15.65700 23.68400
H  45.78800 17.39000 22.67100
H  47.46000 17.18700 21.93000
H  47.04400 18.14600 23.42400
H  45.63700 13.30300 24.99500
H  46.74500 13.54500 23.60200
H  45.44900 13.28400 21.89100
H  44.07400 13.87100 22.70300
H  44.49900 12.15600 22.92400
H  42.36000 13.44700 27.50500
H  41.17700 14.75400 28.12500
H  41.71800 13.58800 29.15000
H  44.66400 15.26200 32.89500
H  41.83600 17.98800 34.92500
H  43.20100 18.86900 34.62700
H  43.21800 17.85600 36.03600
Mg -11.81700 37.75000 42.11300
C  -9.88600 34.98700 41.00400
C  -9.27200 39.78800 40.98700
C  -13.97200 40.41700 42.46000
C  -14.42600 35.58100 42.93900
N  -9.75700 37.40500 41.01700
C  -9.27800 36.20600 40.62800
C  -7.97600 36.34000 39.78500
C  -7.77400 37.92300 39.84000
C  -8.98600 38.38300 40.64800
C  -6.41300 38.42400 40.18800
C  -8.05200 35.73500 38.37300
C  -6.95000 34.77500 37.84900
H  -5.78100 35.42500 37.07600
N  -11.67200 39.75000 41.73700
C  -10.51300 40.38200 41.29100
C  -10.84700 41.81500 41.12600
C  -12.25400 41.99100 41.38100
C  -12.71500 40.63700 41.88200
C  -9.76100 42.75700 40.60500
C  -13.03800 43.32100 41.15700
O  -12.39600 44.29400 40.76200
C  -14.53200 43.42600 41.30900
N  -13.97300 38.00500 42.40900
C  -14.52000 39.16500 42.73000
C  -15.91000 39.01100 43.27600
C  -16.10200 37.45400 43.37800
C  -14.73000 36.97500 42.90300
C  -16.12200 39.76100 44.55500
C  -17.21500 36.73000 42.50300
C  -18.23000 36.02300 43.35200
N  -12.15800 35.65200 42.00200
C  -13.30000 34.96000 42.39000
C  -12.99600 33.47200 42.20600
C  -11.67600 33.42300 41.62800
C  -11.22500 34.77600 41.53900
C  -13.88600 32.30500 42.66200
C  -10.54800 32.59000 41.10800
O  -10.50300 31.35800 41.06000
C  -9.40600 33.58200 40.66700
C  -8.05600 33.20800 41.23800
O  -7.36100 32.30600 40.86000
O  -7.62800 33.98300 42.29900
C  -6.36000 33.59600 43.07600
H  -8.53100 40.53400 40.69200
H  -14.71300 41.17700 42.71600
H  -15.26100 35.05000 43.40200
H  -7.08400 35.89100 40.22100
H  -7.97200 38.26300 38.82300
H  -5.62800 37.70800 39.94300
H  -6.40800 38.48300 41.27600
H  -6.17400 39.34000 39.64800
H  -7.96100 36.55700 37.66300
H  -9.06700 35.39900 38.16100
H  -7.52600 34.16600 37.15200
H  -6.45800 34.19400 38.62900
H  -9.18400 42.24900 39.83300
H  -9.14600 42.98800 41.47500
H  -10.14300 43.67900 40.16800
H  -15.08600 42.72400 40.68500
H  -14.81300 44.46100 41.11200
H  -14.93200 43.28100 42.31200
H  -16.64800 39.40100 42.57600
H  -16.26200 37.15100 44.41300
H  -15.14600 40.07700 44.92400
H  -16.45800 39.21800 45.43800
H  -16.68000 40.68600 44.40700
H  -16.81900 36.04400 41.75400
H  -17.73200 37.46900 41.89000
H  -19.07800 36.67200 43.56900
H  -17.85600 35.67200 44.31400
H  -18.62900 35.29600 42.64500
H  -14.36800 32.01100 41.72900
H  -14.75600 32.52800 43.28000
H  -13.29400 31.50100 43.09900
H  -9.40900 33.61100 39.57700
H  -6.06700 32.55700 42.92000
H  -6.50000 33.67200 44.15400
H  -5.53000 34.22700 42.75900

