158

Mg 36.00200 49.89300 25.84600
C  36.46200 48.05500 28.80800
C  35.11200 52.50400 27.64500
C  35.24000 51.22800 22.86700
C  37.15400 46.89800 24.03600
N  35.66700 50.09500 27.96500
C  35.92200 49.33000 29.02800
C  35.58300 49.93000 30.40100
C  35.03400 51.33700 29.90400
C  35.28000 51.32200 28.40200
C  33.60600 51.68800 30.33000
C  36.80400 50.03700 31.36500
C  36.65800 49.73100 32.86900
H  35.31600 49.50900 33.54100
N  35.32600 51.62600 25.34400
C  35.09800 52.67300 26.22200
C  34.80100 53.81500 25.44400
C  34.74200 53.45800 24.07700
C  35.04500 52.01500 24.06500
C  34.67300 55.14900 26.12900
C  34.51400 54.31500 22.85900
O  34.47000 53.84900 21.71500
C  34.32700 55.77900 22.86200
N  36.08800 49.12600 23.73400
C  35.78000 49.97300 22.74100
C  36.11500 49.33300 21.38600
C  37.08500 48.15700 21.76900
C  36.71900 47.97800 23.25300
C  34.81700 48.90400 20.64300
C  38.63500 48.54200 21.63900
C  39.63600 47.34700 21.76500
N  36.73500 47.90600 26.24500
C  37.14600 46.82500 25.44500
C  37.60000 45.76100 26.29000
C  37.30900 46.21200 27.59500
C  36.80700 47.50300 27.52000
C  38.30300 44.48400 25.88400
C  37.34900 45.77200 29.00600
O  37.60100 44.67100 29.54500
C  36.82000 47.00200 29.85700
C  35.70600 46.57500 30.69400
O  34.57600 46.33200 30.32100
O  36.15600 46.18600 31.95900
C  35.15300 45.52900 32.84700
H  34.92900 53.37600 28.27500
H  35.11000 51.71700 21.89900
H  37.61700 46.10000 23.45100
H  34.81400 49.29700 30.84400
H  35.67600 52.13700 30.27300
H  33.16800 50.84300 30.86100
H  32.99600 51.65900 29.42800
H  33.55300 52.67500 30.79100
H  37.27100 51.01300 31.23900
H  37.57300 49.36800 30.97800
H  37.14100 50.53800 33.42000
H  37.27500 48.87100 33.12900
H  35.53400 55.78800 25.93000
H  34.53300 55.14200 27.21000
H  33.73800 55.62800 25.84000
H  34.83600 56.22500 23.71700
H  33.26500 55.96200 23.02300
H  34.74100 56.18100 21.93700
H  36.52600 50.13800 20.77600
H  36.82900 47.21100 21.29300
H  34.78100 49.51300 19.74000
H  33.92800 49.31100 21.12500
H  34.71700 47.88400 20.27300
H  38.80800 49.25200 22.44800
H  38.81400 49.06900 20.70100
H  39.03000 46.47100 21.53300
H  40.20300 47.43300 22.69200
H  40.26600 47.60900 20.91500
H  38.99600 44.66100 25.06100
H  37.58500 43.73400 25.55200
H  38.88800 44.09700 26.71900
H  37.53100 47.38400 30.58900
H  34.82300 44.56500 32.46100
H  34.23400 46.07600 33.05700
H  35.51100 45.37100 33.86400
Mg 9.12800 48.17400 26.75500
C  6.89200 47.87400 29.48000
C  11.44500 49.22800 28.90900
C  11.05900 48.57700 24.17300
C  6.26400 47.89400 24.56700
N  8.99700 48.83500 28.98500
C  8.12000 48.33000 29.87100
C  8.60200 48.67600 31.32800
C  10.10000 49.04200 31.09900
C  10.18500 49.01500 29.57300
C  10.61100 50.38600 31.71200
C  8.23700 47.57600 32.40200
C  8.93800 47.72900 33.78900
H  8.65500 46.69800 34.92200
N  11.06500 48.69900 26.57500
C  11.84900 49.09600 27.57900
C  13.14300 49.42300 27.02800
C  13.06500 49.16000 25.63200
C  11.71100 48.72300 25.41300
C  14.34400 50.07600 27.81400
C  14.22500 49.19100 24.63600
O  14.12100 48.97900 23.49900
C  15.61000 49.58800 25.19600
N  8.66200 48.12600 24.61500
C  9.71900 48.33900 23.78800
C  9.26800 48.24100 22.29300
C  7.76100 47.86600 22.32700
C  7.51600 47.96200 23.88500
C  9.61900 49.45900 21.31500
C  7.38800 46.40600 21.85900
C  6.70100 46.26700 20.48400
N  7.03600 47.87500 26.91800
C  6.08000 47.76600 25.92600
C  4.85700 47.47800 26.60200
C  5.08500 47.47700 27.92000
C  6.45100 47.75600 28.12700
C  3.57900 47.15000 25.92600
C  4.49700 47.38300 29.21000
O  3.32600 47.29700 29.58700
C  5.63000 47.40300 30.26000
C  5.73200 46.09700 30.87500
O  6.53800 45.23200 30.49600
O  4.97400 46.07300 32.03700
C  5.29200 44.86200 32.93400
H  12.24200 49.30300 29.65200
H  11.74900 48.81400 23.36100
H  5.48800 47.77800 23.80800
H  8.17800 49.64900 31.57800
H  10.73500 48.23600 31.46700
H  10.93200 51.17900 31.03700
H  11.44600 49.99600 32.29500
H  9.95800 50.83100 32.46300
H  8.41100 46.59600 31.95600
H  7.18900 47.79400 32.60800
H  8.62700 48.66700 34.25000
H  10.01100 47.57800 33.66900
H  15.26500 49.51700 27.65000
H  14.09600 50.29000 28.85400
H  14.42000 51.05000 27.33200
H  16.10900 48.94700 25.92200
H  15.60800 50.66600 25.35900
H  16.21700 49.43500 24.30400
H  9.75200 47.33100 21.93800
H  7.04800 48.52300 21.82900
H  8.74600 49.87400 20.81000
H  10.39700 49.17500 20.60700
H  10.01400 50.30700 21.87300
H  6.65100 46.02700 22.56800
H  8.25700 45.74900 21.84600
H  7.22100 45.70000 19.71200
H  6.41100 47.15900 19.92800
H  5.84900 45.63200 20.72900
H  2.92100 47.98900 26.15000
H  3.14500 46.33500 26.50500
H  3.57800 46.89200 24.86700
H  5.49700 48.11100 31.07900
H  5.61500 45.31900 33.87000
H  6.13600 44.22600 32.66800
H  4.37300 44.33700 33.19200

