158

Mg 46.88400 24.94300 28.68700
C  47.79500 27.15400 31.12900
C  45.71400 22.70400 31.02200
C  46.23000 22.66600 26.09400
C  48.31200 27.06900 26.22600
N  46.81500 24.93400 30.83800
C  47.07800 26.02800 31.63400
C  46.74900 25.79100 33.15100
C  46.34300 24.25400 33.07200
C  46.32200 23.85900 31.57300
C  47.20800 23.28800 33.92400
C  45.61100 26.72600 33.59600
C  45.78500 27.43300 34.86000
H  46.13600 26.67600 36.13300
N  46.12300 22.98600 28.54500
C  45.63800 22.28600 29.69900
C  45.03200 21.07800 29.18400
C  45.14700 21.04200 27.75200
C  45.87000 22.28600 27.37700
C  44.36600 20.00900 30.07600
C  44.70800 20.09600 26.74500
O  44.84600 20.21700 25.52800
C  43.98400 18.93900 27.26500
N  47.29200 24.76700 26.55700
C  46.92100 23.77900 25.72900
C  47.29700 24.05300 24.20100
C  47.53800 25.67200 24.33100
C  47.69300 25.86300 25.81400
C  48.61700 23.33800 23.64400
C  46.41300 26.62700 23.75500
C  46.95400 27.79100 22.85100
N  47.89700 26.78400 28.65700
C  48.40500 27.49900 27.57800
C  49.01000 28.77800 28.09600
C  48.80900 28.60400 29.46600
C  48.07900 27.41900 29.76000
C  49.65500 29.84400 27.29100
C  49.05200 29.22300 30.73600
O  49.63100 30.25500 31.06000
C  48.32500 28.37500 31.88700
C  49.41100 27.96200 32.87500
O  50.04500 26.90000 32.92800
O  49.56500 28.95300 33.79100
C  50.68000 28.72500 34.72600
H  45.22900 22.07200 31.76900
H  46.05800 22.05100 25.20800
H  48.67100 27.75900 25.46000
H  47.62700 25.88300 33.79100
H  45.32300 24.03400 33.38800
H  47.72400 22.57500 33.28100
H  46.49900 22.68600 34.49200
H  47.93700 23.82000 34.53600
H  44.70300 26.15100 33.78100
H  45.43300 27.37400 32.73800
H  44.81300 27.90500 35.00100
H  46.30300 28.38700 34.76500
H  43.29400 19.92800 29.89200
H  44.55900 20.15600 31.13900
H  44.84500 19.03000 30.04800
H  43.11500 19.19300 27.87300
H  44.73300 18.29000 27.71800
H  43.56900 18.41500 26.40400
H  46.42200 23.91400 23.56700
H  48.50000 25.92300 23.88600
H  48.35100 22.67900 22.81800
H  48.92400 22.58500 24.37000
H  49.45900 23.96500 23.35100
H  45.87500 27.02700 24.61400
H  45.74800 26.00100 23.16100
H  46.43400 27.75000 21.89400
H  48.03900 27.72400 22.78000
H  46.71100 28.71200 23.38100
H  50.10400 29.50200 26.35900
H  50.44400 30.27200 27.90900
H  48.97300 30.64200 26.99400
H  47.60500 29.11600 32.23300
H  50.31000 28.00100 35.45200
H  50.95000 29.65600 35.22500
H  51.60600 28.33100 34.30500
Mg -5.74500 25.35000 25.67600
C  -4.29700 26.70500 28.47800
C  -7.51500 23.21900 27.91700
C  -7.17000 24.02300 23.05000
C  -3.81900 27.45700 23.67600
N  -5.89700 25.03700 27.92200
C  -5.25300 25.78200 28.83000
C  -5.72200 25.50500 30.27200
C  -6.55500 24.22900 30.03000
C  -6.77500 24.15300 28.56400
C  -5.86600 22.97500 30.64300
C  -6.52800 26.65800 30.97600
C  -6.10900 26.90800 32.43300
H  -6.01000 25.70300 33.38700
N  -7.07800 23.75300 25.53300
C  -7.65800 23.00100 26.50800
C  -8.54200 22.04000 25.84700
C  -8.53900 22.32400 24.42600
C  -7.60400 23.41000 24.28800
C  -9.42900 21.07900 26.64500
C  -9.18500 21.51200 23.25400
O  -9.11400 21.83700 22.07600
C  -10.00900 20.27000 23.47000
N  -5.37800 25.56300 23.68800
C  -6.22400 24.99500 22.73600
C  -6.02600 25.53600 21.39900
C  -5.09300 26.76800 21.63300
C  -4.79300 26.65300 23.12600
C  -5.45900 24.45100 20.38100
C  -5.70300 28.13700 21.17200
C  -4.86400 28.88700 20.13600
N  -4.30900 26.77600 25.98000
C  -3.57100 27.57800 25.06800
C  -2.56500 28.39300 25.78500
C  -2.88300 28.08600 27.12700
C  -3.94000 27.10700 27.15000
C  -1.61400 29.41700 25.28500
C  -2.59500 28.49300 28.48500
O  -1.69100 29.20300 28.91400
C  -3.46700 27.58900 29.39100
C  -2.58400 26.87400 30.26600
O  -1.83600 25.94500 30.00800
O  -2.62700 27.45200 31.51300
C  -1.73900 26.79500 32.54500
H  -8.14000 22.56600 28.52900
H  -7.75900 23.71300 22.18400
H  -3.41900 28.22600 23.01200
H  -4.82400 25.23800 30.82900
H  -7.56500 24.27500 30.43600
H  -4.99600 23.28600 31.22200
H  -5.65500 22.31900 29.79800
H  -6.59100 22.52200 31.32000
H  -7.60900 26.52400 30.94100
H  -6.38000 27.61500 30.47600
H  -6.87900 27.63200 32.70000
H  -5.15700 27.43500 32.36300
H  -10.47800 21.34800 26.52300
H  -9.28300 21.20800 27.71800
H  -9.16500 20.06200 26.35800
H  -9.43800 19.39600 23.78400
H  -10.23500 20.03300 22.43100
H  -10.82000 20.36100 24.19200
H  -7.02600 25.81700 21.06800
H  -4.08100 26.67100 21.24100
H  -5.98100 24.47200 19.42400
H  -5.31300 23.43000 20.73200
H  -4.45600 24.78400 20.11400
H  -5.79900 28.72700 22.08300
H  -6.70400 28.04100 20.75300
H  -4.91000 29.97000 20.25400
H  -5.34300 28.68300 19.17800
H  -3.82700 28.56200 20.05700
H  -2.04000 30.41900 25.25100
H  -1.38900 29.04300 24.28500
H  -0.76500 29.38900 25.96800
H  -4.12400 28.22200 29.98700
H  -1.90600 27.32100 33.48500
H  -0.66500 26.89600 32.38300
H  -2.09500 25.76500 32.56200

