158

Mg 25.64700 1.82200 29.94400
C  27.81100 1.63800 32.84800
C  23.06200 2.16200 32.14300
C  23.72600 1.64100 27.37100
C  28.49700 1.38700 28.03200
N  25.48800 1.88700 32.22700
C  26.49200 1.93500 33.14800
C  25.94400 2.26300 34.58300
C  24.39800 2.23200 34.41300
C  24.30200 2.13200 32.84800
C  23.54200 1.20900 35.19000
C  26.55800 3.62600 35.17100
C  27.20100 3.46600 36.59300
H  26.64300 4.38300 37.64900
N  23.64400 1.88900 29.72900
C  22.71000 2.00300 30.76700
C  21.39500 1.95300 30.23600
C  21.52500 1.76000 28.81400
C  23.00300 1.73700 28.55700
C  20.17300 2.24000 31.09800
C  20.42500 1.54200 27.74700
O  20.88500 1.22400 26.65000
C  18.89300 1.61000 27.95400
N  26.03100 1.47000 27.98700
C  25.05900 1.51700 27.07000
C  25.60800 1.45800 25.68800
C  27.17600 1.45600 25.86400
C  27.25600 1.42600 27.34300
C  25.05100 0.33600 24.80200
C  27.91300 2.68300 25.17900
C  27.46400 2.92900 23.76300
N  27.80000 1.51200 30.29800
C  28.81000 1.28200 29.42400
C  30.08900 1.01100 30.13000
C  29.71000 1.23700 31.50400
C  28.36100 1.48300 31.56500
C  31.36200 0.59400 29.45400
C  30.26600 1.28800 32.76200
O  31.41400 1.01800 33.12700
C  29.12700 1.50900 33.71600
C  29.06600 0.36200 34.64700
O  28.25300 -0.54000 34.49200
O  29.86700 0.53900 35.77000
C  29.52300 -0.34500 36.92800
H  22.31000 2.48300 32.86700
H  23.12500 1.71000 26.46200
H  29.33800 1.38800 27.33500
H  26.31300 1.43800 35.19200
H  23.98900 3.22800 34.58400
H  23.28100 0.40900 34.49700
H  22.70200 1.66100 35.71600
H  23.98200 0.71900 36.05800
H  25.80000 4.40700 35.23500
H  27.29600 4.07100 34.50500
H  28.26100 3.67200 36.74000
H  26.88100 2.48800 36.95500
H  19.82900 1.45000 31.76600
H  19.41100 2.41000 30.33800
H  20.15800 3.15700 31.68700
H  18.35800 1.17000 27.11200
H  18.69400 2.67900 28.03000
H  18.53900 1.15100 28.87800
H  25.20900 2.35800 25.22000
H  27.53900 0.52900 25.41900
H  24.38800 -0.34100 25.34000
H  25.77800 -0.40100 24.46300
H  24.46200 0.76100 23.98800
H  28.99600 2.58100 25.10900
H  27.62300 3.48800 25.85500
H  26.89600 2.12300 23.29900
H  28.24500 3.12000 23.02800
H  26.76100 3.76000 23.82200
H  32.09100 1.39600 29.56400
H  31.11900 0.46600 28.39900
H  31.65500 -0.34100 29.93300
H  29.29800 2.39700 34.32500
H  28.67000 0.10500 37.43600
H  30.34600 -0.32600 37.64300
H  29.30500 -1.35300 36.57700
Mg 10.20100 48.68300 26.44800
C  8.34900 48.44000 29.43200
C  12.77300 50.12500 28.21800
C  11.84900 48.66600 23.51000
C  7.20200 47.66400 24.65900
N  10.48200 49.28500 28.56800
C  9.67200 48.91900 29.61700
C  10.28000 49.42700 30.95300
C  11.53200 50.28200 30.54100
C  11.60800 49.93600 29.03500
C  11.37800 51.84700 30.90100
C  10.62900 48.21200 31.91600
C  9.78500 48.12500 33.22900
H  10.21600 49.01200 34.47600
N  12.15400 49.34100 25.99100
C  13.03400 49.84900 26.84100
C  14.20100 50.09900 26.04600
C  14.04600 49.53700 24.70900
C  12.64600 49.12600 24.69900
C  15.43200 50.80400 26.59400
C  14.93800 49.47700 23.43200
O  14.58400 49.05200 22.33800
C  16.33300 49.94600 23.51500
N  9.49800 48.36400 24.30400
C  10.47200 48.38100 23.35700
C  9.87500 47.93600 21.99000
C  8.51400 47.37900 22.45700
C  8.35900 47.83300 23.83900
C  9.82800 49.01200 20.86700
C  8.42900 45.90100 22.25100
C  9.53000 45.09700 23.03400
N  8.21700 48.27400 26.89200
C  7.12000 47.89100 26.08700
C  5.99700 47.60400 26.89500
C  6.42000 47.81100 28.18000
C  7.76300 48.16700 28.15400
C  4.62600 47.21400 26.45600
C  5.96600 47.78500 29.53100
O  4.81300 47.46700 29.93700
C  7.22800 48.19700 30.46200
C  7.51100 47.01200 31.33700
O  8.17500 46.05300 31.04000
O  6.78400 47.11000 32.51500
C  6.95100 46.05300 33.54400
H  13.67800 50.50600 28.69700
H  12.26000 48.55300 22.50500
H  6.35700 47.14700 24.20000
H  9.54100 50.07900 31.41900
H  12.42300 49.82400 30.97000
H  11.42500 52.46200 30.00200
H  12.30300 52.09600 31.42100
H  10.63400 52.15000 31.63800
H  11.68300 48.27900 32.18900
H  10.47000 47.28200 31.37100
H  9.75900 47.07100 33.50400
H  8.75600 48.40500 33.00500
H  16.26500 50.10100 26.57900
H  15.33500 51.10200 27.63800
H  15.67700 51.71900 26.05500
H  16.70200 50.05100 24.53500
H  16.28800 50.88200 22.95800
H  16.88700 49.13200 23.04800
H  10.52400 47.15800 21.58800
H  7.67700 47.79200 21.89400
H  8.88500 49.54500 20.74400
H  10.14700 48.60700 19.90700
H  10.66900 49.68600 21.03300
H  8.50800 45.70500 21.18200
H  7.47000 45.50100 22.57800
H  10.19100 45.64300 23.70700
H  10.04300 44.47000 22.30400
H  8.97900 44.52200 23.77800
H  3.89400 47.38800 27.24400
H  4.63900 46.16300 26.16700
H  4.32400 47.80900 25.59400
H  7.13100 49.10100 31.06300
H  7.70700 45.28400 33.38800
H  6.06800 45.46200 33.29800
H  6.92700 46.43800 34.56300

