158

Mg 46.95000 15.95100 29.16900
C  44.87300 15.80200 32.15900
C  49.24500 17.85400 30.94200
C  48.49900 16.68100 26.32000
C  44.22700 14.76300 27.52100
N  47.03200 16.62200 31.26400
C  46.13600 16.40300 32.32000
C  46.75400 16.84000 33.63300
C  47.93600 17.73200 33.16000
C  48.08200 17.45500 31.65300
C  47.61500 19.26600 33.51000
C  47.05300 15.55500 34.45000
C  46.61400 15.48100 35.91000
H  46.19800 16.83800 36.47800
N  48.73500 16.94800 28.70800
C  49.54900 17.59700 29.62000
C  50.80200 17.91000 28.88000
C  50.58000 17.58500 27.50600
C  49.27900 17.00400 27.41200
C  52.09300 18.34400 29.62200
C  51.50100 17.77300 26.36900
O  51.17100 17.44500 25.25300
C  52.79500 18.52800 26.48600
N  46.39000 15.92900 27.23500
C  47.17500 16.21200 26.18400
C  46.54800 15.83900 24.83800
C  45.52000 14.82400 25.30100
C  45.30700 15.22300 26.80600
C  45.95100 16.88400 23.91600
C  45.96300 13.28600 25.09900
C  44.81500 12.63100 24.12800
N  44.99600 15.36500 29.70400
C  44.03300 14.85500 28.86500
C  42.90700 14.37300 29.62500
C  43.14700 14.75200 30.94200
C  44.40200 15.36700 30.91200
C  41.73300 13.53900 29.19200
C  42.54500 14.78600 32.30700
O  41.47000 14.36000 32.68600
C  43.73400 15.39900 33.18400
C  43.14300 16.60100 33.91600
O  43.37800 17.75900 33.60000
O  42.36800 16.17100 34.94100
C  41.71700 17.15900 35.78900
H  49.95300 18.48600 31.48200
H  48.87500 16.89900 25.31800
H  43.42300 14.21700 27.02300
H  45.91400 17.35300 34.10300
H  48.80400 17.42300 33.74100
H  46.81300 19.31300 34.24700
H  47.27900 19.71600 32.57600
H  48.54200 19.75400 33.81200
H  48.07500 15.26800 34.20100
H  46.50100 14.71200 34.03500
H  47.50200 15.12500 36.43200
H  45.79800 14.78500 36.10900
H  52.93400 18.09100 28.97700
H  52.09000 17.85100 30.59400
H  52.04800 19.39300 29.91600
H  53.14700 18.80400 25.49200
H  53.49200 17.88300 27.02100
H  52.73500 19.43100 27.09400
H  47.33100 15.34600 24.26100
H  44.52800 14.97400 24.87600
H  46.10500 17.88000 24.33100
H  44.91500 16.68700 23.63900
H  46.58000 16.70300 23.04400
H  46.05300 12.87600 26.10500
H  46.90700 13.06800 24.59900
H  45.21100 11.77100 23.58800
H  44.45600 13.29400 23.34200
H  44.00300 12.18800 24.70400
H  41.27400 13.24700 30.13700
H  42.06700 12.69300 28.59100
H  41.05600 14.17000 28.61700
H  44.00600 14.56700 33.83300
H  42.22000 18.12600 35.78100
H  41.85000 16.71600 36.77600
H  40.64200 17.33800 35.76000
Mg -0.04300 43.76600 26.06700
C  2.09500 43.15500 28.79800
C  -2.65500 42.75700 28.09900
C  -2.07800 43.98600 23.39600
C  2.83800 44.02300 24.05100
N  -0.23900 42.95000 28.17200
C  0.76200 42.92100 29.10400
C  0.19000 42.72800 30.54700
C  -1.31000 42.27700 30.19100
C  -1.40700 42.60800 28.71500
C  -1.63500 40.75600 30.58500
C  0.28700 44.05900 31.33600
C  0.49100 43.98900 32.88200
H  0.39100 42.62300 33.64100
N  -2.12500 43.57800 25.82600
C  -3.05100 43.20100 26.79000
C  -4.41800 43.32800 26.28800
C  -4.22100 43.62400 24.90900
C  -2.72700 43.69900 24.63500
C  -5.67700 43.20800 27.07900
C  -5.31300 43.88100 23.87700
O  -4.97200 44.03700 22.68700
C  -6.79500 43.92200 24.23000
N  0.29400 43.89800 23.99600
C  -0.70500 44.08400 23.11800
C  -0.10200 44.37600 21.71300
C  1.41400 44.56000 22.00700
C  1.55900 44.13600 23.43500
C  -0.49700 43.26000 20.68000
C  1.98200 45.99400 21.82500
C  1.83100 46.99000 22.97300
N  2.07700 43.55800 26.34800
C  3.08900 43.76400 25.40700
C  4.40300 43.75200 26.09100
C  4.08700 43.53400 27.44200
C  2.65200 43.36900 27.52000
C  5.77300 44.00700 25.49100
C  4.60000 43.44300 28.77500
O  5.80300 43.49700 29.14700
C  3.31500 43.24800 29.73800
C  3.63200 42.01900 30.44500
O  3.54500 40.91400 29.99600
O  3.76800 42.22800 31.79600
C  4.12300 41.07300 32.60300
H  -3.46000 42.54600 28.80500
H  -2.83700 44.13100 22.62400
H  3.67700 44.07400 23.35500
H  0.67700 41.84100 30.95300
H  -2.07300 42.96600 30.55500
H  -1.21300 40.16100 29.77500
H  -2.71000 40.66700 30.42900
H  -1.33900 40.37300 31.56200
H  -0.64400 44.58000 31.11200
H  1.05100 44.62400 30.80300
H  -0.26200 44.68200 33.25700
H  1.40000 44.52000 33.16600
H  -5.48300 42.65700 28.00000
H  -6.48200 42.67000 26.57900
H  -6.08600 44.15800 27.42200
H  -7.18400 44.23000 23.26000
H  -7.03300 44.62600 25.02800
H  -7.08100 42.90800 24.50800
H  -0.47600 45.36200 21.43600
H  1.95300 43.85100 21.38000
H  0.38600 43.04700 20.07800
H  -1.20700 43.71800 19.99200
H  -0.83800 42.33600 21.14600
H  1.40300 46.51300 21.06000
H  3.04400 45.98000 21.58100
H  1.64600 46.63900 23.98900
H  1.11100 47.79100 22.80400
H  2.78900 47.46000 23.19900
H  5.85900 45.01900 25.09500
H  6.01500 43.30000 24.69700
H  6.56300 44.05200 26.24100
H  3.22000 43.94900 30.56800
H  5.19400 41.12300 32.79700
H  3.87700 40.14700 32.08300
H  3.54400 41.10400 33.52600

