158

Mg 24.07400 -4.97000 45.66400
C  26.20500 -2.52400 44.25600
C  21.62700 -3.87500 43.60900
C  22.45100 -8.01000 46.17200
C  26.89400 -6.28500 47.29300
N  23.94000 -3.32300 44.20600
C  24.88900 -2.48400 43.79300
C  24.40400 -1.52900 42.62600
C  22.76900 -1.77800 42.79500
C  22.74400 -3.04500 43.61900
C  22.12400 -0.61300 43.59000
C  24.96700 -2.04100 41.26100
C  25.10300 -0.94400 40.18100
H  24.73700 -1.23900 38.69900
N  22.25700 -5.79900 45.03200
C  21.35600 -5.15400 44.21800
C  20.14100 -5.99500 44.14000
C  20.35000 -7.10300 45.01500
C  21.76300 -7.02000 45.47600
C  19.07600 -5.63000 43.30500
C  19.23200 -8.06200 45.37900
O  18.12000 -7.90300 44.90200
C  19.35900 -9.08300 46.41000
N  24.60600 -7.00400 46.46400
C  23.72000 -7.95300 46.70000
C  24.43400 -9.11600 47.45900
C  25.88200 -8.54400 47.78500
C  25.80900 -7.15500 47.19200
C  23.52800 -9.66100 48.61400
C  27.12000 -9.38000 47.31200
C  27.92700 -9.90600 48.49400
N  26.12500 -4.46100 45.88700
C  27.06200 -5.09600 46.63900
C  28.21900 -4.27600 46.62300
C  28.02400 -3.26500 45.61200
C  26.69700 -3.44600 45.19100
C  29.53900 -4.42100 47.50800
C  28.52300 -2.12500 44.92000
O  29.56400 -1.50600 45.06400
C  27.38100 -1.70400 43.82700
C  27.23800 -0.23600 43.82100
O  26.96300 0.53000 44.73600
O  27.41500 0.17900 42.54900
C  27.16300 1.64600 42.43300
H  20.70500 -3.46100 43.19300
H  22.05500 -9.02700 46.21800
H  27.72200 -6.70200 47.86900
H  24.62700 -0.46200 42.66100
H  22.24300 -1.99500 41.86600
H  21.41300 -0.11800 42.92900
H  22.83200 0.04000 44.10100
H  21.56500 -1.03000 44.42800
H  24.36500 -2.81700 40.78800
H  25.91400 -2.57000 41.37100
H  26.16300 -0.72200 40.29800
H  24.58500 -0.04500 40.51500
H  19.40400 -5.74000 42.27200
H  18.87300 -4.56100 43.36500
H  18.19300 -6.26900 43.26600
H  18.36300 -9.40100 46.72100
H  19.90300 -8.68900 47.26900
H  19.94700 -9.87600 45.94800
H  24.67200 -10.01200 46.88600
H  25.98100 -8.55800 48.87100
H  23.97900 -9.41400 49.57500
H  23.36300 -10.73800 48.59800
H  22.52600 -9.25200 48.48000
H  27.80500 -8.78900 46.70400
H  26.82500 -10.23500 46.70500
H  27.49300 -10.84700 48.83300
H  27.95200 -9.18700 49.31200
H  28.91800 -10.20000 48.14900
H  30.39700 -4.47600 46.83800
H  29.47300 -5.32200 48.11800
H  29.77400 -3.59800 48.18200
H  27.74400 -2.08200 42.87100
H  27.29200 2.25100 43.33000
H  26.19800 1.73700 41.93300
H  27.98000 1.97600 41.79100
Mg 39.89600 10.51700 30.00000
C  41.72300 11.53100 32.64400
C  37.70700 8.86300 32.21400
C  38.30400 9.09400 27.31200
C  42.56700 11.31700 27.83600
N  39.90100 10.01200 32.29000
C  40.60700 10.81900 33.08600
C  40.11300 10.73200 34.53800
C  38.81000 9.82800 34.39700
C  38.79700 9.43600 32.88400
C  38.63800 8.65000 35.37500
C  39.81100 12.17600 35.24400
C  40.57200 12.36900 36.58100
H  39.66300 13.06400 37.58400
N  38.10800 9.38400 29.82800
C  37.39800 8.75100 30.83900
C  36.24500 8.10700 30.26600
C  36.38400 8.24700 28.83900
C  37.67300 8.94800 28.56100
C  35.20000 7.42300 31.11300
C  35.53500 7.59100 27.75600
O  35.88500 7.56700 26.59200
C  34.29600 6.79000 28.10100
N  40.45200 10.13200 27.88300
C  39.59300 9.61300 27.01000
C  39.90800 9.98600 25.49600
C  41.31400 10.75900 25.62800
C  41.51300 10.73800 27.15500
C  39.85000 8.85000 24.51000
C  41.35400 12.19400 24.95300
C  40.68500 13.40400 25.60800
N  41.74100 11.41000 30.12600
C  42.72400 11.67000 29.19300
C  43.84300 12.25000 29.83300
C  43.45600 12.31000 31.21600
C  42.20400 11.69000 31.32900
C  45.05400 12.75300 29.14600
C  43.94400 12.57900 32.54700
O  44.97100 13.16000 32.92800
C  42.82200 12.06000 33.55900
C  43.37200 11.07800 34.54100
O  43.74000 9.95500 34.31800
O  43.40900 11.68100 35.78800
C  43.71600 10.84600 36.95000
H  37.05300 8.35500 32.92400
H  37.65000 8.98800 26.44400
H  43.37700 11.63000 27.17400
H  40.86400 10.16900 35.09300
H  37.86900 10.36200 34.53200
H  38.63500 7.68200 34.87300
H  37.73300 8.80700 35.96200
H  39.49500 8.62300 36.04900
H  38.74700 12.12100 35.47600
H  40.06800 12.91900 34.48900
H  41.28600 13.15700 36.34100
H  40.92700 11.41200 36.96300
H  35.62500 7.14600 32.07800
H  34.92700 6.47600 30.64700
H  34.23100 7.91900 31.17900
H  33.59000 7.39500 28.66900
H  34.52500 5.95400 28.76300
H  33.87800 6.45700 27.15100
H  39.05400 10.63600 25.30800
H  42.08000 10.07400 25.26200
H  39.52600 7.89900 24.93200
H  40.81300 8.57200 24.08100
H  39.16700 9.16100 23.71900
H  40.88600 12.07600 23.97500
H  42.39400 12.50500 24.85400
H  40.07300 14.02600 24.95400
H  41.48300 14.06200 25.95000
H  40.12100 13.13100 26.50000
H  45.31400 13.68500 29.64800
H  45.02000 13.06900 28.10300
H  45.86500 12.09700 29.46100
H  42.37900 12.94200 34.02200
H  44.29100 11.43000 37.66900
H  44.24200 9.91400 36.74200
H  42.83000 10.59900 37.53600

