158

Mg 1.53500 -1.59600 43.86100
C  4.87100 -0.44300 43.61000
C  0.51700 1.04600 42.11900
C  -1.61400 -2.92100 44.05500
C  2.84300 -4.68000 44.86800
N  2.61900 0.04900 42.81700
C  3.95000 0.46200 43.05400
C  4.22000 1.93100 42.62000
C  2.81100 2.39200 42.03200
C  1.92700 1.07600 42.27600
C  2.26100 3.68900 42.54500
C  5.42200 2.34800 41.68700
C  5.78700 1.33500 40.58800
H  5.74700 1.90800 39.16900
N  -0.30800 -0.98800 43.18600
C  -0.48000 0.15900 42.50100
C  -1.94100 0.38100 42.30400
C  -2.55600 -0.77000 42.97400
C  -1.47600 -1.61000 43.43200
C  -2.61900 1.62800 41.74600
C  -4.06000 -0.93300 43.17700
O  -4.89900 -0.27000 42.48200
C  -4.61200 -1.91200 44.20900
N  0.72900 -3.52400 44.40000
C  -0.58000 -3.77900 44.53200
C  -0.86100 -5.17500 45.00000
C  0.58500 -5.83000 45.00200
C  1.48800 -4.59800 44.70200
C  -1.54900 -5.20900 46.36100
C  0.80900 -6.93400 43.88400
C  1.28300 -8.28500 44.50400
N  3.43600 -2.46900 44.25100
C  3.80900 -3.66500 44.75900
C  5.24700 -3.67500 45.00700
C  5.68000 -2.44800 44.56800
C  4.55400 -1.71600 44.07900
C  5.98100 -4.75900 45.55400
C  6.85700 -1.56200 44.46700
O  8.04600 -1.74200 44.74800
C  6.33500 -0.18800 43.92700
C  6.51400 0.84900 44.89600
O  5.76600 1.03000 45.88200
O  7.51000 1.65400 44.45300
C  7.63200 2.90500 45.29100
H  0.05100 1.93200 41.68400
H  -2.60800 -3.35500 44.17700
H  3.24200 -5.56700 45.36400
H  4.42300 2.49600 43.52900
H  2.91900 2.52000 40.95500
H  3.15300 4.24500 42.83400
H  1.64300 3.57000 43.43400
H  1.61000 4.19900 41.83500
H  6.29700 2.55900 42.30100
H  5.03100 3.26200 41.24000
H  5.17200 0.43800 40.65300
H  6.78000 0.95700 40.83200
H  -2.59300 1.47900 40.66600
H  -2.09800 2.53600 42.05000
H  -3.62200 1.83700 42.11800
H  -5.62100 -1.60200 44.48200
H  -4.01800 -1.98100 45.12000
H  -4.65500 -2.91700 43.78900
H  -1.45600 -5.69600 44.25100
H  0.82600 -6.24100 45.98200
H  -2.18300 -4.32800 46.46600
H  -0.88800 -5.33200 47.21900
H  -2.27000 -6.02300 46.28400
H  1.53200 -6.52400 43.17900
H  -0.08100 -7.22600 43.32600
H  0.57900 -9.06800 44.22200
H  1.47200 -8.34000 45.57600
H  2.22700 -8.54100 44.02300
H  6.70700 -4.44100 46.30200
H  6.53500 -5.27000 44.76600
H  5.28100 -5.47800 45.98100
H  6.90300 -0.09400 43.00100
H  6.63700 3.26700 45.54700
H  8.14600 3.61900 44.64800
H  8.27800 2.75000 46.15600
Mg 44.43800 5.58700 47.03400
C  42.24100 8.29000 46.81600
C  41.79700 3.54000 46.27600
C  46.60800 3.06100 46.30200
C  47.18800 7.77800 47.53200
N  42.25000 5.96800 46.49100
C  41.56700 7.09200 46.66100
C  40.05100 6.84300 46.52300
C  39.92600 5.31100 46.20900
C  41.39200 4.90100 46.30100
C  38.99700 4.52200 47.15900
C  39.24900 7.68600 45.50700
C  39.96500 7.90200 44.10700
H  39.12300 7.21100 42.96400
N  44.22200 3.51100 46.56600
C  43.05500 2.86300 46.26900
C  43.32500 1.46200 45.95400
C  44.75900 1.35400 45.86800
C  45.29900 2.66500 46.22100
C  42.34700 0.38700 45.72600
C  45.55000 0.16000 45.20800
O  44.90300 -0.73900 44.77500
C  47.06200 0.09200 45.12800
N  46.64600 5.44300 46.95900
C  47.22900 4.28500 46.69400
C  48.79700 4.42500 46.72300
C  48.94900 5.81400 47.46500
C  47.52900 6.38400 47.37800
C  49.72100 3.35600 47.38400
C  49.97000 6.83500 46.85600
C  50.74800 7.56300 48.02700
N  44.72800 7.60800 47.14200
C  45.91500 8.36700 47.32000
C  45.52100 9.75400 47.29900
C  44.09600 9.72900 47.17000
C  43.63800 8.43900 46.99700
C  46.50500 10.89600 47.36600
C  42.92400 10.58600 47.14000
O  42.80700 11.81600 47.21500
C  41.66200 9.70100 46.87800
C  40.73200 9.84600 48.00500
O  40.79700 9.28300 49.03800
O  39.58100 10.58100 47.56600
C  38.48400 10.54600 48.48200
H  41.01100 2.83700 45.99200
H  47.42600 2.34800 46.18400
H  48.04900 8.42500 47.71200
H  39.74900 6.96200 47.56400
H  39.61500 5.09600 45.18700
H  39.59800 4.34700 48.05100
H  38.75900 3.63800 46.56700
H  38.15100 5.11200 47.51200
H  38.99800 8.67900 45.88100
H  38.33500 7.15200 45.24700
H  40.96600 7.47100 44.09300
H  40.14800 8.95700 43.89900
H  42.47700 0.03300 44.70300
H  41.36100 0.83100 45.85800
H  42.44000 -0.46400 46.40100
H  47.40600 0.40000 46.11500
H  47.21400 0.76000 44.28000
H  47.47500 -0.88400 44.87200
H  49.17200 4.49100 45.70100
H  49.08800 5.64800 48.53400
H  50.14900 3.70400 48.32400
H  50.50000 3.21100 46.63600
H  49.30200 2.37000 47.58200
H  49.47500 7.61400 46.27700
H  50.74300 6.39100 46.22900
H  50.38400 7.44800 49.04800
H  50.90200 8.61100 47.76600
H  51.64300 6.94200 48.00300
H  47.47500 10.67700 46.91800
H  46.75400 11.20000 48.38300
H  46.11300 11.79500 46.89100
H  41.14100 10.04600 45.98500
H  37.71100 11.07700 47.92700
H  38.77100 11.02300 49.41900
H  38.02900 9.57900 48.69800

