158

Mg 23.76900 -5.00700 45.78000
C  26.04500 -2.76500 44.24400
C  21.32300 -3.83800 43.69500
C  22.07400 -7.65100 46.73300
C  26.67500 -6.60600 47.43200
N  23.76000 -3.53000 44.04100
C  24.77400 -2.68000 43.70500
C  24.28900 -1.55700 42.81800
C  22.81000 -1.79500 42.68200
C  22.56800 -3.14400 43.51500
C  21.84800 -0.71600 43.18000
C  24.95900 -1.59200 41.39900
C  24.96400 -0.26900 40.66900
H  24.45000 -0.20200 39.17600
N  21.87800 -5.60200 45.36400
C  20.99100 -5.03700 44.51000
C  19.79000 -5.76200 44.51300
C  20.02200 -6.95400 45.34600
C  21.38700 -6.79900 45.84700
C  18.64800 -5.26200 43.67900
C  18.96000 -7.95800 45.57800
O  17.78700 -7.81500 45.24700
C  19.25900 -9.21100 46.38900
N  24.34800 -6.92000 46.91100
C  23.35600 -7.73700 47.30800
C  23.94700 -8.97300 47.91400
C  25.38400 -8.64300 48.18100
C  25.53600 -7.29400 47.49200
C  23.15900 -9.44100 49.16400
C  26.39300 -9.69500 47.71300
C  27.49200 -10.04500 48.72200
N  25.89000 -4.71300 45.91300
C  26.85500 -5.42800 46.62200
C  28.05900 -4.71800 46.38900
C  27.82300 -3.71500 45.50000
C  26.47600 -3.74400 45.24700
C  29.38400 -5.15400 46.95200
C  28.40400 -2.60700 44.68400
O  29.62100 -2.22200 44.61900
C  27.28000 -1.96100 43.88100
C  27.21700 -0.54600 44.21000
O  27.26600 -0.04200 45.32700
O  27.18900 0.22200 42.98900
C  27.32100 1.63500 43.16300
H  20.47700 -3.36600 43.19100
H  21.66900 -8.61700 47.04200
H  27.55500 -7.06700 47.88500
H  24.52300 -0.59100 43.26700
H  22.47400 -2.12100 41.69800
H  21.10300 -1.21300 43.80200
H  21.36900 -0.36200 42.26700
H  22.27200 0.14200 43.70100
H  24.41400 -2.29300 40.76700
H  25.96300 -2.00700 41.48400
H  26.02800 -0.05100 40.57900
H  24.59000 0.56900 41.25800
H  17.73900 -5.82900 43.87800
H  18.81900 -5.31300 42.60300
H  18.35100 -4.25200 43.96300
H  19.99600 -9.81900 45.86600
H  18.35500 -9.82000 46.38000
H  19.61100 -8.93700 47.38400
H  23.92600 -9.75200 47.15300
H  25.58900 -8.52600 49.24500
H  23.00200 -10.50500 48.98900
H  22.15100 -9.04400 49.28600
H  23.78600 -9.33300 50.05000
H  26.88400 -9.15900 46.90100
H  26.06100 -10.63300 47.26800
H  27.48600 -11.13200 48.81100
H  27.33400 -9.70500 49.74500
H  28.49800 -9.72300 48.45600
H  29.65000 -6.09600 46.47000
H  29.25900 -5.33800 48.01900
H  30.08700 -4.35700 46.70900
H  27.55900 -2.01800 42.82900
H  26.50900 2.28100 42.82800
H  28.17500 2.05700 42.63500
H  27.55700 1.96900 44.17300
Mg -11.63600 39.22900 42.16500
C  -10.10300 36.09200 41.44200
C  -9.07200 40.73900 40.37100
C  -13.53000 41.94600 41.98800
C  -14.40400 37.26200 43.27000
N  -9.86900 38.45300 40.98900
C  -9.39000 37.16400 40.85300
C  -8.16400 37.15200 39.92700
C  -7.76800 38.63800 39.89000
C  -9.00000 39.36500 40.49900
C  -6.42800 38.87600 40.62600
C  -8.44000 36.41500 38.61300
C  -7.37700 35.29600 38.19700
H  -6.47200 35.47400 37.00200
N  -11.22300 41.13200 41.49000
C  -10.13000 41.58000 40.78400
C  -10.29500 43.02600 40.55000
C  -11.57900 43.38100 41.15500
C  -12.20300 42.10900 41.53600
C  -9.35500 43.81900 39.75700
C  -12.11300 44.85700 41.07800
O  -11.32800 45.73900 40.68900
C  -13.43900 45.28300 41.49700
N  -13.75200 39.58900 42.59200
C  -14.24300 40.81700 42.59100
C  -15.69500 40.80200 43.10300
C  -16.01800 39.23200 43.35500
C  -14.70900 38.63400 43.06100
C  -15.98700 41.80800 44.24100
C  -17.17300 38.59300 42.65600
C  -18.25600 38.00000 43.57500
N  -12.15500 37.12400 42.38400
C  -13.24200 36.54300 42.96000
C  -13.07000 35.06100 43.10200
C  -11.85300 34.87200 42.56300
C  -11.33800 36.13000 42.13400
C  -13.99000 34.03900 43.73300
C  -10.87400 33.90500 42.23100
O  -10.78300 32.68500 42.36000
C  -9.73300 34.62600 41.44100
C  -8.43700 34.31100 42.04800
O  -7.72300 33.44600 41.72800
O  -8.02000 35.36700 42.80800
C  -6.63500 35.47700 43.20400
H  -8.14800 41.12800 39.94000
H  -14.15200 42.84400 42.01100
H  -15.22000 36.68800 43.71300
H  -7.29800 36.65200 40.35900
H  -7.62900 39.00400 38.87300
H  -6.63700 38.88400 41.69600
H  -6.12600 39.85500 40.25300
H  -5.73700 38.04300 40.50100
H  -8.25700 37.11500 37.79700
H  -9.47200 36.10500 38.45000
H  -7.92400 34.39300 37.92700
H  -6.71900 35.06800 39.03600
H  -8.64400 43.29400 39.12000
H  -8.88200 44.39400 40.55400
H  -9.91800 44.45000 39.06900
H  -14.10300 44.57400 41.00300
H  -13.50500 46.26900 41.03500
H  -13.54300 45.39500 42.57600
H  -16.22500 41.18100 42.23000
H  -16.14500 39.12800 44.43300
H  -15.14000 42.49000 44.32400
H  -16.10600 41.28100 45.18700
H  -16.90900 42.36400 44.07100
H  -16.70800 37.91500 41.94100
H  -17.66700 39.31200 42.00300
H  -19.26900 38.39400 43.48800
H  -18.00100 38.09600 44.63000
H  -18.15100 36.95900 43.27000
H  -13.47000 33.08300 43.79500
H  -14.92000 33.97600 43.16800
H  -14.16500 34.37300 44.75500
H  -9.72000 34.34900 40.38700
H  -5.83600 35.18200 42.52400
H  -6.44400 34.94700 44.13700
H  -6.32300 36.47700 43.50400

