158

Mg 35.73200 1.44600 30.54200
C  33.37200 2.59800 32.93400
C  38.15400 1.55200 33.00700
C  37.83500 0.71300 28.20200
C  33.03900 1.71600 28.18200
N  35.80400 2.17100 32.68400
C  34.70500 2.50600 33.45400
C  35.14700 2.68400 34.96200
C  36.69300 2.80600 34.78000
C  36.90700 2.06800 33.44200
C  37.24200 4.29200 34.91300
C  34.61800 1.51200 35.85500
C  33.84600 2.01700 37.12000
H  34.33400 3.40400 37.69800
N  37.68500 0.96800 30.66400
C  38.50300 0.98700 31.77600
C  39.71600 0.38800 31.38000
C  39.56100 0.01800 30.03300
C  38.32400 0.57800 29.56100
C  40.82900 0.17700 32.42000
C  40.47600 -0.79500 29.17400
O  40.24800 -0.98000 28.02400
C  41.87400 -1.33300 29.66300
N  35.47800 1.31900 28.49800
C  36.57800 1.10000 27.71900
C  36.27800 1.29300 26.20600
C  34.72600 1.28300 26.17400
C  34.36700 1.45500 27.71200
C  36.92200 2.53200 25.44500
C  34.05000 -0.02400 25.66500
C  32.70800 0.27500 25.01200
N  33.57700 1.94900 30.50300
C  32.68500 2.00300 29.46800
C  31.38000 2.45100 29.93100
C  31.61400 2.62200 31.34300
C  32.95600 2.37900 31.55500
C  30.08300 2.64400 29.23500
C  30.99000 3.00400 32.62700
O  29.80200 3.20900 32.89300
C  32.10000 2.92000 33.76200
C  31.91600 4.25400 34.46600
O  32.34600 5.34400 34.15100
O  31.23200 4.09500 35.61400
C  31.00100 5.29500 36.35200
H  38.89200 1.76500 33.78300
H  38.57100 0.51200 27.42000
H  32.19300 1.77000 27.49400
H  34.73000 3.65400 35.23400
H  37.12100 2.19800 35.57700
H  37.79800 4.57900 34.02100
H  37.95600 4.31900 35.73600
H  36.57900 5.11200 35.18900
H  35.44200 0.92000 36.25200
H  33.96200 0.91900 35.21800
H  33.75900 1.27200 37.91100
H  32.85200 2.14500 36.69100
H  40.79500 -0.80400 32.89500
H  40.79100 1.00700 33.12500
H  41.75200 0.20000 31.84100
H  41.75200 -2.00900 30.51000
H  42.61100 -0.54000 29.78900
H  42.29800 -1.97500 28.89100
H  36.66500 0.47700 25.59600
H  34.26600 2.16600 25.73100
H  36.22400 3.11400 24.84300
H  37.82000 2.16100 24.95100
H  37.29500 3.19600 26.22400
H  34.02100 -0.76200 26.46600
H  34.70400 -0.48100 24.92200
H  32.27100 1.23600 25.28500
H  31.99600 -0.49900 25.29900
H  32.86300 0.07700 23.95200
H  30.31200 2.87700 28.19400
H  29.55900 3.51600 29.62800
H  29.54800 1.69700 29.17500
H  31.92800 2.14900 34.51200
H  30.81000 5.03200 37.39200
H  30.21900 5.96000 35.98500
H  31.94000 5.84900 36.33300
Mg 46.52600 24.76900 28.55800
C  47.07400 27.13300 31.06000
C  45.66200 22.53600 31.11300
C  46.35600 22.53500 26.25500
C  47.86400 27.10500 26.32700
N  46.00800 24.95400 30.82500
C  46.40800 25.97000 31.59400
C  46.02800 25.74300 33.07400
C  46.02400 24.19400 33.09500
C  45.90700 23.85000 31.61600
C  47.23400 23.52000 33.90100
C  44.87000 26.60100 33.53900
C  44.16000 26.20600 34.85000
H  44.39700 27.22500 35.97000
N  46.01300 22.86100 28.61300
C  45.65500 22.08600 29.70200
C  45.33100 20.74300 29.25200
C  45.54600 20.71400 27.84400
C  45.98900 22.04400 27.48300
C  44.84400 19.63200 30.12900
C  45.44700 19.50500 26.75400
O  45.57500 19.64700 25.52700
C  45.14300 18.11600 27.29000
N  46.96500 24.83000 26.51400
C  46.93400 23.72300 25.77600
C  47.11800 23.99000 24.27000
C  47.64500 25.41000 24.37500
C  47.44700 25.77900 25.81100
C  48.18800 23.03400 23.57400
C  47.02000 26.35800 23.32200
C  45.54500 26.84600 23.60100
N  47.29300 26.73700 28.62300
C  47.90200 27.50200 27.62800
C  48.43900 28.77000 28.16100
C  48.10400 28.59600 29.50500
C  47.46500 27.33500 29.72700
C  48.88200 29.91100 27.31000
C  48.20500 29.34000 30.76800
O  48.67000 30.44000 31.01500
C  47.59900 28.34500 31.83700
C  48.69700 27.87300 32.81900
O  49.62400 27.09900 32.53000
O  48.40200 28.35100 34.10500
C  49.03900 27.67800 35.27300
H  45.48700 21.80000 31.90000
H  46.38300 21.83400 25.41800
H  48.39500 27.73300 25.60800
H  46.89500 26.20900 33.54200
H  45.09100 23.90400 33.57800
H  48.09800 24.13400 34.15700
H  47.69600 22.77200 33.25700
H  46.89900 23.01600 34.80800
H  44.15000 26.68300 32.72400
H  45.29700 27.59900 33.63400
H  44.40500 25.20900 35.21500
H  43.08400 26.06900 34.74400
H  45.68500 18.93900 30.14000
H  43.85300 19.33300 29.78900
H  44.76100 19.93900 31.17100
H  45.13600 17.36100 26.50400
H  44.11500 18.25100 27.62800
H  45.70600 17.79200 28.16500
H  46.15600 24.04600 23.76000
H  48.72100 25.42200 24.20000
H  48.69400 22.42900 24.32700
H  48.75600 23.60600 22.84000
H  47.64500 22.25900 23.03200
H  46.93900 25.81900 22.37800
H  47.77300 27.13800 23.21800
H  45.67500 27.90900 23.80300
H  44.97200 26.40500 24.41600
H  44.85000 26.76400 22.76500
H  49.71800 29.58100 26.69400
H  49.10300 30.80400 27.89400
H  48.08100 30.21100 26.63500
H  46.73700 28.74700 32.36900
H  49.75300 26.89900 35.00800
H  48.20100 27.18500 35.76500
H  49.66100 28.32700 35.88900

