158

Mg 26.56600 0.56500 28.75400
C  28.34100 -0.02000 31.73700
C  23.61000 0.17500 30.59300
C  24.91600 0.97100 25.94300
C  29.65100 0.12000 27.04400
N  26.11700 0.23800 30.90100
C  26.96000 0.18000 31.91700
C  26.21200 0.22800 33.24800
C  24.71700 0.14300 32.90200
C  24.76400 0.06500 31.35600
C  23.91000 -1.08100 33.53000
C  26.56000 1.53500 34.08900
C  26.57600 1.18900 35.62700
H  27.17300 2.12600 36.58600
N  24.50900 0.62700 28.28700
C  23.51600 0.48700 29.19900
C  22.20000 0.79000 28.48800
C  22.56200 0.98200 27.16900
C  24.00800 0.87500 27.05000
C  20.82300 0.76200 29.24600
C  21.68600 1.08400 25.94100
O  22.12800 0.95100 24.83100
C  20.16300 1.29300 26.06100
N  27.23400 0.37200 26.72700
C  26.35300 0.77000 25.73000
C  27.10200 0.99700 24.33600
C  28.64100 0.96100 24.85700
C  28.54800 0.46400 26.30800
C  26.68900 0.10600 23.15800
C  29.25500 2.38000 24.77300
C  29.68600 2.72300 23.35100
N  28.57000 0.09800 29.20900
C  29.70200 0.00800 28.44600
C  30.85500 -0.13800 29.23000
C  30.32700 -0.10600 30.51500
C  28.92300 -0.05800 30.43900
C  32.22600 -0.37700 28.79300
C  30.73600 -0.16200 31.87600
O  31.84200 -0.23100 32.32000
C  29.42600 -0.09500 32.78500
C  29.16300 -1.33700 33.64900
O  28.53600 -2.33700 33.32700
O  29.64400 -1.04100 34.88000
C  29.38500 -2.06200 35.92400
H  22.70800 0.17000 31.20700
H  24.39400 1.07800 24.99000
H  30.59600 0.27900 26.52000
H  26.70600 -0.53900 33.84500
H  24.12400 1.02000 33.16000
H  23.07600 -0.74100 34.14300
H  24.56000 -1.63400 34.20800
H  23.46900 -1.71300 32.76000
H  25.76400 2.24000 33.84800
H  27.49900 1.93900 33.70900
H  26.77600 0.15100 35.89000
H  25.53900 1.30400 35.94200
H  20.48700 1.79600 29.32400
H  20.85400 0.32900 30.24600
H  19.99200 0.18400 28.84200
H  19.83100 1.69600 25.10400
H  20.02500 2.03100 26.85200
H  19.79200 0.29100 26.27600
H  26.69800 1.93400 23.95200
H  29.19200 0.20100 24.30300
H  26.09100 0.75900 22.52300
H  26.02800 -0.72700 23.39700
H  27.48800 -0.25700 22.51100
H  30.16600 2.38500 25.37200
H  28.60800 3.16200 25.17000
H  29.12200 3.61000 23.06200
H  29.41100 1.92700 22.65900
H  30.75300 2.86300 23.17800
H  32.80000 0.30300 29.42300
H  32.41500 -0.16200 27.74100
H  32.58000 -1.38700 28.99900
H  29.58700 0.76000 33.44200
H  30.08000 -1.98600 36.76000
H  29.55400 -3.05800 35.51400
H  28.34900 -2.02700 36.26200
Mg 47.34100 25.07800 29.67600
C  48.07600 27.58200 31.99300
C  45.88700 23.29800 32.04600
C  46.66400 22.76300 27.29600
C  49.10300 27.00500 27.16400
N  47.15000 25.27800 31.75900
C  47.35300 26.49800 32.54400
C  46.92300 26.31500 34.03900
C  46.48800 24.74200 34.07200
C  46.52000 24.39800 32.54600
C  47.33300 23.89200 35.09200
C  45.85700 27.33100 34.50600
C  45.94300 27.99800 35.90100
H  46.39700 27.08200 37.07400
N  46.38200 23.28800 29.72200
C  45.81500 22.71500 30.78500
C  45.07400 21.52200 30.46800
C  45.23900 21.36600 29.05700
C  46.07800 22.45600 28.59100
C  44.23300 20.67900 31.41100
C  44.72100 20.27000 28.18000
O  45.03400 20.18900 27.03100
C  43.76900 19.26100 28.75200
N  47.96800 24.85100 27.55900
C  47.57400 23.78700 26.81000
C  48.15700 23.86600 25.33900
C  48.76500 25.32000 25.33400
C  48.62300 25.76100 26.77600
C  49.12700 22.69700 25.04400
C  48.24700 26.39100 24.36900
C  49.24800 27.14900 23.45500
N  48.41300 26.84900 29.50100
C  48.97300 27.57500 28.44300
C  49.49800 28.75300 28.95500
C  49.25000 28.78900 30.35700
C  48.49900 27.65000 30.66600
C  50.15700 29.84400 28.18200
C  49.38600 29.55400 31.58700
O  49.93600 30.68700 31.74200
C  48.51000 28.85900 32.65600
C  49.31400 28.64900 33.88300
O  50.04600 27.66800 34.02800
O  49.10000 29.67400 34.71700
C  49.61500 29.55500 36.08100
H  45.36300 22.69100 32.78700
H  46.35800 22.03500 26.54200
H  49.44200 27.65100 26.35200
H  47.73500 26.47400 34.74900
H  45.42900 24.65600 34.31600
H  48.20300 23.62000 34.49300
H  46.87600 22.91700 35.26300
H  47.66500 24.52700 35.91300
H  44.92800 26.76100 34.49500
H  45.77000 28.21000 33.86800
H  45.07800 28.59200 36.19500
H  46.78000 28.69100 35.82000
H  43.19100 20.77500 31.10700
H  44.32900 21.10300 32.41100
H  44.81400 19.77000 31.56700
H  44.30600 18.76900 29.56300
H  43.63700 18.52000 27.96400
H  42.78000 19.57400 29.08700
H  47.32100 23.93700 24.64300
H  49.85000 25.31400 25.23400
H  49.99600 23.23500 24.66600
H  48.70900 22.09600 24.23600
H  49.26700 22.16600 25.98500
H  47.73800 27.15000 24.96200
H  47.45500 25.97000 23.75000
H  50.28200 26.84900 23.62600
H  49.30200 28.23400 23.54600
H  49.09200 27.04200 22.38200
H  49.65400 30.70700 28.61700
H  49.92400 29.68400 27.12900
H  51.23700 29.97400 28.25100
H  47.64500 29.50300 32.81200
H  49.95000 30.54600 36.39000
H  50.38800 28.79200 35.99100
H  48.81100 29.15900 36.70100

