158

Mg 41.48200 40.95000 26.63400
C  40.90000 43.46700 29.07600
C  42.23100 38.79500 29.41200
C  42.50000 38.71200 24.48500
C  40.92500 43.32100 24.13400
N  41.76900 41.15600 28.99900
C  41.24000 42.20700 29.68900
C  41.12000 41.80500 31.14000
C  41.82300 40.44100 31.22300
C  41.99400 40.10300 29.79100
C  43.18300 40.48300 31.98900
C  39.60000 41.83300 31.65200
C  39.28500 42.97700 32.63300
H  38.79900 42.59200 34.00500
N  42.17500 38.97700 26.89100
C  42.38500 38.26600 28.07300
C  42.73100 36.89500 27.76200
C  42.79600 36.75600 26.32600
C  42.52200 38.19800 25.79500
C  42.90200 35.81800 28.78600
C  43.09700 35.50000 25.41500
O  43.02200 35.58800 24.16100
C  43.46800 34.27500 26.09500
N  41.76200 41.04200 24.60300
C  42.08100 39.91200 23.94000
C  42.07500 40.17300 22.37400
C  41.39600 41.52600 22.35700
C  41.38000 42.02700 23.78200
C  43.47000 40.05700 21.72300
C  39.97800 41.53300 21.77200
C  38.91100 40.61500 22.42300
N  40.93600 42.95100 26.58900
C  40.78200 43.79000 25.45900
C  40.30700 45.04800 26.02600
C  40.31600 44.98900 27.36000
C  40.80500 43.72600 27.69300
C  40.18600 46.26100 25.15200
C  40.07500 45.78500 28.52900
O  39.67100 46.94000 28.66500
C  40.47000 44.82900 29.71600
C  41.58800 45.39200 30.49400
O  42.77800 45.39900 30.23600
O  41.05100 45.91300 31.63100
C  41.96100 46.78700 32.40300
H  42.35600 38.08400 30.23200
H  42.76200 38.04700 23.65900
H  40.73900 44.00100 23.30100
H  41.65300 42.53400 31.75100
H  41.23300 39.64200 31.67300
H  43.89400 40.67200 31.18500
H  43.49600 39.53600 32.42800
H  43.29900 41.32000 32.67700
H  39.27300 40.85700 32.01100
H  38.89900 42.03600 30.84200
H  38.48700 43.56800 32.18400
H  40.13600 43.63300 32.81800
H  42.18800 35.04000 28.51800
H  42.74800 36.15100 29.81200
H  43.89900 35.39700 28.65100
H  43.78400 33.56100 25.33400
H  42.76900 33.68400 26.68800
H  44.34800 34.52400 26.68800
H  41.51000 39.33000 21.97800
H  42.07300 42.17100 21.79600
H  43.90400 40.87400 21.14600
H  43.41600 39.17000 21.09100
H  44.19800 39.74200 22.47000
H  40.08700 41.36100 20.70200
H  39.59500 42.54900 21.67500
H  38.02800 41.22500 22.61200
H  39.34200 40.26800 23.36200
H  38.66100 39.76700 21.78400
H  40.61700 46.10000 24.16400
H  40.75400 46.99200 25.72900
H  39.17100 46.65700 25.19300
H  39.61000 44.67000 30.36700
H  42.67200 47.34700 31.79600
H  42.39700 46.26000 33.25200
H  41.38000 47.63500 32.76700
Mg 15.84400 51.77100 25.23400
C  17.36900 50.71000 28.16000
C  13.06100 52.74600 27.14200
C  14.35200 52.49900 22.47800
C  18.52700 50.33900 23.38800
N  15.28900 51.74100 27.44900
C  16.21700 51.46400 28.43800
C  15.65200 51.81400 29.84500
C  14.18500 52.34400 29.50500
C  14.09800 52.27500 27.94700
C  13.04100 51.67000 30.33800
C  16.66000 52.65100 30.63700
C  16.95300 52.22600 32.05300
H  15.93200 51.44300 32.81900
N  13.99500 52.54900 24.88500
C  12.99300 52.87100 25.79900
C  11.84900 53.49700 25.05000
C  12.27800 53.53800 23.63100
C  13.60900 52.84400 23.61400
C  10.69200 54.20700 25.74300
C  11.57400 54.03100 22.48800
O  11.93900 53.93700 21.30500
C  10.30100 54.79000 22.69200
N  16.41200 51.59100 23.18100
C  15.56300 51.96500 22.22800
C  16.09400 51.58800 20.82400
C  17.47600 50.87100 21.14000
C  17.46700 50.93400 22.65100
C  15.03000 50.73000 20.05500
C  18.66400 51.63800 20.43200
C  18.41200 52.16800 19.04800
N  17.57000 50.68700 25.63100
C  18.56900 50.19200 24.78000
C  19.52800 49.41500 25.65400
C  19.05900 49.63700 26.93900
C  17.84100 50.41500 26.87400
C  20.63100 48.60800 25.17900
C  19.51100 49.51200 28.36500
O  20.57100 49.10400 28.85500
C  18.41400 50.20400 29.23200
C  18.01000 49.13100 30.21900
O  17.02600 48.42500 30.10300
O  18.78600 49.22200 31.38400
C  18.46800 48.34000 32.54800
H  12.28300 53.22500 27.73900
H  13.97200 52.85300 21.51700
H  19.32400 49.83500 22.83600
H  15.49900 50.81800 30.26100
H  14.13200 53.37400 29.85800
H  12.23300 51.29800 29.70700
H  12.64700 52.35600 31.08700
H  13.36000 50.78900 30.89500
H  16.23100 53.64900 30.72600
H  17.55400 52.76500 30.02300
H  17.12700 53.17000 32.57000
H  17.83800 51.59600 31.95800
H  10.63700 53.93400 26.79700
H  9.71700 53.97200 25.31600
H  10.75700 55.29300 25.81200
H  9.93600 55.05600 21.70000
H  10.56300 55.68400 23.25700
H  9.53900 54.20800 23.21100
H  16.06700 52.51600 20.25400
H  17.47300 49.80400 20.91800
H  15.48100 49.97000 19.41700
H  14.28400 51.36500 19.57600
H  14.45000 50.12700 20.75300
H  19.54700 51.00000 20.47200
H  18.81000 52.52100 21.05400
H  19.30100 51.99500 18.44200
H  18.27500 53.22800 19.26100
H  17.56700 51.85400 18.43500
H  20.29600 48.13600 24.25600
H  20.82900 47.78800 25.86900
H  21.46200 49.30100 25.04600
H  18.90200 50.97600 29.82700
H  19.29000 47.64300 32.71200
H  17.57300 47.74800 32.36000
H  18.30200 49.00100 33.39800

