158

Mg -11.61800 38.28100 42.73700
C  -9.43500 35.74700 41.50000
C  -9.53900 40.41400 40.95400
C  -13.92800 40.57400 43.11300
C  -13.83200 35.74200 43.66200
N  -9.65000 38.02100 41.34900
C  -8.98900 36.90000 40.94900
C  -7.91200 37.12800 39.90600
C  -7.90700 38.69800 39.75300
C  -9.07300 39.10900 40.72400
C  -6.52200 39.40900 40.18700
C  -8.25300 36.33900 38.61800
C  -7.12400 35.43200 37.99300
H  -6.12700 35.98700 36.97500
N  -11.65800 40.27100 42.28700
C  -10.69300 40.98900 41.61400
C  -11.14400 42.33800 41.51800
C  -12.46400 42.44600 42.03700
C  -12.74600 41.08900 42.50200
C  -10.29900 43.41200 40.78200
C  -13.40300 43.58500 41.91500
O  -12.94000 44.57000 41.36600
C  -14.92600 43.64300 42.35800
N  -13.62500 38.19800 43.41000
C  -14.37000 39.32200 43.54300
C  -15.68700 38.95100 44.23600
C  -15.64100 37.39700 44.40700
C  -14.28000 37.05800 43.81300
C  -15.81900 39.65600 45.61600
C  -16.83300 36.65700 43.74300
C  -16.89800 36.82900 42.23300
N  -11.67300 36.17400 42.72000
C  -12.59000 35.29000 43.20000
C  -12.06400 33.90300 43.07600
C  -10.79900 34.07500 42.55900
C  -10.64400 35.48300 42.31000
C  -12.79000 32.65100 43.37900
C  -9.58100 33.41200 42.10700
O  -9.33400 32.21200 42.12700
C  -8.72500 34.43900 41.41300
C  -7.46900 34.51000 42.26100
O  -7.17000 35.28200 43.19900
O  -6.75500 33.41200 41.90400
C  -5.75900 33.05100 42.90800
H  -9.00900 41.09100 40.28100
H  -14.76300 41.27700 43.10000
H  -14.50300 34.94600 43.99300
H  -6.98000 36.70500 40.28200
H  -8.12600 39.17200 38.79600
H  -6.19600 39.85300 39.24600
H  -5.70300 38.72600 40.41100
H  -6.67100 40.06600 41.04300
H  -8.55100 37.04200 37.84100
H  -9.05400 35.60900 38.74200
H  -7.47100 34.43700 37.71500
H  -6.54800 35.27200 38.90400
H  -10.77100 43.73300 39.85300
H  -9.31600 43.10300 40.42600
H  -10.19000 44.30100 41.40400
H  -15.49800 42.90300 41.80000
H  -15.26300 44.65200 42.11700
H  -15.08500 43.62600 43.43600
H  -16.59400 39.24500 43.70900
H  -15.60500 37.25500 45.48700
H  -16.85300 39.60900 45.95900
H  -15.62800 40.72900 45.60200
H  -15.12800 39.32800 46.39300
H  -17.69200 37.17100 44.17500
H  -16.91600 35.61200 44.03900
H  -16.64200 35.87300 41.77800
H  -16.28500 37.63600 41.83200
H  -17.94700 37.02100 42.00700
H  -12.24900 31.89300 43.94600
H  -13.13100 32.21200 42.44200
H  -13.68800 33.00400 43.88500
H  -8.42000 34.24400 40.38500
H  -4.91400 33.73700 42.85200
H  -5.30000 32.13000 42.54900
H  -6.11500 32.82400 43.91300
Mg -5.21800 25.41000 24.73100
C  -3.82200 26.81800 27.50700
C  -6.84000 23.11100 26.76500
C  -6.53900 23.79500 21.96600
C  -3.36200 27.37700 22.64600
N  -5.10100 24.87600 26.83400
C  -4.59800 25.70800 27.86600
C  -5.12500 25.24500 29.26000
C  -5.74900 23.85700 28.91700
C  -5.89300 23.93200 27.37700
C  -4.85700 22.61500 29.34000
C  -6.02400 26.30800 29.88200
C  -5.70100 26.70600 31.35200
H  -5.41400 25.54100 32.15300
N  -6.48900 23.73100 24.40500
C  -7.16200 23.04000 25.35400
C  -8.31700 22.35500 24.83100
C  -8.15000 22.43100 23.42700
C  -7.03700 23.31100 23.17700
C  -9.38000 21.73500 25.64100
C  -8.92000 21.63700 22.32100
O  -8.53300 21.60100 21.15600
C  -10.07500 20.72500 22.60200
N  -5.00300 25.61400 22.59300
C  -5.63200 24.81000 21.64500
C  -5.27100 25.23300 20.22000
C  -4.38200 26.51800 20.50500
C  -4.19400 26.52800 21.98700
C  -4.67300 24.07200 19.38900
C  -4.95300 27.76900 19.86700
C  -6.08800 28.55700 20.71400
N  -3.81000 26.76300 24.99600
C  -3.18900 27.55800 24.04200
C  -2.33300 28.51200 24.75600
C  -2.54500 28.31000 26.16600
C  -3.37100 27.17700 26.18900
C  -1.46100 29.47000 23.99900
C  -2.12700 28.62300 27.56200
O  -1.32900 29.46800 27.98100
C  -3.07400 27.70700 28.48600
C  -2.17800 26.85500 29.29800
O  -1.41700 25.90600 28.95000
O  -2.12100 27.29200 30.60000
C  -1.39100 26.47600 31.50000
H  -7.46700 22.50300 27.42000
H  -7.03200 23.42000 21.06600
H  -2.72800 27.98900 22.00100
H  -4.23400 25.11300 29.87400
H  -6.77200 23.77100 29.28300
H  -3.79900 22.85600 29.45100
H  -4.97900 21.83100 28.59300
H  -5.23000 22.22300 30.28600
H  -6.97400 25.77400 29.89000
H  -6.15200 27.20500 29.27500
H  -6.51300 27.26100 31.82100
H  -4.83000 27.35800 31.29000
H  -10.17200 21.09100 25.25800
H  -9.90300 22.64300 25.94100
H  -8.93800 21.21300 26.48900
H  -10.25300 20.19700 21.66500
H  -11.00000 21.20500 22.92200
H  -9.75600 19.97000 23.32000
H  -6.20500 25.57700 19.77500
H  -3.42600 26.28800 20.03400
H  -4.43900 23.31300 20.13500
H  -3.73700 24.36200 18.91100
H  -5.48400 23.90600 18.68000
H  -5.43500 27.49600 18.92800
H  -4.11900 28.39600 19.55200
H  -6.55300 28.00700 21.53300
H  -6.91600 28.60900 20.00800
H  -5.73800 29.56200 20.95100
H  -1.20500 29.16300 22.98500
H  -0.62000 29.68000 24.66000
H  -2.04300 30.38600 23.89100
H  -3.74300 28.31000 29.09900
H  -1.51900 26.92800 32.48400
H  -0.33400 26.46000 31.23400
H  -1.80100 25.46600 31.47700

