158

Mg 46.49200 24.72400 27.88800
C  47.53800 26.71900 30.71300
C  45.35200 22.34600 30.18700
C  46.35300 22.50300 25.34500
C  48.12200 26.97200 25.85400
N  46.23500 24.60000 30.24100
C  46.77800 25.59300 31.11400
C  46.30300 25.30400 32.54700
C  45.60400 23.80500 32.40100
C  45.75100 23.55600 30.88300
C  46.19700 22.69200 33.33200
C  45.41500 26.37800 33.26700
C  45.94100 26.98000 34.59300
H  44.88900 27.09100 35.74500
N  45.73100 22.84100 27.74200
C  45.34900 22.06100 28.84900
C  44.94100 20.73200 28.31000
C  45.23500 20.80500 26.88700
C  45.75200 22.11100 26.61900
C  44.54700 19.57200 29.18700
C  44.97900 19.61200 25.83700
O  45.27500 19.67500 24.66500
C  44.45100 18.18100 26.37700
N  47.12700 24.71200 25.85200
C  46.92600 23.76200 24.99200
C  47.36700 24.14200 23.52500
C  47.86100 25.66500 23.77700
C  47.75500 25.75800 25.28200
C  48.54300 23.26900 22.98700
C  46.93200 26.73700 23.08600
C  47.59700 27.97500 22.46400
N  47.61000 26.44400 28.17300
C  48.16300 27.29200 27.25000
C  48.90900 28.39100 27.92100
C  48.61900 28.17800 29.22700
C  47.93400 26.95600 29.36700
C  49.79100 29.52700 27.34500
C  48.82300 28.78900 30.54300
O  49.38900 29.82000 30.84500
C  48.04000 27.84800 31.56700
C  48.92500 27.33700 32.65600
O  49.67500 26.41400 32.37900
O  48.80100 27.97000 33.88300
C  49.80200 27.54100 34.91100
H  45.00600 21.66200 30.96500
H  46.34600 21.75800 24.54700
H  48.58100 27.76600 25.26200
H  47.23300 25.13000 33.08800
H  44.54700 23.79300 32.66700
H  45.38600 22.01600 33.60600
H  46.55600 23.05100 34.29600
H  47.06500 22.17800 32.92100
H  44.46000 25.92600 33.53200
H  45.14000 27.12000 32.51800
H  46.28500 27.99200 34.38200
H  46.85500 26.47300 34.90500
H  43.48200 19.36300 29.08400
H  44.65000 19.85000 30.23600
H  45.16100 18.69800 28.96900
H  45.12400 17.78100 27.13600
H  44.63100 17.63300 25.45300
H  43.39600 18.10400 26.64100
H  46.47200 24.03300 22.91300
H  48.88400 25.80400 23.42900
H  49.28100 23.71100 22.31700
H  48.14300 22.45600 22.38100
H  49.02300 22.72800 23.80200
H  46.23400 27.04400 23.86500
H  46.36800 26.25100 22.29000
H  47.25200 28.90700 22.91300
H  47.29000 28.07400 21.42300
H  48.67400 27.83300 22.54900
H  49.13400 30.03900 26.64200
H  50.70800 29.10400 26.93500
H  49.99500 30.21500 28.16600
H  47.35100 28.47100 32.13800
H  49.62100 27.92100 35.91700
H  50.76000 27.95700 34.60200
H  49.86800 26.45300 34.87400
Mg 29.83800 58.94500 38.80900
C  26.86400 57.36500 37.68200
C  31.56700 56.19900 37.80000
C  32.63100 60.81300 38.61900
C  27.94300 61.90200 39.13200
N  29.29300 57.02700 37.96300
C  28.01500 56.59500 37.57700
C  28.05800 55.18200 37.10800
C  29.40900 54.71800 37.66100
C  30.18200 56.05900 37.81500
C  29.24700 53.89500 38.95600
C  27.98700 55.13900 35.50200
C  26.76000 54.59400 34.74100
H  26.09300 55.64000 33.75800
N  31.75800 58.54400 38.37800
C  32.32200 57.36200 37.91700
C  33.72500 57.50800 37.68500
C  34.04800 58.78300 38.20100
C  32.79100 59.42800 38.46700
C  34.67100 56.43200 37.24400
C  35.48100 59.24900 38.46100
O  36.43800 58.52000 38.11800
C  35.87500 60.52300 39.15100
N  30.18200 61.12300 38.80700
C  31.47800 61.57300 38.87800
C  31.46700 63.12000 39.08500
C  29.95200 63.44600 39.41500
C  29.30900 62.05500 39.10900
C  32.48200 63.79600 39.99500
C  29.26200 64.66500 38.79400
C  28.14000 65.35100 39.59500
N  27.79200 59.46300 38.73000
C  27.22600 60.67200 38.91000
C  25.73000 60.50900 38.76600
C  25.49000 59.24300 38.23900
C  26.79200 58.65000 38.23100
C  24.69600 61.61600 38.99600
C  24.54600 58.36200 37.77800
O  23.35600 58.51400 37.60200
C  25.36300 57.05800 37.36900
C  24.83200 55.94500 38.23300
O  24.93500 55.80000 39.43400
O  24.12900 55.09800 37.42300
C  23.57100 53.85700 37.95000
H  32.09300 55.31200 37.44000
H  33.47400 61.50200 38.53500
H  27.29400 62.76700 39.28200
H  27.25600 54.52900 37.45300
H  29.87000 54.03900 36.94500
H  29.62400 54.55100 39.74100
H  29.76700 52.94000 39.02000
H  28.21800 53.65600 39.22500
H  28.86600 54.63700 35.09900
H  28.14900 56.15300 35.13600
H  26.05100 54.11400 35.41600
H  27.08100 53.68800 34.22800
H  35.18500 56.06600 38.13300
H  35.44100 56.70900 36.52400
H  34.28900 55.54300 36.74300
H  36.81200 60.56000 39.70700
H  35.13200 60.70000 39.92800
H  35.95000 61.29800 38.38800
H  31.64900 63.57100 38.10900
H  29.94100 63.57800 40.49700
H  31.98200 64.02000 40.93600
H  32.77500 64.72800 39.51000
H  33.28200 63.07800 40.17700
H  28.71000 64.37200 37.90100
H  29.98500 65.42100 38.48700
H  28.13200 64.97100 40.61700
H  27.17300 65.13400 39.14200
H  28.31400 66.42700 39.63900
H  25.04900 62.29100 39.77600
H  23.79600 61.17500 39.42400
H  24.39200 62.19700 38.12500
H  25.21800 56.85800 36.30700
H  22.52100 54.00200 38.20300
H  24.06500 53.36200 38.78700
H  23.76900 53.15000 37.14500

