158

Mg 7.39100 2.89800 27.37600
C  8.83400 1.56900 30.21200
C  5.40900 4.83600 29.51000
C  5.73500 3.94700 24.78800
C  9.10200 0.49700 25.50900
N  7.15400 3.21900 29.70100
C  7.99200 2.66100 30.56500
C  7.77100 3.26800 31.95000
C  6.46600 4.24100 31.78800
C  6.30900 4.10500 30.22100
C  5.26300 3.86000 32.63900
C  8.98300 3.94500 32.56900
C  8.72900 4.29400 34.10800
H  9.99700 3.97700 34.92600
N  5.95000 4.35900 27.19000
C  5.14800 4.94800 28.11700
C  4.23300 5.88100 27.47900
C  4.31500 5.65100 26.06200
C  5.39500 4.66800 26.00700
C  3.24200 6.76100 28.26700
C  3.41400 6.27700 24.90200
O  3.68000 5.98200 23.73300
C  2.29900 7.30000 25.23200
N  7.60000 2.41000 25.45900
C  6.70800 2.98900 24.60200
C  6.90700 2.35300 23.19900
C  7.89800 1.22700 23.34200
C  8.17200 1.36300 24.84600
C  5.58600 1.86000 22.49000
C  9.24100 1.34400 22.47700
C  9.65000 0.01100 21.74400
N  8.65600 1.25200 27.72000
C  9.35700 0.44100 26.85600
C  10.28500 -0.40300 27.52600
C  10.11900 -0.03500 28.89500
C  9.04800 0.94200 28.93000
C  11.36200 -1.25400 27.00600
C  10.60300 -0.21100 30.19300
O  11.41500 -0.99600 30.66800
C  9.72700 0.80400 31.09700
C  9.25000 0.06100 32.24600
O  8.25900 -0.65700 32.24100
O  10.01500 0.28800 33.36900
C  9.43900 0.08000 34.68900
H  4.90500 5.65400 30.02900
H  5.21700 4.30500 23.89600
H  9.73000 -0.21300 24.96700
H  7.44700 2.44900 32.59200
H  6.68900 5.28100 32.02600
H  4.94300 4.69900 33.25700
H  5.57400 3.04200 33.28900
H  4.44300 3.58700 31.97400
H  9.05600 4.95900 32.17700
H  9.94900 3.49900 32.33200
H  7.82500 3.82600 34.49900
H  8.55000 5.36500 34.19700
H  2.27800 6.62400 27.77800
H  3.59500 7.76600 28.03500
H  3.14300 6.64000 29.34600
H  2.65700 8.15000 25.81400
H  1.46300 6.81200 25.73300
H  1.88700 7.65800 24.28900
H  7.24600 3.18500 22.58200
H  7.52600 0.20800 23.22800
H  4.72900 1.86900 23.16300
H  5.63500 0.90500 21.96700
H  5.47600 2.68800 21.79100
H  10.04100 1.66400 23.14500
H  9.12100 2.13000 21.73200
H  8.79000 -0.54500 21.37000
H  10.25700 -0.48900 22.49900
H  10.34000 0.23000 20.92900
H  11.60000 -0.70600 26.09400
H  11.07600 -2.26500 26.71800
H  12.25100 -1.37100 27.62500
H  10.45700 1.49200 31.52100
H  8.93300 0.99300 35.00300
H  10.20400 -0.34800 35.33700
H  8.61500 -0.62800 34.76200
Mg 36.48900 50.03400 24.67100
C  36.61600 48.21100 27.75900
C  34.55600 52.44900 26.45500
C  35.62300 51.45900 21.77900
C  37.87400 47.27500 23.05600
N  35.64500 50.21400 26.91700
C  35.89100 49.43800 27.97200
C  35.44300 49.92100 29.30500
C  34.56900 51.23200 28.87800
C  34.89900 51.31200 27.30800
C  33.07700 51.46000 29.16100
C  36.59500 50.28600 30.33400
C  36.65100 49.65600 31.70900
H  35.25500 49.45100 32.26900
N  35.37400 51.77500 24.21400
C  34.67200 52.63300 25.07300
C  34.23900 53.75900 24.26400
C  34.52900 53.52900 22.86800
C  35.14500 52.16500 22.87400
C  33.65600 54.90800 24.94800
C  34.25800 54.38300 21.62300
O  34.59400 54.06900 20.46600
C  33.60500 55.81800 21.74800
N  36.76200 49.46000 22.68300
C  36.44100 50.31100 21.67200
C  36.98400 49.66900 20.34200
C  37.93200 48.49200 20.79500
C  37.56800 48.36800 22.26500
C  35.73800 49.32200 19.44300
C  39.47200 48.58600 20.28200
C  40.50800 49.03300 21.38000
N  37.18100 48.12400 25.24100
C  37.70400 47.14200 24.46600
C  38.10000 46.03600 25.23000
C  37.72000 46.38800 26.54900
C  37.13000 47.69200 26.50200
C  38.67700 44.71600 24.78700
C  37.72000 45.85700 27.91200
O  38.09700 44.76200 28.40000
C  37.05300 47.08200 28.78900
C  36.02100 46.65800 29.73900
O  34.83000 46.72300 29.56000
O  36.63400 45.92500 30.74500
C  35.75300 45.31900 31.80000
H  34.13200 53.25900 27.05300
H  35.42200 51.91300 20.80600
H  38.40700 46.43100 22.61400
H  34.70700 49.22800 29.71200
H  35.03200 52.04700 29.43500
H  32.79300 50.54300 29.67600
H  32.50200 51.54200 28.23900
H  32.91300 52.29600 29.84100
H  36.60000 51.35900 30.52600
H  37.56000 50.09800 29.86400
H  37.28800 50.14200 32.44800
H  37.12500 48.67400 31.68200
H  34.09300 55.86500 24.66300
H  33.98800 54.92800 25.98600
H  32.57200 54.84800 24.85700
H  34.26400 56.42700 22.36700
H  32.61600 55.74600 22.19900
H  33.49900 56.28200 20.76700
H  37.62900 50.37100 19.81400
H  37.43100 47.57600 20.48200
H  34.78000 49.38000 19.96100
H  35.80800 48.26700 19.18000
H  35.66600 49.87700 18.50800
H  39.57400 49.38700 19.54900
H  39.80100 47.65600 19.81900
H  41.40000 48.47000 21.10300
H  40.20100 48.86600 22.41200
H  40.73500 50.09100 21.24800
H  38.41200 43.88400 25.44000
H  39.74300 44.86500 24.61600
H  38.31900 44.32700 23.83400
H  37.88700 47.37300 29.42700
H  35.46700 44.33000 31.44200
H  34.87700 45.92400 32.03600
H  36.41300 45.33200 32.66800

