158

Mg 46.81600 44.21200 42.17400
C  43.31200 43.68600 41.99700
C  47.11800 40.88700 42.06600
C  50.07600 44.82000 42.02400
C  46.11400 47.64600 42.17700
N  45.33300 42.53000 41.76900
C  44.02500 42.47700 41.86600
C  43.39000 41.08400 41.83000
C  44.63200 40.21200 41.89200
C  45.76400 41.28100 41.82800
C  44.67600 39.22400 43.00400
C  42.38000 40.74300 40.61100
C  42.55400 41.47900 39.26500
H  42.71600 40.66900 38.00200
N  48.40900 42.97800 42.07900
C  48.34300 41.62300 42.08600
C  49.72400 41.12500 42.13700
C  50.60600 42.24000 42.29400
C  49.68400 43.42900 42.15800
C  50.03500 39.66300 42.09700
C  52.20100 42.11400 42.55800
O  52.77500 41.01500 42.64000
C  53.13200 43.32300 42.66900
N  47.94700 46.00200 41.93400
C  49.29300 45.98700 41.98700
C  49.87200 47.41400 42.00500
C  48.59500 48.20600 42.23000
C  47.47400 47.26700 42.04200
C  51.04100 47.64800 43.05500
C  48.48300 49.45500 41.26400
C  48.14100 50.82200 41.87000
N  45.15700 45.45100 41.98300
C  45.00100 46.83300 42.03200
C  43.63900 47.27500 42.08700
C  42.95700 46.00000 42.07400
C  43.90000 44.93400 41.98100
C  43.03700 48.65700 42.06800
C  41.58600 45.43500 42.10900
O  40.48100 45.92400 42.12400
C  41.84600 43.85700 42.19500
C  41.44000 43.20500 43.50500
O  40.65800 42.26800 43.60400
O  42.05000 43.76900 44.55200
C  41.99300 42.84000 45.67000
H  47.20400 39.81300 42.24700
H  51.16200 44.91500 41.97400
H  46.02700 48.69700 42.46200
H  42.89300 40.95200 42.79100
H  44.57200 39.64100 40.96600
H  45.15100 39.55300 43.92800
H  45.18900 38.32500 42.66000
H  43.68100 38.87500 43.28000
H  41.40800 41.06100 40.99000
H  42.42900 39.66500 40.45700
H  43.52300 41.97600 39.29500
H  41.76400 42.21000 39.09700
H  49.14700 39.21300 41.65300
H  50.28500 39.33900 43.10800
H  50.95000 39.46200 41.53900
H  53.12000 43.73400 41.66000
H  54.16500 43.12800 42.95800
H  52.65200 44.08800 43.27900
H  50.36300 47.58800 41.04800
H  48.69600 48.56400 43.25400
H  51.98500 47.43800 42.55200
H  50.98500 46.81100 43.75100
H  51.08500 48.59200 43.59700
H  47.69300 49.23900 40.54500
H  49.39800 49.55300 40.68000
H  48.99600 51.47800 41.71300
H  47.76700 50.71900 42.88900
H  47.27500 51.10000 41.27000
H  43.73600 49.35400 41.60500
H  42.95200 48.92300 43.12200
H  42.10300 48.64600 41.50700
H  41.19100 43.50600 41.39800
H  42.31700 43.35600 46.57400
H  42.52000 41.93200 45.37700
H  41.02600 42.45100 45.99000
Mg -1.68300 35.09000 26.75700
C  -3.00700 32.74800 29.16000
C  -0.91500 37.16700 29.23100
C  -0.85300 37.22300 24.25200
C  -2.88400 32.93000 24.30300
N  -1.96200 34.94400 28.97100
C  -2.38400 33.85400 29.71300
C  -2.14800 34.16800 31.22900
C  -1.66000 35.66400 31.23200
C  -1.47700 35.98700 29.70900
C  -2.59500 36.73600 31.96100
C  -1.33600 33.11100 31.93100
C  -1.95400 32.63700 33.32900
H  -0.97200 32.44800 34.54300
N  -0.84000 36.87700 26.78500
C  -0.52400 37.56300 27.90400
C  0.08400 38.76700 27.46800
C  0.00900 38.82800 26.03800
C  -0.56700 37.60200 25.61500
C  0.59200 39.84800 28.43700
C  0.49000 39.97500 25.08400
O  0.49800 39.94000 23.86600
C  1.06500 41.27800 25.71100
N  -1.75000 34.99100 24.59400
C  -1.42100 36.02800 23.81000
C  -1.90000 35.74700 22.28200
C  -2.17600 34.21300 22.30800
C  -2.30400 34.05800 23.79700
C  -3.25000 36.38600 21.83100
C  -0.94900 33.34400 21.80900
C  0.24300 33.04400 22.77900
N  -2.84700 33.29800 26.65700
C  -3.11700 32.54500 25.57200
C  -3.78100 31.35000 25.96700
C  -3.84400 31.40200 27.37500
C  -3.19400 32.59300 27.75200
C  -4.36100 30.24500 25.08700
C  -4.32200 30.76300 28.67700
O  -4.86500 29.74200 28.92000
C  -3.75800 31.60700 29.89000
C  -4.88100 32.24500 30.68100
O  -5.41200 33.33100 30.43900
O  -5.20400 31.44900 31.69400
C  -6.08500 32.04200 32.68400
H  -0.65300 37.89300 30.00400
H  -0.62400 37.89500 23.42300
H  -3.21900 32.18100 23.58300
H  -3.12000 34.11700 31.72000
H  -0.68000 35.81200 31.68600
H  -3.35900 36.29300 32.60000
H  -2.94700 37.46900 31.23500
H  -1.89100 37.16800 32.67200
H  -0.34100 33.55000 32.00600
H  -1.25400 32.24500 31.27500
H  -2.44300 31.67200 33.19400
H  -2.73200 33.35100 33.59900
H  1.58500 40.16100 28.11500
H  0.60700 39.48800 29.46500
H  -0.00100 40.76200 28.43100
H  0.99800 41.98900 24.88700
H  2.11000 41.19500 26.00800
H  0.43800 41.72900 26.48100
H  -1.14600 35.88500 21.50700
H  -3.06000 33.92000 21.74200
H  -3.22300 36.50900 20.74900
H  -3.26700 37.42000 22.17500
H  -4.06300 35.78800 22.24500
H  -0.73600 33.71700 20.80700
H  -1.30400 32.35300 21.52600
H  0.48400 33.86000 23.46000
H  1.16600 32.86100 22.22900
H  0.07700 32.16800 23.40600
H  -5.42400 30.37600 24.88700
H  -4.25400 29.30100 25.62200
H  -3.74500 30.14500 24.19300
H  -3.02900 31.17700 30.57700
H  -5.48600 32.69900 33.31500
H  -6.50500 31.25800 33.31400
H  -6.85900 32.64600 32.21000

