158

Mg 34.82900 2.00900 29.11300
C  32.69100 3.08800 31.68500
C  37.43300 2.04000 31.33800
C  37.07400 1.95000 26.48700
C  32.34800 2.86800 26.80100
N  35.04000 2.47600 31.27300
C  34.02900 2.81900 32.10700
C  34.52700 2.72300 33.53600
C  36.08900 2.64900 33.42300
C  36.27300 2.33300 31.94000
C  36.79600 3.98400 33.95800
C  33.85800 1.69000 34.45300
C  33.40800 2.16400 35.88000
H  34.14200 3.27200 36.55900
N  36.91300 1.71800 28.96900
C  37.77600 1.79100 30.00000
C  39.10200 1.62000 29.49300
C  39.04700 1.64100 28.09100
C  37.59900 1.76300 27.75500
C  40.33000 1.43700 30.40200
C  40.18700 1.59400 27.09600
O  40.05300 1.65500 25.86500
C  41.62200 1.44800 27.62000
N  34.66900 2.24100 26.96100
C  35.72600 2.09000 26.11200
C  35.27400 2.26100 24.65800
C  33.71700 2.31500 24.77700
C  33.52900 2.44600 26.21600
C  35.87900 3.54800 24.04000
C  32.97200 1.06800 24.25200
C  33.03600 -0.25000 25.08000
N  32.81800 2.64400 29.16800
C  31.97500 2.98600 28.15500
C  30.65800 3.31500 28.69100
C  30.83400 3.35300 30.09100
C  32.22400 2.99800 30.33300
C  29.38800 3.74100 27.93800
C  30.24200 3.56900 31.35100
O  29.11900 3.95600 31.60700
C  31.47000 3.37700 32.47000
C  31.61200 4.62700 33.39600
O  32.31000 5.64200 33.17900
O  30.92100 4.34400 34.55200
C  30.84800 5.55500 35.43000
H  38.38300 2.02600 31.87700
H  37.77500 1.96900 25.65000
H  31.48300 3.18700 26.21700
H  34.27200 3.74600 33.81200
H  36.46000 1.76600 33.94200
H  36.20600 4.62400 34.61400
H  37.16600 4.54900 33.10300
H  37.64500 3.75300 34.60100
H  34.56500 0.87600 34.61600
H  33.11500 1.11000 33.90500
H  33.37900 1.25000 36.47400
H  32.38800 2.53200 35.77300
H  40.91800 0.60700 30.00800
H  40.07200 1.19900 31.43400
H  40.90900 2.35100 30.27000
H  41.90900 0.40000 27.70400
H  41.75300 2.12900 28.46100
H  42.20900 1.90800 26.82500
H  35.47600 1.42900 23.98200
H  33.28200 3.06700 24.12000
H  35.13800 4.30000 23.77000
H  36.44100 3.42800 23.11300
H  36.59200 4.02000 24.71500
H  33.31500 0.86600 23.23700
H  31.89200 1.22000 24.26400
H  32.04100 -0.53600 25.42200
H  33.76100 -0.13300 25.88600
H  33.44700 -1.05000 24.46400
H  28.59500 3.00200 28.05100
H  29.48700 3.97700 26.87800
H  28.91200 4.59300 28.42300
H  31.33600 2.57200 33.19300
H  29.95900 5.35400 36.02700
H  30.69800 6.43000 34.79800
H  31.67400 5.66300 36.13400
Mg -11.25300 39.27400 42.16200
C  -9.21800 36.39100 41.40800
C  -8.90200 41.07200 40.44200
C  -13.45900 41.79000 41.83500
C  -13.86900 37.00300 42.80500
N  -9.33200 38.74000 41.06300
C  -8.71700 37.55200 40.87700
C  -7.40600 37.65300 40.05400
C  -7.15700 39.23200 40.04600
C  -8.53700 39.76800 40.57100
C  -5.90400 39.72300 40.90700
C  -7.45300 36.97600 38.67700
C  -6.36100 35.92900 38.32600
H  -5.65000 36.08200 36.98100
N  -11.09200 41.28200 41.52500
C  -10.04000 41.76700 40.84300
C  -10.30100 43.16100 40.56900
C  -11.63000 43.42800 41.01600
C  -12.12200 42.14100 41.49200
C  -9.31200 44.07100 39.91800
C  -12.36000 44.78800 40.93300
O  -11.76800 45.71100 40.44900
C  -13.68400 45.08700 41.51400
N  -13.35600 39.29600 42.10800
C  -14.03400 40.50300 42.10300
C  -15.55100 40.37400 42.40900
C  -15.66800 38.78700 42.56600
C  -14.19800 38.32400 42.46500
C  -16.12300 41.22400 43.53700
C  -16.73100 38.20100 41.56000
C  -17.70300 37.20600 42.24700
N  -11.47500 37.13400 42.29600
C  -12.64000 36.39400 42.58800
C  -12.29800 35.06200 42.74800
C  -10.92200 34.99600 42.29700
C  -10.53500 36.26800 41.96500
C  -13.09900 34.03800 43.28800
C  -9.69800 34.18500 42.17200
O  -9.49400 32.99300 42.35300
C  -8.56000 35.04000 41.47900
C  -7.31200 35.02500 42.30300
O  -6.49800 34.12900 42.25300
O  -7.21100 36.07800 43.14700
C  -6.13200 36.05300 44.18600
H  -8.18000 41.62700 39.83900
H  -14.25600 42.53500 41.86000
H  -14.72000 36.32600 42.90500
H  -6.62000 37.13900 40.60700
H  -7.02700 39.50000 38.99700
H  -5.91800 39.43700 41.95900
H  -5.86200 40.81200 40.88300
H  -4.97800 39.34200 40.47500
H  -7.18300 37.75900 37.96800
H  -8.48400 36.68500 38.47300
H  -6.69700 34.90600 38.50000
H  -5.61900 36.09800 39.10600
H  -8.62700 43.42400 39.37000
H  -8.85800 44.73400 40.65500
H  -9.79700 44.68200 39.15800
H  -13.60800 44.92500 42.58900
H  -14.39900 44.44300 41.00100
H  -13.89900 46.15300 41.43800
H  -16.09500 40.77900 41.55600
H  -15.85800 38.72100 43.63700
H  -15.34500 41.51000 44.24400
H  -16.85700 40.62500 44.07600
H  -16.61900 42.08300 43.08500
H  -16.29300 37.59800 40.76500
H  -17.33100 38.98800 41.10400
H  -18.67100 37.26900 41.74900
H  -17.80500 37.37500 43.31900
H  -17.33500 36.18100 42.20400
H  -12.48000 33.19100 43.58200
H  -13.86800 33.80300 42.55200
H  -13.56900 34.43000 44.19000
H  -8.34800 34.60500 40.50200
H  -6.49800 35.70100 45.15000
H  -5.85000 37.09700 44.32200
H  -5.20600 35.56700 43.87700

