158

Mg 24.00900 -4.83300 46.50500
C  26.22700 -2.54100 45.07800
C  21.63700 -3.69900 44.37500
C  22.29700 -7.59700 47.28800
C  26.93100 -6.21000 48.11100
N  23.98700 -3.29900 44.83500
C  24.96600 -2.44700 44.44300
C  24.49900 -1.61000 43.23600
C  22.91000 -1.75900 43.40400
C  22.80500 -2.96100 44.33800
C  22.14100 -0.54300 43.92000
C  25.09100 -2.12600 41.85800
C  26.15100 -1.23900 41.10300
H  26.05000 -1.43800 39.63200
N  22.12500 -5.50100 45.99700
C  21.33700 -4.92500 45.03200
C  20.15000 -5.70500 44.94400
C  20.25900 -6.86600 45.81800
C  21.59600 -6.74600 46.47800
C  18.98000 -5.36800 44.03400
C  19.26400 -7.98900 45.92700
O  18.15800 -7.93500 45.36500
C  19.65500 -9.34300 46.55900
N  24.61200 -6.55400 47.54400
C  23.66900 -7.53500 47.80100
C  24.16900 -8.76600 48.62100
C  25.66000 -8.36400 48.78500
C  25.77200 -6.94900 48.08200
C  23.38600 -9.08600 49.95100
C  26.52900 -9.47000 48.18700
C  27.69100 -9.83900 49.11200
N  26.18600 -4.36200 46.77500
C  27.13200 -4.90600 47.53100
C  28.40800 -4.22000 47.38800
C  28.08100 -3.22500 46.46200
C  26.71200 -3.36200 46.13700
C  29.74800 -4.42900 48.05300
C  28.62200 -2.16500 45.69600
O  29.72500 -1.71900 45.58500
C  27.53900 -1.69000 44.71200
C  27.44300 -0.24000 44.83100
O  26.96300 0.37800 45.75500
O  28.02900 0.36700 43.79500
C  28.04400 1.86400 43.94500
H  20.96600 -3.24700 43.64100
H  21.66900 -8.39200 47.69700
H  27.80000 -6.55800 48.67400
H  24.73100 -0.54600 43.27200
H  22.46400 -2.05800 42.45600
H  22.72200 0.24900 44.39200
H  21.38400 -0.89800 44.61900
H  21.61900 -0.00200 43.13100
H  24.33400 -2.33400 41.10300
H  25.52200 -3.10600 42.06100
H  27.17100 -1.48200 41.40300
H  26.06800 -0.21800 41.47700
H  19.12800 -4.43100 43.49600
H  18.05900 -5.30500 44.61400
H  18.80200 -6.20700 43.36200
H  20.65900 -9.52500 46.17400
H  19.01100 -10.14800 46.20700
H  19.67700 -9.23300 47.64300
H  24.09600 -9.65700 47.99800
H  25.73900 -8.04400 49.82400
H  23.08000 -10.12900 50.03300
H  22.49900 -8.45300 49.92500
H  24.07700 -8.84400 50.75900
H  26.96900 -9.12200 47.25200
H  25.89200 -10.31200 47.91700
H  27.46900 -9.35300 50.06200
H  28.60700 -9.48200 48.63900
H  27.84600 -10.90000 49.30700
H  30.10600 -5.41300 47.75200
H  29.82400 -4.20500 49.11700
H  30.43100 -3.85400 47.42800
H  27.80900 -1.96600 43.69200
H  28.35300 2.31000 43.00000
H  28.86700 2.27500 44.53000
H  27.06600 2.28400 44.18300
Mg 47.39700 25.27800 28.66400
C  48.67800 27.41600 31.12100
C  46.70300 23.00800 30.99200
C  47.04000 23.00400 26.18800
C  48.84400 27.44900 26.21300
N  47.62700 25.24100 30.74400
C  47.97300 26.30600 31.56200
C  47.58000 26.05800 33.00400
C  47.10600 24.59900 33.04900
C  47.11100 24.24000 31.54400
C  47.93600 23.61800 33.86100
C  46.42600 27.04900 33.41300
C  46.76300 27.93100 34.67800
H  45.77900 27.82100 35.90900
N  46.84700 23.29800 28.61100
C  46.61300 22.54200 29.66900
C  46.21800 21.16400 29.24800
C  46.20400 21.16700 27.85100
C  46.74700 22.53300 27.50100
C  45.93900 20.03300 30.27800
C  45.86300 20.09400 26.89400
O  46.04500 20.22300 25.69100
C  45.30700 18.76000 27.24000
N  47.82800 25.30300 26.51500
C  47.38800 24.28000 25.66500
C  47.69200 24.58000 24.18200
C  48.29300 25.98000 24.28400
C  48.22300 26.30900 25.75800
C  48.70700 23.56900 23.64400
C  47.54700 27.08200 23.49400
C  48.38600 28.19100 22.78800
N  48.47800 27.09000 28.63400
C  48.94400 27.82500 27.55700
C  49.64200 28.96000 28.09600
C  49.46900 28.92900 29.50800
C  48.83100 27.67700 29.76400
C  50.52700 29.90600 27.31900
C  49.82100 29.58500 30.75800
O  50.47200 30.57800 30.98400
C  49.19400 28.69000 31.88300
C  50.20800 28.28900 32.99400
O  50.73000 27.15900 33.05800
O  50.45700 29.29500 33.78900
C  51.41800 28.89400 34.90400
H  46.47300 22.23300 31.72700
H  46.89400 22.43400 25.26800
H  49.32700 28.07800 25.46300
H  48.40000 26.25200 33.69500
H  46.06600 24.42800 33.32800
H  48.93900 23.52800 33.44400
H  47.52400 22.61200 33.94100
H  47.96100 24.10100 34.83800
H  45.53200 26.44700 33.57700
H  46.24500 27.75400 32.60200
H  46.77700 28.88500 34.15200
H  47.73900 27.65100 35.07500
H  45.68500 19.04000 29.90700
H  45.09600 20.43100 30.84300
H  46.74900 19.95100 31.00300
H  46.07000 18.23700 27.81600
H  45.11500 18.19600 26.32700
H  44.42800 18.90600 27.86800
H  46.82600 24.63500 23.52200
H  49.36300 26.02000 24.08000
H  49.37700 23.90700 22.85400
H  48.11200 22.74400 23.25300
H  49.36300 23.33300 24.48200
H  46.96000 27.65500 24.21100
H  46.90700 26.59000 22.76200
H  48.35000 28.11600 21.70100
H  49.45400 28.03300 22.94100
H  48.22900 29.23800 23.04900
H  50.18400 30.23700 26.33900
H  51.46800 29.41200 27.07500
H  50.67100 30.75100 27.99200
H  48.33000 29.19000 32.32000
H  50.94100 28.06700 35.43100
H  51.54900 29.76600 35.54500
H  52.38400 28.53000 34.55400

