158

Mg 0.70400 8.49000 26.18000
C  1.51300 10.23000 29.15600
C  1.18100 5.55700 27.96200
C  0.70300 6.78900 23.23400
C  1.15800 11.38000 24.39100
N  1.21400 8.00000 28.31400
C  1.40700 8.87700 29.36100
C  1.43300 8.11000 30.67200
C  1.51900 6.65600 30.29400
C  1.25900 6.72600 28.77100
C  2.87300 5.83200 30.65300
C  0.23600 8.51600 31.62300
C  0.36600 8.50800 33.26800
H  1.69100 7.95300 33.78400
N  0.83500 6.43600 25.68300
C  0.98700 5.40300 26.58600
C  0.93700 4.14500 25.87800
C  0.84100 4.52800 24.46400
C  0.74300 5.97600 24.37800
C  0.99400 2.80200 26.52700
C  0.88800 3.65500 23.20100
O  0.66300 4.14200 22.10900
C  1.39200 2.26300 23.31100
N  0.70000 8.95400 24.19800
C  0.76200 8.16100 23.17300
C  1.14300 8.89800 21.96700
C  0.49100 10.22400 22.28100
C  0.75300 10.20000 23.71800
C  2.68700 8.96700 21.71700
C  -1.04100 10.39500 22.04800
C  -1.49900 11.67800 21.46600
N  1.15800 10.46300 26.63800
C  1.41800 11.52700 25.78800
C  1.80200 12.72200 26.58200
C  1.76900 12.21300 27.93500
C  1.36700 10.86500 27.91200
C  2.09600 14.13900 26.08300
C  2.05900 12.61200 29.31700
O  2.50200 13.65300 29.75700
C  1.80500 11.27600 30.14400
C  2.88900 11.09100 31.13800
O  4.03200 10.71600 30.89600
O  2.50900 11.57200 32.35400
C  3.52800 11.41300 33.46000
H  1.28500 4.65500 28.56800
H  0.74200 6.39600 22.21600
H  1.45200 12.13200 23.65600
H  2.34800 8.24800 31.24700
H  0.64800 6.08300 30.61000
H  2.50500 4.80800 30.72100
H  3.33800 6.18800 31.57300
H  3.61300 5.97700 29.86600
H  -0.58400 7.84100 31.37600
H  -0.05800 9.53600 31.37500
H  -0.39800 7.88600 33.73500
H  0.23700 9.48000 33.74500
H  0.66800 2.71400 27.56400
H  1.95300 2.31000 26.36700
H  0.21700 2.27100 25.97700
H  1.69700 1.99800 22.29800
H  0.73600 1.53200 23.78300
H  2.24000 2.18200 23.99100
H  0.65900 8.41500 21.11800
H  0.94100 10.95000 21.60400
H  3.08900 9.97800 21.65600
H  3.04300 8.49700 20.80000
H  3.19400 8.46000 22.53800
H  -1.62600 10.23700 22.95400
H  -1.39200 9.74200 21.24900
H  -0.75000 12.45800 21.33800
H  -2.15000 12.20100 22.16700
H  -2.11800 11.58100 20.57300
H  1.21000 14.57700 25.62300
H  3.03800 14.25600 25.54600
H  2.34000 14.76000 26.94500
H  0.94600 11.44700 30.79200
H  3.68800 12.39100 33.91300
H  4.41400 10.80400 33.28200
H  2.96800 10.99500 34.29700
Mg 53.87100 23.45400 45.15600
C  51.57700 26.06400 44.30100
C  51.54100 21.25300 43.94400
C  56.32100 21.21000 45.14900
C  56.26300 25.96200 46.15700
N  51.72400 23.69300 44.25600
C  51.02200 24.83600 44.00700
C  49.60800 24.52200 43.50200
C  49.57900 22.90100 43.67500
C  51.04300 22.55700 44.04900
C  48.44100 22.39700 44.64800
C  49.39000 25.04500 42.06000
C  47.90200 25.18500 41.66400
H  47.50100 24.36200 40.39000
N  53.90100 21.48400 44.59800
C  52.87600 20.74700 44.05600
C  53.29700 19.36500 43.99400
C  54.72000 19.31600 44.30700
C  55.05800 20.68600 44.70200
C  52.43700 18.23500 43.40300
C  55.56000 18.04600 44.34900
O  55.15700 16.96700 43.87600
C  56.88500 17.94100 45.05000
N  56.02500 23.62700 45.33000
C  56.77900 22.50900 45.38400
C  58.22500 22.74400 45.76100
C  58.22000 24.24200 45.98300
C  56.77800 24.69400 45.75300
C  58.78700 21.95900 46.91900
C  59.17600 24.99800 44.98800
C  59.82600 26.34000 45.53900
N  53.96400 25.55300 45.30300
C  54.92300 26.37600 45.75500
C  54.37500 27.75100 45.78700
C  53.11000 27.65900 45.15600
C  52.92600 26.31900 44.84200
C  55.16500 28.95600 46.18900
C  51.95300 28.44500 44.79200
O  51.70100 29.69600 44.93500
C  51.07500 27.44000 44.05900
C  51.21500 27.79300 42.61900
O  51.92600 27.26300 41.77500
O  50.44100 28.89100 42.32400
C  50.16500 29.19500 40.98300
H  50.82800 20.45400 43.73100
H  57.10800 20.45400 45.17100
H  56.91700 26.74700 46.54300
H  48.92200 25.10900 44.11300
H  49.39100 22.43100 42.71000
H  47.98500 21.46200 44.32200
H  47.62400 23.11700 44.69300
H  48.73500 22.29100 45.69200
H  49.80500 24.25600 41.43400
H  49.82900 26.00500 41.78700
H  47.70500 26.23200 41.43300
H  47.27400 24.87400 42.49900
H  51.36800 18.42200 43.29500
H  52.48900 17.46200 44.17000
H  52.89600 17.88400 42.47900
H  57.65000 18.40900 44.43000
H  57.08600 16.87300 45.12600
H  56.92700 18.37700 46.04800
H  58.78500 22.39900 44.89200
H  58.53400 24.39600 47.01500
H  59.71900 22.37500 47.30000
H  58.87900 20.91700 46.61400
H  58.08300 21.84500 47.74400
H  58.64000 25.37100 44.11500
H  59.92800 24.26600 44.69500
H  60.88200 26.09000 45.64000
H  59.37700 26.66400 46.47700
H  59.73200 27.10400 44.76800
H  56.24500 28.80800 46.22400
H  54.71100 29.24800 47.13600
H  55.00400 29.68600 45.39500
H  50.00800 27.44200 44.28100
H  49.15500 29.60500 40.95300
H  50.32600 28.40000 40.25600
H  50.72400 30.10200 40.75100

