158

Mg 1.42600 -1.23800 44.03000
C  4.83600 -0.36500 43.78500
C  0.59300 1.59000 42.45900
C  -1.76000 -2.49100 43.93600
C  2.50400 -4.11800 45.95300
N  2.64100 0.37400 43.20000
C  4.00000 0.59700 43.25700
C  4.35500 2.00900 42.77100
C  2.96800 2.67100 42.57200
C  1.98100 1.52400 42.75000
C  2.67600 3.91300 43.50700
C  5.36500 2.15500 41.52400
C  5.45300 1.03700 40.49400
H  5.18600 1.36600 39.05400
N  -0.32800 -0.58300 43.14900
C  -0.45000 0.62100 42.50200
C  -1.81700 0.66800 41.99900
C  -2.58700 -0.45600 42.53500
C  -1.52800 -1.23700 43.18500
C  -2.28000 1.84800 41.12700
C  -4.05500 -0.76200 42.37000
O  -4.74300 0.11000 41.83600
C  -4.80100 -2.00800 42.82700
N  0.54000 -3.15200 44.69900
C  -0.87100 -3.25600 44.68000
C  -1.25500 -4.54800 45.47900
C  0.07500 -4.90300 46.32100
C  1.14300 -3.96700 45.66400
C  -2.57300 -4.43000 46.38800
C  0.53000 -6.36500 46.16000
C  0.89500 -6.85300 44.72800
N  3.27700 -2.07700 44.72900
C  3.53100 -3.29700 45.46800
C  4.89500 -3.39800 45.68600
C  5.50600 -2.25000 45.06100
C  4.45300 -1.53200 44.42600
C  5.59800 -4.56500 46.36500
C  6.75500 -1.59300 44.76400
O  7.91400 -1.93300 45.00300
C  6.35100 -0.30000 43.94100
C  6.78700 0.93200 44.65700
O  6.43800 1.30000 45.74100
O  7.74600 1.63800 43.96500
C  8.21000 2.87900 44.51200
H  0.29500 2.57300 42.08900
H  -2.83600 -2.61200 44.07800
H  2.75700 -4.92700 46.64100
H  4.83500 2.43500 43.65200
H  2.96500 3.10000 41.57000
H  2.64200 4.83200 42.92200
H  3.38000 4.04000 44.33000
H  1.70500 3.85900 43.99800
H  6.38400 2.12100 41.91100
H  5.19800 3.07800 40.96900
H  4.80600 0.19300 40.73400
H  6.45700 0.61400 40.45600
H  -2.77700 2.60400 41.73400
H  -3.08900 1.52700 40.47100
H  -1.50700 2.22700 40.45800
H  -5.80300 -2.22500 42.45600
H  -4.80400 -2.10900 43.91200
H  -4.35600 -2.93500 42.46600
H  -1.56100 -5.41000 44.88600
H  0.07200 -4.61500 47.37200
H  -3.20700 -5.29700 46.20000
H  -3.16900 -3.53500 46.21100
H  -2.38000 -4.37000 47.45900
H  -0.40600 -6.87700 46.37800
H  1.32500 -6.56200 46.88000
H  1.94900 -7.12700 44.77800
H  0.67900 -6.17700 43.90100
H  0.34000 -7.74600 44.44000
H  5.51300 -4.52500 47.45100
H  6.63700 -4.64900 46.04700
H  5.11400 -5.45100 45.95500
H  7.00300 -0.35800 43.06900
H  9.07500 3.17200 43.91700
H  8.45600 2.81700 45.57200
H  7.35600 3.55300 44.43900
Mg 48.21600 16.46200 28.18900
C  46.57700 16.49300 31.18100
C  50.73500 18.41400 29.83200
C  50.04000 17.09800 25.22500
C  45.61100 15.39800 26.56700
N  48.48300 17.56400 30.36100
C  47.80300 17.15600 31.42500
C  48.48200 17.53400 32.75800
C  49.60000 18.58100 32.19600
C  49.67300 18.12300 30.72100
C  49.37400 20.09400 32.34900
C  48.93400 16.37000 33.69000
C  48.29500 16.50300 35.12000
H  48.70400 17.64400 36.06600
N  50.12700 17.46700 27.65100
C  51.00200 18.09600 28.45600
C  52.23300 18.54400 27.73100
C  52.08800 18.15400 26.40200
C  50.73100 17.57900 26.39300
C  53.44100 18.97100 28.46600
C  53.01000 18.16100 25.20600
O  52.60200 18.00600 24.05700
C  54.53500 18.49000 25.27800
N  47.95700 16.08400 26.19900
C  48.76600 16.41300 25.11400
C  48.12800 15.83700 23.76400
C  46.77700 15.18400 24.32500
C  46.79500 15.52900 25.78000
C  48.02700 16.92800 22.66600
C  46.43400 13.74200 23.99900
C  45.75800 13.51500 22.66600
N  46.47900 15.97300 28.67300
C  45.43200 15.54000 27.92600
C  44.33800 15.14300 28.77000
C  44.79500 15.46600 30.04500
C  46.04200 16.05700 29.94600
C  42.94400 14.69200 28.29300
C  44.37200 15.46300 31.45800
O  43.34300 15.17200 32.04600
C  45.46100 16.12500 32.29500
C  44.96500 17.34300 33.01500
O  45.00600 18.48500 32.55400
O  44.46900 16.91900 34.23700
C  43.74300 17.87100 35.11700
H  51.48100 19.00100 30.37200
H  50.45400 17.08500 24.21500
H  44.68900 15.18800 26.02100
H  47.76500 18.19000 33.25100
H  50.53800 18.27400 32.65900
H  50.05800 20.44000 33.12400
H  48.33900 20.32800 32.60000
H  49.71900 20.59600 31.44500
H  50.00000 16.46800 33.89500
H  48.85000 15.37400 33.25600
H  48.40400 15.54600 35.63100
H  47.21000 16.48600 35.01700
H  53.14400 19.85200 29.03400
H  54.31500 19.28300 27.89300
H  53.74100 18.20800 29.18400
H  55.06700 18.22100 24.36500
H  54.99500 17.90600 26.07500
H  54.72800 19.54300 25.48100
H  48.77400 15.02100 23.44200
H  46.06400 15.84600 23.83400
H  48.22900 16.52600 21.67300
H  48.76600 17.72200 22.78000
H  47.04400 17.39700 22.63100
H  45.67300 13.43800 24.71900
H  47.34200 13.15600 24.13600
H  46.02400 12.54300 22.25100
H  45.89500 14.33200 21.95700
H  44.69400 13.54400 22.90100
H  42.75200 15.26600 27.38700
H  42.19500 15.06400 28.99300
H  42.70800 13.65300 28.06300
H  45.92900 15.45300 33.01400
H  44.37300 18.15000 35.96200
H  42.76500 17.46100 35.36500
H  43.56300 18.82600 34.62300

