158

Mg 41.10900 8.24400 30.07200
C  42.70600 9.56500 32.88300
C  39.06400 6.60100 32.39200
C  39.92500 6.49100 27.47100
C  43.70000 9.50300 28.10800
N  40.91200 8.11800 32.41400
C  41.56300 8.89600 33.26600
C  40.98700 8.85300 34.74300
C  39.81400 7.82400 34.55500
C  39.88600 7.57400 32.98700
C  39.92900 6.58500 35.49400
C  40.57800 10.26000 35.19600
C  41.29200 10.56100 36.60800
H  40.46500 11.21600 37.66100
N  39.75000 6.87100 29.95900
C  38.94500 6.35300 30.99000
C  37.91500 5.46900 30.41800
C  38.09500 5.52500 28.99400
C  39.27900 6.33900 28.78200
C  36.82300 4.73200 31.21400
C  37.31000 4.87500 27.87600
O  37.61000 4.83500 26.72200
C  36.04100 4.16000 28.22700
N  41.73200 8.16500 27.97200
C  41.03800 7.33300 27.12100
C  41.66400 7.44200 25.75400
C  42.84600 8.43300 25.93200
C  42.81100 8.68100 27.40000
C  42.00500 6.00100 25.22600
C  42.98000 9.67100 25.02300
C  42.04300 10.92600 25.37600
N  42.88300 9.21700 30.34400
C  43.76700 9.76100 29.44900
C  44.77200 10.42600 30.16000
C  44.35000 10.45000 31.42200
C  43.24000 9.66200 31.53400
C  46.03000 11.01600 29.61200
C  44.73500 10.83800 32.72100
O  45.66200 11.50200 33.10400
C  43.70300 10.25700 33.69300
C  44.37200 9.22900 34.58600
O  44.64500 8.05300 34.37000
O  44.75200 9.88900 35.71200
C  45.12600 9.01700 36.79800
H  38.27600 6.19200 33.02800
H  39.49900 5.95000 26.62400
H  44.40000 9.99000 27.42600
H  41.83600 8.48100 35.31500
H  38.92000 8.38700 34.82000
H  40.06200 5.71100 34.85600
H  38.95900 6.42200 35.96300
H  40.66800 6.67700 36.29000
H  39.52300 10.34300 35.45600
H  40.83100 11.02200 34.46000
H  42.03000 11.32800 36.37300
H  41.77300 9.66700 37.00400
H  35.81900 5.13800 31.08800
H  37.07800 4.80300 32.27200
H  36.91400 3.67400 30.96900
H  35.34800 4.71600 28.85900
H  36.37700 3.22500 28.67500
H  35.56900 3.96000 27.26500
H  40.97800 7.94000 25.07000
H  43.79300 7.91200 25.79000
H  41.35800 5.85600 24.36100
H  41.78600 5.22200 25.95600
H  43.05900 5.94700 24.95500
H  42.72300 9.44200 23.98900
H  44.00500 10.04000 24.99300
H  41.41300 10.58700 26.19800
H  41.38200 11.15900 24.54100
H  42.53900 11.85900 25.64100
H  45.94200 11.98900 29.12800
H  46.38200 10.32900 28.84200
H  46.78300 10.95700 30.39800
H  43.27400 11.08800 34.25300
H  45.40200 9.48200 37.74500
H  45.95200 8.38800 36.46600
H  44.25200 8.38800 36.96900
Mg -5.91300 25.41700 26.32900
C  -3.93000 26.91600 29.00500
C  -7.04900 23.20600 28.60200
C  -7.25000 23.93300 23.64000
C  -4.03900 27.62900 24.12900
N  -5.45500 25.07900 28.57400
C  -4.67400 25.80600 29.43300
C  -5.12900 25.49800 30.88300
C  -5.85800 24.17800 30.70400
C  -6.18600 24.06800 29.20100
C  -4.95000 22.95400 31.14400
C  -6.04800 26.61000 31.55200
C  -5.93900 26.89400 33.04100
H  -5.57700 25.83800 34.02400
N  -7.08500 23.89600 26.11900
C  -7.52900 23.09900 27.20400
C  -8.47000 22.17000 26.61600
C  -8.43700 22.30600 25.13600
C  -7.56000 23.45400 24.87700
C  -9.43800 21.36700 27.56000
C  -9.15800 21.54800 24.12200
O  -9.04500 21.79700 22.91100
C  -10.04900 20.40400 24.54500
N  -5.57200 25.73500 24.19700
C  -6.25500 24.92300 23.33500
C  -5.98400 25.28000 21.90200
C  -5.09800 26.61600 22.02600
C  -4.86000 26.68200 23.54300
C  -5.44900 24.16600 21.01300
C  -5.68300 27.94300 21.43000
C  -5.80500 28.07400 19.88500
N  -4.32900 26.92500 26.45400
C  -3.75000 27.76300 25.51700
C  -2.81700 28.67300 26.09700
C  -2.87400 28.31200 27.41500
C  -3.80300 27.28700 27.65100
C  -1.92700 29.71100 25.47400
C  -2.29000 28.73600 28.63600
O  -1.41900 29.57400 28.85100
C  -3.09300 27.85900 29.78200
C  -2.09000 27.05900 30.58600
O  -1.23200 26.30300 30.14500
O  -2.30300 27.26200 31.90700
C  -1.39200 26.57400 32.88300
H  -7.50600 22.56100 29.35600
H  -7.65700 23.54000 22.70600
H  -3.52000 28.25500 23.40100
H  -4.31500 25.20300 31.54500
H  -6.81500 24.07500 31.21600
H  -5.56200 22.05500 31.22200
H  -4.42500 23.29400 32.03700
H  -4.06200 22.77700 30.53600
H  -7.05400 26.22400 31.39000
H  -5.92100 27.56700 31.04600
H  -6.94400 27.23600 33.28800
H  -5.17900 27.66000 33.19400
H  -8.98600 20.41600 27.84100
H  -10.45900 21.28700 27.18700
H  -9.40300 21.97700 28.46300
H  -9.35200 19.75700 25.07900
H  -10.43700 19.86600 23.68000
H  -10.91200 20.79500 25.08400
H  -6.92000 25.63800 21.47300
H  -4.18200 26.48500 21.44900
H  -6.08600 24.14200 20.12900
H  -5.51000 23.21000 21.53400
H  -4.41600 24.33000 20.70800
H  -5.06400 28.70900 21.89700
H  -6.69900 27.99400 21.82100
H  -6.70900 28.64100 19.66400
H  -5.70000 27.08300 19.44400
H  -4.89800 28.60000 19.58600
H  -0.92600 29.28200 25.52900
H  -1.94800 30.62400 26.06900
H  -2.16700 29.89800 24.42800
H  -3.70100 28.41300 30.49800
H  -1.71800 26.57700 33.92300
H  -0.41500 27.05900 32.88400
H  -1.17300 25.62500 32.39400

