158

Mg 48.06100 34.92200 27.49500
C  46.10800 33.30300 29.88900
C  48.11100 37.65100 29.61000
C  49.57800 36.76500 25.07700
C  47.60300 32.32000 25.21600
N  47.31000 35.30600 29.43700
C  46.62100 34.48700 30.36300
C  46.75400 35.01300 31.79100
C  46.95600 36.48800 31.58500
C  47.47600 36.47000 30.07100
C  45.65500 37.29100 31.83000
C  47.89300 34.36600 32.73500
C  47.55800 34.08800 34.23800
H  46.62600 35.01200 34.92700
N  48.74400 36.98500 27.33900
C  48.74500 37.92500 28.37300
C  49.36100 39.11300 27.91100
C  49.76600 38.87400 26.60800
C  49.31900 37.51100 26.24100
C  49.51600 40.36800 28.84800
C  50.53800 39.82500 25.64900
O  50.84900 39.53100 24.48600
C  51.03100 41.15100 26.21200
N  48.52800 34.59100 25.42400
C  49.12200 35.50200 24.64000
C  49.33700 34.91700 23.14600
C  48.92100 33.43700 23.30900
C  48.37100 33.44100 24.76500
C  48.56300 35.66000 22.05100
C  50.11300 32.51900 23.24000
C  50.82000 32.33200 21.92600
N  47.09500 33.13600 27.51800
C  47.03100 32.16200 26.53400
C  46.20200 31.05300 27.05400
C  45.78000 31.51500 28.33400
C  46.35100 32.76300 28.61600
C  45.81800 29.77600 26.25900
C  45.00700 31.11600 29.52000
O  44.44600 30.12400 29.86700
C  45.01200 32.34200 30.50500
C  45.14900 31.86000 31.85800
O  46.05800 31.15000 32.20600
O  44.22600 32.44300 32.63500
C  44.15600 31.94300 34.02600
H  48.08800 38.44100 30.36400
H  50.18500 37.31000 24.35100
H  47.60400 31.50700 24.48800
H  45.79900 34.92000 32.30800
H  47.69500 36.92100 32.25900
H  46.03700 38.17000 32.34700
H  45.01600 36.71100 32.49600
H  45.17100 37.64700 30.92000
H  48.70600 35.09000 32.68400
H  48.23000 33.42200 32.30600
H  48.54700 34.25300 34.66600
H  47.22800 33.05100 34.30500
H  49.40800 40.16800 29.91400
H  48.77800 41.13900 28.62600
H  50.50800 40.82000 28.86100
H  50.14700 41.65200 26.60600
H  51.64200 41.62600 25.44400
H  51.62700 41.00800 27.11300
H  50.40300 34.88100 22.92100
H  48.14200 33.17500 22.59300
H  48.26400 36.66700 22.34100
H  47.66300 35.16000 21.69400
H  49.37200 35.72700 21.32300
H  49.63200 31.55600 23.41400
H  50.77300 32.74800 24.07600
H  50.32600 32.95200 21.17700
H  50.74700 31.31400 21.54300
H  51.89700 32.47300 22.02000
H  46.10300 28.88000 26.81000
H  46.24200 29.76900 25.25500
H  44.73800 29.73700 26.11700
H  44.05700 32.86400 30.45900
H  43.49100 31.08900 34.15500
H  43.72700 32.75100 34.61900
H  45.10200 31.63700 34.47400
Mg 0.99600 42.93600 26.22400
C  2.65700 42.63500 29.41100
C  -2.07200 42.38600 27.80700
C  -0.29700 42.45400 23.22100
C  4.10900 43.39300 24.81800
N  0.37400 42.57000 28.32100
C  1.24100 42.56300 29.53100
C  0.36800 42.61200 30.78400
C  -1.02300 42.05100 30.13600
C  -0.92600 42.36500 28.63700
C  -1.44600 40.53200 30.20900
C  0.27300 44.07500 31.40200
C  0.73200 44.42300 32.79100
H  0.60000 43.31900 33.89100
N  -0.96500 42.70400 25.56700
C  -2.03500 42.53800 26.42400
C  -3.18400 42.33000 25.57200
C  -2.74100 42.26600 24.18300
C  -1.25100 42.40700 24.27200
C  -4.62200 42.30900 26.17200
C  -3.46500 41.96900 22.89100
O  -2.95200 41.93800 21.80500
C  -5.00000 41.76400 22.87600
N  1.77200 42.81600 24.31700
C  1.01200 42.82500 23.19400
C  1.91800 42.97000 21.88200
C  3.24900 43.56900 22.51500
C  3.00300 43.28900 23.99400
C  1.94000 41.62800 20.97600
C  3.24600 45.15400 22.32100
C  3.38700 45.71900 20.90200
N  3.01100 42.99400 26.90200
C  4.19500 43.23600 26.21700
C  5.30100 43.41600 27.17800
C  4.70600 43.14700 28.38400
C  3.34300 42.84900 28.23100
C  6.72800 43.65700 26.93000
C  5.04600 42.95000 29.82800
O  6.11400 42.96600 30.40300
C  3.66800 42.81400 30.51600
C  3.76600 41.64600 31.41200
O  3.46500 40.50400 31.04400
O  4.12800 42.05400 32.66500
C  4.27700 40.97600 33.61500
H  -3.06500 42.29300 28.25200
H  -0.70000 42.39700 22.20700
H  5.06600 43.60700 24.33800
H  0.68100 41.91500 31.56100
H  -1.91500 42.56700 30.49200
H  -2.46600 40.55100 30.59500
H  -0.86600 40.13600 31.04200
H  -1.22000 40.03800 29.26300
H  -0.70000 44.53400 31.23200
H  0.92000 44.67300 30.75900
H  -0.05100 45.09900 33.13600
H  1.75400 44.79800 32.84200
H  -5.50600 42.27900 25.53600
H  -4.67700 43.24500 26.72700
H  -4.78600 41.48600 26.86800
H  -5.26100 41.65000 21.82400
H  -5.32500 42.70200 23.32500
H  -5.35400 40.86400 23.37800
H  1.60300 43.80600 21.25800
H  4.14600 43.13700 22.07100
H  1.06900 41.04200 21.26900
H  2.76500 40.91600 20.95100
H  1.78800 41.94800 19.94500
H  4.03200 45.63900 22.90100
H  2.28400 45.51400 22.68600
H  3.49100 44.86400 20.23300
H  4.25400 46.37900 20.89000
H  2.52100 46.27600 20.54600
H  7.28600 43.14400 27.71300
H  6.99300 44.71000 27.03300
H  7.05000 43.30700 25.94900
H  3.46700 43.77500 30.98900
H  5.14500 40.36100 33.37700
H  3.41600 40.30800 33.63900
H  4.49300 41.42000 34.58700

