158

Mg 24.57800 1.90900 29.24200
C  26.86900 1.52600 31.82900
C  22.16000 1.95900 31.55100
C  22.50900 1.95000 26.70000
C  27.30000 1.08200 26.97800
N  24.51300 1.76600 31.52700
C  25.55800 1.83300 32.33700
C  25.18600 2.22200 33.73700
C  23.60000 1.94300 33.70900
C  23.40300 1.91700 32.19300
C  23.11600 0.62100 34.35300
C  25.67300 3.64900 34.35100
C  26.36500 3.68700 35.71600
H  25.85700 4.63700 36.84100
N  22.60800 1.91700 29.15000
C  21.75000 1.99400 30.21500
C  20.38100 1.88400 29.73400
C  20.43100 1.85600 28.28000
C  21.91000 1.89700 27.97000
C  19.17400 1.88300 30.72600
C  19.30900 1.80200 27.22000
O  19.48800 2.01600 26.02500
C  17.91900 1.55900 27.70200
N  24.90500 1.52000 27.07800
C  23.86200 1.93200 26.31300
C  24.37100 1.96000 24.83300
C  25.89100 1.80800 24.94700
C  26.05500 1.46000 26.41600
C  23.71300 0.83500 24.00800
C  26.85300 2.97200 24.37000
C  26.38800 4.38100 24.65400
N  26.69600 1.40300 29.37100
C  27.63300 1.03600 28.36600
C  28.90100 0.82600 28.98400
C  28.68300 1.03200 30.38400
C  27.32100 1.32500 30.53800
C  30.23000 0.73200 28.24000
C  29.34700 1.10300 31.65800
O  30.49300 0.89100 32.04800
C  28.22200 1.50400 32.63400
C  28.16000 0.39800 33.73900
O  27.50200 -0.62700 33.63800
O  28.81300 0.77900 34.87400
C  28.67400 -0.16000 36.00800
H  21.34000 1.99400 32.27100
H  21.87400 2.25100 25.86500
H  28.16900 0.91800 26.33800
H  25.57800 1.41600 34.35700
H  22.88600 2.62200 34.17600
H  22.16300 0.44400 33.85500
H  22.90300 0.74600 35.41400
H  23.73900 -0.22300 34.05500
H  24.73000 4.18000 34.47900
H  26.28800 4.13500 33.59400
H  27.36000 4.06500 35.48100
H  26.50000 2.65400 36.03700
H  18.38800 1.17700 30.45600
H  18.66200 2.84500 30.69600
H  19.49500 1.60700 31.73000
H  17.15200 1.70200 26.94100
H  17.61600 2.16200 28.55800
H  17.80200 0.49500 27.90700
H  23.98900 2.87500 24.38100
H  26.11400 0.83600 24.50800
H  22.76500 0.50300 24.43300
H  24.31500 -0.03700 23.75500
H  23.38500 1.35100 23.10600
H  26.97800 2.82900 23.29700
H  27.76600 2.75500 24.92600
H  25.46600 4.38100 25.23500
H  26.08900 4.73900 23.66900
H  27.15500 4.97100 25.15600
H  30.09600 1.13100 27.23400
H  30.32500 -0.34700 28.12100
H  31.07900 1.11300 28.80700
H  28.44700 2.48300 33.05800
H  27.75800 0.20000 36.47700
H  29.52000 0.14300 36.62400
H  28.61200 -1.23000 35.80800
Mg 48.80300 35.64300 27.89100
C  46.70900 33.92100 30.10700
C  48.84100 38.29900 30.17700
C  50.17500 37.59200 25.53900
C  48.50100 33.05100 25.57700
N  47.92200 36.08300 29.90500
C  47.28100 35.12800 30.69300
C  47.25900 35.56000 32.14900
C  47.39700 37.07600 31.97600
C  48.14900 37.19400 30.59800
C  46.04500 37.87100 31.99600
C  48.47300 34.97700 33.01300
C  48.43000 34.92400 34.54300
H  47.53700 35.98000 35.28200
N  49.50500 37.63600 27.93800
C  49.44400 38.48700 28.99100
C  50.08800 39.74200 28.61700
C  50.52100 39.56000 27.26100
C  50.10700 38.20100 26.85000
C  50.18200 40.92700 29.63500
C  51.20300 40.55300 26.30000
O  51.58200 40.34400 25.17300
C  51.64200 41.87400 26.87200
N  49.22100 35.33000 25.81600
C  49.79500 36.31300 25.03700
C  50.09300 35.80200 23.57700
C  49.78700 34.29700 23.66100
C  49.17900 34.18800 25.10800
C  49.39400 36.49200 22.44200
C  51.05000 33.32100 23.41200
C  50.98800 32.48700 22.16900
N  47.79300 33.83900 27.77200
C  47.80000 32.78100 26.81000
C  46.98900 31.67700 27.26000
C  46.55800 32.07700 28.54800
C  46.98100 33.42500 28.82200
C  46.71700 30.34100 26.56300
C  45.84400 31.65800 29.73100
O  45.33900 30.56200 29.93300
C  45.85400 32.87700 30.75100
C  46.42500 32.26200 31.94800
O  47.52000 31.74100 32.05600
O  45.53500 32.23100 32.97300
C  45.92200 31.56800 34.20200
H  48.91100 39.12500 30.88700
H  50.75800 38.09600 24.76600
H  48.37900 32.20700 24.89600
H  46.28500 35.38000 32.60400
H  48.04200 37.44000 32.77600
H  45.96300 38.76200 31.37300
H  45.87600 38.17000 33.03100
H  45.31200 37.10700 31.73600
H  49.38200 35.52300 32.75900
H  48.67500 33.96000 32.67700
H  49.42800 35.02700 34.96900
H  48.01600 33.96500 34.85500
H  51.05900 41.51900 29.37200
H  50.31800 40.63300 30.67600
H  49.30700 41.56000 29.48500
H  50.73600 42.43100 27.10900
H  52.14500 42.32700 26.01800
H  52.32600 41.73100 27.71000
H  51.15400 36.00600 23.43200
H  48.98100 34.04900 22.97000
H  48.73400 35.78400 21.94000
H  50.15300 36.93700 21.79800
H  48.88100 37.29700 22.96800
H  51.26600 32.63600 24.23100
H  51.91100 33.97900 23.28900
H  51.51800 32.89400 21.30700
H  49.98100 32.19600 21.86700
H  51.53400 31.61200 22.52200
H  47.70100 29.91200 26.37500
H  46.34100 30.51900 25.55500
H  46.05100 29.72700 27.16800
H  44.88300 33.24900 31.07900
H  46.53100 30.67200 34.08000
H  45.03900 31.35200 34.80500
H  46.55200 32.26100 34.76000

