158

Mg 17.17400 -1.52000 27.77600
C  15.89300 0.28300 30.48800
C  19.32000 -2.96400 30.03400
C  18.46700 -3.17200 25.20800
C  15.10200 0.23000 25.46600
N  17.41300 -1.39400 30.02500
C  16.91600 -0.55200 30.89100
C  17.42100 -0.71500 32.33000
C  18.75500 -1.56200 32.12800
C  18.46800 -1.95800 30.63200
C  20.03600 -0.78200 32.52700
C  16.42100 -1.44100 33.17400
C  16.50100 -1.17400 34.73800
H  17.72500 -0.53000 35.33900
N  18.74400 -2.86900 27.63200
C  19.38600 -3.40700 28.65100
C  20.24700 -4.48900 28.06500
C  19.96400 -4.62300 26.69500
C  19.05400 -3.53400 26.46100
C  21.13000 -5.39900 28.96400
C  20.59500 -5.52500 25.63100
O  20.38700 -5.42300 24.45700
C  21.43100 -6.76900 26.02700
N  16.75400 -1.55400 25.58400
C  17.62200 -2.12600 24.77800
C  17.30100 -1.89600 23.30600
C  16.18400 -0.79700 23.34700
C  15.98800 -0.68300 24.91600
C  18.50700 -1.70000 22.42300
C  14.91100 -1.00400 22.49700
C  15.05200 -0.86300 21.00300
N  15.77000 -0.11000 27.85400
C  14.92900 0.52400 26.88300
C  13.96000 1.34200 27.63700
C  14.28200 1.26000 28.99700
C  15.46400 0.37500 29.12600
C  12.86100 2.06000 26.97000
C  13.91900 1.63300 30.32300
O  13.05600 2.41100 30.70000
C  14.92100 1.03400 31.34300
C  15.52400 2.20100 32.12600
O  16.31000 3.01500 31.65800
O  15.13000 2.10700 33.46600
C  15.90800 3.01500 34.25900
H  20.07900 -3.42500 30.67000
H  18.83400 -3.75800 24.36300
H  14.38700 0.70500 24.79200
H  17.47600 0.26200 32.81000
H  18.74700 -2.45000 32.76000
H  19.90200 0.19000 33.00100
H  20.60500 -0.66400 31.60400
H  20.63000 -1.55500 33.01400
H  16.54500 -2.51100 33.00500
H  15.37200 -1.17400 33.04600
H  16.46500 -2.15200 35.21600
H  15.53500 -0.74900 35.01100
H  20.72500 -6.40900 29.01900
H  21.10500 -5.16100 30.02700
H  22.12400 -5.51900 28.53300
H  22.39700 -6.45100 26.41900
H  21.43800 -7.58500 25.30500
H  20.92800 -7.28700 26.84400
H  16.93900 -2.86600 22.96300
H  16.68800 0.08500 22.95200
H  19.43100 -1.90700 22.96300
H  18.60300 -0.66500 22.09400
H  18.51200 -2.36800 21.56200
H  14.24900 -0.18300 22.77100
H  14.30500 -1.88700 22.69600
H  16.02700 -0.55400 20.62600
H  14.35100 -0.06400 20.76500
H  14.74300 -1.80400 20.54600
H  12.99100 2.37000 25.93400
H  12.54100 2.94800 27.51500
H  12.06600 1.31400 26.99600
H  14.39900 0.47700 32.12000
H  16.96200 3.10400 33.99500
H  15.85800 2.72000 35.30700
H  15.42000 3.98900 34.23100
Mg -4.36100 25.09800 25.49000
C  -3.15100 26.43500 28.48600
C  -6.52000 23.16700 27.36500
C  -5.18600 23.20800 22.72700
C  -2.06800 26.88700 23.73300
N  -4.67700 24.68900 27.67300
C  -4.17700 25.51000 28.66000
C  -4.85300 25.25900 29.98000
C  -5.66600 23.90700 29.70900
C  -5.60100 23.89000 28.15100
C  -4.92000 22.64400 30.25800
C  -5.86700 26.46300 30.40900
C  -5.94900 26.76800 31.88200
H  -5.22800 25.88600 32.90900
N  -5.66700 23.38600 25.10900
C  -6.54600 22.87300 26.00300
C  -7.41000 21.98800 25.30700
C  -6.91800 21.83100 23.96900
C  -5.86800 22.79500 23.88000
C  -8.56000 21.22800 26.11100
C  -7.40200 20.86800 22.86500
O  -6.92100 20.83800 21.75200
C  -8.44600 19.90600 23.09200
N  -3.72800 25.03800 23.59100
C  -4.24700 24.23500 22.63100
C  -3.68100 24.58400 21.27000
C  -2.77100 25.78700 21.58900
C  -2.85500 25.92100 23.08100
C  -2.96400 23.39300 20.58500
C  -3.22400 27.07000 20.91000
C  -2.73100 27.21300 19.41500
N  -2.90500 26.49700 25.98900
C  -2.00300 27.20600 25.08300
C  -1.11600 28.01400 25.91300
C  -1.51500 27.75800 27.23300
C  -2.66400 26.84200 27.21100
C  -0.04500 28.94700 25.40700
C  -1.25300 28.04900 28.67600
O  -0.40500 28.80700 29.16600
C  -2.28500 27.23000 29.52200
C  -1.53800 26.39900 30.54100
O  -1.28800 25.18400 30.39000
O  -1.26000 27.23100 31.56600
C  -0.58500 26.64000 32.77100
H  -7.18500 22.53300 27.95500
H  -5.50400 22.66400 21.83500
H  -1.50400 27.61200 23.14200
H  -4.06300 24.99700 30.68400
H  -6.67200 23.80500 30.11600
H  -4.08700 22.90500 30.91000
H  -4.57800 22.13600 29.35600
H  -5.65400 22.21100 30.93700
H  -6.86900 26.26700 30.02800
H  -5.57800 27.40100 29.93500
H  -6.97100 26.71800 32.25600
H  -5.63500 27.80700 31.98100
H  -7.98800 20.69300 26.86900
H  -9.26900 20.67400 25.49500
H  -9.18200 22.03300 26.50200
H  -8.87400 19.51200 22.17100
H  -9.18500 20.60200 23.48700
H  -8.27500 19.05200 23.74800
H  -4.46900 24.87300 20.57500
H  -1.73500 25.55600 21.34000
H  -3.20200 22.55900 21.24500
H  -1.87800 23.46500 20.64000
H  -3.21800 23.20000 19.54300
H  -2.85200 27.97100 21.39800
H  -4.29300 27.22800 20.76700
H  -3.52500 26.84000 18.76800
H  -1.79300 26.69200 19.22200
H  -2.59800 28.27200 19.19500
H  -0.60100 29.66600 24.80500
H  0.71700 28.38500 24.86700
H  0.52500 29.35300 26.24200
H  -2.88500 27.92000 30.11600
H  -0.36300 25.57900 32.65700
H  -1.29400 26.55700 33.59500
H  0.32100 27.17800 33.05100

