158

Mg 41.46700 9.16500 29.86100
C  43.48500 10.32700 32.45800
C  39.20700 8.14900 32.20000
C  39.69500 7.69200 27.39100
C  43.87200 10.22200 27.57200
N  41.43200 9.23900 32.09500
C  42.26900 9.85900 32.92300
C  41.65500 9.91800 34.36200
C  40.38700 8.97900 34.24400
C  40.34100 8.83400 32.74800
C  40.50400 7.53900 34.91800
C  41.39500 11.42600 34.69300
C  40.54900 11.71600 35.99600
H  41.18700 12.56000 37.15100
N  39.72000 8.04100 29.79800
C  38.87300 7.78100 30.84800
C  37.64900 7.25200 30.30000
C  37.80900 7.00200 28.93600
C  39.14300 7.50500 28.66100
C  36.50200 6.81300 31.19500
C  36.85100 6.43800 27.82600
O  37.14700 6.11800 26.66400
C  35.42700 6.17300 28.32100
N  41.92600 8.80000 27.79000
C  40.91200 8.24400 26.97300
C  41.29700 8.37400 25.48000
C  42.51500 9.37000 25.55700
C  42.80800 9.55800 27.05400
C  41.63900 7.00600 24.73600
C  42.15200 10.72100 24.84300
C  41.36900 11.83500 25.55400
N  43.29400 10.07100 29.98500
C  44.18800 10.36000 28.97200
C  45.37900 10.89100 29.51300
C  45.17600 10.86700 30.91200
C  43.90000 10.33200 31.13600
C  46.57500 11.34100 28.77200
C  45.77200 11.20800 32.21400
O  46.85700 11.69000 32.37700
C  44.63800 10.93300 33.28300
C  45.07300 9.91100 34.24200
O  45.36800 8.74900 33.98100
O  44.84300 10.41200 35.54300
C  44.86600 9.45500 36.64100
H  38.31800 8.14400 32.83300
H  39.18700 7.39000 26.47300
H  44.63000 10.72400 26.96800
H  42.42900 9.40000 34.92900
H  39.50400 9.47600 34.64600
H  40.62100 6.69200 34.24200
H  39.62100 7.32800 35.52300
H  41.43400 7.56100 35.48600
H  40.82500 11.88600 33.88500
H  42.33900 11.95800 34.80800
H  40.18000 10.78700 36.43000
H  39.64000 12.25300 35.72600
H  36.88200 6.68100 32.20900
H  36.18400 5.80000 30.94700
H  35.62000 7.44800 31.11800
H  34.80000 5.85000 27.49000
H  34.90400 7.04800 28.70700
H  35.36200 5.40900 29.09600
H  40.40500 8.81900 25.04000
H  43.47400 9.10400 25.11400
H  41.07500 6.72700 23.84600
H  41.47200 6.16800 25.41300
H  42.69800 7.05200 24.48400
H  41.62200 10.49200 23.91800
H  43.03500 11.15900 24.37800
H  41.27200 11.57100 26.60700
H  40.35900 12.05200 25.20500
H  41.93800 12.76500 25.55100
H  47.35600 11.47000 29.52100
H  46.45700 12.25300 28.18700
H  46.96800 10.65500 28.02000
H  44.42400 11.82100 33.87700
H  44.45000 8.48900 36.35600
H  44.24900 9.88900 37.42800
H  45.83000 9.36500 37.14300
Mg -5.71300 25.61900 26.16300
C  -4.78800 27.20800 29.22400
C  -7.67800 23.61900 27.96600
C  -6.44700 24.11000 23.37600
C  -3.35400 27.64000 24.55300
N  -6.11200 25.45200 28.29900
C  -5.69100 26.17800 29.37600
C  -6.37400 25.73900 30.65900
C  -7.05600 24.34300 30.32600
C  -6.92600 24.40700 28.71900
C  -6.41600 23.12300 30.93600
C  -7.35800 26.68700 31.34700
C  -7.09800 26.97800 32.84200
H  -6.49000 25.92200 33.74900
N  -6.90700 24.05300 25.71300
C  -7.76300 23.43200 26.58400
C  -8.74400 22.56100 25.87900
C  -8.28100 22.68700 24.53900
C  -7.17400 23.63200 24.48200
C  -10.06400 21.96500 26.42500
C  -8.81500 21.99800 23.31700
O  -8.36700 22.23800 22.16900
C  -10.06500 21.13400 23.40300
N  -4.92400 25.79400 24.30200
C  -5.42600 25.08800 23.26700
C  -4.68200 25.30600 21.96900
C  -3.58200 26.43700 22.30000
C  -3.92100 26.63000 23.83600
C  -4.12000 24.03600 21.37600
C  -3.79600 27.69700 21.34800
C  -3.13300 27.46900 19.96900
N  -4.32900 27.14000 26.64600
C  -3.44400 27.94100 25.88900
C  -2.92700 28.97500 26.73900
C  -3.39200 28.77300 28.08300
C  -4.23600 27.61900 28.02000
C  -1.98000 30.12400 26.30100
C  -3.29000 29.14200 29.51500
O  -2.54800 29.99300 30.02400
C  -4.25800 28.25500 30.26300
C  -3.41200 27.65800 31.37400
O  -2.48300 26.87000 31.19200
O  -3.85100 28.10900 32.60000
C  -2.91700 27.75700 33.68400
H  -8.33500 22.92800 28.49800
H  -6.63400 23.74400 22.36400
H  -2.67100 28.38900 24.14700
H  -5.55800 25.69100 31.38000
H  -8.10000 24.22000 30.61300
H  -6.28700 22.46800 30.07400
H  -7.13100 22.80100 31.69300
H  -5.42700 23.26100 31.37300
H  -8.36700 26.28900 31.23700
H  -7.27900 27.56500 30.70600
H  -8.04200 27.27800 33.29800
H  -6.43700 27.83300 32.98300
H  -10.96900 22.35400 25.95800
H  -10.31900 22.21400 27.45500
H  -9.99700 20.87800 26.44800
H  -9.82400 20.43700 24.20600
H  -10.21600 20.64500 22.44100
H  -11.02600 21.52500 23.73500
H  -5.43400 25.84200 21.39000
H  -2.61600 25.93400 22.25000
H  -3.07400 24.26000 21.16400
H  -4.61600 23.74400 20.45000
H  -4.19500 23.19100 22.05900
H  -3.44300 28.57600 21.88600
H  -4.86000 27.89200 21.21500
H  -3.36500 28.38800 19.43000
H  -3.69600 26.64000 19.54200
H  -2.04900 27.37500 19.89800
H  -2.12600 30.32100 25.23900
H  -1.00000 29.65000 26.34900
H  -2.02700 30.99700 26.95200
H  -5.06000 28.91600 30.59400
H  -2.39900 26.80000 33.62000
H  -3.45300 27.91500 34.62000
H  -2.12500 28.50500 33.66000

