158

Mg 48.49000 46.71700 43.20800
C  45.16000 47.73900 42.23600
C  48.14900 43.99400 41.19000
C  51.71400 46.36400 43.64900
C  48.73000 50.06300 44.50800
N  46.93100 46.13200 41.74900
C  45.61500 46.58200 41.62900
C  44.81100 45.79000 40.61600
C  45.84300 44.62500 40.20300
C  47.04900 44.89600 41.12100
C  45.39700 43.11300 40.15500
C  44.40200 46.80300 39.53300
C  42.91900 46.83200 39.12300
H  42.55200 46.30000 37.75400
N  49.76300 45.24200 42.67600
C  49.45800 44.20800 41.84700
C  50.61600 43.33700 41.82300
C  51.63300 43.98600 42.51200
C  51.10700 45.25800 43.03300
C  50.61500 41.98200 41.10000
C  53.02200 43.40500 42.68100
O  53.28900 42.29600 42.21200
C  54.14600 44.09400 43.51900
N  49.96700 48.01300 44.00300
C  51.26400 47.61800 44.04900
C  52.23300 48.70400 44.48600
C  51.30200 49.92600 44.67700
C  49.89400 49.35300 44.40100
C  53.13500 48.36700 45.73600
C  51.53900 51.08000 43.72200
C  51.14200 52.48600 44.20200
N  47.17300 48.45400 43.49100
C  47.44800 49.67100 44.05100
C  46.15900 50.44600 44.16900
C  45.28000 49.67000 43.49600
C  45.91700 48.49300 43.04700
C  46.03300 51.77000 44.81200
C  43.88900 49.59100 43.09100
O  42.98700 50.41600 43.25500
C  43.70600 48.25300 42.26700
C  42.69400 47.35600 42.97600
O  41.52200 47.22100 42.63200
O  43.31500 46.43400 43.83700
C  42.48900 45.27600 44.09800
H  48.07000 43.10800 40.55600
H  52.80500 46.32100 43.65400
H  48.72500 51.04800 44.97900
H  44.02500 45.28800 41.18000
H  46.25000 44.77000 39.20200
H  45.89500 42.52100 39.38600
H  44.33100 43.03000 39.94200
H  45.61800 42.61200 41.09700
H  44.91000 46.55400 38.60100
H  44.65700 47.84300 39.73700
H  42.73300 47.90400 39.19200
H  42.30000 46.22900 39.78700
H  51.43100 41.87400 40.38600
H  49.66400 41.86400 40.58000
H  50.74800 41.18100 41.82800
H  54.92500 43.34400 43.65600
H  53.61500 44.23900 44.46000
H  54.56800 44.99500 43.07300
H  52.92400 48.90200 43.66700
H  51.34400 50.28600 45.70500
H  53.15900 47.27700 45.73600
H  52.82400 48.66200 46.73800
H  54.13000 48.74900 45.50800
H  50.96200 50.99900 42.80100
H  52.59400 51.16700 43.46600
H  50.32900 52.76700 43.53300
H  52.02100 53.11400 44.05500
H  50.86700 52.58100 45.25200
H  46.19800 52.54600 44.06600
H  46.78300 51.74900 45.60300
H  45.03500 51.86700 45.24100
H  43.24300 48.68800 41.38100
H  42.52700 44.56100 43.27600
H  41.44200 45.51600 44.28500
H  42.91500 44.83500 44.99900
Mg 41.39000 41.28100 26.90700
C  40.48000 43.62200 29.44600
C  42.54600 39.12800 29.38300
C  42.61000 39.30200 24.45100
C  40.48200 43.56100 24.67100
N  41.57800 41.39600 29.13900
C  41.02700 42.42400 29.95000
C  41.20100 42.14900 31.47400
C  42.05000 40.78200 31.42200
C  42.14200 40.37600 29.90700
C  43.50600 40.88600 31.99400
C  39.74900 42.03500 32.24300
C  39.70000 42.80400 33.54500
H  39.03600 42.11800 34.76400
N  42.38300 39.39100 26.94500
C  42.75100 38.68600 28.06400
C  43.45300 37.51200 27.59900
C  43.36500 37.47700 26.19700
C  42.81000 38.76300 25.76300
C  43.98800 36.46800 28.56500
C  43.72400 36.29000 25.20600
O  43.40200 36.28700 24.03900
C  44.49100 35.08800 25.78100
N  41.67600 41.52100 24.76300
C  42.01800 40.50800 23.92700
C  41.76000 40.82100 22.43600
C  40.73700 41.99100 22.63700
C  40.98100 42.37200 24.11700
C  43.01500 41.25100 21.63400
C  39.25300 41.45700 22.38900
C  38.40900 40.76300 23.41200
N  40.68700 43.13600 26.96500
C  40.39700 44.01100 25.96700
C  39.98000 45.35500 26.51000
C  40.00100 45.17000 27.89200
C  40.39700 43.83400 28.08400
C  39.65500 46.56800 25.62400
C  39.75100 45.88800 29.05200
O  39.29200 46.98400 29.30100
C  40.03100 44.88300 30.17000
C  41.02200 45.42400 31.05900
O  42.24000 45.34200 30.87000
O  40.42400 45.81100 32.26200
C  41.40100 46.05500 33.38000
H  42.84900 38.46800 30.19900
H  42.90200 38.58900 23.67700
H  40.09700 44.13600 23.82600
H  41.82000 42.93000 31.91500
H  41.48200 40.01400 31.94700
H  44.26700 40.90500 31.21400
H  43.71600 40.11700 32.73800
H  43.58100 41.81100 32.56600
H  39.59500 40.97300 32.43900
H  38.91500 42.38800 31.63600
H  39.29200 43.81100 33.45300
H  40.68400 42.97300 33.98300
H  44.91800 36.05800 28.17200
H  43.28900 35.65100 28.74600
H  44.30600 36.89800 29.51400
H  44.01200 34.57400 26.61400
H  45.51300 35.40900 25.98300
H  44.69200 34.35100 25.00400
H  41.25300 40.04700 21.86000
H  40.86600 42.84000 21.96600
H  43.84800 40.97800 22.28100
H  42.85100 42.31600 21.47200
H  43.10300 40.66500 20.71800
H  39.31200 40.83200 21.49800
H  38.57500 42.28900 22.19700
H  38.89300 40.79200 24.38800
H  38.27000 39.71700 23.13600
H  37.47100 41.31600 23.45700
H  40.07900 46.36200 24.64100
H  40.12700 47.51500 25.88300
H  38.58300 46.65200 25.44500
H  39.05900 44.79000 30.65400
H  42.17000 46.72800 33.00000
H  41.86300 45.17000 33.81700
H  40.84600 46.53000 34.18900

