158

Mg 1.13000 7.79100 26.29400
C  1.70500 9.81100 29.22900
C  1.17000 5.09500 28.32900
C  1.10200 6.00800 23.46100
C  1.39200 10.78900 24.32000
N  1.42500 7.54800 28.51900
C  1.47000 8.47500 29.53900
C  1.20700 7.79000 30.88300
C  1.47400 6.25400 30.58300
C  1.33800 6.24700 29.02700
C  2.83600 5.65200 31.08900
C  -0.21600 8.07300 31.57600
C  -0.31400 8.28200 33.07900
H  0.75700 7.67900 33.97400
N  1.15000 5.81800 25.97900
C  1.20400 4.87400 26.93200
C  1.16700 3.55500 26.33400
C  1.05600 3.77200 24.92300
C  1.05100 5.29100 24.70800
C  1.10600 2.24200 27.10400
C  0.81700 2.75700 23.81000
O  0.68300 3.05800 22.62600
C  0.91900 1.26000 24.10800
N  0.96500 8.39100 24.19700
C  1.12100 7.45000 23.27400
C  1.30600 8.08400 21.84300
C  1.22600 9.61400 22.12200
C  1.26800 9.60900 23.66100
C  2.62400 7.69500 21.11400
C  -0.03800 10.27600 21.60800
C  0.01300 11.76800 21.36200
N  1.45600 9.84800 26.65200
C  1.50900 10.91400 25.70600
C  1.69000 12.15400 26.44900
C  1.90500 11.76800 27.76800
C  1.66700 10.33400 27.91700
C  1.80700 13.49200 25.80300
C  2.15300 12.32700 29.11800
O  2.51700 13.44300 29.47500
C  1.96300 11.13900 30.08900
C  3.08400 11.14600 31.13600
O  4.28200 10.75500 30.98200
O  2.64800 11.64400 32.28100
C  3.43500 11.32700 33.46700
H  1.10000 4.27400 29.04500
H  1.07400 5.43400 22.53300
H  1.30900 11.73100 23.77500
H  1.99800 8.02400 31.59500
H  0.78200 5.66600 31.18600
H  3.36600 5.36000 30.18200
H  2.68200 4.78700 31.73400
H  3.39400 6.42600 31.61600
H  -0.83600 7.19800 31.37900
H  -0.71600 8.95300 31.17000
H  -1.23600 7.81600 33.42600
H  -0.31800 9.30900 33.44200
H  0.08700 1.89800 27.27900
H  1.53900 2.40600 28.09100
H  1.78800 1.49600 26.69700
H  1.90800 1.07700 24.52800
H  0.74500 0.60700 23.25300
H  0.13000 1.06700 24.83600
H  0.49000 7.81900 21.17100
H  2.04100 10.20800 21.70800
H  3.36000 8.48900 21.23600
H  2.39300 7.52500 20.06200
H  2.88700 6.81500 21.70000
H  -0.89700 10.14300 22.26600
H  -0.28600 9.82000 20.65000
H  0.96900 12.22400 21.61800
H  -0.77600 12.23200 21.95400
H  -0.04400 11.97900 20.29400
H  2.65000 13.60700 25.12200
H  1.97400 14.18000 26.63200
H  0.90100 13.85500 25.31800
H  1.07100 11.55100 30.56000
H  2.87600 11.77800 34.28700
H  4.42500 11.78300 33.48000
H  3.66100 10.26100 33.47900
Mg 48.58100 46.15300 43.40000
C  45.38300 46.80600 41.92400
C  48.43800 43.02900 41.76100
C  51.76800 45.88100 43.98700
C  48.71700 49.57000 44.29000
N  47.11000 45.09300 41.89900
C  45.90400 45.60700 41.47200
C  45.22300 44.59000 40.53000
C  46.11900 43.33800 40.69500
C  47.25400 43.80000 41.52800
C  45.42400 42.07700 41.24400
C  45.04300 45.11500 39.10400
C  43.73400 44.63000 38.42500
H  43.88300 43.67200 37.16000
N  49.84300 44.58000 43.16200
C  49.62200 43.39100 42.43200
C  50.85200 42.64900 42.41300
C  51.89000 43.38400 43.10800
C  51.16500 44.70100 43.49000
C  50.92300 41.28400 41.67800
C  53.38800 42.97200 43.24700
O  53.80000 41.86100 42.83100
C  54.34400 43.98000 43.81900
N  50.05400 47.54300 44.05700
C  51.32600 47.13300 44.31500
C  52.22500 48.33100 44.70800
C  51.20100 49.39600 45.14500
C  49.91000 48.85600 44.46200
C  53.28100 47.92700 45.81500
C  51.55800 50.80700 44.64200
C  51.62300 51.84700 45.67800
N  47.36300 47.91300 43.18900
C  47.45200 49.15500 43.76000
C  46.21700 49.86800 43.62400
C  45.35200 48.98800 42.87200
C  46.12200 47.80900 42.65600
C  45.89000 51.32100 44.13000
C  44.04300 48.88400 42.28200
O  43.12400 49.64300 42.18000
C  44.08800 47.48400 41.48000
C  42.88300 46.67100 41.80700
O  41.90300 46.28000 41.08900
O  43.00400 46.42700 43.10300
C  42.11600 45.36900 43.52000
H  48.44600 42.07600 41.22800
H  52.83900 45.79500 44.18200
H  48.71600 50.62500 44.57500
H  44.24500 44.33200 40.93700
H  46.59800 43.07900 39.75100
H  45.32800 42.10200 42.33000
H  45.96100 41.15900 41.00400
H  44.47900 42.02200 40.70500
H  45.87300 44.92900 38.42300
H  45.11400 46.19300 38.95800
H  43.29300 45.60400 38.21400
H  42.94600 44.09100 38.95100
H  51.75300 40.61300 41.90200
H  50.90800 41.40600 40.59500
H  50.03800 40.67500 41.86200
H  53.90400 44.14600 44.80300
H  54.52700 44.78900 43.11200
H  55.31100 43.53100 44.04700
H  52.81700 48.56800 43.82400
H  51.14900 49.44100 46.23300
H  53.19900 48.68300 46.59600
H  54.25200 48.07000 45.34200
H  53.29300 46.93200 46.26100
H  50.96700 51.13200 43.78600
H  52.59600 50.66400 44.34100
H  51.41500 51.53800 46.70200
H  50.98400 52.69700 45.44000
H  52.65400 52.19500 45.74400
H  46.62900 52.01000 43.72100
H  45.85300 51.40100 45.21700
H  44.97500 51.70900 43.68200
H  44.00300 47.66900 40.40900
H  42.41900 45.14100 44.54200
H  42.23700 44.47400 42.90900
H  41.04000 45.51700 43.42600

