158

Mg -2.41500 17.53200 26.03700
C  -2.77900 15.18600 28.72500
C  -2.86000 20.12500 28.36800
C  -2.73000 19.76900 23.53200
C  -2.41700 14.93600 23.82900
N  -2.72800 17.60600 28.35100
C  -2.67600 16.52900 29.19300
C  -2.56800 17.05500 30.62600
C  -2.78300 18.65700 30.45600
C  -2.73000 18.82700 28.98300
C  -4.00300 19.20000 31.26600
C  -1.16700 16.63400 31.25800
C  -0.76200 17.53100 32.42900
H  -0.31900 16.83500 33.74200
N  -2.68300 19.56500 25.94600
C  -2.92600 20.40000 27.01000
C  -3.35700 21.67600 26.49400
C  -3.19700 21.72100 25.14400
C  -2.91000 20.28000 24.80200
C  -3.91600 22.72300 27.37700
C  -3.51100 22.85200 24.16100
O  -3.41600 22.71000 22.94500
C  -3.83400 24.29500 24.68900
N  -2.67800 17.36900 23.91900
C  -2.61700 18.49000 23.13400
C  -2.31800 18.01500 21.66500
C  -2.33000 16.44400 21.82200
C  -2.39200 16.27600 23.28000
C  -3.36300 18.66100 20.63900
C  -1.05500 15.80900 21.24300
C  0.28900 15.89500 21.93500
N  -2.55700 15.53100 26.17800
C  -2.52200 14.56300 25.16600
C  -2.56800 13.24600 25.76300
C  -2.59500 13.48200 27.07500
C  -2.67300 14.80900 27.36600
C  -2.39100 11.84000 25.16600
C  -2.66500 12.79900 28.38500
O  -2.66100 11.60500 28.58000
C  -2.71000 13.85400 29.51400
C  -1.49200 13.62300 30.30100
O  -0.37700 13.78900 29.96800
O  -1.93200 13.06300 31.52800
C  -0.80600 12.60300 32.34300
H  -2.97500 20.95400 29.07000
H  -2.53800 20.59200 22.84100
H  -2.26300 14.06300 23.19100
H  -3.38000 16.52800 31.12800
H  -1.85700 19.04800 30.87600
H  -3.77900 19.88400 32.08400
H  -4.66700 18.39600 31.58500
H  -4.65600 19.83800 30.67100
H  -0.42300 16.68400 30.46400
H  -1.26700 15.60400 31.60300
H  -1.66400 18.05300 32.74900
H  -0.09000 18.29600 32.03900
H  -3.24600 23.57600 27.48100
H  -4.15900 22.26800 28.33700
H  -4.81200 23.16500 26.94100
H  -4.87600 24.19600 24.99300
H  -3.68500 24.86900 23.77400
H  -3.17800 24.66100 25.48000
H  -1.27200 18.23500 21.45400
H  -3.25600 16.02900 21.42500
H  -4.08900 19.38800 21.00300
H  -4.04100 17.96800 20.14100
H  -2.78500 19.22300 19.90600
H  -0.77500 16.30800 20.31500
H  -1.23700 14.73600 21.17200
H  0.26300 16.62600 22.74200
H  0.94500 16.30200 21.16600
H  0.69100 14.94100 22.27800
H  -2.10800 11.90000 24.11500
H  -3.30000 11.24800 25.27100
H  -1.56000 11.41100 25.72600
H  -3.58700 13.63800 30.12500
H  -0.38500 13.48700 32.82400
H  -0.10200 12.00300 31.76600
H  -1.14300 11.99700 33.18400
Mg 52.51500 24.03800 44.68500
C  50.18100 26.39000 44.05000
C  50.46100 21.64700 43.13000
C  55.16200 21.80700 44.72200
C  54.69400 26.45400 45.90300
N  50.64800 24.13000 43.51800
C  49.82100 25.19300 43.42700
C  48.51900 24.94100 42.61100
C  48.52800 23.35500 42.80000
C  50.00100 22.99300 43.15900
C  47.49200 22.89300 43.89200
C  48.64400 25.22700 41.02600
C  50.06100 25.26300 40.40800
H  50.23400 25.94000 39.07900
N  52.64900 21.90200 44.22300
C  51.73600 21.12600 43.54100
C  52.30600 19.79100 43.54200
C  53.63400 19.84300 44.04600
C  53.87900 21.24000 44.34200
C  51.47800 18.56500 43.07500
C  54.51600 18.61400 44.26500
O  54.16600 17.51000 43.86000
C  55.69100 18.69700 45.12100
N  54.67500 24.12400 45.08000
C  55.54200 23.10600 45.08400
C  56.92400 23.38600 45.48500
C  56.76700 24.88200 45.91600
C  55.25500 25.17500 45.63500
C  57.52600 22.39200 46.50300
C  57.72500 25.86400 45.11800
C  57.21800 26.40000 43.71200
N  52.54000 26.00300 44.93100
C  53.45600 26.88200 45.55100
C  52.81500 28.12200 45.72500
C  51.55100 27.96100 45.17600
C  51.44400 26.66600 44.69100
C  53.48500 29.40500 46.35400
C  50.26600 28.64300 44.93500
O  49.86600 29.79700 45.21600
C  49.39800 27.62200 44.21600
C  48.70600 28.11300 42.94600
O  49.30000 28.53200 41.97200
O  47.38100 27.99000 43.12600
C  46.55200 28.49800 42.05000
H  49.79200 20.87100 42.75400
H  55.94700 21.05100 44.65300
H  55.47400 27.14000 46.23800
H  47.60500 25.38600 43.00400
H  48.17600 22.90900 41.87000
H  46.71900 22.20400 43.55000
H  47.06200 23.78600 44.34500
H  48.07600 22.38000 44.65600
H  48.05300 26.12400 40.83900
H  48.11700 24.44900 40.47300
H  50.38300 24.22600 40.30800
H  50.75500 25.79000 41.06200
H  50.55700 18.92400 42.61500
H  51.19600 17.93700 43.92000
H  52.04500 17.87900 42.44600
H  55.67500 19.46000 45.90000
H  56.56800 18.87000 44.49800
H  55.81100 17.74000 45.62700
H  57.41700 23.26600 44.52000
H  56.86600 25.08800 46.98200
H  56.92000 21.52400 46.76400
H  57.73300 22.88100 47.45400
H  58.39800 21.98600 45.98900
H  58.68500 25.37100 44.96900
H  57.85300 26.69900 45.80800
H  57.94700 26.02700 42.99200
H  57.21100 27.48500 43.60600
H  56.25100 26.03300 43.36800
H  52.77700 30.08300 46.83200
H  54.16200 29.97500 45.71800
H  54.10900 29.09900 47.19400
H  48.59100 27.42200 44.92100
H  46.11900 27.68300 41.46900
H  47.07900 29.26000 41.47600
H  45.73200 29.09900 42.44400

