158

Mg 43.71000 4.40100 47.42400
C  41.58200 7.08200 46.90600
C  41.00900 2.20300 47.11700
C  45.85600 1.80200 47.24300
C  46.44900 6.58700 47.26400
N  41.55600 4.64600 46.88800
C  40.85900 5.87100 46.72400
C  39.36000 5.56500 46.34800
C  39.30500 4.02100 46.53900
C  40.69800 3.58400 46.77400
C  38.25300 3.57600 47.66200
C  39.07700 5.98900 44.87600
C  37.85300 6.89100 44.59500
H  37.21200 6.64100 43.21000
N  43.43400 2.37000 47.27600
C  42.26000 1.65900 47.34400
C  42.50400 0.24500 47.20600
C  43.89100 0.09900 47.21100
C  44.47200 1.48000 47.19200
C  41.41500 -0.69600 47.20100
C  44.63000 -1.19600 47.03600
O  44.07300 -2.26700 46.76100
C  46.11800 -1.36200 47.14600
N  45.79100 4.19300 47.25600
C  46.44000 3.03700 47.30000
C  47.94100 3.16100 47.56600
C  48.15200 4.68500 47.51000
C  46.75200 5.19700 47.29400
C  48.71800 2.36500 48.72100
C  49.20500 5.13900 46.37800
C  50.68100 5.28500 46.73000
N  43.94000 6.42700 47.25200
C  45.10700 7.13800 47.16200
C  44.75300 8.51900 47.06400
C  43.36600 8.56600 47.02700
C  42.94400 7.24900 47.07900
C  45.72800 9.67800 46.83400
C  42.23000 9.43000 46.88800
O  42.19500 10.62900 46.89600
C  41.00500 8.49300 46.82000
C  40.07800 9.06000 47.88100
O  40.00800 8.66800 49.04200
O  39.16700 9.94600 47.27800
C  38.14600 10.62200 48.08300
H  40.16700 1.55800 46.85900
H  46.55000 0.96900 47.36800
H  47.17800 7.40000 47.23700
H  38.79500 6.15800 47.06600
H  38.86700 3.56900 45.64900
H  37.55000 4.37500 47.89600
H  38.85300 3.34000 48.54000
H  37.79400 2.67800 47.24800
H  39.10200 5.13300 44.20300
H  39.90100 6.66100 44.63800
H  38.06900 7.95900 44.64000
H  37.12900 6.67700 45.38000
H  41.72300 -1.64400 46.76000
H  40.55600 -0.41400 46.59300
H  41.12100 -0.78900 48.24700
H  46.51600 -0.82000 46.28800
H  46.43400 -2.39900 47.26100
H  46.38100 -0.95400 48.12200
H  48.42800 2.81800 46.65300
H  48.49000 5.02500 48.48800
H  49.34600 1.62300 48.22800
H  48.05900 1.92100 49.46700
H  49.48600 3.03200 49.11300
H  48.95400 6.16400 46.10700
H  49.11100 4.45000 45.53900
H  50.97900 4.27500 47.01100
H  50.80300 5.83300 47.66400
H  51.25300 5.76800 45.93800
H  45.09000 10.54500 47.00300
H  46.08000 9.76200 45.80600
H  46.50800 9.82200 47.58200
H  40.64700 8.59000 45.79500
H  37.82400 9.95500 48.88300
H  37.24500 10.65400 47.47100
H  38.59700 11.55500 48.41900
Mg 46.94900 24.56800 27.71200
C  47.58300 26.79300 30.33800
C  45.69200 22.31000 30.10300
C  46.41800 22.40600 25.28100
C  48.47300 26.73100 25.47700
N  46.55000 24.58400 29.98200
C  46.89600 25.62500 30.78700
C  46.59800 25.30100 32.25000
C  46.05900 23.83400 32.12800
C  46.11300 23.53400 30.64400
C  46.91800 22.74900 32.86200
C  45.64300 26.31800 32.91500
C  46.13700 26.99800 34.23400
H  45.28000 26.87800 35.52600
N  46.08600 22.66300 27.67600
C  45.59300 21.94500 28.72400
C  45.07200 20.71400 28.25300
C  45.27800 20.64000 26.86500
C  45.91300 21.93400 26.51900
C  44.35400 19.60600 29.19000
C  45.00200 19.49100 25.82900
O  45.32200 19.48200 24.69700
C  44.30600 18.21600 26.34200
N  47.58900 24.50000 25.71000
C  47.00800 23.58800 24.86100
C  47.47700 23.84600 23.41800
C  47.86800 25.32900 23.48800
C  47.99300 25.52400 24.95400
C  48.64100 22.87100 23.06200
C  46.85800 26.30400 22.86800
C  45.45600 26.39900 23.46100
N  47.87200 26.42600 27.80200
C  48.44600 27.19300 26.79400
C  49.10900 28.31100 27.43300
C  48.80400 28.17500 28.85600
C  48.00100 27.04900 28.97000
C  50.06800 29.30300 26.92700
C  48.98200 28.78500 30.09400
O  49.63800 29.80200 30.41100
C  48.19100 27.91800 31.11500
C  49.10500 27.43900 32.13800
O  49.94800 26.60500 31.91400
O  48.96100 28.11500 33.30700
C  50.03300 28.10400 34.32200
H  45.48200 21.58400 30.89100
H  46.00300 21.71600 24.54400
H  48.97900 27.40700 24.78600
H  47.56100 25.18500 32.74800
H  45.07100 23.77200 32.58400
H  46.35700 22.11400 33.54800
H  47.78500 23.15600 33.38200
H  47.36400 22.06600 32.13800
H  44.65100 25.87000 32.98600
H  45.47800 27.19100 32.28500
H  46.26500 28.06000 34.02000
H  47.09600 26.51400 34.41700
H  44.58600 19.72100 30.24800
H  44.56900 18.54900 29.03400
H  43.27000 19.70900 29.13100
H  44.87100 17.68800 27.11000
H  44.11800 17.47700 25.56300
H  43.41000 18.56900 26.85200
H  46.66500 23.81500 22.69100
H  48.80000 25.52800 22.95900
H  48.39200 21.81100 23.10700
H  49.56800 23.10400 23.58500
H  48.88300 23.12300 22.03000
H  46.77400 26.13400 21.79500
H  47.29300 27.28800 23.04600
H  45.40000 27.19800 24.20000
H  45.31300 25.44400 23.96600
H  44.71500 26.52400 22.67200
H  50.56700 29.74600 27.78800
H  49.55000 30.06400 26.34400
H  50.87100 28.92800 26.29300
H  47.45100 28.55800 31.59700
H  50.25900 27.07800 34.61400
H  49.56900 28.65700 35.13800
H  50.95600 28.58800 34.00500

