158

Mg 49.23100 36.01800 27.65300
C  47.09400 35.00100 30.25400
C  49.80700 38.94800 29.50500
C  51.04200 37.26500 25.13900
C  48.42300 33.21700 25.80800
N  48.36100 36.95800 29.62300
C  47.71300 36.19100 30.58200
C  47.63700 36.95300 31.89500
C  48.18500 38.31000 31.59600
C  48.83900 38.13700 30.16700
C  47.19600 39.47300 31.66900
C  48.52000 36.17600 32.85900
C  47.94100 36.05300 34.29900
H  48.03500 37.19600 35.32000
N  50.35000 37.85400 27.38200
C  50.45800 38.88500 28.23900
C  51.40100 39.87700 27.81000
C  51.87900 39.32200 26.59600
C  51.03500 38.12800 26.30100
C  51.79100 41.17900 28.58000
C  52.97300 39.75700 25.60800
O  53.23900 39.14200 24.59100
C  53.59000 41.10900 25.92600
N  49.61400 35.38600 25.78900
C  50.41700 36.06100 24.91600
C  50.96300 35.13400 23.82800
C  50.06400 33.87800 23.98000
C  49.32400 34.15900 25.28700
C  51.12000 35.65800 22.42000
C  50.90600 32.54100 24.05600
C  50.23000 31.41600 23.17400
N  47.91300 34.42600 27.91400
C  47.71000 33.33000 27.11500
C  46.78400 32.41300 27.80100
C  46.42100 33.06100 28.98800
C  47.24000 34.24900 29.04000
C  46.21800 31.08500 27.22100
C  45.63600 33.03400 30.15800
O  44.80900 32.17900 30.54000
C  45.95000 34.24800 31.03500
C  46.32500 33.59200 32.32300
O  47.37100 32.92600 32.54400
O  45.22800 33.73300 33.15700
C  45.19700 32.67800 34.21800
H  50.00000 39.87800 30.04300
H  51.71200 37.51200 24.31200
H  48.24800 32.36400 25.14800
H  46.60500 36.92700 32.24400
H  48.94500 38.68700 32.28100
H  46.28500 39.01900 31.28000
H  47.37400 40.24200 30.91700
H  47.15200 39.83500 32.69600
H  49.46900 36.71200 32.83800
H  48.69600 35.17800 32.45800
H  48.31700 35.10600 34.68600
H  46.86500 35.91900 34.19000
H  51.23900 41.36400 29.50100
H  51.59400 42.01200 27.90600
H  52.85300 41.00500 28.75500
H  52.85100 41.90400 25.82300
H  54.39800 41.19400 25.19900
H  53.93400 41.05300 26.95900
H  51.98900 34.92800 24.13100
H  49.28800 33.85100 23.21500
H  51.06200 36.73900 22.29300
H  50.25400 35.33900 21.84000
H  51.95400 35.29300 21.82100
H  50.95900 32.11600 25.05900
H  51.91400 32.74000 23.69100
H  49.39700 31.78700 22.57700
H  49.90800 30.66300 23.89300
H  50.96000 30.89900 22.55200
H  46.51400 30.98200 26.17700
H  45.13200 31.17200 27.17800
H  46.58000 30.22900 27.79000
H  45.06000 34.87500 30.97300
H  44.57600 31.85200 33.86900
H  44.60100 33.09200 35.03100
H  46.16900 32.36700 34.60000
Mg -11.91400 16.14200 42.66600
C  -8.88000 14.79200 42.16400
C  -10.88300 19.15900 41.19600
C  -15.08500 17.31000 42.69600
C  -13.04300 13.10200 43.84800
N  -10.10000 16.91800 41.72800
C  -8.94400 16.16100 41.70600
C  -7.79800 17.05500 41.15400
C  -8.40600 18.46300 40.97600
C  -9.89800 18.23400 41.45700
C  -7.63500 19.62500 41.68900
C  -7.13000 16.52900 39.87900
C  -5.60200 16.38600 39.99500
H  -5.07100 15.24300 39.09300
N  -12.86100 17.96700 42.14200
C  -12.27600 19.08900 41.53500
C  -13.29900 20.02300 41.09100
C  -14.53500 19.47200 41.52400
C  -14.18300 18.23000 42.17700
C  -13.02900 21.29400 40.31400
C  -15.91700 20.13900 41.18600
O  -15.92000 21.20500 40.63000
C  -17.21800 19.56900 41.62100
N  -13.77300 15.34000 43.33200
C  -14.98900 15.95800 43.16200
C  -16.21700 14.99600 43.59500
C  -15.46600 13.82100 44.15400
C  -14.00500 14.06100 43.71700
C  -17.35100 15.62600 44.46600
C  -16.00800 12.49400 43.57200
C  -15.99000 11.24100 44.51300
N  -11.14600 14.29900 42.95300
C  -11.68000 13.16200 43.46900
C  -10.69200 12.13300 43.56500
C  -9.51900 12.75900 43.14000
C  -9.92000 14.01400 42.71900
C  -10.92900 10.77500 44.13900
C  -8.11000 12.55600 42.91700
O  -7.35200 11.54100 43.08900
C  -7.61800 13.86800 42.40700
C  -6.79500 14.43300 43.44400
O  -7.19800 15.21500 44.29600
O  -5.47400 14.11000 43.23400
C  -4.55000 14.63300 44.27900
H  -10.65800 20.19800 40.94600
H  -16.12900 17.63100 42.66000
H  -13.54100 12.23400 44.28700
H  -7.04800 17.02600 41.94400
H  -8.37300 18.76500 39.92900
H  -7.04400 19.12600 42.45600
H  -8.39400 20.18300 42.23700
H  -7.05700 20.28000 41.03700
H  -7.19100 17.25400 39.06700
H  -7.49400 15.55600 39.54800
H  -5.34100 16.14900 41.02600
H  -5.13600 17.34200 39.75500
H  -13.24100 22.19100 40.89600
H  -13.71800 21.22000 39.47200
H  -12.00200 21.42500 39.97300
H  -17.35900 18.63400 41.07900
H  -17.95500 20.35400 41.45500
H  -17.13500 19.36000 42.68800
H  -16.71700 14.86800 42.63500
H  -15.48000 13.74700 45.24100
H  -18.18100 16.01700 43.87800
H  -17.08400 16.45200 45.12500
H  -17.79000 14.89300 45.14200
H  -15.56100 12.37800 42.58500
H  -17.07100 12.51000 43.33100
H  -15.71500 10.36600 43.92300
H  -16.86500 10.99300 45.11300
H  -15.16400 11.44500 45.19400
H  -10.12400 10.58200 44.84800
H  -10.93200 10.16600 43.23500
H  -11.89500 10.64200 44.62400
H  -6.99800 13.72500 41.52100
H  -4.36700 15.70700 44.31600
H  -3.59100 14.11600 44.23500
H  -4.98500 14.32000 45.22900

