158

Mg 49.56400 34.42500 27.77100
C  47.24800 33.69800 30.41100
C  50.23100 37.44400 29.48000
C  51.25800 35.23600 25.16000
C  48.40700 31.49600 26.07100
N  48.92000 35.36900 29.76800
C  47.95000 34.91300 30.62900
C  47.91700 35.75700 31.91400
C  48.62300 37.09000 31.39200
C  49.34200 36.56100 30.13800
C  47.75700 38.32300 31.12800
C  48.69800 35.14800 33.12400
C  47.90800 35.23600 34.43500
H  48.39300 36.20900 35.47100
N  50.62500 36.08700 27.39400
C  50.86300 37.18800 28.18800
C  51.76800 38.07100 27.52000
C  52.03500 37.52300 26.32100
C  51.34100 36.21300 26.28000
C  51.94200 39.45500 28.00900
C  52.62900 38.19400 25.04900
O  52.73200 37.55200 23.99200
C  53.12300 39.58700 25.07500
N  49.73700 33.54500 25.82800
C  50.56200 34.06900 24.92500
C  50.55900 33.28600 23.53700
C  49.90400 31.99100 23.98300
C  49.34300 32.29300 25.42000
C  49.81400 34.14700 22.48000
C  50.96500 30.80200 23.93000
C  50.52800 29.45300 23.30800
N  48.10300 32.89600 28.04600
C  47.75400 31.79300 27.23400
C  46.69300 31.02200 27.99000
C  46.43500 31.83400 29.12000
C  47.36300 32.86400 29.17700
C  46.09100 29.76700 27.65900
C  45.57500 31.86300 30.33900
O  44.74400 31.01800 30.71100
C  46.01600 33.17600 31.13300
C  46.29000 32.56200 32.52900
O  47.39600 32.41600 32.92200
O  45.12200 32.35900 33.24400
C  45.34900 31.87600 34.64100
H  50.29100 38.45900 29.87800
H  51.77900 35.49200 24.23500
H  47.99100 30.57500 25.65700
H  46.85900 35.91300 32.12300
H  49.37000 37.45900 32.09500
H  47.92300 38.70800 30.12200
H  47.91800 39.17800 31.78500
H  46.68300 38.15600 31.20900
H  49.55300 35.79300 33.32600
H  49.02200 34.12700 32.91800
H  48.08200 34.27500 34.91800
H  46.82700 35.35100 34.36200
H  51.49800 39.63900 28.98800
H  51.44500 40.19900 27.38700
H  53.02500 39.56000 27.94300
H  52.28300 40.25000 25.28000
H  53.28500 39.83100 24.02500
H  53.97300 39.74500 25.73800
H  51.56300 33.30600 23.11100
H  49.03300 31.79800 23.35700
H  50.48400 34.63200 21.77000
H  49.22900 34.93200 22.96100
H  49.03300 33.61200 21.94000
H  51.37200 30.60000 24.92100
H  51.82900 31.17300 23.37900
H  49.54500 29.50000 22.83900
H  50.35400 28.67600 24.05300
H  51.25300 29.16900 22.54500
H  45.81800 29.83600 26.60600
H  45.15900 29.71100 28.22200
H  46.88800 29.04700 27.84200
H  45.11400 33.78400 31.20000
H  45.89600 30.93600 34.56700
H  44.43400 31.67200 35.19700
H  46.03400 32.58300 35.10900
Mg -11.70400 16.19500 41.59300
C  -8.62000 14.54100 41.35200
C  -10.33400 18.80500 39.86500
C  -14.79700 17.55900 41.45500
C  -13.00300 13.17800 42.81900
N  -9.64300 16.59400 40.75700
C  -8.53600 15.75800 40.73900
C  -7.35000 16.38000 40.07800
C  -7.96600 17.83500 39.65900
C  -9.39700 17.78500 40.18800
C  -7.24400 19.13200 40.12200
C  -6.73000 15.65200 38.87300
C  -5.15300 15.88500 38.84600
H  -4.57200 16.59500 37.60600
N  -12.38800 18.00200 40.85500
C  -11.70200 18.91800 40.21400
C  -12.54800 20.01200 39.93400
C  -13.83400 19.79100 40.49000
C  -13.73200 18.41500 40.98500
C  -11.97600 21.21200 39.19700
C  -15.10800 20.65000 40.46100
O  -15.06300 21.78800 39.94500
C  -16.39400 20.28400 41.16500
N  -13.65700 15.49600 42.08900
C  -14.75900 16.19100 41.90900
C  -16.06300 15.34000 42.20600
C  -15.45100 13.94800 42.63500
C  -13.92100 14.19600 42.51200
C  -16.92700 15.93600 43.37900
C  -15.96300 12.75200 41.84400
C  -15.83500 11.42200 42.64000
N  -11.06200 14.26100 42.09900
C  -11.69400 13.15100 42.61900
C  -10.73900 12.06800 42.67200
C  -9.51700 12.55100 42.16700
C  -9.78200 13.90400 41.85900
C  -11.11400 10.67500 43.18800
C  -8.07300 12.21800 41.97900
O  -7.43500 11.21900 42.32300
C  -7.44200 13.53400 41.51900
C  -6.48300 13.93800 42.52200
O  -6.69100 14.16900 43.74200
O  -5.30300 14.19500 41.87000
C  -4.21100 14.90000 42.60900
H  -9.89200 19.61900 39.28600
H  -15.84200 17.85900 41.35100
H  -13.49000 12.29200 43.23300
H  -6.57000 16.42500 40.83800
H  -7.95400 17.94700 38.57500
H  -6.41200 18.91700 40.79200
H  -7.94400 19.71200 40.72200
H  -6.93600 19.62600 39.20100
H  -7.15800 16.08000 37.96500
H  -6.97000 14.59000 38.82900
H  -4.60800 14.98600 39.13100
H  -4.87400 16.49200 39.70800
H  -12.74300 21.93800 38.92600
H  -11.42900 20.99300 38.28000
H  -11.43800 21.76200 39.96900
H  -16.82400 19.49700 40.54400
H  -17.11200 21.09700 41.05800
H  -16.21800 19.86500 42.15600
H  -16.64000 15.29400 41.28300
H  -15.77500 13.78300 43.66300
H  -16.66300 16.98800 43.48600
H  -16.73400 15.59700 44.39700
H  -18.00600 15.95600 43.22500
H  -15.41000 12.74400 40.90500
H  -17.02000 12.75700 41.57700
H  -16.66400 10.75000 42.41600
H  -15.69100 11.65200 43.69500
H  -14.98000 10.94800 42.15500
H  -10.27200 10.01100 42.98800
H  -12.02400 10.46400 42.62600
H  -11.42100 10.54500 44.22600
H  -6.97500 13.34900 40.55200
H  -4.42300 15.27900 43.60900
H  -3.89300 15.78200 42.05400
H  -3.37400 14.21600 42.74500

