158

Mg 44.25800 4.00800 47.60200
C  42.19300 6.73800 47.10400
C  41.65700 1.94800 46.77900
C  46.35400 1.36400 47.43400
C  47.02200 6.22700 47.75900
N  42.21700 4.35500 47.00300
C  41.63100 5.50700 46.80600
C  40.20400 5.36300 46.35200
C  39.92400 3.84200 46.47000
C  41.39400 3.31600 46.73400
C  39.17500 3.38800 47.76400
C  40.07200 5.88900 44.89300
C  38.70500 6.56600 44.43100
H  38.16400 5.98400 43.06700
N  43.99300 1.91100 47.38000
C  42.86200 1.27900 47.11100
C  42.98400 -0.06700 47.13200
C  44.35700 -0.29600 47.36600
C  44.95200 1.01900 47.50800
C  41.89900 -1.09200 46.86100
C  45.00700 -1.61900 47.28000
O  44.21500 -2.58100 47.05900
C  46.42900 -1.96700 47.42600
N  46.36100 3.85800 47.29900
C  46.96600 2.62800 47.43600
C  48.51300 2.84000 47.86600
C  48.75900 4.34200 47.94200
C  47.30600 4.83200 47.60400
C  48.91300 2.07500 49.14900
C  49.87000 4.92700 47.02700
C  51.17100 5.38000 47.81500
N  44.60800 6.03300 47.36400
C  45.80200 6.79100 47.51000
C  45.43100 8.19700 47.48400
C  44.04500 8.22400 47.39600
C  43.57300 6.91000 47.34900
C  46.24500 9.38800 47.64100
C  42.89600 9.08800 47.28900
O  42.83900 10.34300 47.15200
C  41.60900 8.17300 47.13200
C  40.71700 8.54800 48.31400
O  40.63800 7.96600 49.38800
O  39.80900 9.55300 47.89100
C  38.70900 9.74900 48.85600
H  40.72600 1.39000 46.65700
H  46.97400 0.46600 47.47100
H  47.83500 6.91700 47.99600
H  39.63300 5.97700 47.04900
H  39.42100 3.31600 45.65900
H  38.50300 2.54200 47.61500
H  38.58300 4.22100 48.14300
H  39.93400 3.22100 48.52900
H  40.29100 5.11900 44.15300
H  40.85100 6.64600 44.80800
H  38.79400 7.64800 44.33700
H  37.93300 6.32800 45.16300
H  42.04100 -2.02500 47.40600
H  41.74000 -1.28000 45.79900
H  40.94000 -0.70700 47.20800
H  47.00100 -1.50500 46.62100
H  46.50900 -3.04000 47.24500
H  46.83300 -1.90100 48.43600
H  49.20300 2.37800 47.16000
H  48.99800 4.58900 48.97600
H  48.91200 1.03200 48.83300
H  48.15400 2.17500 49.92600
H  49.87200 2.39900 49.55400
H  49.42900 5.73000 46.43600
H  50.10600 4.15400 46.29500
H  52.05200 4.85200 47.44900
H  50.99200 5.30000 48.88800
H  51.34600 6.40900 47.50300
H  45.85800 10.05100 48.41500
H  46.22600 9.78400 46.62600
H  47.24300 9.10200 47.97100
H  41.10700 8.55100 46.24200
H  38.05900 8.87600 48.81300
H  38.12300 10.63000 48.59700
H  39.16600 10.00200 49.81300
Mg -5.26600 24.89900 25.98500
C  -3.72700 26.53600 28.53700
C  -6.33900 22.44100 28.22600
C  -6.86100 23.37600 23.48500
C  -3.64300 27.13700 23.78600
N  -5.21500 24.76700 28.09900
C  -4.62900 25.56800 28.96200
C  -4.88000 25.23700 30.40400
C  -5.52000 23.79700 30.26500
C  -5.69100 23.62200 28.76700
C  -4.72200 22.68200 30.94500
C  -5.78000 26.27000 31.06900
C  -5.50700 26.78400 32.49400
H  -5.00200 25.71400 33.42300
N  -6.49100 23.17700 25.89100
C  -6.65900 22.21200 26.89800
C  -7.30700 21.09800 26.39100
C  -7.54300 21.40100 24.95300
C  -7.03300 22.76700 24.72100
C  -7.65100 19.94300 27.27700
C  -8.11900 20.38500 23.91300
O  -8.24400 20.76400 22.74300
C  -8.53300 19.02700 24.39700
N  -5.27000 25.26300 23.92700
C  -6.06900 24.48500 23.08800
C  -5.97900 24.91300 21.59200
C  -4.87400 26.02900 21.72200
C  -4.62700 26.23900 23.23300
C  -5.68300 23.81200 20.53500
C  -5.20400 27.28400 20.94800
C  -4.05900 27.86000 20.05100
N  -3.71000 26.36400 26.04200
C  -3.15700 27.15900 25.07200
C  -2.21300 28.05200 25.77300
C  -2.36600 27.84000 27.12900
C  -3.36900 26.84400 27.22400
C  -1.34200 29.06700 25.13600
C  -1.99100 28.26800 28.43900
O  -1.15000 29.11400 28.87800
C  -2.84700 27.41400 29.42100
C  -1.85400 26.72700 30.31700
O  -0.91800 26.08700 29.87800
O  -2.06700 27.12100 31.59300
C  -1.03400 26.71700 32.53200
H  -6.67000 21.83800 29.07400
H  -7.29700 22.83800 22.64100
H  -3.25700 27.90400 23.11100
H  -3.91800 25.19000 30.91500
H  -6.49500 23.71600 30.74600
H  -4.26800 23.11900 31.83500
H  -3.96100 22.23100 30.30800
H  -5.36600 21.83900 31.19600
H  -6.72000 25.75000 31.25300
H  -5.97400 27.14100 30.44300
H  -6.25300 27.39500 33.00200
H  -4.61600 27.37700 32.28900
H  -7.10900 19.08500 26.87900
H  -8.71000 19.69500 27.22100
H  -7.52800 19.87300 28.35800
H  -9.14500 18.55200 23.63000
H  -9.28100 19.15000 25.18000
H  -7.82300 18.27400 24.73800
H  -6.93300 25.38700 21.36300
H  -3.94900 25.53100 21.43100
H  -5.39900 22.87400 21.01300
H  -4.86200 24.11500 19.88500
H  -6.58500 23.77700 19.92300
H  -5.81300 28.00500 21.49200
H  -5.83800 26.88900 20.15400
H  -4.47700 28.41600 19.21100
H  -3.39100 27.17100 19.53400
H  -3.31500 28.38300 20.65300
H  -0.31400 28.92900 25.47000
H  -1.61000 30.04600 25.53400
H  -1.48800 29.08100 24.05600
H  -3.30700 28.16000 30.06900
H  -1.42400 27.28600 33.37500
H  -0.01400 27.08000 32.40500
H  -0.99800 25.64400 32.72100

