158

Mg 2.08200 -1.04700 43.98800
C  5.49800 -0.45400 43.71000
C  1.41600 1.94300 42.75000
C  -1.25000 -2.07200 43.69300
C  2.75700 -4.37300 44.95400
N  3.29600 0.50100 43.21900
C  4.68200 0.56600 43.17100
C  5.17900 1.84500 42.60000
C  3.86300 2.69600 42.61500
C  2.80400 1.67000 42.82700
C  3.87900 3.87700 43.65000
C  5.85600 1.53500 41.21800
C  7.09700 2.39500 40.83400
H  7.11000 2.73000 39.30800
N  0.29300 -0.11500 43.43600
C  0.25300 1.11400 42.88000
C  -1.07300 1.47800 42.69500
C  -1.90800 0.38500 43.04500
C  -0.97200 -0.74000 43.38300
C  -1.54100 2.84600 42.32700
C  -3.44600 0.40600 43.06600
O  -4.05000 1.44100 42.80500
C  -4.19900 -0.74500 43.55300
N  0.93200 -3.00500 44.14300
C  -0.41900 -3.05100 44.17500
C  -0.92200 -4.46900 44.54400
C  0.35900 -5.13900 45.10500
C  1.45100 -4.12400 44.72000
C  -2.22900 -4.58900 45.39800
C  0.64800 -6.61000 44.54200
C  0.81600 -7.69900 45.63800
N  3.77100 -2.17000 44.34400
C  3.88500 -3.53100 44.68000
C  5.28100 -3.83300 44.89200
C  5.95600 -2.69900 44.44300
C  4.99400 -1.67300 44.13700
C  5.69700 -5.21100 45.25100
C  7.25600 -2.17900 44.18500
O  8.39600 -2.63400 44.27200
C  7.04300 -0.64100 43.64800
C  7.65800 0.29900 44.54500
O  7.33800 0.62400 45.70900
O  8.49200 1.07300 43.84400
C  9.23900 2.15300 44.39800
H  1.16300 2.96000 42.44500
H  -2.31000 -2.33000 43.65200
H  2.90600 -5.33000 45.45900
H  5.99000 2.31600 43.15400
H  3.84000 3.20900 41.65400
H  4.86400 3.92900 44.11200
H  3.23000 3.53900 44.45800
H  3.51200 4.69200 43.02600
H  5.08100 1.45000 40.45700
H  6.25000 0.52000 41.25700
H  8.02200 1.87700 41.08900
H  7.13200 3.32700 41.39800
H  -2.52700 2.98000 41.88100
H  -0.83800 3.26800 41.60900
H  -1.45100 3.47800 43.21000
H  -5.24800 -0.45000 43.57700
H  -3.79100 -1.21500 44.44800
H  -4.17200 -1.49600 42.76400
H  -1.14500 -4.86100 43.55200
H  0.33100 -5.10200 46.19400
H  -2.08700 -5.24900 46.25300
H  -2.98200 -5.16000 44.85400
H  -2.60400 -3.60200 45.67000
H  1.61600 -6.60800 44.04100
H  -0.10800 -6.93000 43.82400
H  0.50700 -7.31200 46.60900
H  1.81600 -8.11800 45.74900
H  0.18900 -8.57000 45.44900
H  5.31800 -5.93800 44.53200
H  5.30800 -5.44200 46.24300
H  6.78600 -5.24200 45.24400
H  7.45800 -0.70900 42.64200
H  10.04900 2.37900 43.70400
H  9.65500 1.88600 45.36900
H  8.67400 3.07600 44.52500
Mg 6.36900 54.65600 40.65600
C  6.06000 50.95800 40.32200
C  9.61000 54.35400 39.77800
C  6.40300 57.89300 40.50300
C  2.85900 54.57400 41.73900
N  7.51500 52.86600 39.97500
C  7.29900 51.46400 40.02000
C  8.61100 50.70800 39.87200
C  9.65400 51.83700 40.00300
C  8.87900 53.12000 39.89700
C  10.50800 51.71900 41.30400
C  8.80100 49.93200 38.50600
C  8.49000 50.69400 37.27100
H  7.62800 50.08500 36.12700
N  7.71400 55.97900 40.13000
C  9.04900 55.67300 39.77800
C  9.71400 56.84700 39.39800
C  8.75300 57.96400 39.49500
C  7.57500 57.32900 40.07800
C  11.24000 56.98200 38.95500
C  9.02900 59.32800 39.06800
O  10.07300 59.64400 38.55200
C  7.98500 60.32800 39.11400
N  4.74200 56.04300 41.01600
C  5.13300 57.39200 40.95900
C  3.94400 58.35700 41.31300
C  2.90100 57.26000 41.85800
C  3.54600 55.85100 41.53700
C  4.31800 59.42700 42.38900
C  1.49900 57.42300 41.31800
C  0.48100 57.23400 42.41700
N  4.77900 53.14800 40.98900
C  3.45200 53.26600 41.38800
C  2.74800 52.03700 41.37900
C  3.77700 51.12800 41.02800
C  4.95000 51.83500 40.79100
C  1.36900 51.63500 41.71700
C  4.11700 49.74600 40.93500
O  3.35700 48.82400 41.27400
C  5.62800 49.57900 40.47300
C  5.49300 48.81100 39.22600
O  5.19200 49.21700 38.13300
O  5.98700 47.52800 39.40600
C  5.90300 46.63700 38.27100
H  10.68300 54.33200 39.57900
H  6.44200 58.97400 40.64800
H  1.78700 54.59200 41.95000
H  8.76800 49.95600 40.64500
H  10.32800 51.77800 39.14800
H  11.55700 51.91500 41.07900
H  10.50700 50.73300 41.76800
H  10.09300 52.36200 42.08000
H  8.27700 48.97600 38.49600
H  9.84900 49.65700 38.39300
H  9.43600 50.77100 36.73400
H  8.03100 51.66400 37.46000
H  11.72400 56.21200 39.55600
H  11.66200 57.91200 39.33600
H  11.24200 56.84400 37.87400
H  7.01600 60.15500 38.64600
H  8.41400 61.20800 38.63500
H  7.98000 60.64900 40.15600
H  3.60400 58.80000 40.37700
H  2.89200 57.15600 42.94300
H  3.48100 59.43500 43.08700
H  4.47300 60.36700 41.86000
H  5.26500 59.19600 42.87600
H  1.35600 56.61900 40.59600
H  1.25500 58.35600 40.81100
H  -0.22000 56.50300 42.01500
H  -0.10800 58.14900 42.46900
H  0.84200 56.88300 43.38300
H  0.89300 51.26900 40.80700
H  0.87600 52.55100 42.04200
H  1.29400 50.79300 42.40400
H  6.26900 49.14800 41.24200
H  4.86000 46.35400 38.13200
H  6.43300 45.71200 38.49600
H  6.24500 47.08800 37.33900

