158

Mg 49.33900 45.42500 43.37600
C  45.95900 46.00100 42.48100
C  48.96500 42.18100 42.48400
C  52.66500 45.18400 43.55600
C  49.65700 49.09600 43.70900
N  47.63300 44.30800 42.61900
C  46.33800 44.65900 42.43700
C  45.49700 43.46200 42.04500
C  46.43700 42.29200 42.26300
C  47.76000 42.98900 42.45000
C  46.04200 41.36300 43.38600
C  45.03400 43.43600 40.47900
C  46.10600 43.71900 39.33900
H  46.23000 42.69000 38.20800
N  50.67700 43.83600 43.08100
C  50.28400 42.60800 42.65000
C  51.47300 41.75100 42.65200
C  52.61600 42.54800 43.12200
C  52.05100 43.90900 43.25500
C  51.46400 40.23000 42.27800
C  54.06500 42.05600 43.40600
O  54.25000 40.82000 43.37300
C  55.28900 42.97600 43.66300
N  50.91500 47.00700 43.61000
C  52.22000 46.50900 43.69300
C  53.15000 47.73000 44.01200
C  52.23000 48.95800 43.82000
C  50.80900 48.32600 43.79000
C  53.71000 47.61600 45.42900
C  52.44800 49.84200 42.52100
C  53.03000 51.25800 42.74500
N  48.11300 47.28700 43.13600
C  48.36200 48.60600 43.31400
C  47.11600 49.37300 43.04400
C  46.11900 48.41000 42.68500
C  46.81000 47.14800 42.77700
C  46.92700 50.89900 43.06900
C  44.73900 48.15600 42.42300
O  43.83100 48.92600 42.33800
C  44.66900 46.59300 42.11400
C  43.47700 45.96900 42.78900
O  42.50000 45.54000 42.24400
O  43.54000 46.32000 44.15800
C  42.31000 46.07600 44.89900
H  48.75300 41.12500 42.30500
H  53.74200 45.07900 43.70400
H  49.72000 50.18400 43.78500
H  44.60100 43.54700 42.65900
H  46.58000 41.74100 41.33400
H  45.35100 41.93800 44.00200
H  46.94800 40.96800 43.84600
H  45.44800 40.50200 43.07900
H  44.23000 44.17100 40.42500
H  44.51700 42.51100 40.22300
H  47.06800 43.77600 39.84800
H  45.94400 44.70900 38.91300
H  50.51400 40.01500 41.78900
H  51.44900 39.56900 43.14400
H  52.30500 40.03400 41.61300
H  55.14900 43.81700 42.98400
H  56.18100 42.43000 43.35500
H  55.34200 43.15400 44.73700
H  54.00900 47.67200 43.34300
H  52.34000 49.52300 44.74500
H  53.56300 48.45500 46.10800
H  54.78700 47.56700 45.26800
H  53.32800 46.68700 45.85100
H  51.53000 49.92900 41.93900
H  53.13800 49.24800 41.92200
H  53.36400 51.28800 43.78200
H  52.34000 52.06600 42.50000
H  53.91800 51.43700 42.13900
H  47.40100 51.53000 43.82100
H  45.85700 51.04000 42.92100
H  47.43300 51.18700 42.14700
H  44.48200 46.43400 41.05200
H  41.97500 45.04000 44.86100
H  41.55300 46.78200 44.55700
H  42.52800 46.37700 45.92400
Mg 10.98100 46.82000 25.74800
C  8.95600 46.85700 28.67100
C  13.57200 47.89800 27.50600
C  12.70300 47.08000 22.92700
C  7.96000 46.42500 23.90000
N  11.20300 47.31900 27.84400
C  10.26300 47.23000 28.83400
C  11.00700 47.57400 30.18500
C  12.26200 48.32900 29.68800
C  12.37700 47.80900 28.22000
C  12.20600 49.84500 29.75800
C  11.34900 46.42000 31.21800
C  10.90000 46.51400 32.70800
H  10.93200 45.28500 33.56300
N  12.91800 47.19500 25.31300
C  13.91000 47.50200 26.23500
C  15.19300 47.30300 25.61100
C  14.95100 47.10500 24.15200
C  13.45300 47.13900 24.08000
C  16.43000 47.41400 26.40000
C  15.98600 46.82200 23.04000
O  15.65700 46.57400 21.89200
C  17.47400 46.85300 23.46700
N  10.38200 46.94300 23.70100
C  11.30400 47.05400 22.66900
C  10.69100 46.75100 21.38600
C  9.20500 46.46500 21.70700
C  9.15200 46.64300 23.17500
C  11.05800 47.78900 20.21100
C  8.63100 45.08400 21.22500
C  9.12600 44.57300 19.83600
N  8.77800 46.72500 26.15300
C  7.72500 46.43100 25.32300
C  6.52900 46.24400 26.14000
C  6.99700 46.37700 27.50600
C  8.36400 46.72100 27.41000
C  5.11300 45.96300 25.60100
C  6.62100 46.47000 28.89200
O  5.45400 46.37500 29.25600
C  7.89000 46.59200 29.75400
C  8.13000 45.42700 30.51100
O  8.75700 44.46000 30.12100
O  7.50900 45.47100 31.74800
C  7.61600 44.24200 32.62100
H  14.30600 48.32300 28.19300
H  13.36600 46.82900 22.09600
H  7.01500 46.24400 23.38400
H  10.32800 48.21700 30.74400
H  13.16100 48.01000 30.21400
H  13.17200 50.33000 29.90200
H  11.43600 50.08100 30.49200
H  11.81500 50.32600 28.86200
H  12.41900 46.27300 31.07100
H  10.89700 45.48200 30.89600
H  9.85700 46.83000 32.73500
H  11.48700 47.36800 33.04700
H  17.03400 48.24600 26.03800
H  17.10300 46.55800 26.43600
H  16.22600 47.73700 27.42100
H  17.64200 45.90900 23.98700
H  17.72500 47.71200 24.08900
H  18.03000 46.89800 22.53000
H  11.20700 45.81200 21.18600
H  8.62500 47.24200 21.21000
H  11.47500 48.72600 20.58000
H  10.26800 48.06700 19.51300
H  11.76800 47.27700 19.56200
H  7.54300 45.14900 21.22500
H  8.99800 44.30500 21.89400
H  8.24000 44.18800 19.33100
H  9.88100 43.79100 19.91900
H  9.54900 45.35900 19.21100
H  4.42900 46.41600 26.31800
H  4.89000 44.90600 25.74300
H  4.88000 46.29100 24.58800
H  7.78400 47.34100 30.53800
H  7.52100 44.54700 33.66300
H  8.59800 43.77800 32.53200
H  6.81300 43.53100 32.42400

