158

Mg -2.20500 17.33600 25.98900
C  -2.61400 15.11200 28.58300
C  -2.77300 19.90900 28.09700
C  -2.02800 19.50100 23.29900
C  -1.84800 14.63600 23.80500
N  -2.64000 17.50900 28.08100
C  -2.77600 16.47900 28.96400
C  -3.27900 16.94100 30.35000
C  -3.21500 18.50700 30.16300
C  -2.89000 18.67300 28.68100
C  -4.46900 19.37900 30.61300
C  -2.47500 16.51900 31.58500
C  -2.60100 17.40700 32.85300
H  -2.70200 16.50800 34.10700
N  -2.34100 19.44900 25.75500
C  -2.64700 20.31000 26.74800
C  -2.55400 21.68900 26.28700
C  -2.09300 21.52800 24.92600
C  -2.18200 20.14600 24.64300
C  -2.87800 22.86500 27.19500
C  -1.67400 22.62300 24.00000
O  -1.32800 22.53000 22.82600
C  -1.58400 24.03600 24.49100
N  -2.16800 17.07300 23.80200
C  -2.00500 18.14600 22.94100
C  -1.86400 17.73400 21.50600
C  -1.59900 16.13300 21.69500
C  -1.83200 15.92600 23.22900
C  -3.05800 18.04200 20.59200
C  -0.20000 15.68700 21.23200
C  0.93400 15.75800 22.24200
N  -2.31200 15.27500 26.08900
C  -2.13200 14.28800 25.14400
C  -2.08600 13.02500 25.74300
C  -2.28800 13.25500 27.10800
C  -2.44300 14.65800 27.27800
C  -1.68900 11.69900 25.06700
C  -2.40500 12.62000 28.47100
O  -2.33300 11.45800 28.81000
C  -2.55200 13.84600 29.45300
C  -1.30600 13.85600 30.21800
O  -0.44300 14.72200 30.04600
O  -1.24400 12.81600 31.10100
C  -0.16700 12.89200 32.10800
H  -2.95100 20.66000 28.86900
H  -1.88100 20.21800 22.48800
H  -1.53800 13.86400 23.09700
H  -4.25500 16.53700 30.61900
H  -2.36300 18.91400 30.70700
H  -5.09600 19.59500 29.74800
H  -4.01300 20.27800 31.02600
H  -5.04800 18.85100 31.37000
H  -1.40800 16.43100 31.38100
H  -2.81200 15.49000 31.71200
H  -3.59600 17.85200 32.88600
H  -1.81700 18.16100 32.77200
H  -3.42000 23.61000 26.61200
H  -1.91500 23.20700 27.57600
H  -3.43900 22.63100 28.09900
H  -2.52100 24.59000 24.55400
H  -1.02300 24.62900 23.76900
H  -1.08800 23.93100 25.45600
H  -0.95000 18.21000 21.15100
H  -2.34500 15.46800 21.25900
H  -3.38600 17.11700 20.11800
H  -2.68300 18.67200 19.78400
H  -3.88400 18.50400 21.13300
H  0.15900 16.44200 20.53300
H  -0.25000 14.73900 20.69600
H  0.65200 16.20800 23.19400
H  1.87800 16.09400 21.81200
H  1.13400 14.72100 22.51300
H  -1.20100 11.80300 24.09800
H  -2.51100 11.04400 24.77800
H  -0.97600 11.27500 25.77500
H  -3.33700 13.79900 30.20900
H  -0.30900 13.71800 32.80500
H  0.74900 13.08800 31.55000
H  0.06800 12.00100 32.69000
Mg 47.55200 16.19800 28.71400
C  45.35300 15.93900 31.36500
C  49.55600 18.22900 30.57000
C  49.59100 16.54500 26.12300
C  45.23200 14.51300 26.78200
N  47.51100 16.92300 30.74800
C  46.55300 16.60900 31.64500
C  46.92800 17.22100 33.08100
C  48.07900 18.22900 32.65100
C  48.45100 17.72600 31.26000
C  47.71300 19.70600 32.71800
C  47.39200 16.14100 34.10600
C  47.50600 16.58900 35.61500
H  47.01300 17.99300 36.00300
N  49.46000 17.03000 28.51800
C  50.05200 17.89200 29.34200
C  51.27100 18.38600 28.71400
C  51.36800 17.72100 27.52700
C  50.10200 17.03600 27.33100
C  52.22000 19.32800 29.45200
C  52.48100 17.78300 26.51400
O  52.36200 17.24300 25.42700
C  53.70600 18.52800 26.76500
N  47.35600 15.66300 26.65900
C  48.39300 15.88000 25.80700
C  48.15900 15.21700 24.46200
C  46.80700 14.44200 24.72800
C  46.42300 14.91100 26.13600
C  48.25100 16.11300 23.19600
C  46.72700 12.92300 24.45000
C  45.52800 12.45400 23.62800
N  45.60600 15.40500 28.97900
C  44.83300 14.71000 28.06300
C  43.55000 14.37600 28.67700
C  43.70800 14.79900 29.91800
C  44.96200 15.39100 30.10300
C  42.48800 13.50800 28.12500
C  43.07100 14.86500 31.19100
O  41.97100 14.50000 31.61000
C  44.18100 15.51700 32.24000
C  43.51600 16.53500 33.01900
O  42.99300 17.54800 32.59300
O  43.44200 16.17400 34.31100
C  42.80800 17.19200 35.14400
H  50.17500 18.90700 31.16200
H  50.23300 16.58400 25.24000
H  44.45500 13.94600 26.26500
H  46.09700 17.77000 33.52400
H  48.93400 18.09600 33.31300
H  48.02200 20.22200 31.80900
H  48.17400 20.27600 33.52400
H  46.63000 19.77800 32.61100
H  48.32300 15.84200 33.62400
H  46.79900 15.23100 34.00600
H  48.57600 16.39800 35.69800
H  46.91200 15.91000 36.22600
H  53.18900 18.83300 29.51600
H  51.89100 19.57500 30.46200
H  52.42200 20.22600 28.86800
H  53.56800 19.58300 27.00100
H  54.29800 18.57100 25.85100
H  54.29900 18.03100 27.53300
H  48.84800 14.38600 24.31400
H  46.18500 14.86900 23.94100
H  48.05100 17.14700 23.47500
H  47.48100 15.78400 22.49800
H  49.24600 16.08000 22.75300
H  46.62700 12.50800 25.45200
H  47.58500 12.42300 24.00000
H  45.94800 11.87800 22.80300
H  44.95500 13.27400 23.19600
H  44.88100 11.83200 24.24800
H  42.87100 12.86200 27.33500
H  41.78600 14.13100 27.57200
H  41.93200 12.88200 28.82400
H  44.54200 14.69800 32.86200
H  41.73100 17.28100 34.99800
H  43.26800 18.17900 35.17200
H  42.95000 16.77400 36.14100

