158

Mg 25.01700 1.27900 29.73500
C  27.11100 1.05500 32.54300
C  22.36800 1.31200 31.83600
C  23.07700 1.41300 27.01900
C  27.77700 0.81100 27.69000
N  24.80900 1.17100 31.92300
C  25.74300 1.17300 32.90500
C  25.19000 1.32700 34.30500
C  23.64400 1.24600 34.05900
C  23.56800 1.12500 32.51900
C  22.82000 0.29800 34.90100
C  25.71800 2.56600 35.02300
C  26.51900 2.41900 36.32000
H  26.24100 3.42400 37.47200
N  22.98300 1.25700 29.52100
C  22.04200 1.37800 30.47500
C  20.76500 1.62300 29.85300
C  20.96100 1.75100 28.43100
C  22.38400 1.44200 28.21100
C  19.43200 1.69800 30.55800
C  19.99200 2.15500 27.33900
O  20.39200 2.30300 26.14700
C  18.51200 2.39200 27.66800
N  25.36400 1.04600 27.67100
C  24.35500 1.14800 26.78300
C  24.85600 1.15100 25.29700
C  26.48800 1.10200 25.46600
C  26.56400 0.96700 26.98500
C  24.28400 -0.05300 24.48100
C  27.25800 2.27100 24.84400
C  27.06400 3.73500 25.42700
N  27.05400 0.92400 30.01400
C  28.03700 0.78900 29.07900
C  29.29700 0.59600 29.75500
C  29.06000 0.70600 31.14700
C  27.64500 0.93900 31.26500
C  30.64500 0.31800 29.14500
C  29.59200 0.60100 32.52500
O  30.72000 0.32000 32.92900
C  28.36300 1.01000 33.52200
C  28.24600 -0.11200 34.51500
O  27.75100 -1.21700 34.25400
O  28.76400 0.29700 35.69500
C  28.97400 -0.88300 36.57000
H  21.56400 1.45600 32.56100
H  22.47700 1.62000 26.13000
H  28.63300 0.80700 27.01300
H  25.37500 0.40600 34.85800
H  23.21100 2.22800 34.25100
H  23.43900 -0.27000 35.59500
H  22.36600 -0.42300 34.22200
H  22.02000 0.78700 35.45700
H  24.85700 3.21200 35.19400
H  26.33400 3.13800 34.32900
H  27.55000 2.59100 36.00900
H  26.60400 1.38300 36.64800
H  19.61700 1.15700 31.48600
H  18.63900 1.13500 30.06600
H  19.09600 2.72900 30.65900
H  18.36400 3.13700 28.45000
H  17.96600 1.46900 27.86100
H  18.15300 2.90200 26.77400
H  24.63200 2.14400 24.90700
H  26.87700 0.19700 24.99800
H  24.96900 -0.83500 24.15300
H  23.82800 0.33600 23.57000
H  23.51300 -0.47200 25.12700
H  26.79500 2.30400 23.85800
H  28.32700 2.06600 24.78000
H  26.53400 3.62100 26.37200
H  26.43800 4.22900 24.68400
H  27.93000 4.35500 25.65700
H  30.62900 0.85200 28.19500
H  30.61500 -0.72700 28.83800
H  31.52800 0.47400 29.76500
H  28.45200 1.98100 34.00900
H  28.03400 -1.14400 37.05700
H  29.64900 -0.68200 37.40200
H  29.49800 -1.70700 36.08500
Mg 4.49100 53.55300 42.35500
C  4.29500 50.04100 41.93200
C  7.20400 53.37200 40.01600
C  4.76200 56.81900 42.45300
C  1.58100 53.48100 44.25100
N  5.45200 51.91600 40.94000
C  5.22300 50.54000 41.01100
C  6.06600 49.80200 39.96700
C  7.19200 50.91500 39.63000
C  6.56800 52.14600 40.17200
C  8.53200 50.56400 40.37100
C  5.28900 49.37700 38.67800
C  5.23400 47.84900 38.23400
H  5.81200 47.50800 36.83400
N  5.89400 54.92100 41.44800
C  6.91300 54.64700 40.61900
C  7.69900 55.84700 40.50900
C  7.09400 56.86500 41.21700
C  5.85700 56.25600 41.74900
C  8.92200 55.85000 39.74500
C  7.40500 58.36200 41.16900
O  8.44000 58.74900 40.59100
C  6.61300 59.52700 41.87200
N  3.33200 54.87700 43.15200
C  3.63800 56.20300 43.05000
C  2.61100 57.13000 43.74900
C  1.67100 56.12400 44.44000
C  2.22800 54.68500 43.96400
C  3.38000 57.95600 44.74800
C  0.13800 56.39500 43.94900
C  -0.97400 56.33800 44.97600
N  3.14700 52.03100 42.97300
C  2.05500 52.21900 43.78000
C  1.67900 50.87100 44.17400
C  2.51100 49.98900 43.45900
C  3.37700 50.74900 42.71600
C  0.65800 50.45600 45.30600
C  2.86200 48.61200 43.39000
O  2.44500 47.61900 44.00000
C  4.09700 48.60700 42.33500
C  3.57700 47.71900 41.28800
O  2.78200 48.07900 40.42000
O  3.95900 46.41500 41.51600
C  3.55200 45.32300 40.61700
H  8.03900 53.16200 39.34500
H  4.83100 57.90000 42.58900
H  0.75800 53.49200 44.96900
H  6.49100 48.94700 40.49200
H  7.46200 51.04700 38.58300
H  9.33200 50.58100 39.63100
H  8.51900 49.62000 40.91500
H  8.80300 51.36300 41.06100
H  5.63000 49.91400 37.79300
H  4.27200 49.68200 38.92500
H  4.25000 47.38500 38.30800
H  5.97000 47.47600 38.94600
H  9.09800 56.77400 39.19500
H  9.06100 55.08100 38.98400
H  9.70500 55.89900 40.50200
H  5.70400 59.65200 41.28400
H  7.19800 60.43300 41.71200
H  6.45800 59.42200 42.94600
H  2.15500 57.76700 42.99000
H  1.82200 56.17000 45.51900
H  3.31500 59.02400 44.54100
H  4.39500 57.57700 44.86500
H  2.91500 57.82600 45.72500
H  -0.17100 55.68000 43.18700
H  0.09300 57.31700 43.36900
H  -1.67100 55.55800 44.67100
H  -1.61900 57.20800 45.10300
H  -0.55000 56.05100 45.93900
H  -0.36300 50.48100 44.92400
H  0.67500 50.87400 46.31200
H  0.99300 49.43800 45.50500
H  4.95300 48.18700 42.86300
H  4.34200 44.57300 40.65400
H  3.35100 45.63800 39.59300
H  2.69000 44.88800 41.12300

