158

Mg 40.56700 9.37500 29.40100
C  42.53800 10.78600 31.90700
C  38.64700 7.99700 31.99000
C  38.78600 7.53300 27.08600
C  42.75500 10.40800 27.02100
N  40.62300 9.44600 31.65500
C  41.50100 10.18400 32.42700
C  40.97900 10.23600 33.95900
C  39.65200 9.37400 33.85600
C  39.60000 8.94300 32.40700
C  39.63700 8.18100 34.87500
C  40.59500 11.57900 34.64700
C  39.75400 11.59700 35.99200
H  40.19900 12.60300 37.11500
N  38.90000 7.92800 29.57300
C  38.25100 7.48400 30.70300
C  37.13500 6.56100 30.36200
C  37.22400 6.39200 28.95400
C  38.34300 7.30800 28.48100
C  36.09100 6.00800 31.35500
C  36.38100 5.48100 28.06900
O  36.33500 5.60000 26.85900
C  35.55500 4.40000 28.65800
N  40.78400 8.96900 27.33400
C  39.85400 8.27900 26.59300
C  40.18200 8.36900 25.08100
C  41.42700 9.39200 25.09300
C  41.68300 9.61200 26.57000
C  40.33900 7.05200 24.33100
C  41.21200 10.72800 24.31400
C  40.34400 11.80300 25.03300
N  42.28000 10.33600 29.42800
C  43.13300 10.63700 28.33700
C  44.32300 11.35100 28.92500
C  44.09000 11.37000 30.33400
C  42.83500 10.84300 30.56500
C  45.52300 11.79000 28.06400
C  44.69000 11.81100 31.62600
O  45.73800 12.29800 31.87500
C  43.55200 11.55700 32.67300
C  44.17700 10.77700 33.74800
O  44.64000 9.61300 33.59400
O  44.22700 11.48200 34.94400
C  44.68800 10.67100 36.04200
H  37.87600 7.75400 32.72500
H  38.21900 7.05000 26.28800
H  43.42600 10.65600 26.19500
H  41.66300 9.78300 34.67600
H  38.76400 9.98900 34.00500
H  40.64200 7.78400 35.01700
H  39.03500 7.32300 34.57600
H  39.16300 8.44800 35.82000
H  39.92400 12.05800 33.93400
H  41.47100 12.18000 34.89000
H  39.58100 10.60600 36.41200
H  38.77400 12.02800 35.78800
H  36.10200 4.91800 31.37900
H  35.04200 6.21500 31.14800
H  36.39600 6.36900 32.33700
H  35.02500 3.83500 27.89100
H  34.90700 4.98000 29.31500
H  36.28300 3.82100 29.22500
H  39.23200 8.84200 24.83000
H  42.30400 8.86800 24.71400
H  41.34900 6.64100 24.34200
H  40.11200 7.29900 23.29400
H  39.65300 6.24800 24.59900
H  40.67300 10.38900 23.42900
H  42.12500 11.24200 24.01300
H  39.33000 11.79200 24.63300
H  40.61400 12.82900 24.78300
H  40.29100 11.70000 26.11700
H  46.24900 10.97700 28.04900
H  45.95200 12.59100 28.66600
H  45.20500 12.11200 27.07200
H  43.25900 12.50200 33.12900
H  45.76200 10.79100 36.18500
H  44.30400 9.65600 35.94200
H  44.22000 11.20200 36.87100
Mg 54.52200 24.12700 44.69800
C  51.93000 26.26000 43.93200
C  52.90600 21.69400 42.81400
C  57.19500 22.08200 44.83300
C  56.32200 26.66700 46.04800
N  52.63600 24.03300 43.43500
C  51.69300 25.04400 43.41600
C  50.56000 24.61700 42.38900
C  50.72500 23.00100 42.43400
C  52.12700 22.84400 43.01600
C  49.56500 22.25400 43.24900
C  50.83600 25.20300 40.96500
C  50.81900 24.42500 39.66000
H  50.52200 25.17000 38.36200
N  54.94600 22.11100 44.03200
C  54.12400 21.34900 43.28400
C  54.60800 20.03000 43.21400
C  55.96000 20.06700 43.69400
C  56.12900 21.43200 44.22200
C  53.96200 18.86600 42.50900
C  56.96200 18.89500 43.61700
O  56.71300 17.82500 43.08700
C  58.29200 19.06700 44.20200
N  56.55100 24.40100 45.18000
C  57.39300 23.34800 45.34300
C  58.74400 23.80100 45.86100
C  58.43200 25.40600 46.20000
C  56.98700 25.47600 45.76100
C  59.24700 22.97200 47.04700
C  59.40500 26.45600 45.46800
C  60.20700 27.46700 46.25900
N  54.16200 26.07000 45.16600
C  54.93400 26.98300 45.76600
C  54.20500 28.22800 45.94300
C  52.97200 27.98900 45.27800
C  53.03000 26.66300 44.75400
C  54.63300 29.56400 46.46900
C  51.66400 28.46800 44.89800
O  51.26000 29.55000 45.04500
C  50.91500 27.41100 44.05700
C  50.54300 27.97700 42.81300
O  51.37200 28.34300 41.94200
O  49.21700 28.03100 42.72000
C  48.74400 28.44000 41.43400
H  52.35900 20.99600 42.17600
H  58.04000 21.40900 44.99100
H  56.88100 27.44800 46.56800
H  49.59900 24.98900 42.74400
H  50.65600 22.57500 41.43300
H  49.96600 21.79400 44.15200
H  49.14600 21.50800 42.57300
H  48.81600 22.94900 43.62900
H  51.79900 25.71300 40.98400
H  49.98000 25.86700 40.83900
H  50.04800 23.65400 39.68200
H  51.76800 23.91700 39.48900
H  54.31300 18.86600 41.47700
H  52.88600 19.04000 42.49300
H  54.19600 17.89800 42.95300
H  58.18500 19.38600 45.23900
H  58.87400 19.76900 43.60500
H  58.74900 18.08600 44.07300
H  59.36100 23.69300 44.97000
H  58.48900 25.62400 47.26700
H  58.53100 22.18400 47.28100
H  59.54700 23.63600 47.85800
H  60.15400 22.45600 46.73400
H  58.85200 27.00100 44.70300
H  60.18700 25.92500 44.92500
H  61.21700 27.23300 45.92200
H  60.08600 27.48500 47.34200
H  59.82100 28.43000 45.92700
H  54.96300 30.19800 45.64600
H  55.51600 29.32300 47.06100
H  53.85700 29.92600 47.14400
H  50.02900 27.17600 44.64600
H  49.24200 28.05200 40.54600
H  48.85500 29.52400 41.44500
H  47.73500 28.02800 41.42700

