158

Mg 41.61200 8.47600 29.79900
C  43.54600 9.47600 32.50400
C  39.24500 7.34800 32.12800
C  39.90300 7.17500 27.25000
C  44.26700 9.18200 27.66600
N  41.55000 8.29500 32.04300
C  42.36600 8.90600 32.95000
C  41.86000 8.86500 34.38800
C  40.51500 8.01100 34.22100
C  40.40200 7.84100 32.69900
C  40.61500 6.65500 34.99100
C  41.57000 10.34100 34.87600
C  40.67700 10.49700 36.10700
H  41.19000 11.30200 37.27400
N  39.82000 7.41100 29.69700
C  38.95300 7.09300 30.76600
C  37.77100 6.48500 30.21000
C  37.84200 6.61300 28.74000
C  39.23900 7.05700 28.51300
C  36.55200 5.85100 31.07200
C  36.71200 6.42400 27.73000
O  36.98900 6.41100 26.46400
C  35.31500 6.27500 28.23100
N  42.06500 8.04400 27.75300
C  41.12900 7.57200 26.92300
C  41.51800 7.64400 25.48400
C  42.95600 8.35000 25.55100
C  43.11600 8.60800 27.07100
C  41.59900 6.20500 24.78900
C  42.98700 9.65700 24.73400
C  42.19400 10.92500 25.16000
N  43.53500 9.16800 29.99000
C  44.45500 9.50400 29.03000
C  45.63500 10.01300 29.65300
C  45.30000 10.11000 30.99800
C  44.02500 9.54600 31.12900
C  46.88700 10.34800 29.04200
C  45.78500 10.49500 32.30900
O  46.85900 11.00600 32.62300
C  44.59400 10.21400 33.31200
C  45.15200 9.41100 34.40700
O  45.79500 8.35300 34.26300
O  45.06100 10.05400 35.61200
C  45.67800 9.42000 36.75400
H  38.47900 7.14300 32.87800
H  39.34600 7.01800 26.32400
H  45.13500 9.44800 27.05900
H  42.58500 8.35300 35.02100
H  39.68700 8.61600 34.59200
H  40.72000 5.80100 34.32100
H  39.78700 6.51900 35.68600
H  41.46800 6.54600 35.66100
H  41.37900 10.92500 33.97500
H  42.48800 10.67700 35.35600
H  40.47700 9.49100 36.47400
H  39.76000 11.00200 35.80400
H  36.78900 5.94000 32.13200
H  36.30400 4.82000 30.81900
H  35.65500 6.42500 30.84100
H  34.67800 6.13900 27.35700
H  34.91700 7.06600 28.86700
H  35.41400 5.35200 28.80200
H  40.88500 8.31900 24.90800
H  43.76800 7.72300 25.18300
H  41.47100 5.33900 25.43900
H  42.47300 6.05400 24.15600
H  40.81100 6.21900 24.03600
H  42.55000 9.53200 23.74300
H  44.01400 9.89100 24.45400
H  41.40400 11.17700 24.45300
H  42.88200 11.76900 25.14900
H  41.74100 10.80500 26.14500
H  46.75800 10.97200 28.15800
H  47.44000 9.48800 28.66300
H  47.44500 10.88800 29.80700
H  44.25400 11.16100 33.73000
H  46.41900 10.09900 37.17700
H  46.31700 8.56900 36.51900
H  44.91400 9.12200 37.47100
Mg 5.81200 53.86000 38.80700
C  5.05600 50.42900 39.02200
C  9.07100 53.10000 38.00100
C  6.28300 57.12200 38.18200
C  2.38400 54.57500 39.59900
N  6.87200 52.01100 38.28900
C  6.34600 50.73600 38.53500
C  7.44800 49.67300 38.32500
C  8.72700 50.49600 38.35800
C  8.22100 51.96000 38.20000
C  9.54800 50.19900 39.71100
C  7.39700 48.93000 36.94800
C  7.00400 49.75700 35.73500
H  5.74100 49.50100 34.94900
N  7.44300 54.97900 38.16600
C  8.72400 54.45300 38.05300
C  9.60300 55.56100 37.84200
C  8.88100 56.80000 37.90500
C  7.47900 56.32300 38.10900
C  11.13100 55.43500 37.60600
C  9.40400 58.23500 37.61200
O  10.61300 58.46300 37.43100
C  8.49300 59.36800 37.47200
N  4.47300 55.56200 38.71000
C  4.90700 56.80800 38.41100
C  3.80500 57.86800 38.68500
C  2.57700 56.97300 39.00600
C  3.18200 55.61500 39.16400
C  4.04100 58.87300 39.73400
C  1.45000 56.98200 37.82000
C  -0.02000 57.01500 38.30400
N  4.06900 52.77900 39.35100
C  2.76700 53.23900 39.65100
C  2.03200 52.09500 40.07500
C  2.80500 50.92700 39.91300
C  4.06900 51.42800 39.37200
C  0.59800 52.12900 40.55500
C  2.97400 49.46100 39.98300
O  2.12100 48.63600 40.35700
C  4.38100 49.14500 39.32300
C  4.06200 48.23600 38.18000
O  3.80100 48.62900 37.02500
O  4.13300 46.93600 38.58000
C  4.24400 45.91400 37.52400
H  10.13200 52.85700 38.09100
H  6.48400 58.19000 38.07600
H  1.33400 54.79500 39.80200
H  7.46500 48.95600 39.14500
H  9.41300 50.25800 37.54500
H  10.46800 49.67500 39.45200
H  9.05900 49.51800 40.40800
H  9.70200 51.07700 40.33800
H  6.81500 48.01000 36.99700
H  8.39100 48.49900 36.82600
H  7.75100 49.61400 34.95400
H  7.01100 50.81200 36.00700
H  11.34300 55.45200 36.53700
H  11.46200 54.47900 38.01200
H  11.64500 56.18700 38.20500
H  7.70200 59.07600 36.78200
H  8.96500 60.28500 37.11900
H  8.03800 59.56900 38.44100
H  3.75900 58.33000 37.69900
H  2.00900 57.18700 39.91100
H  4.95700 58.58400 40.25000
H  3.22900 59.09700 40.42600
H  4.32400 59.75700 39.16300
H  1.71300 56.08400 37.26000
H  1.53300 57.84700 37.16300
H  -0.73800 56.32700 37.85900
H  -0.42400 57.94600 37.90500
H  -0.12600 57.00100 39.38800
H  0.51100 51.60100 41.50400
H  0.00000 51.68700 39.75800
H  0.23200 53.14900 40.66800
H  4.92100 48.50200 40.01900
H  3.26100 45.78500 37.07300
H  4.63700 45.06300 38.08000
H  4.99000 46.30400 36.83000

