158

Mg 54.66500 24.66100 44.46500
C  51.89300 26.59600 44.00100
C  52.69500 21.73800 43.91800
C  57.42100 22.67600 44.21100
C  56.64500 27.44000 44.38900
N  52.47800 24.21600 43.92800
C  51.58500 25.18500 43.89300
C  50.21300 24.47100 43.79600
C  50.43600 22.96800 44.28900
C  51.93400 22.92700 43.99100
C  50.09400 22.71900 45.76100
C  49.32300 24.57400 42.58200
C  49.94000 24.01000 41.33300
H  49.45800 24.59500 39.98800
N  55.00100 22.59900 44.05100
C  54.03600 21.55700 43.85700
C  54.70000 20.30900 43.84600
C  56.04700 20.45700 44.05600
C  56.22200 21.94500 44.15000
C  53.78700 19.02900 43.65100
C  57.11300 19.42200 44.01000
O  56.76900 18.29500 43.59600
C  58.60700 19.60900 44.37000
N  56.77200 25.00000 44.39500
C  57.72600 24.04300 44.33100
C  59.11800 24.62100 44.21000
C  58.80300 26.17200 44.18800
C  57.30900 26.27400 44.42300
C  60.10700 24.19100 45.38200
C  59.34600 26.92700 42.93500
C  58.45500 26.75400 41.64800
N  54.40800 26.67600 44.29700
C  55.29500 27.75700 44.29000
C  54.53500 28.98500 44.32700
C  53.18300 28.58600 44.12200
C  53.21800 27.15800 44.11900
C  55.05600 30.33600 44.61400
C  51.88000 29.10900 44.02300
O  51.54300 30.24000 43.99900
C  50.99800 27.84600 43.86200
C  50.42300 28.02400 42.53500
O  51.02400 27.87600 41.48100
O  49.04100 28.16400 42.55600
C  48.27600 28.15500 41.28000
H  52.03700 20.86600 43.92300
H  58.28700 22.01600 44.12900
H  57.27800 28.31500 44.22600
H  49.67000 24.99600 44.58300
H  49.95500 22.25400 43.62000
H  50.96600 22.25600 46.22300
H  49.24300 22.03800 45.75800
H  49.78600 23.61000 46.30700
H  48.94700 25.57600 42.37400
H  48.42500 23.99000 42.77800
H  49.84400 22.92800 41.24400
H  51.00600 24.23900 41.34400
H  54.23700 18.06300 43.42200
H  52.97900 19.28600 42.96700
H  53.36700 18.99000 44.65600
H  59.19000 20.21100 43.67400
H  59.02200 18.60200 44.41200
H  58.70600 20.03600 45.36800
H  59.48100 24.41500 43.20300
H  59.22200 26.73300 45.02300
H  60.89300 23.54800 44.98500
H  59.57500 23.44200 45.96800
H  60.55100 25.06600 45.85700
H  60.37000 26.59700 42.76000
H  59.40300 28.00500 43.08200
H  57.98200 27.71000 41.42200
H  57.67800 25.99000 41.67000
H  59.14900 26.46400 40.85900
H  54.85100 30.94500 43.73300
H  56.13500 30.26900 44.75800
H  54.53900 30.74800 45.48000
H  50.20500 27.84900 44.61000
H  48.10300 29.15700 40.88800
H  47.34600 27.65200 41.54600
H  48.78100 27.57100 40.51000
Mg 30.53100 57.09000 39.99700
C  27.83000 55.04100 38.92500
C  32.59800 54.41200 39.25300
C  33.24800 59.17100 40.37300
C  28.43000 59.64700 40.28400
N  30.22200 55.07800 39.07500
C  29.06800 54.45300 38.67700
C  29.33700 53.07100 38.07200
C  30.65300 52.83200 38.80200
C  31.21800 54.19600 39.01900
C  30.43100 52.00100 40.14500
C  29.50300 53.14200 36.50200
C  28.22700 53.15500 35.60300
H  27.95500 54.50200 34.92300
N  32.61700 56.75400 39.99600
C  33.26000 55.63000 39.57900
C  34.68300 55.97500 39.50300
C  34.88300 57.32700 39.93600
C  33.52800 57.81200 40.13700
C  35.69200 54.98800 38.86700
C  36.26200 57.92300 40.19300
O  37.25400 57.21500 39.89900
C  36.56000 59.27500 40.89600
N  30.87800 59.11000 40.34800
C  32.06400 59.79900 40.59200
C  31.83900 61.33100 40.57700
C  30.23800 61.49400 40.57300
C  29.78800 59.98300 40.38000
C  32.64400 62.07100 41.77200
C  29.76600 62.56000 39.59600
C  28.66400 63.52900 40.13100
N  28.54200 57.30000 39.82800
C  27.83600 58.42400 40.03000
C  26.38700 58.15600 39.89600
C  26.40500 56.84900 39.48300
C  27.72400 56.35300 39.41700
C  25.28900 59.11100 39.95200
C  25.50300 55.81400 39.07200
O  24.28200 55.84300 38.98800
C  26.41500 54.60700 38.64100
C  26.02600 53.41900 39.36200
O  26.46800 52.92000 40.40100
O  24.96600 52.85200 38.65000
C  24.13800 51.86200 39.40800
H  33.20200 53.51000 39.13500
H  34.08600 59.87100 40.35300
H  27.76500 60.49800 40.12400
H  28.62400 52.36900 38.50400
H  31.31400 52.32400 38.09900
H  30.89000 52.54500 40.97000
H  30.93800 51.05100 39.97100
H  29.40600 51.76000 40.42700
H  30.26900 52.52900 36.02600
H  29.94800 54.13300 36.41500
H  27.33800 52.79400 36.11800
H  28.38500 52.31200 34.93000
H  36.10600 55.56700 38.04200
H  35.23500 54.15000 38.34100
H  36.46600 54.66900 39.56500
H  37.51400 59.04900 41.37200
H  35.87500 59.71800 41.61800
H  36.65900 60.09300 40.18200
H  32.32800 61.70100 39.67500
H  29.97000 61.73800 41.60100
H  33.41400 61.43300 42.20600
H  31.94700 62.48900 42.50000
H  33.18800 62.86900 41.26700
H  29.38200 62.11700 38.67700
H  30.59500 63.15500 39.21200
H  27.63600 63.18300 40.24200
H  28.58300 64.40500 39.48800
H  28.95400 64.00900 41.06600
H  25.59300 60.04800 39.48500
H  25.27300 59.40100 41.00200
H  24.37200 58.74900 39.48700
H  26.34100 54.40800 37.57200
H  23.59700 52.25400 40.26900
H  24.77100 51.09100 39.84700
H  23.40900 51.38400 38.75300

