158

Mg 2.07100 -1.87200 43.51900
C  5.46200 -0.79600 43.21800
C  0.97100 1.03400 42.13200
C  -1.14500 -3.04900 43.65900
C  3.17500 -4.92400 44.82800
N  3.11700 -0.16300 42.78600
C  4.49400 0.12900 42.86600
C  4.75000 1.54300 42.38500
C  3.29500 2.12000 42.10500
C  2.34800 0.96100 42.45900
C  2.90300 3.47100 42.83100
C  5.75600 1.60500 41.13500
C  6.40500 3.01600 41.08100
H  6.19700 3.77400 39.76600
N  0.15600 -1.03100 43.10300
C  -0.05100 0.15500 42.45800
C  -1.49600 0.38400 42.40800
C  -2.10600 -0.78400 42.94300
C  -1.00100 -1.72600 43.25000
C  -2.15900 1.69200 41.94500
C  -3.67400 -1.01700 43.09100
O  -4.45400 -0.13200 42.71300
C  -4.29300 -2.20500 43.71200
N  1.13500 -3.80700 43.95800
C  -0.15300 -4.04500 43.97500
C  -0.57500 -5.44400 44.48300
C  0.79600 -5.95200 44.92400
C  1.79800 -4.82200 44.54500
C  -1.70000 -5.41400 45.61500
C  1.20600 -7.31300 44.27900
C  1.57300 -8.44500 45.26200
N  3.92000 -2.79600 43.90200
C  4.18600 -3.93700 44.57300
C  5.61300 -4.09600 44.79800
C  6.19400 -2.88700 44.20900
C  5.13200 -2.13300 43.67500
C  6.27800 -5.30300 45.40800
C  7.43700 -2.23400 43.82300
O  8.60900 -2.61100 43.84300
C  6.99600 -0.80800 43.29600
C  7.54200 0.25800 44.14200
O  7.47700 0.21500 45.35600
O  7.98600 1.36900 43.48800
C  8.39200 2.50900 44.28600
H  0.62700 1.90500 41.57000
H  -2.16600 -3.43600 43.69900
H  3.57900 -5.75100 45.41600
H  5.14700 2.09600 43.23600
H  3.17900 2.32800 41.04100
H  2.23500 4.11300 42.25800
H  3.79800 4.01000 43.14300
H  2.30700 3.23100 43.71100
H  5.22800 1.52700 40.18400
H  6.53100 0.83800 41.13300
H  7.46900 2.90200 41.28900
H  5.93500 3.65100 41.83300
H  -2.60400 1.50200 40.96800
H  -1.40600 2.48000 41.95400
H  -2.86800 1.88500 42.75100
H  -5.26900 -1.86000 44.05200
H  -3.82300 -2.66900 44.57900
H  -4.57000 -2.95300 42.96800
H  -1.04200 -5.88700 43.60400
H  0.85800 -6.01100 46.01100
H  -1.29900 -5.45900 46.62700
H  -2.18700 -6.38800 45.65200
H  -2.34200 -4.54100 45.49700
H  2.16200 -7.15200 43.78100
H  0.34700 -7.53600 43.64500
H  2.51000 -8.93100 44.99100
H  0.85300 -9.26300 45.26700
H  1.53600 -8.06700 46.28400
H  7.25300 -4.99500 45.78600
H  6.36000 -6.12500 44.69800
H  5.61900 -5.58600 46.22900
H  7.51000 -0.68900 42.34200
H  8.88000 3.29600 43.71100
H  9.06200 2.27400 45.11400
H  7.47500 3.00100 44.61300
Mg 26.08000 1.47600 28.99900
C  27.71000 0.85800 31.94300
C  23.08300 1.55400 30.90600
C  24.38900 2.05500 26.18500
C  28.95600 1.07300 27.21100
N  25.48100 1.20500 31.23300
C  26.37900 1.03900 32.27600
C  25.67800 1.16200 33.59800
C  24.13800 0.96100 33.17300
C  24.22200 1.16600 31.67400
C  23.43600 -0.37200 33.57000
C  26.02000 2.46300 34.37200
C  26.45700 2.28000 35.85200
H  26.15000 3.31100 36.97400
N  23.99100 1.83600 28.54700
C  23.00000 1.80500 29.46900
C  21.74100 2.08300 28.81600
C  22.03200 2.34800 27.45700
C  23.53300 2.06200 27.29900
C  20.46200 2.24500 29.59600
C  21.10100 2.75300 26.25300
O  21.53300 2.92900 25.13800
C  19.60100 2.93900 26.56100
N  26.63900 1.51000 26.97100
C  25.76000 1.78400 25.96400
C  26.47100 1.79100 24.65600
C  28.02000 1.57500 25.00400
C  27.91000 1.45800 26.48500
C  25.89100 0.71900 23.60600
C  28.92700 2.76900 24.49000
C  29.92600 2.48300 23.41000
N  27.91500 0.81300 29.37400
C  28.95700 0.73600 28.57400
C  30.14100 0.33700 29.37900
C  29.66900 0.44500 30.65400
C  28.32400 0.77900 30.63700
C  31.47900 -0.01600 28.94000
C  30.13500 0.42500 32.03600
O  31.21400 0.24200 32.58400
C  28.84000 0.65900 32.92400
C  28.68500 -0.46300 33.81400
O  28.23900 -1.54200 33.40200
O  29.08800 -0.20900 35.11200
C  28.86900 -1.25800 36.15500
H  22.13300 1.56800 31.44400
H  23.89700 2.27900 25.23700
H  29.91000 0.91900 26.70300
H  25.89800 0.27000 34.18500
H  23.62600 1.77300 33.69100
H  22.39400 -0.11400 33.75800
H  23.81900 -0.78500 34.50300
H  23.46400 -0.97400 32.66200
H  25.11800 3.07400 34.34300
H  26.81200 3.01400 33.86600
H  27.53500 2.19700 35.71400
H  26.09200 1.32200 36.22200
H  19.85300 1.34900 29.47300
H  19.74100 3.01700 29.32600
H  20.52400 2.58000 30.63100
H  18.99100 3.15200 25.68300
H  19.54100 3.69400 27.34500
H  19.20800 2.05200 27.05700
H  26.40800 2.73800 24.12000
H  28.37400 0.64700 24.55600
H  24.98600 0.23600 23.97400
H  26.59100 -0.07500 23.34600
H  25.75400 1.28900 22.68700
H  29.43300 3.25000 25.32700
H  28.32300 3.57300 24.06900
H  29.79900 1.43300 23.14900
H  30.95400 2.65300 23.72700
H  29.71400 3.09600 22.53300
H  31.88200 0.86100 28.43300
H  31.26900 -0.82800 28.24400
H  32.07200 -0.30900 29.80600
H  29.13900 1.50100 33.54800
H  28.07600 -0.82700 36.76700
H  29.76200 -1.25400 36.78000
H  28.71500 -2.26700 35.77400

