158

Mg 25.76200 0.04500 28.99100
C  27.65600 -0.51200 32.00600
C  23.15800 0.89500 31.03200
C  23.92400 0.24300 26.33700
C  28.53800 -0.90000 27.15400
N  25.43600 0.05000 31.31400
C  26.37600 -0.09800 32.23300
C  25.83800 0.20800 33.58100
C  24.30700 0.41600 33.32400
C  24.27600 0.49200 31.80000
C  23.30900 -0.70200 33.89000
C  26.53900 1.49200 34.28700
C  27.01500 1.26700 35.71400
H  26.70100 2.39600 36.70100
N  23.78400 0.51800 28.76700
C  22.85600 0.83000 29.68300
C  21.55000 1.04600 29.04200
C  21.78100 0.78400 27.65900
C  23.26800 0.54100 27.53100
C  20.30600 1.35600 29.86300
C  20.75400 0.89300 26.49600
O  21.06900 0.78900 25.28000
C  19.30500 0.97300 26.90100
N  26.17400 -0.45300 27.03400
C  25.26600 -0.10600 26.07200
C  25.82400 -0.25100 24.63100
C  27.32200 -0.50800 24.86200
C  27.34600 -0.66100 26.44300
C  25.09000 -1.32300 23.81100
C  28.34200 0.48900 24.31300
C  28.64400 1.66700 25.25200
N  27.69300 -0.56700 29.41500
C  28.70900 -0.97500 28.55800
C  29.89400 -1.26100 29.34700
C  29.48000 -1.11200 30.67300
C  28.15100 -0.68700 30.71900
C  31.21600 -1.67400 28.83300
C  30.01400 -1.19500 32.03300
O  31.11000 -1.57300 32.47200
C  28.83700 -0.67600 32.95000
C  28.58900 -1.80400 33.84300
O  28.01400 -2.82900 33.62500
O  29.20600 -1.47100 35.04300
C  28.98700 -2.44400 36.19100
H  22.36700 1.40200 31.58700
H  23.38500 0.49200 25.42000
H  29.48500 -1.09000 26.64400
H  25.99000 -0.57900 34.31900
H  23.92500 1.33600 33.76600
H  22.77300 -1.16400 33.06100
H  22.65200 -0.18300 34.58800
H  23.82600 -1.46100 34.47700
H  25.84100 2.32600 34.21400
H  27.38500 1.70800 33.63400
H  28.09700 1.13600 35.71800
H  26.61900 0.28700 35.97800
H  19.63100 0.50600 29.76100
H  19.75300 2.22200 29.49800
H  20.43000 1.57700 30.92300
H  18.96900 1.91100 27.34300
H  19.16000 0.10700 27.54800
H  18.69700 0.70000 26.03900
H  25.88500 0.68100 24.06800
H  27.64600 -1.42200 24.36500
H  25.81700 -1.96500 23.31300
H  24.52600 -0.82500 23.02200
H  24.44600 -1.89400 24.48000
H  27.91600 0.81300 23.36400
H  29.24000 -0.02400 23.96800
H  27.96100 1.65900 26.10100
H  28.46900 2.60800 24.73100
H  29.66800 1.63700 25.62500
H  31.55200 -0.87800 28.17000
H  31.09100 -2.55400 28.20300
H  31.91800 -1.91500 29.63200
H  29.10400 0.23600 33.48500
H  28.18200 -2.19700 36.88300
H  29.90800 -2.30800 36.75800
H  28.82500 -3.46400 35.84200
Mg 54.40500 24.30000 45.99400
C  51.54200 26.26100 45.10800
C  52.67500 21.53200 45.08900
C  57.26300 22.71700 45.85400
C  56.10600 27.38300 46.60900
N  52.45100 23.96100 44.87000
C  51.43900 24.87300 44.72100
C  50.18300 24.20500 44.28100
C  50.43600 22.68800 44.65100
C  51.94000 22.71500 44.93200
C  49.60100 22.46900 45.94800
C  49.91200 24.46200 42.77900
C  48.40000 24.90700 42.48000
H  47.53100 23.90300 41.81600
N  54.95100 22.32300 45.56800
C  54.06900 21.33000 45.24600
C  54.78600 20.10700 45.07800
C  56.12400 20.44600 45.16700
C  56.18600 21.86700 45.52700
C  54.22200 18.74100 44.57900
C  57.32100 19.49900 45.08700
O  57.07600 18.32300 44.89600
C  58.77500 19.85600 45.24000
N  56.38400 24.94200 46.27500
C  57.43400 24.06400 46.22700
C  58.78300 24.68400 46.52800
C  58.45700 26.22000 46.69900
C  56.86700 26.19500 46.50300
C  59.49500 24.03200 47.76100
C  59.12900 27.24200 45.65000
C  59.53300 28.58600 46.30500
N  53.96000 26.39700 46.06600
C  54.73700 27.44200 46.37200
C  53.82800 28.64200 46.36600
C  52.62400 28.18800 45.98100
C  52.76900 26.80800 45.74900
C  54.14300 30.12000 46.54600
C  51.27300 28.60700 45.55300
O  50.77600 29.69100 45.54000
C  50.52000 27.38400 44.96000
C  50.16900 27.73200 43.60000
O  50.98600 28.00700 42.74400
O  48.80100 27.91700 43.55200
C  48.32400 28.56800 42.33400
H  52.11200 20.61900 44.88500
H  58.22900 22.25800 45.63100
H  56.70000 28.28800 46.74900
H  49.45200 24.78600 44.84300
H  50.25900 21.96400 43.85500
H  50.21300 22.14400 46.79000
H  48.84700 21.75900 45.60700
H  49.18200 23.40700 46.31200
H  49.87900 23.53400 42.20900
H  50.61200 25.18200 42.35500
H  48.46500 25.73700 41.77600
H  47.82700 25.23600 43.34600
H  54.12600 17.99400 45.36700
H  54.94300 18.35800 43.85700
H  53.27500 18.78800 44.04100
H  59.05300 20.49400 44.40100
H  59.33100 18.92800 45.10900
H  59.04400 20.24100 46.22300
H  59.53700 24.63500 45.74300
H  58.50000 26.35600 47.78000
H  58.93300 23.09900 47.80200
H  59.42000 24.55000 48.71700
H  60.50500 23.80200 47.42300
H  58.48200 27.41700 44.79100
H  60.00300 26.84500 45.13400
H  60.52000 28.98800 46.07500
H  59.38700 28.66900 47.38200
H  58.86800 29.37200 45.94700
H  53.70100 30.83800 45.85600
H  55.22900 30.21800 46.52400
H  54.04000 30.52400 47.55300
H  49.63100 27.15800 45.54800
H  47.24900 28.74400 42.31300
H  48.46700 28.08700 41.36700
H  48.79500 29.54700 42.25100

