158

Mg 8.48100 2.36800 27.50800
C  10.16300 1.20100 30.19500
C  6.64700 4.44200 29.68400
C  6.84400 3.64700 24.90200
C  10.12600 0.00100 25.48600
N  8.35700 2.69000 29.74000
C  9.24300 2.22200 30.59800
C  8.96500 2.70700 31.97400
C  7.79500 3.78200 31.69000
C  7.50600 3.58100 30.23400
C  6.61700 3.67600 32.67200
C  10.18300 3.36400 32.76300
C  10.46900 2.77100 34.11900
H  10.58800 3.85600 35.24200
N  6.82300 3.83200 27.34300
C  6.40400 4.69500 28.32600
C  5.56500 5.75400 27.73300
C  5.49500 5.44800 26.34000
C  6.39600 4.22900 26.10600
C  4.74100 6.75300 28.54200
C  4.65500 6.16500 25.29400
O  4.56700 5.78500 24.11500
C  3.91700 7.41600 25.60600
N  8.24400 1.74100 25.57100
C  7.60000 2.49200 24.58400
C  7.84400 1.94500 23.18100
C  8.99900 0.94700 23.43200
C  9.15800 0.88700 24.94100
C  6.48300 1.35300 22.48400
C  10.35200 1.38200 22.69800
C  11.11700 0.13000 22.12300
N  9.94100 0.89500 27.75400
C  10.51700 0.03800 26.81000
C  11.47900 -0.78200 27.50500
C  11.35700 -0.41700 28.86100
C  10.36700 0.58000 28.95900
C  12.35200 -1.84300 26.93100
C  11.81600 -0.65900 30.26700
O  12.48200 -1.52500 30.75800
C  11.12100 0.46600 31.15400
C  10.32800 -0.28100 32.15900
O  9.30300 -0.88900 31.85000
O  10.86900 -0.25000 33.39600
C  10.05900 -0.77500 34.49000
H  6.15200 5.07600 30.42200
H  6.60500 4.28400 24.04700
H  10.68500 -0.64600 24.80700
H  8.64400 1.79200 32.47100
H  8.21600 4.78400 31.77900
H  5.78600 3.09500 32.27200
H  6.34200 4.62600 33.13100
H  7.03300 3.18100 33.54900
H  10.10200 4.44500 32.87600
H  11.07200 3.24100 32.14500
H  11.51400 2.46600 34.06900
H  9.70400 2.03000 34.34900
H  5.02400 6.89500 29.58500
H  3.67400 6.52600 28.53300
H  4.93000 7.72900 28.09600
H  3.18700 7.34500 26.41200
H  3.22100 7.62900 24.79600
H  4.57600 8.26300 25.79500
H  8.19600 2.74300 22.52800
H  8.87000 -0.07500 23.07500
H  5.71300 1.23700 23.24700
H  6.65700 0.42500 21.94000
H  6.17700 2.12400 21.77700
H  10.95700 1.82800 23.48600
H  10.16800 2.06300 21.86700
H  11.12500 0.24000 21.03800
H  10.55400 -0.72500 22.49800
H  12.14800 0.16000 22.47400
H  11.58000 -2.59100 26.74900
H  13.13400 -2.06400 27.65800
H  12.75100 -1.51800 25.97000
H  11.80900 1.10600 31.70600
H  10.19800 -1.83800 34.68700
H  9.00900 -0.52600 34.33600
H  10.28200 -0.31700 35.45300
Mg -6.07400 24.97200 24.90700
C  -4.42900 26.22300 27.78700
C  -7.94000 22.81700 26.84600
C  -7.43400 23.55000 22.01600
C  -4.15200 27.09000 23.00000
N  -6.07800 24.46900 27.05400
C  -5.37900 25.14000 28.04100
C  -5.98900 24.81000 29.37500
C  -6.89000 23.53300 29.07400
C  -6.92000 23.52700 27.53300
C  -6.46500 22.13400 29.69100
C  -6.84100 25.96500 29.98600
C  -6.85400 26.03600 31.51100
H  -6.17600 24.91200 32.26400
N  -7.54200 23.41300 24.49700
C  -8.18800 22.68500 25.41700
C  -9.09900 21.74000 24.83300
C  -9.04100 22.01800 23.36800
C  -7.97600 23.01500 23.23300
C  -9.97000 20.80000 25.64300
C  -9.71800 21.23100 22.26600
O  -9.49600 21.35300 21.10100
C  -10.83500 20.20700 22.60600
N  -5.66800 25.12000 22.86300
C  -6.40200 24.52000 21.84600
C  -6.01900 25.02900 20.52800
C  -5.11400 26.25300 20.84600
C  -5.01500 26.18400 22.31700
C  -5.33300 23.97500 19.63500
C  -5.63400 27.67100 20.30400
C  -6.70000 28.29100 21.24200
N  -4.68900 26.39600 25.23000
C  -3.98200 27.15400 24.37200
C  -3.14800 28.11700 25.14900
C  -3.24600 27.74800 26.51700
C  -4.17700 26.72500 26.49100
C  -2.30300 29.21600 24.50700
C  -2.79800 27.98500 27.85800
O  -1.99700 28.76600 28.29700
C  -3.64900 27.07000 28.77000
C  -2.81500 26.28600 29.70500
O  -2.49100 25.13100 29.57000
O  -2.67500 27.04700 30.87100
C  -1.83400 26.59000 32.05000
H  -8.63500 22.23800 27.45700
H  -7.97300 23.29300 21.10100
H  -3.42100 27.69800 22.46200
H  -5.20200 24.46300 30.04400
H  -7.85600 23.71500 29.54700
H  -5.37700 22.17800 29.73600
H  -6.72100 21.30900 29.02600
H  -6.95700 22.02000 30.65700
H  -7.90500 25.76200 29.86200
H  -6.68700 26.95400 29.55500
H  -7.89700 25.99500 31.82700
H  -6.34500 26.98700 31.66500
H  -9.69900 19.78300 25.35800
H  -10.97200 21.08100 25.31800
H  -9.95200 20.91100 26.72700
H  -10.41100 19.33800 23.10800
H  -11.25500 19.99400 21.62300
H  -11.57700 20.73200 23.20800
H  -6.83800 25.38600 19.90400
H  -4.15700 26.03600 20.37400
H  -4.33300 23.73500 19.99500
H  -5.20900 24.31900 18.60900
H  -6.02400 23.13600 19.72000
H  -6.08800 27.58900 19.31600
H  -4.83300 28.40500 20.21600
H  -7.48900 28.78300 20.67400
H  -6.27900 29.05600 21.89600
H  -7.17000 27.55500 21.89400
H  -2.91300 29.76100 23.78700
H  -1.42000 28.71400 24.11200
H  -2.05500 29.87900 25.33600
H  -4.24500 27.75900 29.36900
H  -2.36400 26.34200 32.96900
H  -1.21300 27.44700 32.31000
H  -1.25800 25.71100 31.76200

