158

Mg 7.01100 57.20500 41.73300
C  5.93600 53.75900 41.84600
C  9.89400 56.12200 40.21100
C  7.72100 60.49700 41.16600
C  3.75400 58.03200 42.65500
N  7.77700 55.12200 41.12500
C  7.24600 53.86900 41.21400
C  8.15400 52.78300 40.62500
C  9.55600 53.56900 40.56700
C  9.03600 55.03900 40.62100
C  10.54500 53.30300 41.70000
C  7.54800 52.34200 39.28000
C  7.48900 50.91800 38.88900
H  6.48400 50.44800 37.83700
N  8.69700 58.20400 40.88600
C  9.77300 57.54100 40.33500
C  10.61900 58.55200 39.83000
C  10.02700 59.84300 40.08400
C  8.71700 59.55300 40.72700
C  12.08900 58.21900 39.35400
C  10.71900 61.20800 39.92600
O  11.69500 61.34500 39.19200
C  10.05200 62.43000 40.31500
N  5.91700 58.97600 41.75800
C  6.44700 60.21300 41.70200
C  5.52400 61.34900 42.08000
C  4.23000 60.50100 42.38600
C  4.65600 59.05400 42.23700
C  6.12400 62.31000 43.13600
C  3.04500 60.87300 41.49700
C  2.18800 62.06700 42.10300
N  5.19600 56.13600 42.26900
C  3.99500 56.66500 42.62800
C  3.14200 55.60400 43.09900
C  3.91600 54.44700 42.81000
C  5.14800 54.78000 42.24100
C  1.67400 55.72000 43.73700
C  3.98700 52.99700 43.04800
O  3.24700 52.26500 43.65300
C  5.33300 52.45800 42.25500
C  4.83900 51.51500 41.14900
O  4.21200 51.76000 40.16500
O  5.05200 50.19300 41.57500
C  4.29300 49.11700 40.98000
H  10.86600 55.83000 39.80800
H  7.88600 61.56400 41.00100
H  2.86500 58.28600 43.23500
H  8.26300 51.92800 41.29400
H  10.15600 53.53100 39.65800
H  11.54500 53.04200 41.35600
H  10.08000 52.40300 42.10100
H  10.45800 54.09500 42.44300
H  8.16000 52.78600 38.49500
H  6.61600 52.89700 39.16900
H  7.15700 50.34000 39.75200
H  8.49100 50.66500 38.54300
H  12.01400 58.50400 38.30500
H  12.41000 57.21100 39.61600
H  12.75500 58.80500 39.98800
H  9.19300 62.62000 39.67200
H  10.77900 63.23800 40.24400
H  9.68200 62.25900 41.32600
H  5.41100 61.97400 41.19300
H  4.01000 60.67900 43.43900
H  7.20500 62.17600 43.16900
H  5.81600 62.07900 44.15600
H  5.90500 63.37200 43.02800
H  2.40000 60.00000 41.59100
H  3.32700 61.17700 40.48900
H  1.31300 61.52900 42.46800
H  1.92000 62.95300 41.52700
H  2.65300 62.41800 43.02400
H  1.68700 55.50200 44.80500
H  1.00200 55.02400 43.23500
H  1.36700 56.74600 43.53400
H  5.91300 51.91900 43.00500
H  3.99400 48.51400 41.83800
H  5.04100 48.55800 40.41800
H  3.42900 49.41900 40.38900
Mg -6.30300 24.52500 26.53800
C  -4.55200 26.41700 28.89900
C  -7.07500 22.28600 29.06600
C  -7.88200 22.65700 24.26900
C  -4.98600 26.57200 23.99900
N  -5.95000 24.40000 28.79400
C  -5.37100 25.41000 29.50500
C  -5.54000 25.05800 31.01400
C  -5.96200 23.52800 30.99700
C  -6.41200 23.35600 29.49700
C  -4.80000 22.44700 31.39500
C  -6.64200 26.03400 31.67700
C  -6.36400 26.32900 33.08800
H  -6.94500 25.79400 34.38100
N  -7.30200 22.74600 26.65000
C  -7.52200 21.99900 27.75700
C  -8.25000 20.84000 27.44900
C  -8.61400 20.92600 26.08300
C  -7.98100 22.14800 25.56300
C  -8.68800 19.75100 28.46200
C  -9.52500 19.93700 25.27300
O  -9.73500 20.20100 24.07100
C  -10.27900 18.78300 25.90900
N  -6.52200 24.64800 24.53900
C  -7.23100 23.82000 23.79300
C  -7.48700 24.31200 22.29600
C  -6.42000 25.46700 22.27600
C  -5.86600 25.57900 23.66900
C  -7.39700 23.22500 21.12000
C  -6.88800 26.85300 21.67000
C  -5.96800 27.48100 20.54000
N  -4.98700 26.13400 26.37900
C  -4.61400 26.85600 25.30400
C  -3.86000 27.97800 25.73300
C  -3.77500 27.90500 27.12400
C  -4.51500 26.72100 27.49700
C  -3.33600 28.97300 24.78800
C  -3.23900 28.56500 28.38600
O  -2.60300 29.58100 28.63500
C  -3.73800 27.56500 29.53600
C  -2.53700 27.17600 30.33500
O  -1.67800 26.38600 29.95200
O  -2.63800 27.71200 31.53900
C  -1.67900 27.32900 32.59600
H  -7.32900 21.70400 29.95400
H  -8.37000 22.08700 23.47500
H  -4.71800 27.23800 23.17600
H  -4.61800 25.33200 31.52700
H  -6.88300 23.33100 31.54600
H  -4.71300 21.68600 30.62000
H  -5.06600 21.86100 32.27500
H  -3.82600 22.87200 31.63900
H  -7.57200 25.47300 31.58100
H  -6.79500 26.93100 31.07800
H  -6.38200 27.41800 33.14000
H  -5.30600 26.19500 33.31300
H  -9.57300 19.99700 29.04900
H  -7.85400 19.47300 29.10500
H  -8.96700 18.89300 27.85000
H  -10.71100 19.07000 26.86700
H  -9.59000 17.95900 26.09400
H  -11.17100 18.50400 25.34600
H  -8.40600 24.87500 22.13100
H  -5.62100 25.09200 21.63600
H  -7.59300 22.18200 21.36800
H  -6.44000 23.26700 20.59900
H  -8.21600 23.48300 20.44900
H  -7.00600 27.62400 22.43100
H  -7.85300 26.85600 21.16100
H  -5.66200 28.51100 20.72500
H  -6.55500 27.44000 19.62300
H  -5.10100 26.83900 20.38800
H  -4.13200 29.30900 24.12300
H  -2.56400 28.60000 24.11400
H  -2.88000 29.85900 25.23000
H  -4.44400 28.15100 30.12500
H  -0.69000 27.19200 32.16000
H  -2.06500 26.43100 33.07800
H  -1.54900 28.20600 33.23000

