158

Mg 8.68700 3.48500 27.77700
C  10.18200 2.31700 30.74300
C  6.67800 5.55400 29.83300
C  7.12600 4.26600 25.04300
C  10.67300 1.12300 26.11200
N  8.44800 3.77500 30.05300
C  9.21700 3.22900 31.04900
C  8.76000 3.74700 32.49200
C  7.50800 4.61300 32.20100
C  7.48700 4.63700 30.59500
C  6.11800 4.17000 32.81800
C  9.91200 4.54000 33.28700
C  10.13400 4.10600 34.75200
H  10.74900 5.06000 35.73000
N  7.16000 4.73000 27.49300
C  6.47000 5.55800 28.40100
C  5.52700 6.36200 27.63700
C  5.63400 5.96600 26.26800
C  6.61400 4.94000 26.20400
C  4.61900 7.30200 28.47000
C  4.85200 6.53200 25.06300
O  4.89500 6.17500 23.90000
C  3.78800 7.60600 25.28000
N  8.90400 2.81300 25.81900
C  8.12500 3.32800 24.86300
C  8.40700 2.65100 23.54600
C  9.62900 1.77000 23.86400
C  9.78300 1.90700 25.34300
C  7.27400 1.90200 22.83000
C  11.03800 2.06100 23.14800
C  11.92800 3.21400 23.67600
N  10.21500 2.02200 28.25600
C  10.87400 1.16200 27.46900
C  11.74100 0.31700 28.31300
C  11.61700 0.82400 29.57400
C  10.57700 1.77200 29.51400
C  12.73600 -0.77300 27.74400
C  11.98000 0.67900 30.97300
O  12.81200 -0.04900 31.48200
C  11.09500 1.64500 31.74500
C  10.31100 0.91700 32.77300
O  9.18000 0.46700 32.54600
O  11.03000 0.75500 33.93100
C  10.22400 0.02600 34.87200
H  6.08700 6.28800 30.38500
H  6.70900 4.56300 24.07900
H  11.32600 0.41400 25.59900
H  8.39800 2.88400 33.05100
H  7.63700 5.55600 32.73400
H  6.15600 3.31700 33.49600
H  5.28900 3.93800 32.14900
H  5.67000 4.98300 33.39000
H  9.54900 5.56500 33.20900
H  10.80200 4.51400 32.65900
H  10.77400 3.24700 34.55200
H  9.23800 3.68700 35.21200
H  4.06500 7.96100 27.80200
H  5.18800 8.05100 29.02000
H  3.89200 6.72600 29.04300
H  3.13600 7.37800 26.12300
H  3.21000 7.77600 24.37100
H  4.36300 8.52900 25.35600
H  8.89200 3.41600 22.93900
H  9.41700 0.72800 23.62300
H  6.74000 1.27100 23.54100
H  7.68500 1.17400 22.13100
H  6.56600 2.62700 22.42700
H  10.77900 2.32500 22.12300
H  11.64600 1.15600 23.14900
H  11.47700 3.81800 24.46400
H  12.26800 3.78800 22.81500
H  12.88400 2.86100 24.06300
H  13.34200 -0.31900 26.96000
H  12.09100 -1.54200 27.31800
H  13.39700 -1.21200 28.49000
H  11.76000 2.36300 32.22400
H  10.82700 -0.11600 35.76900
H  9.97600 -0.92800 34.40500
H  9.27800 0.53600 35.05100
Mg -11.87800 16.69600 41.14700
C  -8.73500 15.07300 40.78700
C  -10.31900 19.61900 40.05900
C  -14.76700 17.82600 40.18000
C  -13.24700 13.49200 41.75400
N  -9.74600 17.25000 40.61400
C  -8.66600 16.45400 40.52800
C  -7.39700 17.35000 40.30700
C  -7.85700 18.85100 40.52000
C  -9.44900 18.56300 40.41400
C  -7.45800 19.56700 41.85500
C  -6.97600 17.13900 38.81100
C  -5.51600 16.59800 38.69100
H  -4.64700 17.09100 37.52300
N  -12.42600 18.62700 40.44500
C  -11.70300 19.65600 39.95700
C  -12.49400 20.72100 39.51000
C  -13.79100 20.13200 39.33200
C  -13.69100 18.78300 39.98000
C  -12.10100 22.15100 39.02300
C  -15.00900 20.69900 38.60200
O  -14.98100 21.89300 38.26000
C  -16.33200 19.94600 38.23900
N  -13.81900 15.76500 41.09900
C  -14.83000 16.51700 40.72300
C  -16.09600 15.60500 40.87100
C  -15.63500 14.17000 41.31800
C  -14.14200 14.43700 41.44300
C  -17.15900 16.35800 41.74200
C  -15.96500 12.98200 40.39900
C  -16.51800 11.69500 41.08600
N  -11.19800 14.70400 41.33900
C  -11.85900 13.56300 41.65200
C  -10.97900 12.43200 41.72900
C  -9.73700 13.02300 41.36600
C  -9.90600 14.38800 41.11800
C  -11.29400 11.00700 42.22800
C  -8.29200 12.68800 41.07700
O  -7.68800 11.59800 41.13300
C  -7.62300 14.05700 40.66800
C  -6.72500 14.31300 41.84000
O  -7.00000 14.32500 43.05500
O  -5.48200 14.44900 41.30800
C  -4.49500 15.16500 42.04800
H  -9.90000 20.58000 39.75300
H  -15.73900 18.28100 39.97800
H  -13.63500 12.47200 41.72200
H  -6.64800 17.19100 41.08300
H  -7.51900 19.44700 39.67200
H  -6.91000 18.84000 42.45400
H  -8.33700 19.86400 42.42700
H  -6.80800 20.42400 41.68000
H  -7.04000 18.04300 38.20600
H  -7.53200 16.39700 38.23900
H  -5.57400 15.51300 38.60400
H  -5.06100 16.89800 39.63500
H  -12.45200 22.22000 37.99300
H  -11.01200 22.15600 39.00200
H  -12.41400 22.89400 39.75700
H  -16.88600 20.56200 37.53100
H  -16.96100 19.74500 39.10600
H  -16.13100 19.01100 37.71500
H  -16.63800 15.46200 39.93600
H  -15.94900 13.85800 42.31400
H  -16.79000 17.29400 42.16200
H  -17.54200 15.65000 42.47700
H  -17.99900 16.54100 41.07300
H  -15.03400 12.68600 39.91600
H  -16.72200 13.17400 39.63800
H  -15.71500 10.97100 41.22300
H  -17.14800 11.13500 40.39500
H  -16.93400 11.85100 42.08200
H  -11.99000 10.56000 41.51800
H  -11.76200 11.05300 43.21100
H  -10.38300 10.41000 42.20200
H  -7.11600 14.01200 39.70500
H  -4.23300 16.03800 41.45100
H  -3.62600 14.50700 42.08000
H  -4.90800 15.40000 43.02900

