158

Mg 54.56500 25.26900 44.24000
C  51.80200 27.45800 43.95900
C  52.53400 22.71400 43.28600
C  57.26600 23.29800 43.67300
C  56.57200 27.97700 44.71900
N  52.49400 25.19300 43.56400
C  51.51500 26.08600 43.57600
C  50.15900 25.45600 43.21800
C  50.39000 23.96400 43.36400
C  51.92700 23.97700 43.47200
C  49.68100 23.28700 44.61400
C  49.53000 25.83200 41.84400
C  50.43900 26.60300 40.82200
H  50.64100 25.98300 39.48400
N  54.89900 23.23200 43.66600
C  53.84500 22.30500 43.36500
C  54.43100 21.03800 43.04900
C  55.84800 21.16000 43.09300
C  56.08900 22.58200 43.46000
C  53.61200 19.81200 42.74000
C  56.84800 20.01100 42.91700
O  56.45000 18.90400 42.58300
C  58.36100 20.27500 43.04400
N  56.62200 25.65500 43.91200
C  57.52400 24.66000 43.90400
C  58.92200 25.12500 44.12100
C  58.76700 26.65100 44.25300
C  57.15300 26.76500 44.35500
C  59.59400 24.47700 45.37700
C  59.32700 27.46700 43.10500
C  59.71700 28.94900 43.53500
N  54.28500 27.33800 44.29800
C  55.17200 28.31200 44.67400
C  54.50600 29.56900 44.88400
C  53.15300 29.30700 44.64600
C  53.10900 27.93900 44.31100
C  55.03600 30.92500 45.31500
C  51.79300 29.78800 44.67300
O  51.42000 30.84900 45.09000
C  50.85100 28.69400 44.05200
C  50.29100 29.26300 42.79200
O  50.90800 29.67800 41.81600
O  48.86000 29.17800 42.91200
C  48.24000 29.80600 41.69100
H  51.81100 22.05500 42.79900
H  58.18900 22.71700 43.62800
H  57.10300 28.88900 44.99900
H  49.42800 25.81300 43.94200
H  50.03800 23.41300 42.49200
H  50.40200 23.00900 45.38300
H  49.27300 22.29100 44.43800
H  48.89600 23.93000 45.01200
H  48.64300 26.44600 42.00300
H  49.10200 24.99800 41.28800
H  51.41900 26.89900 41.19600
H  49.86700 27.51500 40.65000
H  52.57700 19.95900 42.43400
H  53.72300 19.16100 43.60700
H  54.04000 19.35500 41.84800
H  58.83900 19.36700 42.67600
H  58.61400 20.40900 44.09600
H  58.77300 21.04000 42.38500
H  59.36500 24.74100 43.20200
H  58.98700 26.99200 45.26500
H  60.06000 25.14800 46.09900
H  60.48100 23.91900 45.07700
H  58.96900 23.68300 45.78500
H  58.57200 27.48500 42.31900
H  60.27000 27.07900 42.71800
H  58.94600 29.57000 43.07900
H  60.71500 29.24500 43.21000
H  59.61200 28.96900 44.61900
H  54.99700 30.83200 46.40000
H  54.44100 31.80100 45.05500
H  56.05700 31.11800 44.98400
H  49.98500 28.62500 44.71100
H  48.15600 29.14100 40.83000
H  48.68900 30.72500 41.31400
H  47.31400 30.19900 42.10900
Mg 50.18800 34.56200 27.89100
C  48.05200 33.63100 30.54500
C  50.88200 37.38200 29.49700
C  51.95100 35.47500 25.21800
C  48.99000 31.69300 26.21400
N  49.58100 35.33000 29.80100
C  48.81000 34.71300 30.81600
C  49.08700 35.44700 32.13000
C  49.47100 36.92300 31.66400
C  50.09900 36.52600 30.22700
C  48.31900 37.93600 31.56800
C  50.21400 34.76700 32.90700
C  50.27300 34.92100 34.51700
H  49.18000 35.77800 35.24200
N  51.31000 36.17800 27.43000
C  51.49100 37.28800 28.21200
C  52.45800 38.13200 27.55700
C  52.73600 37.58400 26.25800
C  52.03500 36.34500 26.26800
C  52.95400 39.36200 28.29000
C  53.65300 38.06000 25.18900
O  53.86300 37.46800 24.13800
C  54.57400 39.17000 25.50300
N  50.15000 33.82600 25.85200
C  51.10800 34.34600 25.03600
C  51.43300 33.44000 23.87900
C  50.65100 32.08200 24.27300
C  49.83100 32.58700 25.52600
C  51.02700 34.08800 22.54000
C  51.61000 30.92200 24.60000
C  51.13300 29.51100 24.10600
N  48.77600 32.96500 28.18800
C  48.47100 31.86300 27.51100
C  47.58700 30.97700 28.23900
C  47.31500 31.67900 29.38900
C  48.12000 32.84200 29.37900
C  47.08300 29.68400 27.67900
C  46.52900 31.65800 30.61900
O  45.80400 30.83700 31.10500
C  47.01100 32.95800 31.44600
C  47.37400 32.46500 32.79300
O  48.34600 31.78200 32.95000
O  46.41800 32.92800 33.71400
C  46.63400 32.46700 35.06700
H  51.14300 38.20000 30.17100
H  52.75800 35.53700 24.48500
H  48.90500 30.77700 25.62500
H  48.18900 35.47400 32.74800
H  50.13400 37.45600 32.34500
H  47.67000 37.94400 32.44300
H  47.72500 37.58400 30.72500
H  48.68100 38.94900 31.39400
H  51.15700 35.13100 32.49900
H  50.07800 33.68900 32.81900
H  51.29500 35.15600 34.81300
H  50.15000 33.89600 34.86400
H  54.04200 39.36900 28.34500
H  52.54400 39.57600 29.27700
H  52.70100 40.22800 27.67900
H  54.11900 40.06800 25.92300
H  55.19500 39.45000 24.65300
H  55.25500 38.80500 26.27200
H  52.51200 33.29600 23.91900
H  50.02500 31.80600 23.42500
H  50.71900 35.10500 22.78000
H  50.16100 33.59700 22.09500
H  51.94200 34.05600 21.94700
H  51.69100 30.86200 25.68500
H  52.61300 30.91500 24.17300
H  52.02100 28.96900 23.78100
H  50.44600 29.56800 23.26200
H  50.74300 29.07900 25.02800
H  47.41300 29.62800 26.64200
H  45.99600 29.72900 27.73900
H  47.49300 28.83000 28.21800
H  46.11200 33.57100 31.51000
H  47.60300 32.79400 35.44400
H  46.58200 31.37900 35.09700
H  45.82900 32.73100 35.75300

