158

Mg 30.26300 58.24000 40.98000
C  27.50000 56.24000 39.93500
C  32.25900 55.63600 39.97700
C  32.98100 60.34300 41.05300
C  28.06500 60.96400 41.14600
N  29.90000 56.13800 40.09900
C  28.72400 55.51200 39.72500
C  28.89600 54.07000 39.23100
C  30.43300 53.86500 39.57800
C  30.92400 55.25300 39.83500
C  30.64300 52.97600 40.78200
C  28.57800 54.01800 37.62000
C  27.56100 52.96600 36.99500
H  26.65800 53.56200 35.96100
N  32.32200 58.03000 40.75700
C  32.87300 56.88800 40.24300
C  34.21600 57.14700 39.99200
C  34.57000 58.36200 40.58300
C  33.25900 58.97900 40.82300
C  35.18700 56.29300 39.25600
C  35.93200 58.90600 40.82900
O  36.90300 58.22000 40.52700
C  36.17300 60.31800 41.46100
N  30.48100 60.37300 41.08000
C  31.70700 61.01800 41.14900
C  31.49700 62.50100 41.37800
C  29.98200 62.65100 41.61000
C  29.46700 61.26400 41.26200
C  32.42700 63.04600 42.49300
C  29.32400 63.79700 40.86600
C  28.14600 64.50500 41.65500
N  28.14600 58.63100 40.69300
C  27.40900 59.74000 40.93500
C  26.00000 59.41000 40.71000
C  25.98100 58.06700 40.31100
C  27.29900 57.61100 40.34400
C  24.77700 60.38600 40.89500
C  25.19500 56.96700 39.79000
O  24.11600 56.96500 39.31000
C  26.19800 55.74000 39.50300
C  25.83400 54.56000 40.37300
O  26.14000 54.45200 41.54200
O  25.07400 53.67000 39.65500
C  24.44700 52.54500 40.34200
H  33.01800 54.92100 39.65200
H  33.90400 60.90700 40.90000
H  27.32900 61.76100 41.27100
H  28.18100 53.49400 39.81800
H  31.03400 53.51500 38.73800
H  29.92100 53.22600 41.55900
H  31.64700 53.19300 41.14700
H  30.50300 51.90800 40.61400
H  29.55700 53.91400 37.15200
H  28.10900 54.94500 37.29200
H  26.98400 52.36800 37.70000
H  28.12300 52.20300 36.45600
H  35.55600 56.92000 38.44400
H  34.73000 55.42700 38.77700
H  35.96600 55.94300 39.93300
H  36.03800 61.12800 40.74500
H  37.18400 60.27700 41.86600
H  35.65900 60.59100 42.38300
H  31.65700 62.96900 40.40700
H  29.77600 62.77100 42.67400
H  33.22800 62.36400 42.77600
H  31.84000 63.24100 43.39100
H  32.85300 63.99500 42.16600
H  29.01500 63.39700 39.90000
H  29.99400 64.62900 40.65100
H  28.24300 65.59000 41.60700
H  28.13800 64.23700 42.71100
H  27.19200 64.14800 41.26700
H  23.83800 59.93700 40.57100
H  24.86500 61.27900 40.27600
H  24.73200 60.70100 41.93800
H  26.23100 55.49000 38.44200
H  25.34400 52.02800 40.68100
H  23.86900 51.88300 39.69800
H  23.91400 52.84900 41.24300
Mg 16.27500 52.51800 26.73600
C  18.26000 51.23900 29.51300
C  14.09600 53.82200 28.88300
C  14.81000 53.62500 24.07200
C  18.52700 50.68800 24.68300
N  16.15200 52.41400 28.86500
C  17.07800 51.95400 29.84700
C  16.58100 52.34100 31.28800
C  15.06000 52.78900 31.03000
C  15.12300 52.99800 29.51300
C  14.03000 51.73600 31.42900
C  17.46300 53.33600 31.98600
C  17.80300 53.18100 33.48600
H  16.70900 52.64500 34.46500
N  14.59100 53.54300 26.54600
C  13.87800 54.11400 27.53400
C  12.89100 54.99200 26.88300
C  13.10100 54.92100 25.45500
C  14.19900 53.94200 25.29400
C  11.92400 55.81700 27.74600
C  12.29800 55.62600 24.39600
O  12.32400 55.33900 23.17300
C  11.36900 56.72700 24.71300
N  16.84500 52.40200 24.67000
C  15.96100 52.94800 23.78800
C  16.44200 52.75200 22.32900
C  17.72100 51.83000 22.55300
C  17.72200 51.58700 24.05400
C  15.35100 52.29600 21.20400
C  19.08800 52.36600 22.06400
C  20.08700 51.36400 21.69500
N  18.00000 51.25200 27.02700
C  18.71000 50.46600 26.03500
C  19.85700 49.73700 26.60400
C  19.65900 49.95200 28.00500
C  18.56800 50.86200 28.16200
C  20.95200 49.04200 25.89000
C  20.20100 49.69900 29.36400
O  21.20400 49.06500 29.70800
C  19.36900 50.62600 30.32100
C  18.83800 49.73900 31.40100
O  17.72800 49.16200 31.44900
O  19.84400 49.57000 32.31200
C  19.59700 48.76100 33.49000
H  13.40900 54.21100 29.63700
H  14.31800 54.01200 23.17700
H  19.13200 50.18300 23.92700
H  16.51600 51.44000 31.89800
H  14.94000 53.78400 31.45900
H  13.49400 52.24600 32.22900
H  14.37800 50.73900 31.70000
H  13.31700 51.63600 30.61100
H  17.15000 54.36300 31.79500
H  18.45100 53.13300 31.57200
H  17.98800 54.17900 33.88300
H  18.70200 52.57100 33.58100
H  12.09700 56.88100 27.58600
H  12.20200 55.72300 28.79500
H  10.89300 55.56800 27.49600
H  10.64100 56.38200 25.44600
H  10.95600 57.21100 23.82800
H  11.94700 57.50500 25.21200
H  16.77400 53.76100 22.08500
H  17.60700 50.81500 22.17300
H  14.35400 52.57400 21.54600
H  15.51400 51.23500 21.01300
H  15.44900 52.89000 20.29600
H  19.51000 52.83000 22.95500
H  19.05200 53.05600 21.22200
H  20.84800 51.17300 22.45200
H  20.59500 51.71700 20.79800
H  19.49500 50.50500 21.37800
H  21.06200 49.53600 24.92500
H  20.67500 47.99200 25.78700
H  21.87800 49.09100 26.46200
H  19.95100 51.32200 30.92400
H  19.26300 47.78300 33.14300
H  18.80000 49.31900 33.98200
H  20.41200 48.55200 34.18300

