158

Mg 53.93000 22.43200 44.52200
C  51.51900 24.83500 43.49400
C  51.76600 19.98400 43.48400
C  56.46400 20.24000 44.76400
C  56.06300 24.97500 45.28400
N  51.91100 22.50300 43.56700
C  51.09300 23.56900 43.13200
C  49.88800 23.03600 42.38000
C  49.89200 21.55100 42.63700
C  51.23600 21.33600 43.39200
C  48.67200 21.00800 43.47600
C  49.89300 23.36100 40.87400
C  48.50000 23.45400 40.17000
H  48.15800 22.73400 38.81000
N  54.09900 20.37400 44.12600
C  53.08500 19.52200 43.75200
C  53.56800 18.16300 43.65500
C  54.92700 18.18200 44.16200
C  55.21000 19.66500 44.39000
C  52.77000 16.97200 43.20600
C  55.86900 16.90400 44.29900
O  55.50600 15.77600 44.01100
C  57.32600 17.09600 44.67200
N  56.01900 22.58900 44.69400
C  56.84900 21.55100 44.90700
C  58.27200 21.94700 45.20100
C  58.06000 23.38100 45.59800
C  56.60200 23.71500 45.13800
C  58.95800 21.13400 46.34000
C  59.13500 24.51800 45.09500
C  60.10600 25.01700 46.22900
N  53.79200 24.51200 44.51200
C  54.76300 25.42300 44.92300
C  54.11300 26.74400 45.00400
C  52.88300 26.54500 44.37600
C  52.73800 25.17300 44.14800
C  54.77300 28.00300 45.56600
C  51.65100 27.22700 43.97700
O  51.26500 28.36500 44.13500
C  50.70400 26.10400 43.37400
C  50.48800 26.51600 41.90400
O  51.44100 26.55900 41.11300
O  49.22200 26.90100 41.65800
C  48.93900 27.37600 40.30000
H  51.05300 19.15800 43.45200
H  57.21900 19.55800 45.15900
H  56.69600 25.72700 45.76200
H  49.02900 23.43600 42.91800
H  49.83900 21.06600 41.66200
H  48.93900 20.50400 44.40500
H  48.13800 20.31900 42.82100
H  47.93300 21.77800 43.69800
H  50.40100 22.60600 40.27300
H  50.43500 24.29400 40.71800
H  48.20900 24.48200 39.95100
H  47.75900 23.10100 40.88600
H  53.37900 16.51400 42.42600
H  51.78200 17.16800 42.78900
H  52.63100 16.40900 44.12900
H  57.67100 17.74600 43.86800
H  57.80500 16.11700 44.68200
H  57.48800 17.52300 45.66200
H  58.88900 21.90000 44.30400
H  57.92400 23.50500 46.67300
H  59.62400 20.35700 45.96500
H  58.09700 20.67000 46.82100
H  59.49900 21.72500 47.07900
H  58.65100 25.25700 44.45500
H  59.73800 23.98800 44.35800
H  61.05700 24.63400 45.85700
H  59.90600 24.46200 47.14500
H  59.97600 26.08900 46.37500
H  55.85500 27.98300 45.44200
H  54.48400 28.19900 46.59900
H  54.41500 28.79300 44.90600
H  49.73600 26.08900 43.87500
H  48.79500 28.45600 40.33400
H  47.99400 26.96400 39.94600
H  49.68000 27.21200 39.51800
Mg 35.76800 48.57000 25.37800
C  35.75300 46.89200 28.54400
C  34.42200 51.27100 27.02900
C  35.59000 49.95800 22.37000
C  36.65800 45.56400 23.98400
N  35.18800 48.99500 27.52900
C  35.48700 48.28600 28.61600
C  35.15300 49.11000 29.91100
C  34.66700 50.49200 29.45700
C  34.81100 50.26100 27.91600
C  33.17500 50.92400 29.78400
C  36.45000 49.20200 30.69000
C  36.38200 49.05700 32.19700
H  35.10600 49.24100 32.97200
N  34.96400 50.33500 24.74300
C  34.49500 51.30100 25.58500
C  34.20300 52.47200 24.76800
C  34.56500 52.23200 23.41300
C  35.03000 50.82200 23.48300
C  33.57200 53.71200 25.42600
C  34.35400 53.11800 22.20700
O  34.78700 52.77000 21.10400
C  33.47400 54.34500 22.31000
N  35.85800 47.79200 23.45900
C  35.90300 48.60100 22.39000
C  36.44300 47.93600 21.05800
C  36.81100 46.55000 21.69800
C  36.43200 46.61900 23.13900
C  35.43500 47.76100 19.90000
C  38.30700 46.19100 21.55700
C  38.98600 46.33100 20.20800
N  36.26900 46.63100 26.06400
C  36.56600 45.52900 25.37400
C  36.70600 44.38500 26.28300
C  36.35000 44.89000 27.55800
C  36.14500 46.27100 27.36800
C  37.21000 42.88800 25.92300
C  36.31400 44.57000 28.99900
O  36.57500 43.57000 29.67000
C  35.97300 45.91100 29.71400
C  34.64800 45.71700 30.47400
O  33.56400 46.02900 30.10800
O  34.90500 45.13300 31.67200
C  33.75000 44.91300 32.54300
H  33.90100 52.07300 27.55500
H  35.62900 50.54700 21.45100
H  37.00400 44.65800 23.48200
H  34.38700 48.65000 30.53600
H  35.35300 51.27100 29.78900
H  33.29200 51.94100 30.15800
H  32.69700 50.24700 30.49200
H  32.57200 51.12000 28.89700
H  37.01300 50.12100 30.53300
H  37.13700 48.38700 30.46100
H  37.15800 49.77800 32.45700
H  36.66800 48.03300 32.43600
H  34.02700 54.58000 24.94900
H  33.81000 53.81200 26.48500
H  32.49100 53.61600 25.32800
H  32.58400 54.03600 22.85700
H  33.23900 54.78800 21.34200
H  34.05100 55.13700 22.78800
H  37.28700 48.43800 20.58400
H  36.13500 45.79100 21.30600
H  34.36800 47.95400 20.01700
H  35.57700 46.77000 19.46900
H  35.80800 48.47600 19.16700
H  38.38900 45.12400 21.76300
H  38.89700 46.80100 22.24100
H  38.28300 46.60300 19.42100
H  39.48400 45.40400 19.92200
H  39.74400 47.11100 20.14100
H  37.93300 42.92000 25.10700
H  36.31600 42.29600 25.72600
H  37.78000 42.53500 26.78200
H  36.73800 46.03100 30.48100
H  33.93100 44.33100 33.44600
H  33.06600 44.26100 32.00100
H  33.36600 45.87400 32.88500

