158

Mg -2.16200 17.26000 27.08500
C  -2.67900 15.18300 29.79800
C  -2.97800 20.00300 29.08000
C  -2.26500 19.22300 24.32900
C  -1.93300 14.59500 24.99700
N  -2.99900 17.44800 29.15300
C  -2.75300 16.52500 30.12200
C  -2.89500 17.14600 31.58500
C  -3.08700 18.61900 31.23900
C  -3.01400 18.69200 29.77200
C  -4.41200 19.32600 31.84900
C  -1.73700 16.72600 32.49400
C  -1.26200 17.71100 33.59500
H  -0.91300 17.02600 34.97600
N  -2.36700 19.32100 26.80400
C  -2.71300 20.31900 27.72800
C  -2.65300 21.67200 27.18300
C  -2.33400 21.40500 25.79400
C  -2.33200 19.91100 25.58900
C  -2.97000 22.81000 27.94100
C  -2.16500 22.41400 24.69900
O  -1.72800 22.08600 23.56700
C  -2.27000 23.87700 25.04800
N  -2.04100 17.01300 24.89000
C  -2.11000 17.89000 23.96800
C  -2.06300 17.47400 22.54000
C  -1.74400 15.91300 22.80600
C  -1.96700 15.84600 24.31300
C  -3.45600 17.66300 21.79100
C  -0.28500 15.57300 22.31700
C  0.93600 15.85100 23.26100
N  -2.37600 15.32100 27.23200
C  -2.22200 14.32500 26.33100
C  -2.34800 13.09500 26.91900
C  -2.43000 13.34100 28.32000
C  -2.52600 14.73700 28.46800
C  -2.32300 11.77400 26.19000
C  -2.59800 12.68900 29.58600
O  -2.70000 11.55200 29.93700
C  -2.75100 13.92100 30.61700
C  -1.56900 13.74600 31.54700
O  -0.40700 13.96700 31.23200
O  -1.98100 13.25300 32.72600
C  -0.93400 13.13200 33.75200
H  -3.12400 20.85300 29.75000
H  -2.32100 19.93000 23.49900
H  -1.80900 13.75500 24.31000
H  -3.79000 16.71100 32.03000
H  -2.26700 19.21100 31.64400
H  -4.13800 20.12200 32.54100
H  -4.93900 18.71300 32.58000
H  -5.12400 19.49100 31.04000
H  -0.87800 16.50400 31.86100
H  -2.13100 15.81900 32.95200
H  -2.06300 18.43700 33.73300
H  -0.29100 18.08400 33.26800
H  -2.67700 22.73600 28.98900
H  -4.05700 22.83600 27.86800
H  -2.59600 23.77900 27.60800
H  -2.12200 24.40200 24.10400
H  -1.38600 23.98800 25.67700
H  -3.20500 24.24900 25.46600
H  -1.22500 17.96600 22.04700
H  -2.40800 15.33200 22.16600
H  -3.86300 16.72600 21.40900
H  -3.28500 18.14900 20.83100
H  -4.07100 18.33400 22.39100
H  -0.18100 16.11700 21.37800
H  -0.14200 14.53500 22.01900
H  0.50000 16.07300 24.23500
H  1.55000 16.67200 22.89000
H  1.57600 14.97300 23.34800
H  -3.29100 11.63200 25.70800
H  -2.08200 10.90900 26.80800
H  -1.64100 11.71400 25.34100
H  -3.69600 13.88100 31.15700
H  -1.16700 13.69200 34.65900
H  0.08700 13.38900 33.47200
H  -0.94500 12.07500 34.01700
Mg -2.45600 34.31300 26.53100
C  -3.97400 32.45000 29.13500
C  -1.05800 36.24700 29.00000
C  -1.16200 36.16800 24.22200
C  -4.14800 32.33200 24.18700
N  -2.67300 34.39200 28.89700
C  -3.12700 33.43800 29.70200
C  -2.93900 33.81100 31.16400
C  -2.13600 35.14800 31.04200
C  -1.91800 35.29600 29.53200
C  -2.90600 36.39400 31.66600
C  -2.22400 32.76800 32.03100
C  -2.92400 32.36700 33.33300
H  -2.25200 32.36100 34.69100
N  -1.19700 36.00100 26.55300
C  -0.82000 36.69600 27.65500
C  -0.09300 37.83500 27.24200
C  -0.15700 37.94900 25.87900
C  -0.82800 36.70600 25.46200
C  0.64000 38.73500 28.25700
C  0.27900 39.09700 24.93700
O  -0.05300 39.07900 23.75100
C  1.03400 40.26300 25.34100
N  -2.62200 34.21800 24.42700
C  -1.96600 35.05700 23.67800
C  -2.21200 34.77000 22.18100
C  -2.95700 33.42000 22.20900
C  -3.22000 33.26100 23.69200
C  -2.98000 35.88600 21.42000
C  -2.28100 32.30000 21.49400
C  -1.53400 31.30300 22.42500
N  -3.75300 32.74800 26.59000
C  -4.34000 32.04400 25.54300
C  -5.20200 31.06800 26.13500
C  -5.11300 31.14300 27.50600
C  -4.21500 32.23200 27.73300
C  -6.17600 30.23800 25.29600
C  -5.58700 30.62300 28.79500
O  -6.39700 29.73600 29.05200
C  -4.80600 31.45900 29.91700
C  -5.83200 32.13500 30.87500
O  -6.43300 33.18500 30.65100
O  -5.91500 31.46800 32.01200
C  -6.98000 31.87900 32.99800
H  -0.46100 36.74100 29.77000
H  -0.62900 36.69700 23.42900
H  -4.54100 31.65200 23.42900
H  -3.92600 34.08600 31.53600
H  -1.20700 35.18300 31.61100
H  -3.73300 36.65500 31.00600
H  -2.15000 37.15800 31.85000
H  -3.34200 36.20000 32.64600
H  -1.31000 33.18000 32.45700
H  -2.14800 31.84700 31.45200
H  -3.15800 31.31100 33.19800
H  -3.86600 32.89900 33.46600
H  1.37800 39.42800 27.85100
H  1.14700 38.13700 29.01500
H  -0.18300 39.40500 28.50900
H  0.52200 40.95400 26.01100
H  1.32600 40.83800 24.46200
H  1.97000 39.86300 25.73200
H  -1.22300 34.55400 21.77700
H  -3.99300 33.53200 21.88800
H  -3.98600 35.56900 21.14400
H  -2.38600 36.11500 20.53600
H  -3.04500 36.78500 22.03200
H  -1.53300 32.59800 20.76000
H  -3.11700 31.70000 21.13300
H  -2.26100 30.62300 22.87000
H  -0.96800 31.77400 23.22800
H  -0.90800 30.67700 21.78800
H  -5.67700 29.75100 24.45900
H  -6.96500 30.85700 24.86900
H  -6.63000 29.47700 25.93000
H  -4.30600 30.78700 30.61500
H  -6.44100 32.39300 33.79400
H  -7.37300 30.99700 33.50400
H  -7.84100 32.40100 32.58100

