158

Mg 8.61300 3.17300 27.39600
C  9.65600 1.78000 30.44500
C  6.24300 5.02900 29.12400
C  7.59300 4.46700 24.55000
C  10.32700 0.71700 25.81200
N  8.03500 3.29200 29.48400
C  8.64400 2.74100 30.55700
C  8.06400 3.16000 31.91800
C  6.90800 4.06200 31.42000
C  7.05200 4.16400 29.86000
C  5.44000 3.84200 31.91000
C  8.99600 3.91800 32.81600
C  8.51900 4.73000 34.02100
H  9.11800 4.55700 35.35700
N  7.06600 4.56200 26.85200
C  6.31600 5.32500 27.76000
C  5.52500 6.23700 26.98600
C  5.93900 6.19900 25.65000
C  6.91800 5.03000 25.56500
C  4.48700 7.16900 27.66900
C  5.61400 7.05700 24.43200
O  6.07900 6.86300 23.28500
C  4.59900 8.15900 24.64900
N  8.86100 2.65500 25.43400
C  8.58900 3.49600 24.44800
C  9.17400 2.97600 23.15000
C  9.87300 1.72200 23.49300
C  9.67200 1.71300 25.01400
C  8.13000 2.74400 22.03400
C  11.34700 1.54300 23.01400
C  11.48500 0.77200 21.66200
N  9.79100 1.58200 27.97100
C  10.43600 0.66800 27.21500
C  11.26200 -0.19900 28.02400
C  10.97700 0.19900 29.31500
C  10.02500 1.26200 29.22000
C  12.18200 -1.26600 27.45700
C  11.21100 0.00600 30.73800
O  11.85200 -0.89100 31.23400
C  10.34300 0.96400 31.53800
C  9.55100 0.05200 32.53800
O  8.73700 -0.80700 32.32300
O  10.10600 0.29900 33.75800
C  9.64800 -0.33400 34.97700
H  5.57300 5.62000 29.75300
H  7.35200 4.90300 23.57800
H  10.91800 -0.04600 25.30200
H  7.66700 2.28300 32.42800
H  7.13400 5.09300 31.69500
H  4.91400 3.33000 31.10500
H  5.02500 4.78000 32.28100
H  5.52900 3.30200 32.85300
H  9.57300 4.62000 32.21300
H  9.76400 3.20100 33.10700
H  7.46400 4.46800 34.09600
H  8.65700 5.76500 33.70800
H  3.55500 7.19200 27.10300
H  4.72500 8.23300 27.66600
H  4.22100 6.89100 28.68900
H  4.35700 8.71200 23.74200
H  5.03300 8.91900 25.29900
H  3.68600 7.68600 25.01100
H  9.85900 3.73100 22.76500
H  9.17600 0.92500 23.23200
H  7.85500 1.71300 21.81000
H  8.63600 3.01300 21.10600
H  7.34500 3.49000 22.15100
H  11.94300 1.20500 23.86100
H  11.66100 2.52800 22.66800
H  10.52200 0.50100 21.22900
H  12.09800 -0.11300 21.83400
H  11.84200 1.48700 20.92100
H  12.29900 -1.14300 26.38000
H  11.94700 -2.30400 27.69400
H  13.14200 -1.07700 27.93700
H  11.13600 1.52800 32.02900
H  9.42700 0.55000 35.57600
H  10.50900 -0.89700 35.33500
H  8.75500 -0.93900 34.82100
Mg 42.95100 42.00300 26.64200
C  42.35100 44.24000 29.33500
C  43.96700 39.75700 29.03500
C  43.91500 40.14000 24.23300
C  42.44400 44.77700 24.46000
N  43.12000 42.03100 28.90000
C  42.76800 42.99700 29.83900
C  42.78400 42.49600 31.26800
C  43.64000 41.23000 31.07700
C  43.54200 40.91800 29.57300
C  45.12700 41.19300 31.57800
C  41.46400 42.30800 32.00400
C  41.25300 43.00700 33.36400
H  42.01800 42.40900 34.52000
N  43.81500 40.20500 26.58700
C  44.02900 39.36800 27.66000
C  44.50800 38.11400 27.17200
C  44.40800 38.11300 25.75300
C  44.05800 39.53500 25.45000
C  45.02700 36.95200 28.06400
C  44.59500 37.07100 24.68600
O  44.64900 37.28700 23.48900
C  44.86400 35.68000 24.97600
N  43.34000 42.50800 24.61200
C  43.71000 41.43800 23.76300
C  43.45400 41.82700 22.28400
C  42.97400 43.30500 22.38200
C  42.91900 43.59100 23.87100
C  44.56400 41.53300 21.24300
C  41.51600 43.52800 21.75300
C  40.35500 42.85000 22.54800
N  42.52900 44.07100 26.79100
C  42.23000 44.98600 25.83600
C  41.66700 46.08000 26.38300
C  41.68400 45.93500 27.77600
C  42.24500 44.64000 28.02900
C  41.33300 47.40000 25.71000
C  41.39900 46.56500 29.05500
O  41.04800 47.70600 29.39400
C  41.86700 45.48400 30.13400
C  42.84300 46.00600 31.09900
O  43.95000 46.27900 30.72300
O  42.35100 46.00900 32.38700
C  43.39600 46.51600 33.33600
H  44.26700 39.00100 29.76300
H  44.03500 39.50100 23.35600
H  42.15300 45.48700 23.68400
H  43.36600 43.17700 31.88800
H  43.17500 40.39400 31.60000
H  45.17600 40.48800 32.40700
H  45.57300 42.09400 32.00100
H  45.78200 40.82800 30.78700
H  41.27500 41.26000 32.23700
H  40.57200 42.50900 31.41200
H  40.19000 43.06700 33.59500
H  41.59000 44.04200 33.30400
H  44.26100 36.20200 28.26200
H  45.24200 37.28600 29.07900
H  45.91500 36.57900 27.55400
H  45.76100 35.73700 25.59200
H  45.07200 35.02800 24.12700
H  44.03500 35.30800 25.57700
H  42.64400 41.16200 21.98200
H  43.66700 44.03400 21.96200
H  44.10900 41.00500 20.40400
H  45.37800 40.99200 21.72600
H  45.02000 42.42200 20.80900
H  41.46000 43.25000 20.70000
H  41.29300 44.59100 21.83700
H  39.75700 43.53500 23.15000
H  40.73600 42.14100 23.28400
H  39.77100 42.19000 21.90600
H  40.86200 47.20800 24.74600
H  42.25400 47.93500 25.47800
H  40.70200 47.97100 26.39100
H  40.92600 45.32000 30.65900
H  42.99100 46.27100 34.31800
H  43.52100 47.59100 33.20200
H  44.34700 45.99600 33.22500

