158

Mg 17.10200 -1.53000 27.89500
C  15.78900 0.65000 30.43600
C  18.76400 -3.18600 30.39600
C  18.63300 -3.19700 25.41100
C  15.85700 0.76700 25.50300
N  17.36800 -1.13400 30.15500
C  16.62700 -0.34500 30.96100
C  16.98500 -0.52800 32.39300
C  17.98900 -1.70300 32.33600
C  18.09000 -2.02100 30.87500
C  19.47700 -1.42900 32.99100
C  15.72400 -0.76000 33.30900
C  15.75800 -0.09200 34.69800
H  17.09900 0.34500 35.32900
N  18.38300 -2.98500 27.92000
C  18.86700 -3.70200 29.05700
C  19.50000 -4.92400 28.60000
C  19.54100 -4.94100 27.16300
C  18.78200 -3.71000 26.75900
C  20.05200 -6.08300 29.49600
C  20.11600 -5.93000 26.19900
O  19.84100 -5.90200 25.01400
C  21.03600 -6.92400 26.67300
N  17.27300 -1.23700 25.71500
C  18.04600 -2.02800 24.97800
C  18.21200 -1.49100 23.54800
C  17.19300 -0.26300 23.57500
C  16.65100 -0.28200 25.00700
C  19.65400 -1.11900 23.23200
C  16.01000 -0.30400 22.55700
C  15.71500 1.09500 21.92000
N  16.01400 0.25400 27.88600
C  15.53300 1.05800 26.83900
C  14.70800 2.14100 27.27700
C  14.77500 1.96800 28.68900
C  15.59000 0.87600 29.00100
C  13.78700 2.90700 26.37700
C  14.32800 2.56900 29.94000
O  13.58600 3.52700 30.20600
C  15.00400 1.75500 31.08500
C  16.01700 2.75100 31.57900
O  16.86600 3.34400 30.91300
O  15.74100 3.04100 32.87500
C  16.26900 4.29700 33.44400
H  19.43400 -3.70600 31.08300
H  19.16300 -3.75500 24.63600
H  15.49300 1.49600 24.77600
H  17.36300 0.41800 32.78000
H  17.60900 -2.63700 32.75000
H  20.29400 -1.24300 32.29300
H  19.55000 -2.28000 33.66700
H  19.48600 -0.51600 33.58600
H  15.59200 -1.83600 33.42100
H  14.84800 -0.38200 32.78300
H  15.30300 -0.77600 35.41400
H  15.17500 0.82600 34.62300
H  19.80100 -7.08300 29.14400
H  19.70200 -6.06000 30.52900
H  21.12200 -5.93700 29.64400
H  21.85800 -6.41900 27.18000
H  21.60100 -7.36500 25.85200
H  20.64000 -7.72000 27.30300
H  17.86400 -2.27500 22.87500
H  17.75000 0.65800 23.40000
H  19.88800 -0.05500 23.25100
H  19.94200 -1.59500 22.29400
H  20.34200 -1.57300 23.94500
H  15.07000 -0.64500 22.99000
H  16.24500 -0.86300 21.65100
H  14.69000 1.35900 22.18000
H  15.86900 1.11400 20.84100
H  16.23500 1.95200 22.35100
H  13.28300 2.30300 25.62300
H  14.34400 3.68100 25.84900
H  13.12800 3.40600 27.08700
H  14.24600 1.70600 31.86700
H  16.07000 5.14700 32.79100
H  17.34300 4.27500 33.62800
H  15.74700 4.54000 34.36900
Mg -5.72000 24.89100 26.29100
C  -4.41800 26.21000 29.26800
C  -7.34400 22.69500 28.16900
C  -6.56200 23.37800 23.51000
C  -3.69900 27.19200 24.45800
N  -5.89000 24.54600 28.59300
C  -5.37700 25.27100 29.59700
C  -5.82300 24.69100 31.00200
C  -6.60300 23.43700 30.53000
C  -6.57100 23.54800 29.01200
C  -6.00100 22.09500 31.12200
C  -6.69100 25.74100 31.79300
C  -6.23200 25.85600 33.23900
H  -5.97900 24.58800 34.06300
N  -6.88200 23.34200 25.82300
C  -7.49400 22.59900 26.75300
C  -8.44400 21.70800 26.13300
C  -8.25200 21.82700 24.68900
C  -7.20400 22.87800 24.60000
C  -9.47600 20.79800 26.87300
C  -8.91900 21.09700 23.53000
O  -8.61900 21.30100 22.36700
C  -9.96800 20.06900 23.80000
N  -5.18800 25.31200 24.28300
C  -5.65400 24.52800 23.32000
C  -5.09700 24.96600 21.98400
C  -4.31700 26.23900 22.22500
C  -4.40000 26.27300 23.74400
C  -4.30500 23.74300 21.38600
C  -4.95400 27.51300 21.63700
C  -4.02400 28.41200 20.79100
N  -4.35500 26.43000 26.71100
C  -3.59000 27.30200 25.84600
C  -2.80900 28.16800 26.74800
C  -3.03800 27.72700 28.03200
C  -3.98700 26.67700 27.97500
C  -1.81300 29.27300 26.28900
C  -2.57000 27.88400 29.34300
O  -1.66100 28.54400 29.81900
C  -3.42900 26.99300 30.24700
C  -2.54600 26.05300 30.96200
O  -1.94000 25.14500 30.44900
O  -2.54800 26.36300 32.26800
C  -1.87200 25.38600 33.15300
H  -7.71300 21.86700 28.77800
H  -6.89800 22.93000 22.57300
H  -2.94700 27.84100 24.00500
H  -4.88700 24.52500 31.53400
H  -7.68000 23.51000 30.67700
H  -6.69000 21.46600 31.68600
H  -5.21200 22.21500 31.86400
H  -5.57700 21.51300 30.30400
H  -7.77500 25.65200 31.71800
H  -6.53900 26.66300 31.23300
H  -6.95900 26.44300 33.80100
H  -5.29000 26.40400 33.26200
H  -10.48900 20.95300 26.50100
H  -9.58400 21.17600 27.89000
H  -9.18600 19.76500 26.68300
H  -10.84800 20.62900 24.11800
H  -9.52500 19.37200 24.51200
H  -10.23500 19.52000 22.89800
H  -5.94600 25.18500 21.33700
H  -3.32900 26.01800 21.82200
H  -4.57100 22.73700 21.70900
H  -3.23900 23.93400 21.51200
H  -4.52100 23.83200 20.32100
H  -5.31200 28.07900 22.49600
H  -5.88500 27.46300 21.07100
H  -4.33600 28.42900 19.74700
H  -2.99000 28.07300 20.73400
H  -3.94000 29.44300 21.13500
H  -2.09500 30.28800 26.56900
H  -1.53500 29.07100 25.25500
H  -0.93500 29.05900 26.89800
H  -3.90400 27.59100 31.02500
H  -2.27100 25.61800 34.14000
H  -0.80600 25.60100 33.22800
H  -2.15100 24.33800 33.04400

