158

Mg 35.28900 2.39900 30.42100
C  33.17900 3.70300 32.77500
C  37.76800 2.09800 32.82800
C  37.61200 1.57800 27.96900
C  33.09000 3.16600 27.99300
N  35.34600 2.81800 32.57700
C  34.34000 3.23200 33.38700
C  34.74500 3.38300 34.93400
C  36.27700 3.06600 34.82600
C  36.53300 2.65400 33.27000
C  37.22400 4.28500 35.27600
C  33.91600 2.40300 35.78000
C  33.55300 2.91900 37.22700
H  34.42200 4.08200 37.80000
N  37.34300 1.84900 30.40800
C  38.12200 1.67800 31.55100
C  39.42200 1.08500 31.13100
C  39.31000 0.80600 29.72200
C  38.03300 1.40600 29.28400
C  40.49300 0.79400 32.21100
C  40.32400 0.08500 28.89900
O  40.17900 -0.14900 27.73600
C  41.63500 -0.36000 29.55300
N  35.35000 2.41400 28.27500
C  36.41500 2.04300 27.50500
C  36.11700 2.30900 26.06800
C  34.64000 2.73000 26.03200
C  34.31000 2.71500 27.51200
C  37.10200 3.26300 25.40600
C  33.71200 1.94100 25.09300
C  33.42200 0.51500 25.50100
N  33.42800 3.19800 30.34200
C  32.56600 3.47400 29.29300
C  31.22800 3.84300 29.77400
C  31.39900 3.96600 31.16400
C  32.74600 3.61800 31.38900
C  30.07500 4.09800 28.90200
C  30.80500 4.34800 32.39300
O  29.70800 4.78200 32.67000
C  31.94500 4.15600 33.44300
C  32.23100 5.45100 34.20000
O  32.68500 6.50900 33.74600
O  31.74200 5.37400 35.48600
C  31.76800 6.54000 36.33300
H  38.53200 2.12700 33.60800
H  38.33800 1.31400 27.19800
H  32.37100 3.25500 27.17600
H  34.65600 4.42800 35.23000
H  36.61800 2.17600 35.35500
H  37.93800 4.51000 34.48400
H  37.80600 3.99300 36.15000
H  36.66000 5.19700 35.47500
H  34.42500 1.44700 35.90000
H  32.96500 2.30200 35.25800
H  33.72800 2.02600 37.82600
H  32.54000 3.32200 37.23200
H  41.47300 1.21500 31.98500
H  40.54900 -0.29100 32.30400
H  40.25300 1.04700 33.24400
H  41.37600 -1.10700 30.30300
H  42.29100 0.44300 29.89100
H  42.09300 -1.00700 28.80500
H  36.28300 1.32700 25.62300
H  34.49900 3.75300 25.68200
H  37.62600 2.64400 24.67800
H  37.88000 3.76700 25.98000
H  36.55400 4.10300 24.98000
H  34.24000 1.99600 24.14100
H  32.76000 2.46500 25.00600
H  33.79200 -0.18200 24.74900
H  32.34900 0.35000 25.59700
H  33.86000 0.17600 26.43900
H  29.51000 4.99300 29.16500
H  29.37200 3.29600 29.12500
H  30.36300 4.10200 27.85100
H  31.55700 3.40100 34.12600
H  30.90400 7.08900 35.95800
H  32.65800 7.14800 36.17000
H  31.61000 6.39200 37.40200
Mg 26.52200 49.55000 26.44900
C  24.43800 50.61200 28.85200
C  28.81000 48.57500 28.74200
C  28.45500 48.40500 23.91900
C  24.36800 50.99400 24.01800
N  26.66000 49.72300 28.65600
C  25.61700 50.04500 29.44100
C  25.92200 49.92200 30.93200
C  27.42300 49.41900 30.84700
C  27.66600 49.16500 29.32100
C  28.50800 50.32800 31.53300
C  24.97600 48.93000 31.73000
C  24.54700 49.32600 33.12100
H  25.64900 49.93100 34.09100
N  28.40900 48.59700 26.33100
C  29.19200 48.30100 27.40600
C  30.38600 47.65000 26.91500
C  30.29400 47.60500 25.49300
C  29.05200 48.16900 25.18300
C  31.52600 47.31100 27.78300
C  31.13100 46.92100 24.42800
O  30.88300 46.92000 23.22400
C  32.34600 46.24900 24.83900
N  26.36400 49.65300 24.28800
C  27.34500 49.06200 23.48000
C  27.02100 49.26400 21.95000
C  25.67900 50.14000 21.96400
C  25.38000 50.18100 23.45300
C  28.05000 49.97700 21.10800
C  24.53200 49.63700 21.09100
C  23.89800 48.31400 21.53300
N  24.79000 50.68300 26.41600
C  23.97300 51.14400 25.38800
C  22.75300 51.74300 25.94000
C  22.89800 51.49700 27.35300
C  24.10100 50.89200 27.55800
C  21.70500 52.43000 25.24400
C  22.26500 51.71500 28.59500
O  21.17100 52.17100 28.82800
C  23.23300 51.18700 29.62900
C  23.43700 52.38100 30.51900
O  24.10500 53.37500 30.24300
O  22.76400 52.10900 31.70600
C  23.16300 52.95000 32.83300
H  29.49700 48.21400 29.51000
H  29.00500 48.16000 23.00900
H  23.66100 51.35400 23.26800
H  25.83800 50.92500 31.35000
H  27.47200 48.51500 31.45400
H  28.29000 51.35400 31.23400
H  29.47100 50.07400 31.09200
H  28.53100 50.01500 32.57700
H  25.41500 47.93300 31.77200
H  24.11600 48.90400 31.06100
H  24.18400 48.41000 33.58700
H  23.74800 50.06700 33.09100
H  31.59800 46.25500 28.04300
H  31.41100 47.71800 28.78800
H  32.44700 47.72900 27.37700
H  32.11200 45.49400 25.58900
H  33.11900 46.96900 25.10700
H  32.71800 45.66000 24.00000
H  26.80800 48.26700 21.56500
H  25.75800 51.21800 21.81900
H  28.79800 50.52200 21.68400
H  27.56700 50.52600 20.30000
H  28.61100 49.27200 20.49400
H  24.85300 49.51700 20.05700
H  23.78800 50.39800 20.85800
H  22.89300 48.43500 21.93900
H  24.51300 47.85600 22.30800
H  23.80400 47.59800 20.71700
H  21.51900 51.75600 24.40800
H  22.03000 53.38600 24.83200
H  20.85900 52.61600 25.90500
H  22.86600 50.38300 30.26600
H  24.10800 52.60900 33.25600
H  22.33200 52.90900 33.53700
H  23.34700 53.99400 32.57600

