158

Mg 26.70200 50.85300 25.86900
C  24.94200 52.09000 28.69900
C  29.27400 50.24400 28.00900
C  28.34500 49.73600 23.23000
C  24.21500 52.21300 23.91700
N  27.03400 51.18600 28.08600
C  26.17900 51.50800 29.03900
C  26.71000 51.33500 30.49400
C  28.19200 51.06800 30.24200
C  28.18600 50.74500 28.65300
C  29.16000 52.20600 30.72200
C  25.89700 50.26900 31.24900
C  25.36100 50.61200 32.61600
H  26.43200 51.05700 33.63900
N  28.58700 50.17900 25.68400
C  29.51900 50.01100 26.64100
C  30.64600 49.41300 26.03500
C  30.39700 48.97800 24.70900
C  29.12500 49.66200 24.49200
C  31.84500 49.12800 26.88500
C  31.21200 48.14500 23.74300
O  30.88900 47.91200 22.58400
C  32.48700 47.48100 24.18100
N  26.36400 50.97300 23.81600
C  27.15700 50.32300 22.93300
C  26.44700 50.30100 21.52300
C  25.15600 51.18500 21.79800
C  25.21700 51.47700 23.23400
C  27.39800 50.72800 20.37500
C  23.74300 50.45400 21.44400
C  22.56900 51.34100 20.97900
N  25.00000 51.91300 26.18200
C  24.04300 52.36700 25.28500
C  23.00600 53.08100 25.92700
C  23.29200 52.99100 27.28400
C  24.51200 52.29300 27.37600
C  21.91300 53.80600 25.28500
C  22.84700 53.31700 28.55200
O  21.81300 53.93400 28.86700
C  23.92400 52.78800 29.55800
C  24.43400 53.82500 30.54300
O  25.23600 54.72000 30.30100
O  23.93500 53.59400 31.80400
C  24.32300 54.57900 32.85700
H  30.03800 50.08200 28.77200
H  28.96100 49.25200 22.46900
H  23.47100 52.67400 23.26500
H  26.52600 52.25600 31.04700
H  28.38500 50.11700 30.73700
H  28.77500 53.21800 30.59500
H  30.04500 52.14400 30.08800
H  29.49700 52.12900 31.75500
H  26.53100 49.38900 31.36200
H  25.08500 49.91400 30.61400
H  24.91200 49.67400 32.94400
H  24.52300 51.30700 32.67400
H  31.89500 49.75100 27.77700
H  32.78000 49.40700 26.39900
H  31.88600 48.10000 27.24600
H  33.02900 48.31800 24.62200
H  32.98400 47.06800 23.30400
H  32.30200 46.64000 24.84800
H  26.10400 49.31700 21.20300
H  25.22100 52.12600 21.25000
H  28.32200 51.06400 20.84500
H  26.90600 51.48200 19.76000
H  27.62300 49.89800 19.70600
H  23.36400 49.93700 22.32600
H  23.88800 49.74300 20.63100
H  22.15600 50.93200 20.05700
H  22.77200 52.41200 20.98900
H  21.64400 51.30900 21.55400
H  21.39700 53.24500 24.50700
H  22.30800 54.74000 24.88500
H  21.15100 53.96600 26.04900
H  23.34900 52.12900 30.20900
H  24.24700 55.60800 32.50600
H  25.31500 54.33200 33.23400
H  23.63500 54.52600 33.70000
Mg 0.36700 43.54100 25.89600
C  2.20900 43.43600 28.92700
C  -2.45900 42.78000 27.73800
C  -1.10100 42.80400 23.05500
C  3.36700 44.07100 24.29900
N  -0.10900 43.21200 28.13000
C  0.82000 43.31700 29.19000
C  0.06100 43.32900 30.54600
C  -1.44100 42.99200 30.10800
C  -1.40000 43.13000 28.53600
C  -1.76000 41.53800 30.45600
C  0.23500 44.71400 31.31700
C  0.93400 44.62700 32.66900
H  0.48800 43.45000 33.55200
N  -1.56200 42.98100 25.44900
C  -2.58500 42.70200 26.32900
C  -3.74400 42.51000 25.61000
C  -3.43100 42.44000 24.19100
C  -1.98800 42.75400 24.15300
C  -5.15800 42.37500 26.27700
C  -4.23500 42.05800 22.96800
O  -3.75800 41.94900 21.84000
C  -5.71000 41.83400 23.10900
N  1.12100 43.40700 23.93600
C  0.30900 43.07600 22.94100
C  1.03400 43.23600 21.61100
C  2.38400 43.95500 22.00600
C  2.31000 43.72300 23.48500
C  1.19500 41.99200 20.86500
C  2.39400 45.46100 21.70900
C  3.81000 46.11300 21.83100
N  2.38200 43.59100 26.40800
C  3.50000 43.92200 25.64100
C  4.68900 44.21100 26.49800
C  4.25600 43.88300 27.80600
C  2.82600 43.60600 27.68100
C  6.15400 44.62800 26.10900
C  4.71000 43.81500 29.15800
O  5.86100 43.93900 29.56800
C  3.36700 43.54100 30.00400
C  3.59300 42.39400 30.89200
O  3.31400 41.22900 30.63500
O  4.25500 42.81800 32.03200
C  4.53400 41.84800 33.14000
H  -3.42300 42.62700 28.22700
H  -1.44100 42.53800 22.05200
H  4.29100 44.34500 23.78400
H  0.50800 42.47200 31.05000
H  -2.15200 43.69600 30.54100
H  -0.86300 40.96400 30.68900
H  -2.35400 40.96900 29.74100
H  -2.24600 41.68600 31.42100
H  -0.75200 45.15400 31.45900
H  0.79000 45.42200 30.70200
H  0.53900 45.57800 33.02700
H  2.00500 44.70800 32.48300
H  -5.57200 43.33200 26.59600
H  -5.15400 41.75700 27.17400
H  -5.81900 41.95800 25.51700
H  -6.07000 42.79400 23.47900
H  -6.00500 40.98600 23.72700
H  -6.22700 41.70800 22.15700
H  0.51600 43.91000 20.92800
H  3.32900 43.48400 21.73400
H  2.06700 41.92400 20.21500
H  0.31500 41.99900 20.22200
H  1.19500 41.16000 21.56800
H  1.72700 46.03000 22.35700
H  2.05600 45.49400 20.67300
H  4.67100 45.47100 22.01600
H  3.75900 46.95100 22.52700
H  3.97400 46.54900 20.84500
H  6.09900 45.30200 25.25300
H  6.86300 43.83600 25.86800
H  6.51200 45.14900 26.99700
H  3.14000 44.43400 30.58600
H  5.57700 42.01600 33.40700
H  4.34200 40.80000 32.90800
H  3.90600 42.16800 33.97100

