158

Mg -2.44800 17.24600 27.43700
C  -2.65700 15.14800 30.14700
C  -3.14000 19.94900 29.47400
C  -2.13000 19.28300 24.80000
C  -2.32800 14.56800 25.25000
N  -2.91200 17.47600 29.54300
C  -2.85200 16.48900 30.47800
C  -3.21900 17.02400 31.87900
C  -3.30300 18.54400 31.62800
C  -3.17700 18.69500 30.11600
C  -4.51200 19.14800 32.33000
C  -2.25200 16.47500 33.03800
C  -2.02600 17.41700 34.18400
H  -1.39300 16.77000 35.41900
N  -2.62300 19.27800 27.12900
C  -2.90200 20.24700 28.07300
C  -2.83300 21.60300 27.47200
C  -2.28800 21.35900 26.20000
C  -2.29400 19.91100 26.01900
C  -2.95000 22.84900 28.23900
C  -1.66000 22.38800 25.25600
O  -1.05000 21.93300 24.33700
C  -1.63600 23.89000 25.64100
N  -2.40700 16.93100 25.33500
C  -2.18300 17.95800 24.45100
C  -2.08500 17.51300 22.99400
C  -1.88000 15.98100 23.16700
C  -2.14300 15.80400 24.68800
C  -3.28200 17.84600 21.96600
C  -0.46300 15.46900 22.59400
C  0.82200 16.12700 23.15000
N  -2.36900 15.28400 27.63200
C  -2.36700 14.31300 26.61200
C  -2.51600 13.08700 27.28000
C  -2.59500 13.32600 28.65300
C  -2.52400 14.67500 28.84400
C  -2.63600 11.81700 26.50500
C  -2.60400 12.56900 29.85700
O  -2.49000 11.32300 30.12700
C  -2.66900 13.79700 30.96200
C  -1.39600 13.71000 31.74900
O  -0.34700 14.32200 31.54800
O  -1.57900 12.97500 32.91600
C  -0.62900 13.12600 33.92800
H  -3.24100 20.83900 30.09800
H  -1.90400 19.76700 23.84800
H  -2.36200 13.60500 24.73500
H  -4.18200 16.62800 32.19900
H  -2.45200 19.02400 32.11100
H  -4.23500 19.97000 32.99000
H  -5.21700 18.50000 32.85000
H  -5.06700 19.54300 31.47900
H  -1.26900 16.40000 32.57200
H  -2.52300 15.55600 33.55700
H  -3.03700 17.74500 34.42800
H  -1.36100 18.20700 33.83700
H  -2.07700 23.47900 28.41200
H  -3.40900 22.60000 29.19600
H  -3.66000 23.40300 27.62500
H  -0.99400 24.07600 26.50200
H  -2.70900 24.03200 25.77500
H  -1.17900 24.39600 24.79100
H  -1.19500 17.94100 22.53400
H  -2.67200 15.36100 22.74700
H  -4.22900 18.20600 22.36900
H  -3.53200 16.88700 21.51000
H  -2.89600 18.55500 21.23400
H  -0.48600 15.82200 21.56300
H  -0.33100 14.39000 22.52100
H  1.53400 15.37300 23.48400
H  0.52600 16.71400 24.01900
H  1.41700 16.74300 22.47600
H  -1.95000 11.71900 25.66300
H  -3.54600 11.70200 25.91800
H  -2.54300 10.95100 27.16000
H  -3.59100 13.65300 31.52500
H  -0.07000 12.19200 33.99000
H  -1.06600 13.42200 34.88100
H  0.07900 13.94600 33.80600
Mg 44.33700 4.74100 46.40500
C  42.31300 7.73300 46.02300
C  41.38700 3.00000 45.73200
C  46.27000 2.22100 45.99400
C  47.15200 6.90200 46.59500
N  42.07500 5.36400 45.95800
C  41.53200 6.57400 45.89600
C  40.01200 6.45700 45.69900
C  39.70700 4.90400 45.78500
C  41.13000 4.39100 45.81400
C  38.86600 4.39400 47.04200
C  39.54500 7.25300 44.48400
C  40.48400 7.07900 43.23800
H  39.79700 7.14400 41.78600
N  43.87300 2.87100 45.97000
C  42.62000 2.36800 45.72400
C  42.82700 0.94700 45.38400
C  44.18900 0.58700 45.47000
C  44.88600 1.87600 45.87600
C  41.75000 -0.00500 44.91400
C  44.83600 -0.79000 45.07400
O  44.15800 -1.73200 44.78600
C  46.24500 -1.01600 44.85600
N  46.41300 4.56500 46.40800
C  47.01300 3.38000 46.09200
C  48.56000 3.44400 46.19100
C  48.79400 4.98300 46.38400
C  47.37900 5.56000 46.45500
C  49.19700 2.60000 47.33100
C  49.73400 5.59800 45.32400
C  51.21500 5.46200 45.72400
N  44.72200 6.83400 46.36100
C  45.90000 7.54900 46.53900
C  45.66100 8.96600 46.59400
C  44.23800 9.05600 46.52600
C  43.71000 7.70300 46.30700
C  46.70200 10.16700 46.60000
C  43.17900 9.97700 46.49300
O  43.15900 11.19800 46.54100
C  41.90400 9.20700 46.08300
C  40.83000 9.49000 47.03900
O  40.65700 8.85800 48.09200
O  39.88700 10.32200 46.54000
C  38.58200 10.49200 47.18300
H  40.50600 2.38500 45.53700
H  46.98000 1.39300 45.92900
H  47.94400 7.63500 46.76200
H  39.55800 6.91500 46.57700
H  39.43900 4.52000 44.80100
H  39.58200 3.84700 47.65400
H  38.06800 3.76500 46.64700
H  38.39800 5.21100 47.59100
H  39.34300 8.25800 44.85500
H  38.55700 6.83700 44.28800
H  40.91700 6.08200 43.31700
H  41.21900 7.88400 43.25100
H  40.76400 0.38000 45.17500
H  41.88000 -0.87000 45.56400
H  41.84500 -0.24200 43.85400
H  46.68000 -0.99800 45.85500
H  46.66200 -0.19800 44.26900
H  46.43300 -1.94100 44.31100
H  48.88100 3.23400 45.17100
H  49.26300 5.04500 47.36600
H  48.51100 1.98100 47.90800
H  49.68800 3.12400 48.15100
H  49.88900 1.89200 46.87500
H  49.47100 6.65500 45.31100
H  49.57000 5.25800 44.30100
H  51.37800 4.96000 46.67800
H  51.57400 6.49100 45.71200
H  51.74000 4.83800 45.00100
H  46.41800 10.87900 47.37500
H  46.62100 10.50000 45.56500
H  47.68800 9.83300 46.92100
H  41.60300 9.57500 45.10200
H  37.96000 9.61300 47.35500
H  38.01100 11.15300 46.53100
H  38.69900 10.99300 48.14300

