158

Mg 42.70000 41.35100 26.22100
C  41.92200 43.92200 28.55100
C  43.62800 39.38300 28.66300
C  43.78200 39.25500 23.77600
C  41.99500 43.77700 23.68000
N  42.57500 41.59200 28.37000
C  42.26900 42.68400 29.12200
C  42.21800 42.26600 30.61700
C  43.01700 40.92100 30.58900
C  43.11900 40.60700 29.11100
C  44.41000 40.94500 31.32100
C  40.76900 42.27400 31.26700
C  40.58800 43.18100 32.45400
H  40.19200 42.59900 33.78600
N  43.35500 39.58500 26.20000
C  43.73700 38.91700 27.34900
C  44.36400 37.59600 26.96100
C  44.02400 37.42800 25.59100
C  43.70300 38.79000 25.09000
C  44.96800 36.68400 28.06300
C  43.98800 36.24600 24.72000
O  43.37500 36.35300 23.66600
C  44.47900 34.91500 25.14900
N  42.95100 41.52900 24.00800
C  43.44600 40.53100 23.29300
C  43.32000 40.73300 21.73800
C  42.63600 42.13300 21.72600
C  42.46500 42.49300 23.21300
C  44.70500 40.57000 20.92900
C  41.20200 42.13500 21.13600
C  40.67100 43.32900 20.31000
N  42.00000 43.40000 26.11900
C  41.73200 44.19000 25.02200
C  41.11100 45.41300 25.48400
C  41.17200 45.36500 26.83100
C  41.74200 44.16300 27.17000
C  40.67000 46.55600 24.51700
C  40.87500 46.14300 28.05600
O  40.25200 47.15500 28.17300
C  41.32200 45.22200 29.25400
C  42.38600 45.77700 30.11800
O  43.59800 45.59300 29.96700
O  41.83400 46.60800 31.06200
C  42.80800 47.26000 31.83800
H  43.94000 38.71000 29.46500
H  44.08900 38.66400 22.91100
H  41.72000 44.56800 22.98000
H  42.87200 43.03800 31.02300
H  42.41200 40.19900 31.13600
H  44.44300 40.09400 32.00100
H  44.48400 41.85600 31.91500
H  45.22200 40.98800 30.59400
H  40.58600 41.24600 31.58000
H  39.97800 42.48500 30.54800
H  39.75700 43.78400 32.08900
H  41.33800 43.96100 32.58400
H  45.30300 37.25900 28.92600
H  45.86000 36.20900 27.65600
H  44.25500 35.92500 28.38400
H  45.54800 35.04700 25.31500
H  44.44000 34.15500 24.36900
H  44.05100 34.60600 26.10300
H  42.54300 40.05400 21.38900
H  43.05800 42.94200 21.12900
H  45.27400 39.72700 21.32200
H  45.28200 41.47700 20.75000
H  44.43900 40.21800 19.93300
H  40.53500 42.08000 21.99700
H  40.93700 41.36500 20.41200
H  40.24000 44.07400 20.98000
H  39.93600 42.85200 19.66000
H  41.48400 43.81700 19.77300
H  40.14200 46.24900 23.61400
H  41.55900 47.16500 24.34800
H  39.97400 47.20100 25.05200
H  40.46100 44.99600 29.88300
H  43.54500 47.77200 31.22000
H  43.33500 46.60900 32.53500
H  42.33700 48.06500 32.40200
Mg -1.89100 33.88700 27.13800
C  -3.73000 31.90900 29.32600
C  -0.42700 35.52100 29.71800
C  -0.60100 36.22300 24.90100
C  -3.71400 32.55000 24.53500
N  -2.37900 33.98400 29.24300
C  -3.00300 32.95300 29.93400
C  -2.64800 33.01100 31.38600
C  -1.74700 34.29400 31.51400
C  -1.50800 34.69700 30.04800
C  -2.38800 35.36300 32.40700
C  -2.00100 31.67300 31.91200
C  -2.82800 31.00300 33.00700
H  -2.08300 30.83800 34.32400
N  -0.57200 35.55300 27.29800
C  -0.02700 36.06400 28.49900
C  0.97800 37.01200 28.14300
C  0.94000 37.26900 26.68200
C  -0.09800 36.31000 26.20500
C  1.70600 37.72200 29.19800
C  1.74100 38.18300 25.82700
O  1.46100 38.34900 24.65900
C  2.82600 39.02200 26.40700
N  -2.17200 34.32600 24.98600
C  -1.51300 35.29500 24.33200
C  -1.86500 35.24400 22.84200
C  -2.70600 33.99700 22.65800
C  -2.87600 33.56600 24.13600
C  -2.45100 36.58600 22.20100
C  -1.99300 32.91900 21.84400
C  -0.91800 32.07600 22.52000
N  -3.43600 32.51200 26.91500
C  -3.94400 31.95300 25.78200
C  -4.74300 30.76600 26.15400
C  -4.68600 30.72500 27.50800
C  -3.90900 31.79200 27.91600
C  -5.53800 29.88400 25.25700
C  -5.17300 29.97600 28.63400
O  -5.94800 28.99700 28.69300
C  -4.51600 30.71400 29.91300
C  -5.55300 31.06500 30.94900
O  -6.30600 32.02200 30.92700
O  -5.69300 30.06100 31.90700
C  -6.84400 29.98800 32.77000
H  0.20700 35.82100 30.55500
H  -0.30200 36.96500 24.15800
H  -4.27800 32.10300 23.71400
H  -3.58500 33.13900 31.92800
H  -0.72300 34.06900 31.81300
H  -3.11700 35.86200 31.76800
H  -1.65800 36.12600 32.67900
H  -2.87800 35.03000 33.32200
H  -1.04300 31.99300 32.32300
H  -1.66000 31.06200 31.07700
H  -3.00800 29.98500 32.66300
H  -3.73600 31.52400 33.31100
H  1.37600 38.75900 29.25300
H  2.76400 37.70500 28.93300
H  1.54100 37.37300 30.21700
H  2.54800 39.74000 27.17800
H  3.24300 39.67900 25.64400
H  3.52500 38.33300 26.88300
H  -0.91600 35.18200 22.30900
H  -3.68500 34.24300 22.24600
H  -2.44700 37.37500 22.95300
H  -3.50800 36.52800 21.94100
H  -1.80000 36.74700 21.34200
H  -1.49100 33.38000 20.99300
H  -2.78200 32.29200 21.43000
H  0.08100 32.35700 22.18500
H  -1.19900 31.04500 22.30500
H  -0.92200 32.25800 23.59500
H  -5.12800 28.87600 25.32200
H  -5.56200 30.27100 24.23800
H  -6.59700 29.72500 25.46100
H  -3.79200 30.02600 30.34800
H  -6.78500 29.03000 33.28800
H  -7.79600 30.07600 32.24800
H  -6.86300 30.81600 33.47800

