158

Mg -0.70100 7.15700 26.72200
C  0.39100 9.23700 29.36100
C  -1.06700 4.66800 29.12500
C  -1.24300 5.07000 24.19900
C  0.22100 9.73700 24.39800
N  -0.36100 7.02500 28.98700
C  -0.03600 8.04700 29.87000
C  -0.30400 7.68900 31.29700
C  -0.37200 6.07800 31.16700
C  -0.60400 5.89300 29.72200
C  1.00400 5.50900 31.79800
C  -1.54900 8.45200 31.91100
C  -1.72200 8.66700 33.48500
H  -0.73400 8.25300 34.48900
N  -1.15300 5.15200 26.71500
C  -1.32400 4.30500 27.73600
C  -1.75900 3.04000 27.26200
C  -1.77300 3.07700 25.85800
C  -1.39000 4.45900 25.50500
C  -1.96900 1.81200 28.12600
C  -2.19400 2.01900 24.79300
O  -2.05300 2.14500 23.58100
C  -2.82000 0.73100 25.26000
N  -0.59600 7.37900 24.56700
C  -0.93800 6.37900 23.75600
C  -0.95200 6.84100 22.30800
C  -0.63900 8.38900 22.45100
C  -0.32000 8.55300 23.90500
C  0.05900 6.03600 21.36400
C  -1.68600 9.41500 21.98800
C  -1.24700 10.50600 20.95400
N  0.27300 9.05200 26.76900
C  0.59700 9.90800 25.74800
C  1.18600 11.12700 26.30100
C  1.05800 10.94100 27.71200
C  0.55900 9.58500 27.96800
C  1.63400 12.35600 25.61700
C  1.28700 11.53800 29.03100
O  1.72200 12.64200 29.25700
C  0.78900 10.50200 30.11800
C  1.80900 10.44900 31.21400
O  2.57600 9.50200 31.31700
O  1.77500 11.52000 31.99200
C  2.46900 11.40200 33.29200
H  -1.28400 3.86700 29.83500
H  -1.31600 4.35800 23.37500
H  0.49500 10.39800 23.57300
H  0.47600 8.07600 31.95200
H  -1.12100 5.53600 31.74300
H  0.68400 4.84700 32.60200
H  1.63500 6.29200 32.21900
H  1.55700 5.04300 30.98300
H  -2.40600 7.84200 31.62600
H  -1.73700 9.44100 31.49400
H  -2.62300 8.14500 33.80700
H  -1.99500 9.70500 33.67700
H  -1.92300 2.10300 29.17500
H  -1.23900 1.01400 27.98900
H  -2.97200 1.47200 27.87000
H  -3.14000 0.11700 24.41900
H  -3.75300 0.98600 25.76200
H  -2.13100 0.17600 25.89700
H  -1.98300 6.74300 21.96800
H  0.29100 8.48600 21.89000
H  0.62300 5.39000 22.03800
H  0.78000 6.64200 20.81600
H  -0.55900 5.46500 20.67100
H  -2.18700 9.91000 22.82000
H  -2.48800 8.82900 21.54000
H  -1.74600 10.47500 19.98600
H  -0.16100 10.55200 20.87700
H  -1.58800 11.43400 21.41300
H  0.99100 12.70700 24.80900
H  2.60700 12.05600 25.22900
H  1.75400 13.05800 26.44100
H  0.00600 10.88700 30.77100
H  2.38800 10.41500 33.74900
H  1.96200 12.01200 34.03900
H  3.48100 11.78100 33.15000
Mg 35.94500 49.47800 25.17100
C  36.39200 47.78400 28.30900
C  34.15600 51.79400 26.86600
C  35.20400 50.73600 22.22000
C  37.39400 46.72000 23.58500
N  35.24400 49.66900 27.31300
C  35.73700 48.98600 28.42200
C  35.42100 49.71700 29.70500
C  34.59200 50.97400 29.23600
C  34.67200 50.82000 27.72300
C  33.08600 50.98000 29.83500
C  36.73000 50.10200 30.39900
C  36.80400 49.84600 31.90600
H  35.52300 49.95400 32.78400
N  34.77100 50.96400 24.60700
C  34.11400 51.92400 25.48200
C  33.40300 52.88300 24.73400
C  33.67700 52.57100 23.35700
C  34.60500 51.40200 23.33900
C  32.35800 53.75200 25.32000
C  33.08400 53.14700 22.07600
O  33.43000 52.74000 20.94500
C  32.25000 54.42900 22.09600
N  36.14600 48.72100 23.18300
C  35.91500 49.48800 22.18000
C  36.38500 48.94500 20.82300
C  37.34500 47.78000 21.27000
C  36.89900 47.69300 22.74600
C  35.11800 48.50400 19.98700
C  38.81100 48.10700 20.96500
C  39.61300 47.07100 20.15000
N  36.61200 47.57900 25.74500
C  37.21900 46.60400 24.93500
C  37.70400 45.52800 25.78400
C  37.34500 45.92900 27.12500
C  36.72400 47.23400 27.02300
C  38.32000 44.24100 25.30700
C  37.50700 45.58400 28.52300
O  37.97900 44.61400 29.07600
C  36.87900 46.76000 29.29300
C  35.74200 46.19000 30.18000
O  34.62800 45.92100 29.82400
O  36.17900 46.07500 31.46500
C  35.06300 45.82400 32.39000
H  33.79700 52.63100 27.46900
H  35.01500 51.11800 21.21500
H  37.92200 45.87300 23.14300
H  34.74400 49.09200 30.28700
H  35.00900 51.95800 29.44600
H  32.43600 50.25100 29.35200
H  32.64200 51.97400 29.79000
H  33.12700 50.65000 30.87300
H  37.00400 51.15500 30.34100
H  37.58200 49.54700 30.00700
H  37.43900 50.66000 32.25700
H  37.22700 48.87700 32.17000
H  32.33800 54.73500 24.85100
H  32.59000 53.91300 26.37300
H  31.38100 53.30800 25.13000
H  32.71100 55.21100 22.70000
H  31.23700 54.19500 22.42400
H  32.14000 54.81200 21.08200
H  36.90900 49.62500 20.15200
H  37.09400 46.85800 20.74600
H  34.20600 48.63300 20.57000
H  35.15500 47.48600 19.59800
H  35.12600 49.02900 19.03300
H  39.35900 48.22900 21.90000
H  38.84200 49.12800 20.58300
H  39.06600 46.12800 20.17300
H  40.63600 46.95800 20.50800
H  39.57100 47.41200 19.11600
H  38.67600 44.31300 24.27900
H  37.55000 43.47200 25.35800
H  39.12200 43.95600 25.98800
H  37.55900 47.27300 29.97300
H  34.47300 44.94800 32.12100
H  34.27100 46.56000 32.25200
H  35.27200 45.63200 33.44300

