158

Mg 17.36200 -0.47700 27.79400
C  15.90300 1.19900 30.55600
C  19.39300 -2.14900 30.03400
C  18.73700 -2.07900 25.21800
C  15.50700 1.68800 25.73100
N  17.47800 -0.55600 30.00500
C  16.87200 0.20300 30.89600
C  17.41800 0.12700 32.30100
C  18.63900 -0.80600 32.10600
C  18.54100 -1.21900 30.63200
C  19.97700 -0.02600 32.35500
C  16.37500 -0.55200 33.27400
C  16.10800 -0.06500 34.73500
H  17.32100 0.38900 35.47500
N  18.81400 -1.97200 27.69800
C  19.47100 -2.58600 28.68300
C  20.42300 -3.62000 28.15900
C  20.15100 -3.66300 26.77100
C  19.14400 -2.60600 26.50100
C  21.33000 -4.48100 28.95500
C  20.46400 -4.70400 25.68700
O  20.07700 -4.59000 24.53000
C  21.14700 -6.02700 26.11800
N  17.29300 -0.11800 25.84000
C  17.97500 -0.87000 24.94300
C  17.82400 -0.25300 23.53500
C  16.72500 0.84600 23.80400
C  16.47000 0.86400 25.27100
C  19.21700 0.31700 23.27900
C  15.39300 0.61300 22.94700
C  14.91500 1.75900 22.09700
N  15.84100 1.10600 28.01600
C  15.20700 1.90800 27.11100
C  14.38200 2.88400 27.82300
C  14.66400 2.63900 29.14900
C  15.49900 1.56600 29.23500
C  13.65200 4.07100 27.11800
C  14.33000 3.13400 30.46200
O  13.56900 4.04400 30.79000
C  15.18100 2.21800 31.40800
C  15.95700 3.11600 32.34400
O  16.91400 3.79300 31.99100
O  15.38600 3.13200 33.55600
C  15.80800 4.08700 34.55300
H  20.12700 -2.62900 30.68600
H  18.90100 -2.51900 24.23200
H  15.03200 2.29100 24.95500
H  17.58500 1.14800 32.64400
H  18.61800 -1.68000 32.75700
H  20.59600 0.12500 31.47100
H  20.54000 -0.70800 32.99200
H  19.73700 0.94100 32.79900
H  16.37600 -1.62700 33.45000
H  15.41700 -0.45400 32.76400
H  15.76200 -0.93900 35.28700
H  15.42600 0.78600 34.73000
H  22.35700 -4.59500 28.60900
H  20.88400 -5.47300 29.02400
H  21.36200 -4.10100 29.97600
H  21.09200 -6.76000 25.31400
H  20.71800 -6.43600 27.03300
H  22.19300 -5.83600 26.35800
H  17.66000 -1.13800 22.92000
H  16.99600 1.87000 23.54800
H  19.13200 1.29600 22.80700
H  19.80400 -0.33100 22.62700
H  19.83400 0.51300 24.15600
H  14.56500 0.40500 23.62400
H  15.52900 -0.18400 22.21600
H  14.13500 2.19600 22.72000
H  14.36400 1.56400 21.17700
H  15.75900 2.40100 21.84500
H  13.32700 3.81600 26.10900
H  14.12900 5.04900 27.16900
H  12.68300 4.03000 27.61600
H  14.43700 1.75100 32.05300
H  14.98400 4.13800 35.26500
H  16.06000 5.06600 34.14700
H  16.65800 3.83200 35.18500
Mg 48.87200 34.63700 26.67700
C  46.63300 33.29600 29.07700
C  49.36900 37.32800 28.73200
C  50.41700 36.21400 24.09000
C  47.93800 32.02200 24.49600
N  48.12400 35.24900 28.71500
C  47.25100 34.52800 29.51500
C  47.27400 35.07600 31.00300
C  47.84000 36.53900 30.67800
C  48.54700 36.38800 29.35800
C  46.85700 37.81700 30.71200
C  48.40800 34.24800 31.84200
C  48.11700 33.94000 33.30700
H  47.05000 34.81700 34.00900
N  49.84000 36.49200 26.43400
C  49.89900 37.44900 27.39100
C  50.62400 38.53800 26.90000
C  51.01000 38.21800 25.57400
C  50.39900 36.92700 25.34300
C  50.76800 39.86100 27.62500
C  51.79100 39.03100 24.54000
O  52.21800 38.60100 23.46100
C  52.14600 40.42700 24.81200
N  49.12000 34.16600 24.64400
C  49.86500 34.97300 23.78300
C  49.69500 34.46600 22.34300
C  49.24700 32.94600 22.49500
C  48.85600 32.98200 24.01900
C  48.81600 35.35700 21.49100
C  50.37200 31.92800 22.24600
C  49.93200 30.87800 21.18700
N  47.68500 32.95300 26.76400
C  47.32300 31.98500 25.77700
C  46.33300 31.07700 26.24600
C  46.02200 31.60200 27.54900
C  46.92600 32.71500 27.78300
C  45.67900 29.87500 25.60600
C  45.16600 31.38000 28.68600
O  44.22800 30.52400 28.84000
C  45.51800 32.43500 29.76100
C  45.91100 31.89300 31.08600
O  46.94000 31.24900 31.33000
O  44.84600 31.94500 31.94700
C  44.86600 31.29400 33.29100
H  49.40500 38.20100 29.38700
H  50.96200 36.61300 23.23200
H  47.59300 31.24300 23.81400
H  46.32600 35.01900 31.53600
H  48.61400 36.80800 31.39700
H  47.39600 38.61900 31.21700
H  45.95200 37.50000 31.23100
H  46.62800 38.04000 29.67000
H  49.42400 34.64500 31.82100
H  48.40200 33.27800 31.34500
H  49.09500 34.15300 33.73900
H  47.88600 32.87600 33.35000
H  51.84100 40.05000 27.66300
H  50.49700 39.74500 28.67400
H  50.25800 40.66000 27.08700
H  52.28300 40.83200 23.81000
H  53.09000 40.56000 25.34000
H  51.30200 40.94300 25.27100
H  50.72800 34.57400 22.01100
H  48.33100 32.78400 21.92800
H  49.21000 36.37200 21.44200
H  47.86300 35.55900 21.98000
H  48.73000 34.95500 20.48100
H  50.51100 31.29800 23.12500
H  51.29000 32.45400 21.98300
H  50.50400 31.13500 20.29600
H  48.89200 31.05400 20.91100
H  50.08000 29.87500 21.58600
H  44.75600 30.19100 25.11900
H  45.37600 29.32700 26.49800
H  46.30000 29.30600 24.91400
H  44.61600 33.04400 29.81700
H  45.00100 30.21300 33.26100
H  43.99400 31.54100 33.89700
H  45.76300 31.77800 33.67800

