158

Mg 0.20700 7.79300 26.34700
C  1.24500 9.51600 29.16700
C  0.13100 4.87900 28.03100
C  -0.16000 6.16800 23.40800
C  0.31000 10.85500 24.55300
N  0.73100 7.27800 28.32700
C  1.05200 8.13400 29.39800
C  0.99400 7.37600 30.66500
C  0.79200 5.83200 30.26800
C  0.47300 5.98800 28.77700
C  2.07600 4.96700 30.51500
C  -0.15900 7.99800 31.52900
C  0.19100 8.38600 32.98400
H  1.27200 7.58400 33.80500
N  0.08300 5.75700 25.79800
C  0.01100 4.74700 26.61700
C  -0.24200 3.51000 25.94100
C  -0.18300 3.84600 24.60000
C  -0.18100 5.31200 24.52500
C  -0.45100 2.19900 26.65800
C  -0.34900 2.94300 23.32600
O  -0.38700 3.36800 22.15400
C  -0.38600 1.50900 23.45600
N  0.02900 8.43300 24.37000
C  -0.08600 7.52000 23.35800
C  -0.12000 8.14800 22.03600
C  -0.36900 9.68400 22.38300
C  0.04100 9.67600 23.84800
C  1.09100 7.92300 21.08700
C  -1.82400 10.22400 22.18700
C  -2.03000 11.48100 21.28000
N  0.60300 9.83100 26.81600
C  0.70500 10.90000 25.88200
C  1.19100 12.06400 26.64100
C  1.50100 11.62100 27.94300
C  1.03500 10.22600 27.95300
C  1.57600 13.43300 26.03700
C  2.00400 11.94200 29.27000
O  2.47800 13.03400 29.69600
C  1.67000 10.61600 30.09100
C  2.78000 10.21800 30.97100
O  3.84700 9.69900 30.62900
O  2.54100 10.74000 32.25100
C  3.68500 10.78000 33.13600
H  -0.09100 4.01700 28.66300
H  -0.33100 5.55600 22.52000
H  0.25000 11.74900 23.92900
H  1.95100 7.42000 31.18400
H  -0.05500 5.35500 30.76100
H  2.75300 5.43700 31.22800
H  2.58900 4.73800 29.58100
H  1.63300 4.08800 30.98300
H  -0.99000 7.29800 31.44700
H  -0.42100 8.88300 30.95000
H  -0.74900 8.28800 33.52700
H  0.49100 9.43000 32.89500
H  -0.93500 1.52200 25.95500
H  -1.07000 2.38000 27.53600
H  0.48500 1.81300 27.06200
H  -1.35400 1.27300 23.89900
H  0.45100 1.14200 24.05000
H  -0.47200 1.20500 22.41300
H  -0.97800 7.68300 21.55000
H  0.26600 10.36000 21.81100
H  1.23000 6.87900 20.80800
H  2.00200 8.29300 21.55700
H  0.76500 8.43200 20.18000
H  -2.29800 10.25200 23.16800
H  -2.36100 9.40100 21.71600
H  -2.68100 11.20100 20.45200
H  -1.10500 11.82300 20.81700
H  -2.47900 12.35000 21.76000
H  2.47600 13.88400 26.45600
H  0.77500 14.09500 26.36400
H  1.51900 13.31900 24.95400
H  0.85100 10.87000 30.76400
H  4.67800 10.51500 32.77200
H  3.41000 10.08700 33.93000
H  3.80700 11.78900 33.53000
Mg 49.47000 44.72600 42.93500
C  46.07800 45.44500 41.81100
C  49.03900 41.65700 41.94100
C  52.78000 44.58600 43.10600
C  49.66200 48.27600 43.60100
N  47.78800 43.78000 41.86600
C  46.52500 44.14600 41.53500
C  45.64500 43.05100 40.93800
C  46.59000 41.79000 41.13100
C  47.89100 42.41200 41.70600
C  45.95600 40.73400 42.05300
C  45.32400 43.37600 39.41400
C  44.44100 42.35800 38.63700
H  44.93600 41.71500 37.28400
N  50.71100 43.27300 42.65900
C  50.38100 42.00900 42.30300
C  51.50900 41.21600 42.30300
C  52.65100 42.02500 42.62900
C  52.11600 43.37100 42.80100
C  51.45700 39.79800 41.94500
C  54.03500 41.57600 42.70900
O  54.41400 40.38800 42.52300
C  55.24900 42.54500 43.18100
N  51.05300 46.22300 43.51400
C  52.33100 45.89400 43.43000
C  53.26500 47.09500 43.58200
C  52.24700 48.26200 43.96600
C  50.86900 47.56000 43.66100
C  54.73500 47.04100 44.30300
C  52.31900 49.54800 43.06200
C  51.90800 50.87900 43.63500
N  48.16800 46.49800 42.87200
C  48.38600 47.82300 43.26800
C  47.17800 48.60200 43.11400
C  46.33000 47.70600 42.50000
C  46.90300 46.44300 42.41500
C  47.02900 50.08800 43.48000
C  45.00000 47.59800 41.87500
O  44.19600 48.50300 41.72200
C  44.77700 46.09300 41.54700
C  43.69200 45.58500 42.31300
O  42.69300 45.07500 41.82000
O  43.86200 45.58800 43.65800
C  42.60400 45.20400 44.28800
H  48.91800 40.60200 41.69000
H  53.86100 44.45000 43.02900
H  49.69900 49.32300 43.91000
H  44.70100 42.94200 41.47100
H  46.94600 41.37500 40.18800
H  44.93500 40.98300 42.34000
H  46.56400 40.57900 42.94500
H  46.06900 39.84900 41.42700
H  46.26700 43.45600 38.87300
H  44.81600 44.34000 39.43100
H  43.44800 42.80200 38.56100
H  44.38700 41.48200 39.28400
H  51.09000 39.27500 42.82800
H  52.42800 39.40200 41.64700
H  50.76600 39.46100 41.17300
H  56.05900 41.83400 43.34100
H  55.11000 42.91800 44.19500
H  55.51400 43.26600 42.40700
H  53.65000 47.27200 42.57800
H  52.20300 48.56800 45.01100
H  55.00000 46.08800 44.76100
H  54.84500 47.88600 44.98300
H  55.57900 47.23200 43.64000
H  51.71900 49.43000 42.16000
H  53.33900 49.64900 42.69200
H  52.76500 51.53200 43.46800
H  51.62200 50.88300 44.68700
H  50.97400 51.09500 43.11600
H  47.23500 50.62800 42.55600
H  47.75000 50.30400 44.26900
H  45.99700 50.26200 43.78600
H  44.55900 46.15400 40.48100
H  41.86900 45.80400 43.75100
H  42.54000 45.36300 45.36400
H  42.53300 44.12200 44.18100

