158

Mg -1.66000 17.12400 26.15300
C  -1.95400 14.89600 28.72900
C  -2.10700 19.77200 28.37200
C  -1.50800 19.34800 23.49400
C  -1.63600 14.60100 23.85300
N  -2.01200 17.29700 28.35600
C  -2.07200 16.24500 29.23000
C  -2.50700 16.77800 30.68400
C  -2.16300 18.31300 30.52300
C  -2.09800 18.48500 28.98900
C  -3.21200 19.20900 31.32200
C  -1.64600 16.03600 31.74800
C  -1.26400 16.61400 33.15600
H  -1.22900 15.73600 34.40400
N  -1.84100 19.21000 26.01900
C  -1.96100 20.15500 27.01900
C  -1.96700 21.52500 26.51600
C  -1.96400 21.43800 25.15200
C  -1.82900 19.92800 24.81000
C  -2.19200 22.68900 27.40800
C  -2.01400 22.55300 24.09200
O  -2.09300 22.25300 22.90300
C  -1.91500 23.99000 24.53500
N  -1.67300 17.00500 23.97000
C  -1.53200 18.03000 23.09000
C  -1.10600 17.58400 21.70100
C  -0.93100 15.97600 21.89600
C  -1.46400 15.87000 23.32300
C  -2.02200 18.11200 20.57900
C  0.50200 15.39500 21.68200
C  0.57000 14.28300 20.66500
N  -1.90200 15.15300 26.19400
C  -1.91900 14.24400 25.17900
C  -2.04300 12.93400 25.70700
C  -1.98000 13.12800 27.14700
C  -1.97500 14.52900 27.34200
C  -2.15600 11.68200 24.91700
C  -1.94600 12.43700 28.38800
O  -1.93800 11.26500 28.60800
C  -2.06900 13.51600 29.44300
C  -0.96800 13.33700 30.40600
O  0.17500 13.70000 30.23200
O  -1.46400 12.63500 31.54000
C  -0.55500 12.37300 32.61000
H  -2.18600 20.57200 29.11100
H  -1.46300 20.05600 22.66400
H  -1.33100 13.83400 23.13700
H  -3.54800 16.46200 30.73500
H  -1.19500 18.63000 30.91100
H  -3.81500 19.84600 30.67600
H  -2.67100 19.79600 32.06400
H  -3.90700 18.62300 31.92200
H  -0.66700 15.89100 31.29000
H  -2.19400 15.10900 31.91800
H  -1.90500 17.44300 33.45700
H  -0.25500 17.01300 33.05300
H  -3.01800 23.33600 27.11100
H  -1.25400 23.24100 27.44800
H  -2.54800 22.47500 28.41600
H  -1.02400 24.05900 25.15800
H  -2.86000 24.26800 25.00300
H  -1.78700 24.38200 23.52600
H  -0.17900 18.13500 21.54200
H  -1.64000 15.52700 21.20100
H  -2.80700 18.71500 21.03500
H  -2.32200 17.15000 20.16300
H  -1.57200 18.63000 19.73200
H  0.78100 14.92000 22.62200
H  1.17900 16.19000 21.37100
H  -0.38700 13.91800 20.29200
H  1.05600 13.42000 21.12000
H  1.26200 14.47800 19.84600
H  -1.28600 11.06500 25.14100
H  -2.33600 11.84400 23.85400
H  -3.06100 11.28100 25.37400
H  -3.02700 13.41600 29.95400
H  -1.21200 12.27300 33.47300
H  0.29500 13.05400 32.66600
H  -0.16700 11.37200 32.42300
Mg 46.91300 24.77700 28.70400
C  47.71900 27.19200 31.17800
C  45.76900 22.77500 31.22000
C  46.41700 22.45900 26.51400
C  48.26000 26.87900 26.26500
N  46.76400 24.97300 30.87900
C  47.07800 26.02600 31.69200
C  46.83700 25.81900 33.17500
C  46.32600 24.35800 33.20000
C  46.34500 23.93700 31.69800
C  47.22100 23.26700 33.88600
C  45.69800 26.73700 33.72400
C  45.77200 27.28800 35.14300
H  46.01800 26.40700 36.35900
N  46.13100 22.90800 28.78100
C  45.68100 22.26300 29.90300
C  45.18500 20.94200 29.54200
C  45.32100 20.83100 28.13600
C  45.94000 22.06900 27.72400
C  44.63600 19.87000 30.52100
C  44.79800 19.66100 27.22700
O  45.06400 19.63200 26.06000
C  44.10000 18.51700 27.86000
N  47.47200 24.62700 26.57400
C  47.00600 23.59100 25.88900
C  47.22500 23.78300 24.38500
C  47.55700 25.28300 24.30500
C  47.74300 25.67100 25.83600
C  48.29100 22.80300 23.92200
C  46.54100 26.28500 23.64300
C  45.04800 25.93200 23.60400
N  47.80100 26.63600 28.63000
C  48.30500 27.37900 27.57400
C  48.81600 28.67000 28.08500
C  48.62100 28.62300 29.50100
C  48.02800 27.36000 29.77800
C  49.32600 29.69900 27.23400
C  48.78000 29.38300 30.78800
O  49.25900 30.50000 30.97700
C  48.19600 28.42400 31.90200
C  49.31500 28.22400 32.91800
O  50.38800 27.60000 32.72600
O  48.96200 28.74900 34.10300
C  49.84200 28.59000 35.26600
H  45.43600 22.15400 32.05500
H  46.14700 21.64400 25.83900
H  48.68400 27.61800 25.58200
H  47.68600 26.13900 33.77800
H  45.33800 24.14600 33.61000
H  47.81300 23.87300 34.57200
H  47.76000 22.50200 33.32800
H  46.61500 22.66400 34.56200
H  44.76000 26.18500 33.67900
H  45.59900 27.56700 33.02400
H  44.76400 27.67600 35.29400
H  46.38000 28.18400 35.27500
H  45.06400 18.87000 30.44800
H  43.55900 19.70000 30.52200
H  44.77000 20.14000 31.56800
H  44.80800 17.82300 28.31300
H  43.57300 17.94700 27.09500
H  43.29400 18.69500 28.57200
H  46.37100 23.47300 23.78400
H  48.50200 25.41300 23.77700
H  48.40400 22.06000 24.71100
H  49.22500 23.26000 23.59300
H  47.92500 22.30300 23.02600
H  46.93400 26.46900 22.64300
H  46.67900 27.20300 24.21300
H  44.79100 25.04200 24.17900
H  44.77300 25.68400 22.57900
H  44.39400 26.70200 24.01300
H  49.08100 29.58800 26.17800
H  50.38900 29.70800 27.47700
H  48.94500 30.67700 27.52700
H  47.42000 28.90500 32.49700
H  50.31000 29.54800 35.49300
H  50.59400 27.87400 34.93500
H  49.28100 28.15800 36.09500

