158

Mg 27.35800 49.73400 26.91700
C  25.49000 50.92800 29.62600
C  29.93800 49.16600 29.03600
C  29.57600 49.33900 24.30600
C  25.01600 51.10600 24.81600
N  27.69500 50.15700 29.10200
C  26.71300 50.30200 30.00000
C  27.19900 50.18300 31.40800
C  28.64300 49.61400 31.28000
C  28.76400 49.64100 29.70800
C  29.81600 50.31300 32.06100
C  26.17900 49.46700 32.44200
C  25.80400 50.31700 33.64500
H  26.48300 50.03400 34.93000
N  29.30800 49.05500 26.71900
C  30.19500 48.93100 27.72600
C  31.40500 48.36000 27.26200
C  31.35200 48.38700 25.87000
C  30.03400 48.95600 25.55100
C  32.53300 47.82400 28.01400
C  32.42100 48.05000 24.88400
O  32.32100 48.29800 23.69300
C  33.72400 47.42200 25.28300
N  27.40400 50.26100 24.83000
C  28.33400 49.91600 23.93600
C  27.83500 50.08600 22.50800
C  26.32500 50.27300 22.70600
C  26.19300 50.64800 24.19200
C  28.57500 51.22900 21.78600
C  25.36200 49.20000 22.22000
C  24.02200 49.69200 21.60000
N  25.58500 50.72400 27.08900
C  24.71600 51.21600 26.14600
C  23.55800 51.80800 26.76000
C  23.75300 51.71900 28.17000
C  25.03500 51.05700 28.28400
C  22.42100 52.45300 26.08500
C  23.25400 51.96400 29.54600
O  22.19300 52.42100 29.94400
C  24.36300 51.45300 30.51000
C  24.78700 52.70200 31.23000
O  25.85000 53.29200 31.04300
O  23.88800 53.09900 32.22400
C  24.42300 54.03500 33.15200
H  30.69900 48.81600 29.73700
H  30.27200 49.15200 23.48600
H  24.19100 51.46800 24.20000
H  27.35100 51.17800 31.82500
H  28.71200 48.55200 31.51700
H  30.52500 50.74100 31.35200
H  30.27400 49.52100 32.65400
H  29.47100 51.06600 32.76900
H  26.64500 48.54100 32.78100
H  25.22400 49.17300 32.00600
H  24.76800 50.02600 33.81600
H  26.00200 51.38100 33.51200
H  32.31100 47.57200 29.05100
H  33.40900 48.47000 28.07700
H  32.84600 46.88200 27.56300
H  33.55100 46.42800 25.69600
H  34.17400 48.10600 26.00300
H  34.29500 47.38400 24.35500
H  28.05100 49.16400 21.97000
H  26.07300 51.27100 22.34800
H  28.98200 50.97600 20.80700
H  29.42400 51.61300 22.35100
H  27.94700 52.11400 21.68100
H  24.94500 48.70200 23.09600
H  25.67700 48.26700 21.75100
H  24.23200 49.99900 20.57500
H  23.67000 50.58600 22.11500
H  23.22600 48.95800 21.72300
H  21.86700 51.81800 25.39400
H  22.87800 53.29000 25.55600
H  21.81900 52.77500 26.93400
H  23.92800 50.72300 31.19200
H  24.87000 53.35600 33.87800
H  23.63100 54.66100 33.56300
H  25.19900 54.74600 32.86900
Mg -11.87000 38.43100 41.01500
C  -9.63900 35.76600 40.62500
C  -9.51200 40.45800 39.52500
C  -14.23700 40.78100 40.64800
C  -14.21100 36.03500 42.03500
N  -9.77000 38.13000 40.21700
C  -9.18900 36.96200 39.99500
C  -7.88800 37.15700 39.24900
C  -7.65700 38.76300 39.24300
C  -9.02800 39.18700 39.72700
C  -6.37900 39.28100 40.00300
C  -7.99500 36.58500 37.84700
C  -7.01900 35.37900 37.57000
H  -5.80500 35.80300 36.75000
N  -11.77600 40.40500 40.34300
C  -10.73400 41.05500 39.84000
C  -11.12200 42.46500 39.63500
C  -12.47300 42.57600 40.01100
C  -12.88800 41.23300 40.35500
C  -10.32400 43.54800 39.13700
C  -13.22600 43.89600 39.98200
O  -12.63500 44.94200 39.65400
C  -14.69100 44.03100 40.27900
N  -13.92200 38.41600 41.39000
C  -14.70000 39.54800 41.13600
C  -16.16300 39.26400 41.42900
C  -16.17100 37.70300 41.81900
C  -14.72700 37.29100 41.69300
C  -16.83200 40.20600 42.46300
C  -17.04600 36.82000 40.94200
C  -18.05200 35.92900 41.72500
N  -11.91000 36.38100 41.42700
C  -12.88000 35.54000 41.89400
C  -12.34600 34.19400 42.20500
C  -11.09800 34.26100 41.67500
C  -10.85400 35.59100 41.24600
C  -13.10600 33.08800 42.81100
C  -9.90600 33.49700 41.43600
O  -9.78600 32.34500 41.79200
C  -8.95600 34.39400 40.60500
C  -7.56200 34.18700 41.22800
O  -6.91300 33.16500 41.18300
O  -7.17300 35.29900 42.07500
C  -5.89600 35.29900 42.82400
H  -8.78300 41.12200 39.05500
H  -15.05400 41.46600 40.41100
H  -14.97200 35.28300 42.25200
H  -7.02500 36.71600 39.74700
H  -7.41900 39.11100 38.23800
H  -6.73000 40.12200 40.60200
H  -5.63700 39.71100 39.33000
H  -5.94400 38.46400 40.57900
H  -7.69500 37.37800 37.16200
H  -9.05400 36.33800 37.77200
H  -7.50900 34.65800 36.91600
H  -6.61200 34.95200 38.48700
H  -10.71600 44.03900 38.24600
H  -9.32900 43.18200 38.88600
H  -9.99500 44.27200 39.88300
H  -14.97600 45.07500 40.41100
H  -14.80200 43.49800 41.22300
H  -15.29200 43.67400 39.44300
H  -16.63000 39.33200 40.44600
H  -16.44800 37.63500 42.87100
H  -17.44100 40.99900 42.03000
H  -16.07700 40.56100 43.16500
H  -17.54500 39.60500 43.02800
H  -16.46700 36.17100 40.28600
H  -17.62700 37.51200 40.33200
H  -17.76800 35.95500 42.77700
H  -18.05600 34.85100 41.56900
H  -19.00100 36.46600 41.73600
H  -13.72500 32.61100 42.05100
H  -13.85900 33.55000 43.44900
H  -12.46000 32.33200 43.25600
H  -8.89300 33.96300 39.60500
H  -5.14700 36.01200 42.47800
H  -5.40000 34.32900 42.82700
H  -6.15500 35.52200 43.85900

