158

Mg 17.11500 -1.87600 27.70300
C  16.36700 0.41800 30.42500
C  18.92600 -3.67900 29.89800
C  18.31000 -3.48400 25.13300
C  15.64200 0.59200 25.59800
N  17.54300 -1.66400 29.99700
C  17.08000 -0.78600 30.90600
C  17.40100 -1.13900 32.39700
C  18.38000 -2.38600 32.18100
C  18.31900 -2.60300 30.61300
C  19.81500 -2.26100 32.80300
C  16.21000 -1.35900 33.37900
C  16.47100 -1.07500 34.87600
H  17.86200 -0.44200 35.32300
N  18.17500 -3.52500 27.59200
C  18.87000 -4.13000 28.58500
C  19.43200 -5.37900 28.06000
C  19.39600 -5.27000 26.65700
C  18.64900 -3.99600 26.36700
C  20.27500 -6.39900 28.84100
C  20.18400 -6.11400 25.57700
O  20.30400 -5.65300 24.50700
C  21.10800 -7.23600 25.92700
N  16.79500 -1.60800 25.73600
C  17.57700 -2.35800 24.83500
C  17.30600 -1.87500 23.37600
C  16.42100 -0.63700 23.55800
C  16.21200 -0.58400 25.05200
C  18.57800 -1.66600 22.59800
C  15.01800 -0.62300 22.85900
C  14.86300 0.42300 21.71600
N  16.15300 0.15900 27.88400
C  15.57500 0.92400 26.94200
C  15.06700 2.10600 27.53500
C  15.32100 1.91800 28.89100
C  16.02300 0.75200 29.05200
C  14.32300 3.16600 26.86000
C  15.20300 2.55400 30.12700
O  14.50500 3.54800 30.38500
C  15.91800 1.67400 31.18800
C  16.96300 2.39900 31.99400
O  18.17300 2.25200 31.89900
O  16.32900 3.30900 32.73600
C  17.11400 3.83900 33.81600
H  19.47600 -4.29100 30.61600
H  18.84500 -3.97000 24.31500
H  15.19400 1.29800 24.89600
H  18.05000 -0.35800 32.79300
H  17.95900 -3.34100 32.49500
H  19.79000 -1.53400 33.61500
H  20.55300 -1.93900 32.06700
H  20.13600 -3.19700 33.26000
H  15.87000 -2.38400 33.22900
H  15.40200 -0.70800 33.04500
H  16.31300 -2.04200 35.35400
H  15.61400 -0.50200 35.23000
H  20.06900 -7.43300 28.56500
H  20.26400 -6.31900 29.92800
H  21.28500 -6.02200 28.67800
H  21.51500 -7.74600 25.05300
H  20.46200 -8.01900 26.32500
H  21.96100 -6.97500 26.55200
H  16.79100 -2.59800 22.74400
H  16.91700 0.28800 23.26200
H  19.47300 -1.86900 23.18600
H  18.85100 -0.61900 22.47000
H  18.56000 -2.16500 21.62900
H  14.20600 -0.36500 23.53900
H  14.87000 -1.63900 22.49200
H  15.86600 0.65900 21.36100
H  14.45400 1.35400 22.11000
H  14.29200 0.04900 20.86600
H  14.93700 3.39700 25.98900
H  14.24800 4.02500 27.52700
H  13.36300 2.80900 26.48800
H  15.20100 1.44800 31.97600
H  17.56500 4.72500 33.37000
H  17.83300 3.14700 34.25500
H  16.40400 4.19500 34.56200
Mg 47.52100 45.09800 42.40000
C  44.17400 44.33300 42.63600
C  48.13800 41.68600 41.76100
C  50.75800 45.84500 41.83000
C  46.69100 48.45500 42.29800
N  46.26100 43.29200 41.99900
C  44.97400 43.18900 42.29000
C  44.45900 41.78400 42.31000
C  45.74900 40.92000 42.16100
C  46.77300 42.00700 41.98100
C  46.01900 39.89600 43.25500
C  43.32000 41.49100 41.32500
C  43.17100 42.14200 39.98700
H  43.74100 41.56400 38.66800
N  49.26900 43.94000 42.00000
C  49.27800 42.57500 41.77600
C  50.67800 42.19500 41.53000
C  51.48800 43.36000 41.59100
C  50.50800 44.49200 41.77300
C  51.03700 40.77200 41.33400
C  52.96500 43.37900 41.47900
O  53.53400 42.36500 41.07900
C  53.79000 44.57300 41.93900
N  48.53700 46.87800 41.89100
C  49.91600 46.93200 41.91800
C  50.54800 48.38000 41.84200
C  49.14800 49.23300 41.89600
C  48.06400 48.12000 42.02400
C  51.56100 48.71900 42.86500
C  49.03900 50.13700 40.64100
C  48.31900 51.47800 40.77800
N  45.81600 46.22200 42.46500
C  45.60800 47.59100 42.45000
C  44.17800 47.85500 42.55400
C  43.58400 46.61900 42.78100
C  44.58300 45.63300 42.60500
C  43.61300 49.18300 42.52300
C  42.32000 45.91400 42.90200
O  41.14500 46.40700 42.89700
C  42.67700 44.41900 42.94600
C  42.26400 43.75800 44.19500
O  41.61700 42.72400 44.20800
O  42.66100 44.46900 45.30100
C  42.16600 43.93300 46.56500
H  48.32300 40.61200 41.83400
H  51.82500 46.07300 41.78400
H  46.54500 49.53400 42.37000
H  43.98200 41.69500 43.28600
H  45.77800 40.38500 41.21200
H  45.99700 38.92000 42.77100
H  45.35100 39.88400 44.11700
H  47.01800 39.94100 43.68700
H  42.34100 41.62000 41.78700
H  43.41300 40.42300 41.12800
H  43.83300 43.00000 40.09800
H  42.18900 42.59000 39.83300
H  51.84300 40.63800 40.61100
H  50.17000 40.29700 40.87500
H  51.30300 40.20400 42.22500
H  53.57700 45.38800 41.24700
H  54.82900 44.24600 41.90100
H  53.36900 44.92400 42.88100
H  51.00600 48.39500 40.85200
H  49.10000 49.76400 42.84600
H  52.35800 49.20600 42.30100
H  52.06500 47.86400 43.31500
H  51.15600 49.37800 43.63300
H  48.47100 49.59100 39.88700
H  50.05800 50.31000 40.29700
H  47.39700 51.37200 40.20600
H  48.86400 52.35900 40.43900
H  47.94000 51.70300 41.77500
H  44.04100 49.76400 41.70600
H  43.88100 49.81600 43.37000
H  42.53200 49.15900 42.38300
H  42.11600 44.03400 42.09400
H  43.01100 43.95000 47.25400
H  41.79100 42.92000 46.41400
H  41.45000 44.59400 47.05200

