158

Mg 16.29900 -2.28100 27.72700
C  15.27600 -0.24100 30.26700
C  18.45100 -3.98000 29.97600
C  17.63700 -4.07600 25.20400
C  14.39200 -0.44300 25.39700
N  16.95800 -1.96100 29.88100
C  16.22700 -1.20600 30.73700
C  16.62600 -1.52400 32.25900
C  17.77300 -2.55000 32.05600
C  17.64900 -2.90900 30.58600
C  19.18800 -2.16900 32.48700
C  15.47500 -2.03100 33.15500
C  15.51400 -1.43500 34.52100
H  16.73700 -0.68400 35.03300
N  17.71100 -3.90700 27.60200
C  18.46100 -4.45300 28.64500
C  19.36700 -5.41600 28.08500
C  19.03300 -5.54600 26.72400
C  18.12100 -4.45400 26.43500
C  20.31300 -6.16400 29.01900
C  19.55700 -6.53400 25.70400
O  19.31700 -6.43300 24.54000
C  20.40600 -7.72300 26.08200
N  16.16500 -2.13100 25.59400
C  16.64900 -3.15700 24.83700
C  16.20000 -3.00100 23.36000
C  14.89500 -2.09900 23.54200
C  15.13600 -1.56200 24.95500
C  17.36000 -2.44200 22.46400
C  13.59200 -3.02900 23.43200
C  13.05500 -3.23200 21.98700
N  15.22000 -0.58700 27.74900
C  14.45800 0.03900 26.74300
C  13.64900 0.99400 27.37400
C  13.97200 0.96900 28.71800
C  14.88500 -0.02700 28.91900
C  12.64300 1.81800 26.71500
C  13.57600 1.50100 29.99100
O  12.70100 2.33800 30.23500
C  14.35000 0.63100 31.08300
C  15.13400 1.56700 31.90100
O  16.26100 1.95700 31.67600
O  14.28400 1.86800 32.99600
C  14.79100 2.86200 34.01100
H  19.18800 -4.49800 30.59200
H  17.85000 -4.76800 24.38700
H  13.62900 -0.04700 24.72400
H  17.05900 -0.57700 32.58100
H  17.69500 -3.50500 32.57600
H  19.21900 -1.51400 33.35700
H  19.57200 -1.63000 31.62100
H  19.82000 -3.04200 32.65100
H  15.59500 -3.11000 33.25400
H  14.54900 -1.98800 32.58100
H  15.31000 -2.24300 35.22300
H  14.64200 -0.82400 34.75500
H  19.84500 -7.11300 29.28100
H  20.76300 -5.59900 29.83600
H  21.21100 -6.47300 28.48400
H  20.08800 -8.11200 27.05000
H  21.45200 -7.41900 26.06800
H  20.24300 -8.46600 25.30100
H  15.90600 -3.97700 22.97600
H  14.85700 -1.33400 22.76600
H  17.50000 -3.05900 21.57600
H  18.28700 -2.30700 23.02000
H  17.13000 -1.42200 22.15400
H  12.90900 -2.52100 24.11300
H  13.83300 -3.98300 23.90100
H  12.19600 -2.58300 21.81800
H  12.78000 -4.28400 22.05500
H  13.83800 -2.93900 21.28800
H  11.78800 1.57300 27.34500
H  12.34700 1.40200 25.75300
H  12.81900 2.85500 26.42800
H  13.67800 0.14200 31.78900
H  14.96800 3.76300 33.42300
H  15.69600 2.42400 34.43100
H  14.02300 3.06900 34.75600
Mg 47.50400 25.06500 29.32800
C  48.77300 27.23200 31.67500
C  46.30400 23.05800 31.82800
C  46.85600 22.77000 26.92200
C  48.95300 27.10800 26.85600
N  47.44000 25.19200 31.53300
C  48.07000 26.13400 32.33500
C  47.66000 25.94000 33.77800
C  47.01200 24.56700 33.76400
C  46.86900 24.23400 32.28400
C  47.65300 23.40700 34.63400
C  46.63600 27.05300 34.37100
C  47.00800 27.73200 35.61400
H  45.88300 27.95600 36.63700
N  46.55800 23.21800 29.34000
C  46.15100 22.59700 30.46600
C  45.57500 21.29300 29.96500
C  45.64800 21.28900 28.53300
C  46.37100 22.47400 28.18600
C  45.05300 20.19000 30.91300
C  45.05300 20.22600 27.60200
O  45.25800 20.31200 26.41000
C  44.07800 19.09100 28.15600
N  47.96700 24.83300 27.17500
C  47.64700 23.76300 26.41000
C  47.94400 23.98300 24.98200
C  48.39200 25.50900 24.90600
C  48.44300 25.83700 26.39900
C  48.97400 22.96200 24.49300
C  47.51600 26.54700 24.21200
C  48.13000 27.29300 23.02200
N  48.60900 26.83500 29.25700
C  49.15900 27.55700 28.15900
C  49.98500 28.66300 28.68300
C  49.72200 28.66500 30.05900
C  48.98700 27.42800 30.34600
C  50.93600 29.63500 27.93400
C  49.99400 29.34900 31.27100
O  50.65600 30.36500 31.47200
C  49.37000 28.46600 32.37200
C  50.42800 28.18600 33.32200
O  51.42000 27.51400 33.02800
O  50.08500 28.74300 34.54800
C  51.11400 28.53300 35.55600
H  46.01100 22.37100 32.62400
H  46.73400 22.07300 26.09000
H  49.24600 27.82700 26.08800
H  48.49800 25.92900 34.47600
H  46.04500 24.52900 34.26500
H  48.08900 22.60200 34.04200
H  46.86600 22.92700 35.21500
H  48.54600 23.84500 35.08000
H  45.64400 26.60100 34.39300
H  46.54200 27.83800 33.62100
H  47.47500 28.65400 35.26800
H  47.82500 27.17000 36.06500
H  45.15600 20.53600 31.94200
H  45.60000 19.24900 30.96800
H  44.05000 20.11900 30.49300
H  44.52800 18.47800 28.93600
H  43.76200 18.49300 27.30200
H  43.17600 19.61000 28.48000
H  47.04100 23.87600 24.38100
H  49.39000 25.67100 24.50100
H  49.15800 22.28400 25.32700
H  49.88600 23.23300 23.96200
H  48.48700 22.28000 23.79600
H  47.24700 27.30200 24.95100
H  46.71400 25.95000 23.77800
H  47.61600 27.20600 22.06500
H  49.15300 26.95200 22.86200
H  48.11400 28.36200 23.23500
H  51.02900 29.28500 26.90600
H  51.92900 29.56600 28.38000
H  50.48400 30.62600 27.92900
H  48.50900 28.96600 32.81700
H  51.61300 27.56900 35.46200
H  50.76500 28.78600 36.55700
H  51.96900 29.20600 35.48800

