158

Mg 8.57200 3.23400 27.98100
C  10.00400 1.63600 30.86100
C  6.40000 4.89300 30.27300
C  7.37600 4.77900 25.41700
C  10.48200 1.16400 25.87100
N  8.34300 3.26600 30.28900
C  9.02500 2.55300 31.20600
C  8.64700 3.00700 32.68700
C  7.23900 3.69300 32.38000
C  7.33700 3.95800 30.90200
C  6.03700 2.85100 32.75900
C  9.72200 3.86200 33.39400
C  9.30500 4.75500 34.57300
H  10.15300 4.52500 35.84900
N  7.21600 4.60000 27.83700
C  6.36600 5.15800 28.83800
C  5.54600 6.20900 28.22100
C  5.72500 6.11700 26.80600
C  6.78000 5.10200 26.63500
C  4.54100 7.07400 29.03300
C  5.07500 6.97200 25.71900
O  5.35500 6.80200 24.56100
C  3.95100 7.88000 26.06600
N  8.77300 2.99400 25.87400
C  8.28000 3.86800 25.01900
C  8.76200 3.62800 23.58700
C  9.72800 2.42400 23.81900
C  9.63100 2.13600 25.27800
C  7.73900 3.52800 22.46000
C  11.25900 2.65900 23.32700
C  12.36900 3.16200 24.30000
N  9.87700 1.62800 28.22000
C  10.63400 0.89400 27.28700
C  11.52000 0.00700 27.92800
C  11.35300 0.31200 29.28600
C  10.33100 1.21900 29.44700
C  12.42100 -0.97500 27.20500
C  11.89100 0.02100 30.61100
O  12.81600 -0.77000 30.85300
C  11.15700 0.90700 31.59700
C  10.78000 0.08400 32.73600
O  9.91600 -0.76100 32.73500
O  11.35900 0.56000 33.87600
C  10.88700 -0.03500 35.09200
H  5.75900 5.48100 30.93300
H  7.07400 5.30700 24.50900
H  10.99800 0.56700 25.11600
H  8.61900 2.10700 33.30100
H  7.20100 4.67300 32.85600
H  5.22500 3.07600 32.06800
H  5.66100 2.99200 33.77200
H  6.37600 1.84100 32.52800
H  10.00600 4.60300 32.64700
H  10.56400 3.23900 33.69400
H  8.29500 4.42700 34.81700
H  9.38700 5.79700 34.26400
H  4.41600 6.71000 30.05300
H  3.55500 7.03000 28.56900
H  4.75100 8.14300 29.02100
H  3.14600 7.27200 26.47900
H  3.61400 8.37400 25.15500
H  4.16500 8.62100 26.83700
H  9.38300 4.50800 23.41900
H  9.34200 1.59500 23.22600
H  6.78900 3.89400 22.85000
H  7.62300 2.46900 22.22600
H  7.92600 4.19100 21.61500
H  11.28300 3.40100 22.52800
H  11.50600 1.73100 22.81200
H  12.03000 3.20500 25.33500
H  12.75800 4.14700 24.04200
H  13.09300 2.35300 24.21100
H  12.84500 -0.32600 26.43900
H  11.95800 -1.78600 26.64300
H  13.21500 -1.35000 27.85100
H  11.76900 1.77800 31.83200
H  10.44000 0.78800 35.64800
H  11.62800 -0.52900 35.72200
H  10.01900 -0.69400 35.06100
Mg 47.65700 16.71900 29.44500
C  45.40100 15.88700 31.86900
C  49.57000 18.54300 31.68400
C  49.61900 17.79200 26.92000
C  45.45900 15.32000 27.00400
N  47.53300 17.06600 31.45800
C  46.50200 16.61400 32.31300
C  46.90400 16.84500 33.79000
C  47.95300 18.02100 33.62100
C  48.37600 17.90900 32.15200
C  47.37200 19.39300 34.04200
C  47.43500 15.51800 34.40600
C  47.12500 15.28900 35.86800
H  46.98300 16.66200 36.67800
N  49.44300 17.91500 29.34700
C  50.09700 18.50800 30.37800
C  51.39700 18.89500 29.97300
C  51.44900 18.75600 28.55600
C  50.09800 18.12800 28.22200
C  52.50300 19.40300 30.91000
C  52.57400 19.07000 27.60800
O  52.43400 18.93200 26.40800
C  53.81800 19.54600 28.14000
N  47.35100 16.79300 27.22800
C  48.43900 17.18200 26.48400
C  48.20800 16.93300 24.99200
C  47.01800 15.88500 25.05400
C  46.55600 16.02700 26.52300
C  47.72000 18.30300 24.34700
C  47.37700 14.50800 24.71900
C  46.40400 13.63500 23.89900
N  45.84500 15.71500 29.47200
C  45.12400 15.12400 28.43500
C  43.99400 14.37500 28.98700
C  44.03400 14.70300 30.28000
C  45.14600 15.51300 30.55000
C  42.89700 13.56100 28.25900
C  43.39200 14.70700 31.59500
O  42.25900 14.29600 32.00900
C  44.22000 15.36800 32.63300
C  43.54700 16.36400 33.39500
O  43.20200 17.46600 32.98400
O  43.29000 15.96700 34.67800
C  42.87400 16.88200 35.73500
H  50.09400 19.15600 32.42100
H  50.22600 17.99500 26.03500
H  44.89400 14.74900 26.26500
H  46.08200 17.14400 34.44100
H  48.86400 17.81200 34.18200
H  46.46300 19.31000 34.63700
H  47.25100 20.03600 33.17000
H  48.14500 19.87200 34.64400
H  48.50900 15.61900 34.25000
H  47.06000 14.65500 33.85600
H  47.94600 14.69100 36.26400
H  46.15400 14.79400 35.87100
H  53.42500 18.83500 30.79100
H  52.27500 19.18900 31.95400
H  52.63600 20.47400 30.75800
H  53.60800 20.30200 28.89700
H  54.37700 20.00200 27.32300
H  54.44200 18.74400 28.53500
H  49.17600 16.59000 24.62600
H  46.19400 16.17200 24.40000
H  47.71700 19.11200 25.07800
H  46.67100 18.33300 24.05200
H  48.38100 18.54500 23.51500
H  47.45800 13.99900 25.67900
H  48.40200 14.46300 24.35100
H  45.60500 14.24600 23.48000
H  46.03600 12.79000 24.48200
H  47.06500 13.29400 23.10200
H  43.19300 12.53300 28.04700
H  42.75300 14.12800 27.33900
H  42.02900 13.65400 28.91000
H  44.53400 14.57800 33.31600
H  41.83100 17.17200 35.61300
H  43.57700 17.71300 35.79000
H  42.90200 16.41200 36.71800

