158

Mg 8.83200 3.86800 27.93000
C  10.20400 2.51100 30.80100
C  6.81800 5.86400 29.88000
C  7.17900 4.70900 25.12400
C  10.36200 1.15400 26.04100
N  8.41400 3.95400 30.12200
C  9.34700 3.53600 31.10100
C  9.17400 4.23300 32.41400
C  8.04200 5.28500 32.07400
C  7.70100 5.03200 30.57700
C  6.86200 5.22100 33.05600
C  10.42500 4.79900 33.10000
C  10.76800 4.33000 34.49000
H  11.37600 5.33800 35.54900
N  7.26700 5.16100 27.53600
C  6.59400 6.00000 28.45600
C  5.80600 7.01700 27.69800
C  5.94400 6.65500 26.30100
C  6.83600 5.42900 26.27000
C  5.17600 8.27800 28.32500
C  5.45100 7.29000 25.03600
O  5.65000 6.94700 23.82600
C  4.60800 8.55300 25.03500
N  8.86500 3.08200 25.89300
C  8.02600 3.59700 24.91200
C  8.13900 2.93800 23.51600
C  9.11300 1.73700 23.80300
C  9.51400 2.01600 25.30900
C  6.75600 2.47700 23.13300
C  10.23000 1.56900 22.82800
C  10.04200 0.38600 21.86600
N  10.16100 2.35100 28.28800
C  10.59300 1.30200 27.46100
C  11.36200 0.40900 28.24300
C  11.26900 0.86900 29.52100
C  10.51600 2.02500 29.50900
C  12.10300 -0.78300 27.82900
C  11.82300 0.67900 30.83900
O  12.52800 -0.21400 31.31400
C  11.15200 1.73600 31.82400
C  10.39600 0.96900 32.93500
O  9.31100 0.41400 32.85500
O  11.12400 1.12100 34.07900
C  10.49700 0.87400 35.35400
H  6.34000 6.58200 30.55100
H  6.54000 4.92500 24.26500
H  10.70200 0.33600 25.40200
H  8.75800 3.47100 33.07300
H  8.58100 6.23100 32.12900
H  7.20600 5.56500 34.03200
H  6.34000 4.26700 33.13000
H  6.11100 5.95900 32.77200
H  10.28700 5.87100 33.24200
H  11.28400 4.67300 32.44100
H  11.56600 3.60000 34.34800
H  9.95600 3.75600 34.93700
H  5.51500 8.36100 29.35800
H  4.10600 8.08500 28.26000
H  5.45900 9.20500 27.82500
H  3.96300 8.64800 24.16200
H  5.25400 9.42300 25.15300
H  3.83000 8.46400 25.79400
H  8.44600 3.62800 22.73000
H  8.54200 0.81000 23.73700
H  5.93800 2.83200 23.76000
H  6.71500 1.39500 23.25500
H  6.59900 2.75800 22.09200
H  11.16000 1.46700 23.38700
H  10.21800 2.46300 22.20400
H  9.80200 0.75100 20.86800
H  9.13900 -0.15500 22.15100
H  10.87600 -0.31000 21.95900
H  11.94500 -0.68100 26.75500
H  11.57200 -1.65000 28.22300
H  13.15000 -0.78700 28.13000
H  11.89000 2.39300 32.28400
H  10.78700 -0.15700 35.55900
H  9.40900 0.80900 35.35000
H  10.87200 1.51500 36.15200
Mg 47.66200 44.95400 42.94700
C  44.44300 43.98600 43.05300
C  48.48800 41.57100 42.21700
C  50.68000 45.83800 42.10900
C  46.66300 48.23600 42.96100
N  46.50600 43.09500 42.45600
C  45.22100 42.92600 42.72000
C  44.82800 41.46400 42.62300
C  46.14100 40.74600 42.37100
C  47.12800 41.85700 42.31500
C  46.49300 39.65800 43.44400
C  43.74900 41.18600 41.52100
C  43.50300 42.10900 40.31600
H  43.29500 41.56200 38.88800
N  49.37200 43.85700 42.39400
C  49.58300 42.49600 42.15900
C  50.94200 42.18700 41.86500
C  51.58800 43.41700 41.71700
C  50.56000 44.43700 42.10600
C  51.52700 40.77600 41.60700
C  53.03900 43.61900 41.17700
O  53.73600 42.69900 40.80500
C  53.58700 44.99800 40.96500
N  48.51800 46.70000 42.54700
C  49.83700 46.87700 42.37800
C  50.28400 48.30700 42.52200
C  48.94900 49.09500 42.52100
C  47.97500 47.90900 42.69500
C  51.13600 48.59600 43.75800
C  48.58400 49.84900 41.20900
C  48.71300 51.40100 41.20100
N  45.91800 45.97000 43.02300
C  45.64700 47.28500 43.07100
C  44.20700 47.48800 43.30000
C  43.76600 46.14400 43.39400
C  44.81800 45.30400 43.16900
C  43.41500 48.72700 43.49800
C  42.53900 45.39200 43.67900
O  41.42400 45.80600 44.05800
C  42.90000 43.92500 43.45300
C  42.69100 43.16400 44.72900
O  43.40800 43.24700 45.66100
O  41.58200 42.43800 44.68400
C  41.20900 41.77300 45.89700
H  48.59700 40.49000 42.11200
H  51.70600 46.19900 42.00900
H  46.50800 49.31600 42.94000
H  44.45700 41.12900 43.59100
H  46.30700 40.23300 41.42400
H  45.58500 39.07000 43.57500
H  46.69400 40.18400 44.37800
H  47.39000 39.05400 43.30700
H  42.80500 41.03800 42.04600
H  44.08000 40.23700 41.10100
H  44.11000 43.00400 40.18100
H  42.47400 42.41500 40.50600
H  52.06400 40.42700 42.49000
H  52.15900 40.69400 40.72300
H  50.73200 40.03200 41.57200
H  52.91400 45.57200 40.32700
H  54.61300 45.06300 40.60400
H  53.61900 45.46600 41.94900
H  50.89800 48.58400 41.66500
H  48.80900 49.75200 43.38000
H  51.31600 47.65000 44.26900
H  50.54700 49.09000 44.53000
H  52.10800 49.03300 43.53000
H  47.52000 49.72400 41.00700
H  49.04500 49.46900 40.29700
H  49.46300 51.73800 40.48400
H  48.96700 51.77900 42.19200
H  47.73500 51.82400 40.97000
H  43.33500 49.20900 42.52300
H  43.89500 49.35800 44.24600
H  42.41800 48.45700 43.84600
H  42.20200 43.43400 42.77600
H  40.53800 40.93600 45.70300
H  40.71500 42.49500 46.54700
H  42.07000 41.32500 46.39300

