158

Mg -12.11700 38.41300 42.80600
C  -10.28500 35.68100 41.44400
C  -9.74100 40.57900 41.34000
C  -14.23000 40.96100 43.35200
C  -14.71200 36.13900 43.44700
N  -10.40500 38.15300 41.33900
C  -9.78700 36.95000 41.06200
C  -8.33300 37.14100 40.47400
C  -8.12100 38.70400 40.60800
C  -9.45500 39.16900 41.20000
C  -6.95800 39.09700 41.46100
C  -8.11400 36.48200 39.04500
C  -6.80500 35.66300 38.91400
H  -5.85700 36.21200 37.88400
N  -11.96500 40.48900 42.59000
C  -10.92100 41.17100 41.93700
C  -11.19600 42.60300 41.91400
C  -12.47000 42.75000 42.54600
C  -12.93800 41.39100 42.92400
C  -10.30400 43.68200 41.38600
C  -13.25900 44.05500 42.80500
O  -12.85700 45.11900 42.31900
C  -14.46000 44.06100 43.69800
N  -14.21400 38.56800 43.27800
C  -14.82500 39.69900 43.50700
C  -16.34800 39.52000 43.85400
C  -16.44800 37.95800 43.83300
C  -14.99900 37.52400 43.61100
C  -16.92900 40.13000 45.10000
C  -17.47700 37.44700 42.78900
C  -17.08500 37.26600 41.30300
N  -12.51100 36.28000 42.61700
C  -13.49900 35.50900 43.03300
C  -13.21200 34.10000 42.73000
C  -11.93900 34.09600 42.19400
C  -11.51800 35.46600 42.09400
C  -14.10900 32.90200 42.99000
C  -10.85800 33.28600 41.67000
O  -10.82700 32.09900 41.39300
C  -9.63100 34.31400 41.37000
C  -8.54000 34.19900 42.41100
O  -8.77700 34.24900 43.64100
O  -7.33400 34.12900 41.90200
C  -6.29200 33.89100 42.85700
H  -8.95400 41.32000 41.18600
H  -15.03000 41.69400 43.23000
H  -15.54900 35.47200 43.66800
H  -7.69600 36.64700 41.20700
H  -7.92700 39.06900 39.59900
H  -6.72300 38.40000 42.26500
H  -7.07400 40.07500 41.92800
H  -6.08600 38.99900 40.81500
H  -7.91500 37.33000 38.39000
H  -8.98400 36.07000 38.53500
H  -7.07200 34.61700 38.76200
H  -6.38600 35.77700 39.91400
H  -10.71700 44.65800 41.64200
H  -10.34800 43.71300 40.29800
H  -9.32700 43.65100 41.86900
H  -15.37500 43.77700 43.17900
H  -14.54300 45.08200 44.07200
H  -14.21800 43.52400 44.61500
H  -16.86000 39.86300 42.95500
H  -16.77300 37.58100 44.80200
H  -17.79000 40.77100 44.91400
H  -16.22400 40.66300 45.73800
H  -17.34000 39.35900 45.75200
H  -18.35000 38.08600 42.92900
H  -17.61200 36.43900 43.18000
H  -17.82400 37.67000 40.61000
H  -16.88400 36.21200 41.11100
H  -16.20300 37.88600 41.13700
H  -14.73300 32.72400 42.11500
H  -14.80600 33.17100 43.78400
H  -13.66500 31.92400 43.17800
H  -9.23300 34.06700 40.38600
H  -5.42000 34.45900 42.53300
H  -5.99500 32.84200 42.83000
H  -6.40600 34.11100 43.91900
Mg -1.25500 34.37400 27.13600
C  -3.17300 32.74700 29.69800
C  -0.18000 36.63500 29.50400
C  0.00600 36.11200 24.59400
C  -2.81000 32.17900 24.93800
N  -1.59300 34.60200 29.34100
C  -2.34700 33.79900 30.15200
C  -2.24300 34.26900 31.57400
C  -1.56700 35.66400 31.42900
C  -1.02300 35.63500 30.03100
C  -2.49100 36.88000 31.61400
C  -1.38200 33.38000 32.55400
C  -2.14500 32.74700 33.75400
H  -1.50400 33.03300 35.13200
N  -0.08200 36.05600 27.03700
C  0.28500 36.77300 28.12300
C  1.28800 37.73000 27.69100
C  1.39300 37.59600 26.23400
C  0.41400 36.54100 25.89500
C  1.88900 38.66800 28.76400
C  2.11700 38.50100 25.10700
O  2.01200 38.27900 23.90400
C  3.08700 39.56600 25.50800
N  -1.49300 34.29100 25.07800
C  -0.87300 35.12000 24.17200
C  -1.11800 34.70600 22.70400
C  -1.76800 33.29000 22.93800
C  -1.94800 33.14900 24.41800
C  -2.10800 35.66700 22.02100
C  -1.04700 32.05300 22.31400
C  0.21200 31.62700 23.00200
N  -2.64700 32.64300 27.26400
C  -3.17300 31.88700 26.27300
C  -4.13700 30.98000 26.83300
C  -4.08000 31.15400 28.22400
C  -3.29000 32.28000 28.38500
C  -5.09000 30.17600 26.01900
C  -4.53100 30.77100 29.52300
O  -5.21800 29.88400 29.91400
C  -3.94300 31.81400 30.55700
C  -5.16200 32.19000 31.32800
O  -5.91400 33.08600 31.02000
O  -5.31400 31.45200 32.48300
C  -6.38900 31.88300 33.38200
H  0.25200 37.26900 30.28000
H  0.33100 36.75500 23.77300
H  -3.13000 31.42300 24.21800
H  -3.23600 34.46300 31.97900
H  -0.74200 35.83000 32.12100
H  -3.42300 36.68900 32.14700
H  -2.85300 37.25500 30.65700
H  -1.97100 37.64900 32.18500
H  -0.58500 33.94500 33.03800
H  -0.92800 32.59300 31.95100
H  -2.16700 31.65800 33.77200
H  -3.16300 33.12900 33.83500
H  2.44800 39.41600 28.20200
H  2.64100 38.19700 29.39700
H  1.13100 39.21000 29.33000
H  3.66700 39.86600 24.63600
H  3.83700 39.10400 26.15000
H  2.74700 40.45100 26.04600
H  -0.13600 34.78000 22.23700
H  -2.83500 33.21400 22.72700
H  -2.31900 36.47400 22.72300
H  -3.03900 35.24200 21.64600
H  -1.73200 36.17300 21.13200
H  -0.76200 32.28800 21.28800
H  -1.63400 31.13600 22.36700
H  0.06900 30.60500 23.35100
H  0.47700 32.34200 23.78100
H  0.95200 31.53000 22.20800
H  -6.08000 30.55700 26.27000
H  -5.06600 29.12100 26.29000
H  -4.88600 30.20600 24.94800
H  -3.26300 31.37100 31.28500
H  -6.00200 32.49600 34.19600
H  -6.93600 31.06200 33.84500
H  -7.12400 32.57400 32.97100

