158

Mg 26.41400 50.11400 27.27600
C  24.42300 51.49500 29.55300
C  28.62900 49.06500 29.71200
C  28.52900 49.02600 24.83200
C  24.31800 51.31600 24.79300
N  26.56800 50.39400 29.44400
C  25.48500 50.89500 30.17200
C  25.65900 50.57600 31.65100
C  27.16000 49.99100 31.68600
C  27.55300 49.80200 30.21400
C  28.15500 50.80900 32.48900
C  24.55200 49.56700 32.25700
C  24.03800 49.96600 33.64700
H  24.96300 50.65100 34.66500
N  28.40300 49.25300 27.27200
C  29.05100 48.84700 28.33200
C  30.35700 48.30700 27.96300
C  30.30900 48.22100 26.54700
C  29.07400 48.88000 26.13700
C  31.36900 47.88800 29.03600
C  31.33800 47.61700 25.61500
O  31.19400 47.63000 24.37200
C  32.47700 46.89600 26.27400
N  26.49300 50.32600 25.13300
C  27.38900 49.60200 24.35000
C  27.04400 49.81100 22.88200
C  25.54500 50.15900 22.90600
C  25.45600 50.72000 24.31200
C  27.89600 50.83800 22.13300
C  24.51000 49.01500 22.55400
C  23.70800 49.13500 21.20600
N  24.72900 51.19700 27.14000
C  23.96300 51.65500 26.09100
C  22.84200 52.52400 26.57500
C  22.95700 52.42800 27.94300
C  24.09900 51.60700 28.24600
C  21.79900 53.21500 25.66200
C  22.30300 52.73200 29.16300
O  21.24100 53.31800 29.37300
C  23.19900 52.13900 30.25900
C  23.51700 53.21900 31.23800
O  24.39600 54.07200 31.15400
O  22.65900 53.16100 32.33200
C  22.64600 54.19700 33.40300
H  29.27400 48.69500 30.51200
H  29.02200 48.66000 23.93000
H  23.69900 51.62100 23.94600
H  25.57500 51.48800 32.24200
H  27.12400 48.99500 32.12800
H  28.84400 50.07300 32.90300
H  27.61000 51.33900 33.27100
H  28.67400 51.57000 31.90800
H  25.05200 48.60200 32.17900
H  23.68100 49.52000 31.60400
H  23.53600 49.11900 34.11300
H  23.26200 50.71600 33.49700
H  32.34600 48.34000 28.86400
H  31.43900 46.80100 29.00000
H  31.21300 48.03000 30.10500
H  33.04300 46.44300 25.46000
H  32.08100 46.06000 26.84900
H  33.10400 47.57300 26.85400
H  27.27500 48.89100 22.34400
H  25.29600 50.98400 22.23900
H  28.40500 50.31500 21.32400
H  28.60300 51.24600 22.85600
H  27.31500 51.67600 21.74900
H  23.85500 48.81500 23.40200
H  25.14400 48.14700 22.36900
H  24.27100 49.79500 20.54600
H  22.74200 49.63200 21.29800
H  23.47800 48.16400 20.76600
H  21.37400 52.52500 24.93400
H  22.19200 54.03600 25.06200
H  20.95100 53.38500 26.32500
H  22.61100 51.44900 30.86400
H  23.03500 55.17500 33.12000
H  23.26800 53.82600 34.21700
H  21.64000 54.32500 33.80500
Mg 5.78200 55.22500 41.05400
C  5.15700 51.71200 40.94300
C  8.80700 54.40500 39.50800
C  6.27700 58.44100 40.37600
C  2.53600 55.71500 42.01200
N  6.89600 53.19200 40.38600
C  6.38700 51.96800 40.46300
C  7.36400 50.98100 39.79600
C  8.67500 51.84000 39.88300
C  8.16600 53.23100 39.87600
C  9.62800 51.67700 41.08300
C  7.03600 50.48000 38.41200
C  6.30500 51.49400 37.44400
H  7.17000 52.09900 36.28500
N  7.37500 56.23200 40.11400
C  8.56200 55.73500 39.68600
C  9.43100 56.76000 39.26600
C  8.75000 58.01900 39.59500
C  7.42800 57.60700 40.02900
C  10.89900 56.54700 38.81300
C  9.34900 59.38800 39.36900
O  10.42900 59.55200 38.85300
C  8.57000 60.61300 39.74700
N  4.61700 56.79900 41.11900
C  5.04200 58.04400 40.80200
C  3.89200 59.08700 41.15100
C  2.65300 58.19600 41.48900
C  3.29200 56.80600 41.59300
C  4.21200 60.20000 42.17200
C  1.51400 58.22500 40.45200
C  0.13300 58.62300 41.01900
N  4.21300 54.03300 41.54100
C  2.92300 54.33300 42.03600
C  2.22900 53.08800 42.38800
C  3.13900 52.12400 42.05500
C  4.30400 52.67300 41.49100
C  0.84000 53.03000 42.90900
C  3.26100 50.67100 41.95500
O  2.49300 49.80000 42.29600
C  4.54400 50.37100 41.22400
C  4.20100 49.58300 40.00800
O  3.66900 49.96100 39.01000
O  4.67100 48.34100 40.16900
C  4.42000 47.35700 39.14200
H  9.64700 54.06500 38.89900
H  6.35000 59.50500 40.14300
H  1.53300 55.98400 42.35100
H  7.31700 50.08800 40.41900
H  9.23000 51.90200 38.94600
H  9.67600 52.60100 41.65800
H  10.56600 51.36500 40.62400
H  9.24300 50.95000 41.79900
H  6.58800 49.48700 38.42600
H  8.04100 50.32300 38.02000
H  5.95200 52.38400 37.96500
H  5.58700 50.80200 37.00600
H  11.25500 57.15500 37.98200
H  11.15400 55.50000 38.64800
H  11.61600 57.02700 39.47900
H  7.72800 60.76900 39.07200
H  9.20500 61.47400 39.95600
H  8.28200 60.35800 40.76600
H  3.77800 59.62600 40.21000
H  2.29800 58.41200 42.49600
H  5.20600 60.09600 42.60700
H  3.49100 60.23500 42.98800
H  4.15300 61.16100 41.66100
H  1.43100 57.26100 39.95100
H  1.80400 58.90600 39.65100
H  0.07700 58.50500 42.10100
H  -0.56800 57.91800 40.57200
H  -0.11700 59.62300 40.66400
H  0.25900 53.38600 42.05800
H  0.71600 53.61400 43.82100
H  0.61400 51.99000 43.14200
H  5.19500 49.76600 41.85600
H  4.45100 47.78400 38.14000
H  3.46200 46.89700 39.38400
H  5.16500 46.56200 39.11800

