158

Mg 2.37900 -1.91300 43.84100
C  5.75500 -1.47600 43.38300
C  1.78200 0.58800 41.54400
C  -0.90500 -2.89400 43.77500
C  3.19900 -4.97700 45.37300
N  3.68800 -0.80300 42.31300
C  5.03800 -0.64100 42.48900
C  5.53900 0.38100 41.46900
C  4.26700 1.03100 40.85500
C  3.16100 0.21100 41.63400
C  4.13900 2.58000 40.97200
C  6.42100 -0.44800 40.45200
C  7.77500 0.26500 40.14100
H  8.13600 0.53500 38.68100
N  0.62500 -1.12300 42.93900
C  0.62900 -0.12100 42.05600
C  -0.75300 0.18900 41.82800
C  -1.53000 -0.70000 42.55500
C  -0.60000 -1.62100 43.16700
C  -1.13600 1.30000 40.92000
C  -3.07200 -0.68900 42.59700
O  -3.74000 -0.09800 41.75700
C  -3.83700 -1.38800 43.70400
N  1.22400 -3.73100 44.37200
C  -0.11100 -3.80900 44.40800
C  -0.57300 -5.05000 45.12000
C  0.78000 -5.78700 45.36600
C  1.80100 -4.75600 45.10300
C  -1.42500 -4.58600 46.40800
C  1.11600 -7.03400 44.47400
C  1.65800 -8.25500 45.18100
N  4.03200 -2.98000 44.41000
C  4.25300 -4.11000 45.18800
C  5.64300 -4.18900 45.55800
C  6.22500 -3.09600 44.91400
C  5.25600 -2.47700 44.15300
C  6.32800 -5.23500 46.46900
C  7.49800 -2.39400 44.77000
O  8.57100 -2.56100 45.37500
C  7.23600 -1.35000 43.71500
C  7.51100 0.07300 44.13000
O  7.14700 0.57400 45.12700
O  8.25800 0.64700 43.12200
C  8.69800 2.01900 43.43400
H  1.63000 1.42800 40.86300
H  -1.93700 -3.23200 43.65400
H  3.38500 -5.86800 45.97700
H  6.05300 1.20100 41.97100
H  4.16000 0.79400 39.79700
H  3.67900 2.84000 41.92600
H  3.54100 2.94000 40.13500
H  5.15600 2.95800 40.87200
H  5.89900 -0.58000 39.50500
H  6.55200 -1.46200 40.82900
H  8.62900 -0.28200 40.54000
H  7.92200 1.22300 40.64100
H  -0.96800 0.84400 39.94400
H  -0.45800 2.14300 41.04900
H  -2.15900 1.66300 41.01300
H  -4.75800 -0.83500 43.88900
H  -3.26500 -1.19500 44.61200
H  -4.01300 -2.40600 43.35600
H  -1.23000 -5.64800 44.48700
H  0.67200 -6.05800 46.41600
H  -2.42200 -5.02400 46.35400
H  -1.49600 -3.49800 46.41900
H  -0.93600 -4.69600 47.37600
H  1.68800 -6.69600 43.61000
H  0.23100 -7.31400 43.90300
H  1.67400 -8.00600 46.24200
H  2.70900 -8.38100 44.92500
H  1.01400 -9.07600 44.86500
H  6.89500 -5.93900 45.86100
H  5.59600 -5.80400 47.04300
H  7.00400 -4.73300 47.16100
H  7.85800 -1.70900 42.89500
H  7.84000 2.63100 43.15400
H  9.55500 2.37900 42.86400
H  8.95900 2.02600 44.49200
Mg 48.94100 45.36800 42.86900
C  45.46600 45.71800 41.95000
C  48.85900 42.28900 41.42100
C  52.28900 45.50400 42.79700
C  48.78200 48.61500 43.94100
N  47.33200 44.26000 41.66000
C  46.01700 44.51200 41.48600
C  45.38500 43.36800 40.65500
C  46.34200 42.21300 40.92000
C  47.58400 42.97000 41.38600
C  45.96200 41.07600 41.92400
C  45.24100 43.89900 39.12900
C  43.99400 43.29900 38.39600
H  43.87800 43.43000 36.86000
N  50.38400 43.93900 42.36200
C  50.11200 42.78700 41.74800
C  51.37000 42.11900 41.47400
C  52.37100 43.10200 41.71400
C  51.69700 44.28300 42.33400
C  51.49700 40.65200 41.07100
C  53.87600 42.90100 41.42800
O  54.26700 41.87700 40.91000
C  54.91600 43.92500 41.80600
N  50.34400 46.82800 43.15700
C  51.67200 46.64000 43.26900
C  52.44000 47.93000 43.74600
C  51.29000 48.85500 44.28600
C  50.03600 48.07300 43.75600
C  53.65000 47.68200 44.73600
C  51.43300 50.42000 43.88900
C  51.64300 51.34700 45.02900
N  47.38400 46.88700 43.00200
C  47.54200 48.19000 43.46100
C  46.30000 48.83600 43.35700
C  45.40400 47.90700 42.81200
C  46.15200 46.75400 42.51600
C  46.14300 50.28000 43.92000
C  44.03300 47.66800 42.42500
O  43.06600 48.42000 42.52200
C  44.03600 46.13800 41.79800
C  43.01600 45.29700 42.53000
O  42.42800 44.33500 42.04900
O  42.78800 45.82900 43.77000
C  41.67400 45.10300 44.48100
H  48.87100 41.29300 40.97600
H  53.37600 45.59500 42.75600
H  48.90000 49.64600 44.28000
H  44.37000 43.12200 40.96500
H  46.65700 41.71400 40.00400
H  45.62300 40.16200 41.43700
H  45.12700 41.32200 42.58100
H  46.80700 40.83300 42.56700
H  46.14000 43.86400 38.51400
H  45.07100 44.97500 39.09300
H  43.09200 43.74300 38.81700
H  43.92300 42.23900 38.64100
H  51.76300 40.45400 40.03300
H  50.53800 40.19500 41.31700
H  52.25800 40.34200 41.78700
H  54.61800 44.72300 41.12600
H  55.88600 43.50900 41.53400
H  54.96400 44.13300 42.87500
H  52.86600 48.44300 42.88300
H  51.23400 48.83500 45.37400
H  54.60500 47.83300 44.23200
H  53.62000 46.66100 45.11500
H  53.59200 48.34800 45.59700
H  50.56600 50.67600 43.27900
H  52.27100 50.57000 43.20900
H  50.77300 52.00300 45.02700
H  52.42700 52.04100 44.72600
H  51.81600 50.91400 46.01400
H  46.85700 50.85500 43.33000
H  46.50100 50.37700 44.94500
H  45.13700 50.68300 43.80000
H  43.63400 46.18000 40.78600
H  40.74300 45.66700 44.44000
H  41.96000 45.00000 45.52800
H  41.40700 44.09200 44.17200

