158

Mg -1.50900 17.89000 26.01700
C  -1.60600 15.41400 28.58700
C  -1.86600 20.29100 28.46200
C  -1.42700 20.08000 23.69200
C  -1.33800 15.26600 23.74000
N  -1.63000 17.80900 28.29300
C  -1.51200 16.76100 29.13800
C  -1.50200 17.28800 30.63800
C  -2.01600 18.77400 30.52400
C  -1.91100 18.98100 29.00400
C  -3.51600 19.09600 30.96000
C  -0.11000 17.23500 31.43300
C  -0.10900 17.85600 32.89400
H  0.32400 17.09000 34.08000
N  -1.33600 19.93000 26.07000
C  -1.68200 20.69600 27.14000
C  -1.68500 22.12900 26.67300
C  -1.53200 22.12100 25.31200
C  -1.50500 20.71800 24.97200
C  -2.02900 23.30600 27.69000
C  -1.66200 23.30100 24.27200
O  -1.62700 23.07300 23.05100
C  -1.86200 24.67400 24.79400
N  -1.41300 17.68400 24.00900
C  -1.44300 18.77400 23.20600
C  -1.41200 18.42600 21.65300
C  -1.40300 16.84600 21.65100
C  -1.40000 16.56900 23.21300
C  -2.61600 19.03200 20.84100
C  -0.17100 16.19000 21.01700
C  -0.42000 14.93100 20.24100
N  -1.70100 15.74000 26.08400
C  -1.72400 14.84300 25.01900
C  -1.78300 13.44100 25.65800
C  -1.76100 13.62100 27.11100
C  -1.63100 15.04200 27.23300
C  -1.72700 12.20300 24.85800
C  -1.81200 12.97900 28.44000
O  -1.85700 11.81000 28.81900
C  -1.80600 14.14100 29.40500
C  -0.72800 13.84800 30.35600
O  0.46500 13.95600 30.13000
O  -1.26300 13.43500 31.58800
C  -0.33600 12.93500 32.59600
H  -2.15900 21.16800 29.04400
H  -1.28300 20.76000 22.85000
H  -1.36000 14.43500 23.03200
H  -2.29900 16.83300 31.22700
H  -1.39400 19.48900 31.06200
H  -4.24300 19.20200 30.15500
H  -3.51500 20.03500 31.51400
H  -3.90200 18.26300 31.54700
H  0.71300 17.61700 30.82900
H  0.11000 16.17500 31.56200
H  -1.13900 18.14100 33.10700
H  0.43200 18.80000 32.96300
H  -3.04500 23.67600 27.55200
H  -1.29000 24.03800 27.36100
H  -1.71600 23.17600 28.72600
H  -1.73800 25.42600 24.01500
H  -1.08800 24.80500 25.55000
H  -2.84300 24.55100 25.25300
H  -0.53100 18.74900 21.09800
H  -2.33900 16.53100 21.19200
H  -2.30500 19.71100 20.04700
H  -3.19000 19.66600 21.51700
H  -3.19300 18.18600 20.46700
H  0.52300 16.00500 21.83700
H  0.26000 16.81100 20.23200
H  0.41400 14.23000 20.26800
H  -0.38800 15.12800 19.16900
H  -1.42100 14.54700 20.43900
H  -2.07400 12.30400 23.83000
H  -2.34900 11.57100 25.49200
H  -0.71900 11.80400 24.97100
H  -2.70100 14.21600 30.02400
H  -0.78700 13.37300 33.48600
H  0.70600 13.22800 32.47100
H  -0.35300 11.89400 32.92100
Mg -11.83900 37.84800 42.03400
C  -9.57800 35.51900 41.05100
C  -9.94800 40.27600 40.55100
C  -14.36300 39.96000 42.60500
C  -14.09900 35.22700 42.79000
N  -10.10400 37.83300 40.75500
C  -9.26800 36.79200 40.55400
C  -7.88800 37.19000 39.94900
C  -7.98200 38.74500 40.05600
C  -9.47500 38.97900 40.50700
C  -6.90600 39.35900 40.95700
C  -7.79000 36.57900 38.50700
C  -6.53800 35.80500 38.04800
H  -5.62000 36.44100 36.94600
N  -12.09400 39.87200 41.74400
C  -11.21200 40.66400 41.09100
C  -11.72800 42.03000 41.21300
C  -12.94700 42.02200 41.82800
C  -13.21400 40.61100 42.07100
C  -10.87100 43.15000 40.88800
C  -13.84800 43.21800 42.27100
O  -13.50000 44.34900 41.99000
C  -15.12700 43.01800 43.05100
N  -13.93600 37.58300 42.47100
C  -14.72400 38.63700 42.74000
C  -16.17900 38.26000 43.14000
C  -16.12800 36.69300 43.15000
C  -14.67900 36.50500 42.68100
C  -16.59300 38.86400 44.52500
C  -17.06400 36.12500 42.09200
C  -16.78200 36.52200 40.52800
N  -11.83000 35.78500 42.00000
C  -12.76100 34.84600 42.49900
C  -12.08100 33.57900 42.64800
C  -10.86100 33.71900 41.99600
C  -10.76800 35.10600 41.69500
C  -12.71000 32.30200 43.13300
C  -9.72600 33.09000 41.37400
O  -9.53800 31.90600 41.23700
C  -8.77300 34.29400 40.90700
C  -7.57300 34.24200 41.81600
O  -7.45900 35.00300 42.74400
O  -6.74200 33.27400 41.38600
C  -5.46800 33.05900 42.21900
H  -9.16000 40.98300 40.28300
H  -15.16400 40.63900 42.90200
H  -14.87100 34.58000 43.21100
H  -7.09400 36.77900 40.57300
H  -7.83000 39.13900 39.05100
H  -6.40900 38.63400 41.60200
H  -7.40700 40.02900 41.65500
H  -6.25300 39.96100 40.32600
H  -8.02800 37.40100 37.83300
H  -8.60800 35.86100 38.45300
H  -6.77000 34.77100 37.79200
H  -5.88400 35.73400 38.91700
H  -10.87600 43.15000 39.79800
H  -9.89200 42.98600 41.33800
H  -11.16400 44.10500 41.32500
H  -15.85700 42.51900 42.41500
H  -15.63100 43.90800 43.42800
H  -14.84700 42.47900 43.95700
H  -16.88200 38.72000 42.44600
H  -16.36400 36.29700 44.13800
H  -15.85700 39.43000 45.09500
H  -16.79200 38.04000 45.21000
H  -17.46700 39.50600 44.41100
H  -18.09600 36.35100 42.36200
H  -16.91800 35.04700 42.17100
H  -16.11000 37.37600 40.44900
H  -17.73900 36.66300 40.02600
H  -16.31900 35.72800 39.94200
H  -12.56200 31.59500 42.31800
H  -13.77700 32.37400 43.34400
H  -12.03200 32.00200 43.93200
H  -8.48100 34.20700 39.86000
H  -5.55300 32.09500 42.72000
H  -5.22400 33.82200 42.95800
H  -4.63100 32.91600 41.53600

