158

Mg 1.06800 8.16200 27.24800
C  1.20200 10.58200 29.83400
C  1.45100 5.74100 29.76200
C  1.36200 5.66700 24.94200
C  1.28000 10.52800 24.92100
N  1.27700 8.18200 29.52500
C  1.10200 9.26000 30.35000
C  1.10900 8.89000 31.84300
C  1.30300 7.37300 31.79300
C  1.31200 7.04200 30.28500
C  2.62700 6.86100 32.56000
C  -0.14600 9.46800 32.56400
C  -0.02200 9.89000 34.08400
H  -0.66900 8.86800 35.03500
N  1.18000 5.99100 27.27100
C  1.33900 5.26300 28.42900
C  1.35400 3.85700 28.06800
C  1.17600 3.80200 26.65700
C  1.19700 5.18300 26.21000
C  1.53700 2.65700 28.99800
C  1.06600 2.58900 25.76800
O  0.84400 2.65800 24.55300
C  1.02900 1.23100 26.37200
N  1.26500 8.12200 25.26400
C  1.38500 7.00900 24.48300
C  1.43700 7.35300 22.98400
C  1.48000 8.91000 22.96700
C  1.28800 9.19900 24.47300
C  2.53800 6.70200 22.06900
C  0.31100 9.64300 22.18000
C  0.76100 10.56300 21.02300
N  1.18500 10.20500 27.30200
C  1.25100 11.04700 26.25200
C  1.41200 12.39500 26.79200
C  1.48600 12.30000 28.18400
C  1.27800 10.92400 28.43300
C  1.71600 13.59600 25.98200
C  1.70400 13.04800 29.44900
O  1.96300 14.23800 29.64700
C  1.42900 11.91000 30.58800
C  2.65800 11.84300 31.49900
O  3.71500 11.30000 31.28800
O  2.17100 12.42100 32.61700
C  3.11400 12.30800 33.75600
H  1.59300 4.96400 30.51700
H  1.23400 4.84300 24.23700
H  1.27500 11.41200 24.28000
H  1.98800 9.25000 32.37700
H  0.45000 6.88600 32.26500
H  3.19200 7.60700 33.11800
H  3.32500 6.37200 31.88100
H  2.29900 6.02100 33.17300
H  -0.97300 8.75800 32.56700
H  -0.59100 10.26700 31.97100
H  -0.39400 10.87000 34.38200
H  1.04400 9.93700 34.30900
H  2.23900 1.92500 28.59800
H  0.52700 2.32300 29.23600
H  2.04900 2.95000 29.91500
H  0.41000 1.06500 27.25400
H  2.05600 1.06400 26.69600
H  0.91100 0.41000 25.66500
H  0.49900 7.02900 22.53100
H  2.40800 9.30300 22.55100
H  3.39800 6.24400 22.55700
H  2.95300 7.43500 21.37700
H  2.04100 5.93600 21.47300
H  -0.35000 10.09200 22.92100
H  -0.39800 8.91200 21.79100
H  1.81400 10.84100 20.98000
H  0.14700 11.46200 20.97400
H  0.68100 10.10900 20.03500
H  2.53500 13.30200 25.32600
H  1.94700 14.46400 26.59900
H  0.80900 13.79900 25.41300
H  0.53600 12.15700 31.16300
H  3.98000 11.66300 33.61200
H  2.54200 11.85600 34.56600
H  3.19300 13.34300 34.08800
Mg 47.98800 15.97000 29.18700
C  45.94100 15.75100 31.83400
C  50.23300 17.85900 31.05600
C  49.82100 16.36100 26.36800
C  45.42700 14.48800 27.14800
N  48.03400 16.82900 31.19500
C  47.15500 16.41200 32.11300
C  47.79400 16.63500 33.53000
C  48.87700 17.71000 33.23300
C  49.00700 17.56800 31.70200
C  48.50400 19.12700 33.61000
C  48.34600 15.33900 34.23600
C  48.66100 15.42100 35.73500
H  48.43100 16.74600 36.43200
N  49.81600 16.82400 28.86600
C  50.59900 17.49100 29.76000
C  51.94700 17.67400 29.18800
C  51.81700 17.32300 27.79400
C  50.45400 16.82800 27.61400
C  53.18000 18.00500 29.89700
C  52.80900 17.43300 26.57300
O  52.59300 16.86900 25.50300
C  54.09300 18.22800 26.68000
N  47.62400 15.58700 27.08300
C  48.56500 15.83900 26.14900
C  48.13500 15.54900 24.66700
C  46.81800 14.71700 24.97200
C  46.62900 14.90600 26.49900
C  47.75900 16.88800 23.88300
C  46.88100 13.20600 24.63900
C  45.98400 12.61600 23.54100
N  46.07000 15.29300 29.41600
C  45.13500 14.74400 28.54500
C  43.87300 14.49400 29.23100
C  44.20000 14.82900 30.57700
C  45.49100 15.34300 30.60200
C  42.64100 13.91800 28.64500
C  43.65100 14.82200 31.89900
O  42.59000 14.40700 32.30300
C  44.79200 15.35400 32.81500
C  44.28100 16.43800 33.78500
O  43.89100 17.54500 33.46300
O  44.34100 16.03200 35.05800
C  44.03800 17.07200 36.04300
H  51.09400 18.20100 31.63600
H  50.34500 16.52000 25.42400
H  44.64800 13.96800 26.58700
H  47.09900 17.05000 34.25900
H  49.78800 17.32300 33.68900
H  49.43100 19.69700 33.54700
H  48.04900 19.26900 34.59000
H  47.94700 19.50400 32.75200
H  49.28200 15.05700 33.75300
H  47.59700 14.55300 34.14300
H  49.66400 15.03100 35.90800
H  47.95600 14.67800 36.10900
H  53.67100 18.85500 29.42500
H  53.76500 17.11400 29.66900
H  53.11900 18.09200 30.98200
H  54.71300 17.49900 27.20200
H  53.91400 19.15000 27.23400
H  54.40800 18.47400 25.66600
H  48.90000 15.04200 24.07900
H  45.90700 15.10600 24.51800
H  47.65700 17.75200 24.54000
H  46.87600 16.61500 23.30500
H  48.61100 16.97500 23.20800
H  46.70300 12.65800 25.56500
H  47.93100 13.07800 24.37800
H  46.42000 11.68900 23.16800
H  45.75000 13.35000 22.77000
H  45.05700 12.25800 23.98900
H  42.40200 14.28200 27.64500
H  41.82800 14.20500 29.31200
H  42.62100 12.83100 28.57700
H  45.15600 14.50800 33.39800
H  44.79200 17.85200 35.94500
H  44.01500 16.50400 36.97300
H  43.02500 17.46700 35.96100

