158

Mg 24.53000 -4.73600 45.24900
C  26.88600 -2.55400 43.82900
C  22.20400 -3.68500 43.12100
C  22.66600 -7.42100 46.16000
C  27.26400 -6.05000 47.27600
N  24.63600 -3.34900 43.58300
C  25.57200 -2.50600 43.27200
C  25.07900 -1.61000 42.07200
C  23.55700 -1.69100 42.33500
C  23.42600 -2.99400 43.01200
C  23.10000 -0.63400 43.36800
C  25.42700 -2.18700 40.63000
C  26.02600 -1.19200 39.58500
H  25.92300 -1.65500 38.07000
N  22.62300 -5.46900 44.76400
C  21.84600 -4.80900 43.90800
C  20.54400 -5.42600 43.83100
C  20.59900 -6.58700 44.68100
C  21.99600 -6.55700 45.29000
C  19.40300 -5.07500 42.88300
C  19.53300 -7.63600 45.00700
O  18.44600 -7.51200 44.43500
C  19.76100 -8.94900 45.77800
N  24.92700 -6.42600 46.51900
C  23.97700 -7.38800 46.70700
C  24.49200 -8.57100 47.49600
C  25.84500 -7.99300 48.11800
C  26.02400 -6.75700 47.23000
C  23.55900 -9.29200 48.51100
C  27.07900 -8.92700 48.20600
C  27.73300 -8.81500 49.64000
N  26.64000 -4.31400 45.61100
C  27.57800 -4.99000 46.40500
C  28.88800 -4.40700 46.10400
C  28.62400 -3.37600 45.12000
C  27.23800 -3.40300 44.86800
C  30.12600 -4.66100 46.86100
C  29.18100 -2.25500 44.34800
O  30.27400 -1.71300 44.40400
C  28.11300 -1.73500 43.38300
C  27.94900 -0.27900 43.65000
O  27.69800 0.20800 44.74900
O  28.16700 0.51900 42.52900
C  27.86400 1.92700 42.64500
H  21.36500 -3.28100 42.55100
H  22.06800 -8.30600 46.38600
H  28.03900 -6.39900 47.96200
H  25.44300 -0.59100 42.20400
H  23.08800 -1.68900 41.35100
H  23.80100 0.18100 43.54800
H  22.89200 -1.10000 44.33100
H  22.20700 -0.18800 42.93200
H  24.61100 -2.78800 40.22800
H  26.23600 -2.88300 40.85000
H  27.09300 -1.12700 39.80000
H  25.46600 -0.28500 39.81300
H  19.62800 -5.68300 42.00700
H  19.29200 -4.05000 42.52800
H  18.45600 -5.46200 43.26100
H  18.84800 -9.52300 45.62200
H  20.12500 -8.74400 46.78500
H  20.50000 -9.57900 45.28600
H  24.76800 -9.21300 46.66000
H  25.52100 -7.45800 49.01000
H  23.97200 -9.03000 49.48500
H  23.63500 -10.35700 48.28900
H  22.51500 -9.00500 48.39000
H  27.80400 -8.76300 47.41000
H  26.80200 -9.96700 48.03100
H  27.81700 -9.79700 50.10600
H  27.28100 -8.11300 50.34100
H  28.76800 -8.48500 49.54800
H  30.96500 -4.23300 46.31300
H  30.14700 -5.71100 47.15200
H  30.10300 -4.14000 47.81800
H  28.37900 -2.00800 42.36100
H  27.05100 2.13100 43.34200
H  27.87300 2.43300 41.68000
H  28.70100 2.38600 43.17200
Mg 25.12400 1.15100 29.03100
C  27.29900 0.81700 31.71900
C  22.45300 1.56000 31.32300
C  22.87200 1.07400 26.41300
C  27.65300 0.45500 26.79700
N  24.84900 1.00000 31.23200
C  25.96900 1.19000 32.05700
C  25.43700 1.38400 33.53200
C  23.91000 1.55200 33.36900
C  23.71800 1.33800 31.90000
C  23.05900 0.60500 34.32800
C  26.10500 2.61600 34.21800
C  26.72700 2.36400 35.58800
H  26.39400 3.41700 36.73100
N  23.01900 1.33300 28.86200
C  22.12000 1.50700 29.93600
C  20.78600 1.70700 29.50400
C  20.87500 1.58700 28.08700
C  22.25700 1.32600 27.71700
C  19.62000 2.11300 30.44200
C  19.79100 1.61900 27.02900
O  19.97900 1.52600 25.81800
C  18.31700 1.67500 27.43100
N  25.30800 0.80700 26.94700
C  24.16600 0.84800 26.07600
C  24.58000 0.63900 24.62700
C  26.19600 0.63700 24.68000
C  26.41700 0.64400 26.18300
C  24.02000 -0.55800 24.03200
C  26.95100 1.84600 24.02900
C  27.02300 3.18200 24.78000
N  27.08300 0.64400 29.23900
C  28.01700 0.38900 28.23400
C  29.31000 0.15100 28.81900
C  29.06200 0.28400 30.25200
C  27.70400 0.61700 30.40700
C  30.59300 -0.21800 28.12400
C  29.63300 0.31600 31.57600
O  30.83300 0.27000 31.89300
C  28.47300 0.76200 32.61600
C  28.28500 -0.18700 33.80300
O  27.59100 -1.21200 33.82100
O  29.02400 0.32700 34.90300
C  28.86600 -0.51500 36.12000
H  21.61800 1.85500 31.96100
H  22.32100 1.33400 25.50700
H  28.52500 0.26900 26.16700
H  25.68000 0.47200 34.07900
H  23.58500 2.57500 33.55700
H  22.43800 -0.10900 33.78700
H  22.39200 1.31100 34.82200
H  23.71700 0.01500 34.96700
H  25.26700 3.29700 34.36500
H  26.85700 3.05300 33.56000
H  27.80600 2.45000 35.46200
H  26.42700 1.39300 35.98100
H  19.05200 2.80400 29.81900
H  19.80800 2.59100 31.40300
H  19.13700 1.14800 30.59400
H  18.09400 0.78400 28.01800
H  17.71100 1.71800 26.52700
H  18.11300 2.55300 28.04500
H  24.20500 1.53700 24.13500
H  26.53600 -0.32100 24.28900
H  24.73800 -1.32000 23.73000
H  23.51200 -0.19300 23.13900
H  23.35200 -1.07300 24.72200
H  26.50500 1.99900 23.04600
H  27.96500 1.59100 23.71900
H  28.09500 3.21600 24.97200
H  26.40900 3.20800 25.68100
H  26.75600 4.02100 24.13700
H  31.41000 -0.27400 28.84300
H  30.81500 0.46800 27.30600
H  30.55100 -1.26300 27.81900
H  28.69900 1.78300 32.92200
H  28.56800 0.06900 36.99100
H  29.84200 -0.86900 36.45100
H  28.29500 -1.42900 35.95900

