158

Mg 43.50200 4.58100 47.18600
C  41.61800 7.70600 47.19200
C  40.68300 3.01000 46.59100
C  45.46100 1.98800 46.66200
C  46.35300 6.68000 47.06300
N  41.40000 5.27300 46.91200
C  40.87900 6.53400 47.03200
C  39.32500 6.44400 46.99500
C  39.05000 4.91000 47.02800
C  40.46400 4.36900 46.82200
C  38.45500 4.25900 48.32900
C  38.64500 7.15700 45.80700
C  39.42700 7.21900 44.45000
H  38.72400 6.81600 43.19200
N  43.13800 2.78300 46.72200
C  41.85400 2.24000 46.52000
C  41.94400 0.80800 46.30700
C  43.32400 0.44800 46.32800
C  44.06000 1.73800 46.62200
C  40.73900 -0.11400 46.03400
C  43.93700 -0.90800 46.06800
O  43.15000 -1.81200 45.92000
C  45.34400 -1.19900 46.07200
N  45.66800 4.36900 46.89500
C  46.23400 3.19300 46.71300
C  47.80500 3.29800 46.54600
C  48.00500 4.82000 46.61900
C  46.60900 5.32800 46.94300
C  48.50500 2.43900 47.64400
C  48.55600 5.45900 45.27800
C  50.00100 5.16800 44.76000
N  44.01300 6.76800 47.22900
C  45.16500 7.42300 47.06200
C  44.98300 8.87900 47.05800
C  43.57100 9.03200 47.16700
C  43.03300 7.68800 47.31500
C  46.13300 9.91000 47.15800
C  42.48800 9.98900 47.40500
O  42.52200 11.21500 47.58200
C  41.21200 9.16400 47.29100
C  40.19700 9.39300 48.37100
O  40.15800 8.99600 49.51600
O  39.19800 10.16400 47.78300
C  38.00800 10.57400 48.46100
H  39.82800 2.33700 46.50300
H  46.12300 1.12200 46.59700
H  47.32000 7.18100 46.99600
H  38.96000 6.87200 47.92900
H  38.35500 4.59200 46.25100
H  38.25500 5.08400 49.01300
H  39.04200 3.42700 48.71700
H  37.58900 3.73000 47.93100
H  38.55400 8.16500 46.21200
H  37.70900 6.66000 45.55400
H  40.34700 6.64700 44.56800
H  39.62000 8.28300 44.32000
H  40.48700 -0.20800 44.97800
H  39.87200 0.39300 46.45600
H  40.71700 -1.09700 46.50500
H  45.65600 -0.97300 47.09200
H  45.88300 -0.58100 45.35400
H  45.48800 -2.26500 45.89500
H  48.05700 2.91600 45.55700
H  48.59400 5.10800 47.49000
H  49.56800 2.52900 47.42000
H  48.24800 1.39200 47.48200
H  48.28500 2.76600 48.66000
H  48.39400 6.53000 45.15300
H  47.74100 5.13200 44.63300
H  49.88500 4.54800 43.87100
H  50.69800 4.72600 45.47200
H  50.47300 6.12600 44.54200
H  46.51300 9.89400 48.17900
H  45.79600 10.92900 46.96900
H  46.96000 9.66800 46.49000
H  40.74800 9.31800 46.31600
H  37.15600 9.99600 48.10400
H  37.86500 11.64900 48.35000
H  37.99300 10.27600 49.50900
Mg 17.16000 52.45800 26.21500
C  19.11700 50.78500 28.78200
C  14.84000 53.05000 28.58900
C  15.37900 53.54700 23.83900
C  19.53700 51.07900 23.95200
N  16.98100 51.84600 28.40500
C  17.91900 51.31700 29.25800
C  17.60000 51.61000 30.70400
C  16.04200 51.90000 30.58000
C  15.96800 52.35800 29.13900
C  15.01300 50.81400 30.90800
C  18.60000 52.67500 31.41500
C  19.08900 52.37100 32.80800
H  18.06400 51.67600 33.67000
N  15.39700 53.30100 26.17900
C  14.51800 53.47000 27.28600
C  13.34300 54.11300 26.88200
C  13.54100 54.34400 25.42000
C  14.76000 53.70600 25.07400
C  12.20400 54.53000 27.81100
C  12.66700 55.23800 24.53200
O  12.93700 55.51600 23.35900
C  11.44600 55.74800 25.07400
N  17.21300 52.05300 24.14000
C  16.42800 52.79800 23.35300
C  17.05000 53.02800 21.92600
C  18.38800 52.24700 22.09300
C  18.42200 51.85200 23.53800
C  16.03800 52.51900 20.84500
C  19.65900 52.98400 21.45000
C  20.01900 54.40700 21.93900
N  18.97600 51.28900 26.29900
C  19.72900 50.80600 25.31500
C  20.99900 50.22300 25.83700
C  20.70100 50.14200 27.15000
C  19.52300 50.85500 27.48100
C  22.12600 49.61000 24.95700
C  21.25100 49.70800 28.38800
O  22.30800 48.99900 28.54900
C  20.25500 50.08700 29.48100
C  19.74600 48.93700 30.28100
O  18.64100 48.39500 30.12800
O  20.55400 48.73900 31.35500
C  20.08200 47.76700 32.39300
H  13.97700 53.23900 29.23100
H  14.85000 54.07800 23.04500
H  20.39300 50.73800 23.36500
H  17.69000 50.62600 31.16400
H  15.77500 52.78100 31.16400
H  14.68100 50.89700 31.94300
H  15.41700 49.81800 30.72800
H  14.19800 50.85700 30.18500
H  18.11000 53.64500 31.32400
H  19.42900 52.70700 30.70900
H  19.44100 53.23600 33.37100
H  20.00400 51.78900 32.69700
H  12.18200 55.56100 28.16200
H  12.32800 54.17200 28.83400
H  11.21400 54.34000 27.39700
H  11.78500 56.44000 25.84500
H  10.83500 54.92000 25.43400
H  10.92600 56.28500 24.28000
H  17.19400 54.10400 21.82800
H  18.29800 51.27900 21.60000
H  15.58100 53.39700 20.38800
H  15.35500 51.78900 21.28000
H  16.60600 52.12100 20.00500
H  19.38800 53.04400 20.39600
H  20.57200 52.38900 21.49100
H  20.08200 55.10700 21.10600
H  21.05500 54.44900 22.27600
H  19.42700 54.77400 22.77800
H  22.44500 50.31600 24.19000
H  21.88400 48.63500 24.53400
H  22.94500 49.38000 25.63900
H  20.73100 50.73400 30.21700
H  19.99100 46.74400 32.03000
H  19.13800 48.23200 32.67600
H  20.80500 47.69600 33.20600

