158

Mg 46.82600 25.21900 28.29700
C  47.58900 27.47400 30.94300
C  46.01000 22.82700 30.63500
C  47.21300 22.81700 25.85800
C  48.02900 27.58300 26.17700
N  46.81000 25.14600 30.51300
C  47.01000 26.24100 31.37800
C  46.59400 25.92500 32.74100
C  46.31500 24.29800 32.68500
C  46.43000 24.02100 31.15800
C  47.16900 23.39300 33.60500
C  45.43500 26.79500 33.43800
C  45.77400 27.22300 34.90400
H  44.61200 27.28400 35.86300
N  46.50800 23.07200 28.24400
C  46.13300 22.36500 29.32800
C  45.75700 21.08200 28.79500
C  46.29900 20.94900 27.49000
C  46.69200 22.34200 27.13800
C  45.15800 19.95000 29.59200
C  46.29500 19.79800 26.52400
O  46.67400 19.93700 25.33000
C  45.73700 18.43000 26.95300
N  47.44600 25.17300 26.26500
C  47.52700 24.09300 25.44800
C  47.65500 24.50600 24.01500
C  47.72600 26.09300 24.05600
C  47.73100 26.34700 25.61700
C  48.78600 23.80900 23.15100
C  46.62000 26.83800 23.20900
C  45.16800 26.67800 23.59500
N  47.61400 27.19200 28.44000
C  47.99600 28.03500 27.50300
C  48.26400 29.30900 27.97200
C  48.17200 29.21900 29.41500
C  47.71200 27.84300 29.61900
C  48.65500 30.49300 27.13100
C  48.45500 29.79800 30.76600
O  49.00800 30.86400 31.09900
C  47.98400 28.70400 31.80300
C  49.09000 28.37900 32.74800
O  50.08100 27.66000 32.50200
O  48.90900 28.98100 33.99300
C  49.94900 28.68300 34.97600
H  45.57000 22.04200 31.25300
H  47.29900 22.03800 25.09800
H  48.31600 28.34600 25.45000
H  47.41700 26.14400 33.42200
H  45.28300 24.13400 32.99800
H  46.54700 22.88500 34.34200
H  47.71800 24.09200 34.23600
H  47.83300 22.67700 33.12200
H  44.53600 26.18300 33.51400
H  45.25000 27.64300 32.77900
H  46.05000 28.27600 34.86500
H  46.59000 26.61800 35.30000
H  44.50900 19.38300 28.92500
H  44.69100 20.38800 30.47400
H  45.94500 19.27700 29.93200
H  45.79800 17.66500 26.17900
H  44.64800 18.41200 27.00100
H  46.05900 18.14200 27.95400
H  46.69400 24.17300 23.62100
H  48.67500 26.51600 23.72800
H  49.48700 24.56700 22.80200
H  48.40200 23.18500 22.34400
H  49.32300 23.14200 23.82600
H  46.75100 26.47100 22.19100
H  46.97300 27.86900 23.23000
H  44.96200 25.64300 23.86600
H  44.48000 27.01200 22.81800
H  44.86700 27.23600 24.48200
H  49.05800 31.27000 27.78100
H  47.80300 30.87600 26.56900
H  49.43800 30.30500 26.39700
H  47.22200 29.25300 32.35700
H  50.94000 28.96100 34.61900
H  50.02900 27.61400 35.17600
H  49.76500 29.30100 35.85400
Mg 16.32100 50.34100 25.58100
C  18.26400 49.68400 28.58100
C  13.68100 50.82900 27.72300
C  14.63100 50.94200 22.91600
C  19.07000 49.16900 23.78900
N  16.09900 50.56200 27.86100
C  16.95200 50.25400 28.89400
C  16.39800 50.57200 30.27800
C  14.88800 50.59500 29.98600
C  14.83700 50.67300 28.37900
C  14.24300 49.28200 30.53700
C  17.01400 51.85100 30.79900
C  16.89900 52.08500 32.36200
H  15.90800 51.15300 33.12400
N  14.40900 50.85400 25.32600
C  13.42500 50.90500 26.31900
C  12.17700 50.96900 25.65800
C  12.36400 51.28600 24.26300
C  13.88900 51.03100 24.10000
C  10.92400 51.00100 26.49000
C  11.41600 51.64300 23.15600
O  11.76700 51.78200 21.97200
C  10.02200 52.00200 23.49100
N  16.84900 50.33600 23.68700
C  15.94600 50.67300 22.72000
C  16.58700 50.53400 21.26200
C  18.05100 50.00500 21.59500
C  18.06100 49.84500 23.09200
C  15.76800 49.65700 20.20600
C  19.21700 50.84700 20.97400
C  20.23800 50.19100 20.05200
N  18.35100 49.59300 26.06000
C  19.26600 49.10900 25.13600
C  20.38900 48.54300 25.92800
C  20.03100 48.71000 27.31900
C  18.79300 49.43500 27.26200
C  21.57200 47.89400 25.32500
C  20.42800 48.49600 28.64900
O  21.42800 48.01800 29.11700
C  19.32400 49.14400 29.49500
C  18.78100 48.14200 30.47200
O  18.10800 47.15300 30.16600
O  19.04200 48.52100 31.77100
C  18.36100 47.66600 32.78000
H  12.77400 50.90000 28.32600
H  14.08000 51.06400 21.98100
H  19.84200 48.90000 23.06500
H  16.72100 49.81500 30.99300
H  14.35700 51.37300 30.53500
H  14.92400 48.54800 30.96900
H  13.85900 48.67500 29.71700
H  13.42000 49.43500 31.23400
H  16.48200 52.61700 30.23400
H  18.06700 51.76000 30.53300
H  16.64000 53.13000 32.53500
H  17.87000 51.95100 32.84000
H  10.77000 52.04200 26.77500
H  10.97200 50.49700 27.45500
H  10.14200 50.59600 25.84800
H  9.61300 52.62000 22.69200
H  10.06600 52.71400 24.31400
H  9.35600 51.19300 23.79000
H  16.59200 51.56900 20.91900
H  18.06500 48.99800 21.17900
H  14.96000 49.16900 20.75300
H  16.42500 48.90600 19.76700
H  15.52700 50.33000 19.38300
H  19.73700 51.32900 21.80100
H  18.76200 51.64900 20.39300
H  19.69000 49.27400 19.83700
H  21.11600 49.84300 20.59500
H  20.42100 50.76400 19.14300
H  22.44800 48.51600 25.51000
H  21.37600 47.95800 24.25500
H  21.63400 46.90800 25.78700
H  19.72900 49.94000 30.12000
H  17.35700 47.32100 32.53000
H  18.32700 48.31000 33.65900
H  18.99400 46.79300 32.94100

