158

Mg 9.49300 3.51300 27.96400
C  10.61400 1.99100 31.06800
C  7.83700 5.72700 30.03300
C  7.94500 4.56800 25.25300
C  10.90800 0.82000 26.20700
N  9.18800 3.73100 30.41800
C  9.92700 3.15900 31.43100
C  9.61000 3.80500 32.82700
C  8.61100 4.91900 32.39500
C  8.46300 4.75900 30.83200
C  7.22300 5.03100 33.03500
C  10.91700 4.36300 33.55300
C  11.33500 3.51900 34.77200
H  11.56100 4.48000 35.95400
N  8.15600 4.95600 27.66400
C  7.61500 5.82400 28.58600
C  6.81000 6.81300 27.87100
C  6.79100 6.47200 26.49800
C  7.69400 5.39000 26.41400
C  5.91700 7.74800 28.58300
C  6.11600 7.19100 25.29100
O  6.12000 6.83900 24.15500
C  5.42100 8.47500 25.68700
N  9.41200 2.77400 26.03000
C  8.69100 3.39300 25.07800
C  8.78700 2.57900 23.71400
C  9.78200 1.51700 24.04600
C  10.03000 1.66300 25.56100
C  7.43400 2.14000 23.10300
C  11.05700 1.40100 23.16600
C  10.94700 0.85100 21.73300
N  10.59800 1.81500 28.46700
C  11.17800 0.84500 27.60800
C  11.88500 -0.13200 28.43700
C  11.68500 0.23800 29.81300
C  10.87300 1.40500 29.79800
C  12.59300 -1.42300 27.99700
C  12.01800 -0.04000 31.19800
O  12.72100 -0.89700 31.64600
C  11.33200 1.09500 32.06700
C  10.46400 0.55600 33.13700
O  9.24900 0.40600 33.06500
O  11.23000 0.27100 34.21500
C  10.53000 -0.27400 35.30700
H  7.26300 6.43200 30.63700
H  7.57400 4.92700 24.29000
H  11.40200 0.02400 25.64600
H  8.98900 3.30600 33.57100
H  9.08200 5.90100 32.41900
H  7.12900 4.74200 34.08200
H  6.52000 4.49000 32.40000
H  6.80900 6.02900 32.89300
H  10.87800 5.41500 33.83200
H  11.68100 4.22100 32.78800
H  12.22000 2.92500 34.54700
H  10.54700 2.82200 35.06000
H  4.91200 7.33700 28.48100
H  5.85300 8.76500 28.19400
H  6.02600 7.89100 29.65800
H  4.61500 8.23600 26.38100
H  4.80200 8.76800 24.83900
H  6.09600 9.27600 25.99100
H  9.22200 3.29000 23.01100
H  9.30400 0.53800 24.05300
H  6.78300 1.58300 23.77700
H  7.49900 1.59200 22.16300
H  6.90400 3.07600 22.93200
H  11.77400 0.75700 23.67600
H  11.42800 2.42500 23.13400
H  9.88200 0.84200 21.50200
H  11.31300 -0.17400 21.66800
H  11.58100 1.48300 21.11100
H  12.87600 -1.31200 26.95000
H  12.02500 -2.33100 28.19500
H  13.46700 -1.47400 28.64700
H  12.20300 1.64300 32.42500
H  9.69400 0.39800 35.50000
H  11.22300 -0.14300 36.13700
H  10.26500 -1.31800 35.13500
Mg 6.26500 54.24000 41.04400
C  5.84300 50.83600 41.18300
C  9.65800 53.71100 40.07800
C  6.61900 57.50800 40.59200
C  2.78600 54.66600 41.43100
N  7.54800 52.42700 40.68600
C  7.16500 51.13900 40.80400
C  8.28000 50.14400 40.31500
C  9.46000 51.16200 40.54800
C  8.85500 52.53900 40.33800
C  10.03100 51.00600 41.93100
C  8.22600 49.65600 38.85400
C  7.36700 50.47100 37.88600
H  6.60000 49.63400 36.82200
N  7.85400 55.43400 40.53600
C  9.12800 55.08600 40.09200
C  9.90100 56.21000 39.87200
C  9.06900 57.33200 40.04800
C  7.72600 56.75900 40.34000
C  11.43500 56.09500 39.68900
C  9.56500 58.77400 39.91400
O  10.69800 59.03900 39.63000
C  8.67600 59.86200 40.16400
N  4.88400 55.85900 41.09200
C  5.29000 57.13100 40.87000
C  4.14400 58.12900 41.05300
C  2.97200 57.17900 41.43500
C  3.55300 55.81700 41.33700
C  4.40900 59.36500 41.96300
C  1.64900 57.46000 40.73300
C  0.45900 57.82200 41.62300
N  4.55900 53.04600 41.38600
C  3.23700 53.30200 41.59200
C  2.49900 52.07200 41.82300
C  3.48100 51.06000 41.79500
C  4.70400 51.71000 41.45700
C  1.09300 51.98600 41.98900
C  3.77100 49.67100 41.80200
O  2.97900 48.73100 41.98800
C  5.28000 49.47000 41.50000
C  5.19300 48.57000 40.30700
O  4.82200 48.99200 39.22300
O  5.51000 47.27000 40.54300
C  5.23800 46.34400 39.42300
H  10.73000 53.50900 40.03000
H  6.71400 58.58900 40.47200
H  1.70600 54.80200 41.51900
H  8.20400 49.24200 40.92100
H  10.21400 51.06900 39.76700
H  9.83300 50.02700 42.36700
H  9.72100 51.76500 42.64900
H  11.09000 50.99000 41.67200
H  7.64400 48.74700 39.00800
H  9.24000 49.56100 38.46700
H  8.14400 51.08500 37.43200
H  6.65800 51.17000 38.32900
H  11.93400 55.47700 40.43600
H  11.96600 57.04600 39.73900
H  11.64900 55.66000 38.71200
H  8.22200 59.69100 41.14100
H  8.05000 59.78500 39.27600
H  9.28100 60.76400 40.07500
H  3.92600 58.43900 40.03100
H  2.78900 57.27800 42.50500
H  5.41500 59.60300 42.30800
H  3.72800 59.19900 42.79800
H  3.98900 60.17800 41.37100
H  1.36800 56.54800 40.20600
H  1.66700 58.31300 40.05600
H  -0.54200 57.69800 41.20900
H  0.64500 58.77900 42.11000
H  0.46200 57.05500 42.39700
H  1.03200 51.30800 42.84000
H  0.59400 51.56300 41.11700
H  0.80900 52.99300 42.29600
H  5.80300 48.96100 42.31000
H  4.24600 45.89300 39.41400
H  5.98000 45.56100 39.58100
H  5.32600 46.82300 38.44800

