158

Mg -1.41600 16.73000 26.12400
C  -1.85400 14.64000 28.84600
C  -2.43600 19.31400 27.96400
C  -1.63800 18.57400 23.33700
C  -1.46400 13.80900 23.99500
N  -2.14000 16.89000 28.11300
C  -2.15100 15.96700 29.11300
C  -2.48600 16.55300 30.50000
C  -3.01100 17.98400 30.09100
C  -2.62300 18.10600 28.59500
C  -4.50700 18.17300 30.35600
C  -1.27400 16.45500 31.52700
C  -1.12600 17.41700 32.66000
H  -0.65500 16.71400 33.92300
N  -1.59000 18.73700 25.70600
C  -1.98100 19.67400 26.65600
C  -1.83200 21.00300 26.02800
C  -1.54400 20.78000 24.62500
C  -1.58300 19.30600 24.51100
C  -1.92600 22.37600 26.84600
C  -1.30500 21.77300 23.50300
O  -1.06700 21.37200 22.34300
C  -1.22200 23.28600 23.70700
N  -1.61500 16.27500 24.05800
C  -1.52500 17.26200 23.09400
C  -1.51500 16.67900 21.67400
C  -1.28600 15.16700 21.92300
C  -1.50000 15.02300 23.42100
C  -2.92700 16.95500 20.90200
C  0.20700 14.64000 21.57800
C  1.37000 15.50300 22.17600
N  -1.53200 14.63900 26.33400
C  -1.55500 13.60500 25.39700
C  -1.47500 12.40700 26.06100
C  -1.52400 12.72700 27.43400
C  -1.64000 14.11000 27.55900
C  -1.48400 11.05400 25.55400
C  -1.69000 12.19500 28.78300
O  -1.74800 11.07100 29.17800
C  -1.74600 13.42400 29.80900
C  -0.56700 13.47300 30.71500
O  0.46100 14.00500 30.42400
O  -0.90700 12.87100 31.93700
C  0.04600 12.91000 33.04500
H  -2.70000 20.17200 28.58600
H  -1.64800 19.03300 22.34600
H  -1.24200 12.87300 23.47900
H  -3.27900 15.90500 30.87300
H  -2.35000 18.73200 30.52800
H  -4.98400 17.19400 30.40700
H  -4.87400 18.83000 29.56700
H  -4.68700 18.52000 31.37300
H  -0.38100 16.46500 30.90200
H  -1.36300 15.47800 32.00200
H  -2.02000 18.00900 32.85800
H  -0.34800 18.15900 32.48000
H  -0.98600 22.92400 26.78100
H  -2.17900 22.21000 27.89300
H  -2.60800 23.01400 26.28400
H  -2.11600 23.70400 24.17000
H  -1.09700 23.80400 22.75600
H  -0.34000 23.55100 24.28900
H  -0.67800 17.17200 21.18000
H  -1.95000 14.43600 21.46100
H  -3.43000 15.99300 20.79600
H  -2.68000 17.42400 19.95000
H  -3.45900 17.67200 21.52700
H  0.21900 14.74600 20.49300
H  0.27500 13.57700 21.80900
H  1.65600 16.13400 21.33500
H  2.23600 14.94200 22.52700
H  1.14800 16.13400 23.03600
H  -2.37200 10.58200 25.97400
H  -0.72800 10.50200 26.11100
H  -1.42800 10.98600 24.46700
H  -2.72500 13.40000 30.28800
H  0.28900 13.95000 33.26000
H  1.02300 12.51500 32.76500
H  -0.38300 12.48300 33.95100
Mg 53.24600 23.20300 44.25600
C  50.91000 25.56200 43.42600
C  51.02700 20.79000 43.09800
C  55.66400 20.88800 44.77200
C  55.45300 25.78300 45.00400
N  51.28500 23.22900 43.03900
C  50.53000 24.29600 42.92700
C  49.18100 23.87700 42.32600
C  48.99000 22.37800 42.65600
C  50.51600 22.11000 43.05500
C  48.08700 22.06700 43.83000
C  49.18100 24.12600 40.70900
C  47.74000 24.33600 40.11800
H  47.15800 23.24700 39.25700
N  53.36800 21.15900 43.90600
C  52.35500 20.35300 43.46200
C  52.71200 18.98100 43.52900
C  54.06400 18.97300 43.94000
C  54.44200 20.37900 44.25700
C  51.75000 17.79400 43.14800
C  54.86600 17.73500 43.90500
O  54.37700 16.70500 43.56300
C  56.27900 17.71100 44.27700
N  55.35500 23.26800 44.71500
C  56.11700 22.20800 44.96400
C  57.54600 22.64800 45.41400
C  57.42100 24.23400 45.55300
C  56.01800 24.48100 45.04800
C  58.20200 22.00100 46.61300
C  58.51600 25.08800 44.83800
C  59.70900 25.39400 45.80000
N  53.26500 25.23200 44.32000
C  54.21700 26.15700 44.72200
C  53.71100 27.44200 44.61100
C  52.38400 27.25800 44.17000
C  52.19700 25.91500 43.94200
C  54.35000 28.76400 44.89400
C  51.17900 27.93800 43.82000
O  50.90600 29.10900 43.92300
C  50.11800 26.86900 43.41700
C  49.57900 27.12700 42.05700
O  50.18200 27.32800 41.04600
O  48.21300 27.10500 42.18900
C  47.41500 27.78100 41.14900
H  50.22700 20.09100 42.84700
H  56.50200 20.18800 44.77400
H  56.05500 26.57100 45.46100
H  48.22700 24.31400 42.62000
H  48.77700 21.81900 41.74400
H  48.70000 21.59700 44.59900
H  47.30800 21.41700 43.43100
H  47.65900 22.96600 44.27500
H  49.57700 23.25100 40.19300
H  49.78000 24.98400 40.40100
H  47.75700 25.30700 39.62500
H  47.03500 24.45700 40.94100
H  52.10200 17.06300 42.42100
H  50.76800 18.12900 42.81400
H  51.49800 17.41400 44.13800
H  56.77000 17.94800 43.33400
H  56.51800 16.65700 44.42200
H  56.55600 18.25700 45.17900
H  58.20100 22.37000 44.58800
H  57.42200 24.43900 46.62300
H  57.70500 21.09000 46.94500
H  58.44500 22.58900 47.49900
H  59.23700 21.77600 46.35600
H  58.00400 26.01900 44.59400
H  58.85300 24.71300 43.87200
H  59.54000 24.90900 46.76100
H  59.79400 26.47500 45.91100
H  60.58400 24.97600 45.30300
H  54.10300 29.08100 45.90700
H  54.01500 29.55500 44.22200
H  55.43700 28.68600 44.87400
H  49.35300 26.80600 44.19000
H  46.90100 27.09300 40.47800
H  47.92600 28.59600 40.63500
H  46.60100 28.20400 41.73800

