158

Mg 17.68800 -2.35000 28.90500
C  16.05500 -0.64000 31.44000
C  19.64100 -3.84500 31.21600
C  19.37700 -3.61600 26.21100
C  16.04000 -0.12700 26.49800
N  17.75400 -2.32000 31.09100
C  16.98600 -1.54100 31.98600
C  17.34200 -1.85700 33.44000
C  18.50900 -2.86400 33.38300
C  18.75400 -2.98400 31.80200
C  19.72900 -2.46900 34.16200
C  16.04100 -2.36600 34.21500
C  15.68200 -1.52900 35.44900
H  16.82500 -0.77800 36.23900
N  19.02100 -3.75300 28.71200
C  19.78400 -4.24200 29.80500
C  20.71400 -5.23500 29.23900
C  20.54600 -5.22500 27.84100
C  19.63500 -4.10200 27.58400
C  21.77000 -5.88100 30.11000
C  21.17200 -6.20200 26.84300
O  20.91800 -6.10200 25.65500
C  22.00300 -7.38500 27.33400
N  17.81500 -1.90400 26.66600
C  18.57800 -2.62600 25.83300
C  18.30000 -2.19200 24.43200
C  17.14300 -1.11300 24.50700
C  16.97600 -1.03300 26.01700
C  19.54300 -1.84900 23.67600
C  15.83600 -1.33100 23.69800
C  15.47800 -0.10300 22.74500
N  16.34200 -0.72500 28.94600
C  15.74500 0.04800 27.89600
C  14.85700 0.93600 28.48500
C  14.91100 0.72600 29.91900
C  15.87200 -0.28600 30.09400
C  13.97700 1.83000 27.73400
C  14.42700 1.24700 31.14900
O  13.63900 2.13700 31.39500
C  15.30500 0.43800 32.19500
C  16.21300 1.41300 32.81100
O  17.20100 1.80600 32.27300
O  15.68100 1.86400 34.03400
C  16.27300 3.01100 34.70200
H  20.31900 -4.33000 31.92100
H  19.86100 -4.02800 25.32300
H  15.41500 0.48200 25.84200
H  17.63200 -0.86500 33.78600
H  18.22600 -3.84600 33.76200
H  19.42200 -1.63100 34.78800
H  20.67900 -2.34900 33.64200
H  19.97600 -3.26800 34.86200
H  16.25900 -3.35800 34.61000
H  15.14200 -2.35100 33.59900
H  15.36900 -2.27200 36.18300
H  14.84100 -0.89000 35.18100
H  22.36100 -5.18300 30.70300
H  22.62400 -6.31600 29.59000
H  21.36900 -6.68000 30.73400
H  21.33400 -7.77900 28.09900
H  22.99700 -7.11700 27.69100
H  22.12700 -8.08300 26.50600
H  17.90300 -3.09200 23.96200
H  17.53500 -0.10900 24.33900
H  19.41300 -0.94700 23.07800
H  19.84000 -2.61500 22.95900
H  20.46000 -1.66100 24.23500
H  15.04600 -1.45300 24.44000
H  15.94100 -2.20400 23.05500
H  16.25100 0.64800 22.58400
H  14.58200 0.36300 23.15300
H  15.36200 -0.46100 21.72100
H  13.07800 2.04300 28.31200
H  13.60600 1.32400 26.84300
H  14.32200 2.83800 27.50100
H  14.63700 -0.03000 32.91800
H  15.45900 3.71400 34.52300
H  17.16900 3.34700 34.17900
H  16.46000 2.95700 35.77500
Mg 54.24600 22.97900 44.69600
C  52.09100 25.53000 43.64800
C  52.02600 20.66200 44.01800
C  56.76000 20.67700 44.90700
C  56.68800 25.56700 45.53300
N  52.34300 23.11300 43.82700
C  51.54600 24.24300 43.52000
C  50.13200 23.85600 43.11600
C  50.00500 22.38200 43.65400
C  51.53400 21.98600 43.80700
C  49.21400 22.18000 45.03400
C  49.86100 24.05300 41.70300
C  48.56700 24.71800 41.39800
H  47.80300 24.24400 40.19600
N  54.40400 20.82000 44.36800
C  53.30900 20.07800 44.11000
C  53.69100 18.74500 44.08300
C  55.17600 18.71000 44.25900
C  55.54800 20.10400 44.49000
C  52.75500 17.62700 43.73300
C  56.00600 17.45900 44.42600
O  55.49700 16.42500 44.17900
C  57.48500 17.30300 44.99000
N  56.53300 23.20900 44.85500
C  57.27100 22.03200 45.01900
C  58.73400 22.40200 45.59700
C  58.68600 23.95400 45.82400
C  57.20400 24.28900 45.35700
C  59.33300 21.51900 46.78500
C  59.73000 24.73500 44.87700
C  60.80700 25.61400 45.46900
N  54.42700 25.06700 44.68200
C  55.41200 25.95900 44.97600
C  54.97100 27.33900 44.79700
C  53.71000 27.17000 44.19700
C  53.41200 25.80600 44.15700
C  55.67700 28.64300 45.05000
C  52.54800 27.90700 43.65400
O  52.48200 29.13400 43.69300
C  51.50700 26.86200 43.08900
C  51.53500 27.02200 41.58700
O  52.52600 26.86000 40.89200
O  50.36700 27.57500 41.17800
C  50.27700 28.22800 39.85400
H  51.08900 20.10500 43.94600
H  57.48600 19.86700 45.00000
H  57.39900 26.30500 45.91100
H  49.42700 24.45600 43.69100
H  49.41200 21.89600 42.87800
H  49.73200 21.64900 45.83400
H  48.37600 21.54200 44.75100
H  48.83600 23.12600 45.42200
H  49.84500 23.10300 41.16900
H  50.65100 24.67500 41.28200
H  48.73900 25.78600 41.26500
H  47.88000 24.84200 42.23500
H  52.80600 17.38300 42.67200
H  51.71200 17.91800 43.86400
H  52.92300 16.74400 44.34900
H  57.42600 17.70800 46.00000
H  58.03100 18.03000 44.38800
H  57.89300 16.31100 44.79500
H  59.33800 22.25100 44.70300
H  58.90100 24.17700 46.86900
H  58.77200 20.59000 46.88600
H  59.40400 22.04500 47.73600
H  60.35400 21.20600 46.56500
H  59.15400 25.35900 44.19300
H  60.20500 24.08000 44.14700
H  60.62900 25.56900 46.54400
H  60.75100 26.65300 45.14500
H  61.79700 25.23200 45.22400
H  56.72200 28.56700 45.34800
H  55.09200 29.04500 45.87800
H  55.62200 29.34700 44.21900
H  50.53900 27.03300 43.56100
H  49.67800 27.58300 39.21100
H  51.19600 28.39700 39.29300
H  49.68300 29.13300 39.97300

