158

Mg 49.48000 46.53500 42.05700
C  45.98900 47.39500 41.78500
C  48.76000 43.66900 40.43500
C  52.69600 46.09700 41.85700
C  50.00500 49.81500 43.33500
N  47.57500 45.77300 41.20100
C  46.28900 46.19600 41.17000
C  45.34000 45.26900 40.33300
C  46.20500 43.99800 40.05700
C  47.61100 44.47100 40.62700
C  45.78600 42.58700 40.71400
C  44.89900 46.04700 39.03300
C  43.39100 46.45300 38.89600
H  42.66800 45.60700 37.88300
N  50.64500 45.05400 41.20800
C  50.12800 43.89300 40.67200
C  51.21000 43.00400 40.33700
C  52.42300 43.69200 40.78300
C  51.96400 45.03500 41.32600
C  51.08100 41.63100 39.72300
C  53.85800 43.25100 40.63900
O  54.10100 42.11200 40.29700
C  55.08200 44.10200 40.73400
N  51.07500 47.73900 42.50700
C  52.32200 47.37300 42.22700
C  53.37100 48.36800 42.47700
C  52.50600 49.62400 42.81700
C  51.09900 49.04900 42.97300
C  54.43100 48.11100 43.52100
C  52.63900 50.67800 41.68000
C  53.39600 51.95900 42.00200
N  48.25500 48.22700 42.61900
C  48.65300 49.47000 43.11900
C  47.48500 50.30500 43.37300
C  46.44300 49.54100 42.85700
C  46.89600 48.28600 42.35600
C  47.47500 51.81200 43.85400
C  45.01400 49.54100 42.60600
O  44.30700 50.52800 42.65400
C  44.64900 48.12900 41.93000
C  43.81900 47.33100 42.83400
O  44.18400 46.87100 43.87200
O  42.66900 46.92200 42.20100
C  41.85300 45.77300 42.74100
H  48.51700 42.78500 39.84400
H  53.75500 45.84300 41.92900
H  50.28700 50.82500 43.63900
H  44.64300 45.10500 41.15400
H  46.36800 43.72500 39.01400
H  45.56700 41.77900 40.01700
H  44.88400 42.71900 41.31300
H  46.55400 42.26000 41.41400
H  45.11800 45.35400 38.22100
H  45.47300 46.97300 38.99900
H  43.41100 47.47200 38.50900
H  42.88500 46.54100 39.85800
H  50.04700 41.35000 39.52200
H  51.49300 40.93900 40.45800
H  51.69300 41.70000 38.82300
H  54.84000 44.99300 40.15400
H  55.96600 43.63100 40.30300
H  55.37800 44.37500 41.74700
H  53.86900 48.54900 41.52400
H  52.80800 50.07700 43.76200
H  54.47900 47.03400 43.68500
H  54.22300 48.53100 44.50500
H  55.41500 48.43400 43.18100
H  51.70900 50.95600 41.18400
H  53.17800 50.25200 40.83400
H  54.21700 52.00200 41.28600
H  53.44400 52.18700 43.06700
H  52.82700 52.73000 41.48300
H  46.45500 52.18500 43.76100
H  48.06400 52.40000 43.15100
H  47.82200 51.89100 44.88400
H  44.00600 48.25200 41.05900
H  41.31100 46.05800 43.64300
H  42.40300 44.88100 43.04100
H  41.12900 45.44000 41.99700
Mg 6.58600 53.21100 40.81300
C  6.09000 49.78800 40.26900
C  9.81100 52.93000 39.93300
C  6.86800 56.66900 40.99300
C  3.07500 53.55000 41.14400
N  7.85400 51.54900 39.92200
C  7.43800 50.24100 39.95900
C  8.66100 49.42100 39.89100
C  9.87200 50.37400 40.08100
C  9.18800 51.73900 39.97900
C  10.70300 50.20900 41.42400
C  8.87200 48.51200 38.67000
C  8.88000 49.17800 37.29000
H  7.75300 48.75900 36.30600
N  8.15800 54.62600 40.54700
C  9.34900 54.27700 40.04200
C  10.16300 55.43200 39.78900
C  9.35500 56.51200 40.18200
C  8.04600 55.98100 40.63400
C  11.59400 55.37000 39.18500
C  9.74000 57.93300 40.12500
O  10.78800 58.21200 39.65100
C  8.98700 59.12100 40.68200
N  5.12900 54.84000 41.01900
C  5.52800 56.13500 41.06200
C  4.38300 57.06200 41.30100
C  3.18500 56.12400 41.10100
C  3.84100 54.73400 41.12500
C  4.47500 57.83600 42.65100
C  2.25000 56.29800 39.88300
C  0.74200 56.06500 40.14500
N  4.90200 51.98200 40.82900
C  3.55100 52.21100 41.04800
C  2.73100 50.95300 40.95500
C  3.72400 50.05700 40.70900
C  4.98900 50.67300 40.53300
C  1.33100 50.68500 41.08200
C  3.99100 48.62800 40.56100
O  3.24600 47.63100 40.64100
C  5.47100 48.37000 40.28400
C  5.44300 47.55500 38.96500
O  4.90900 47.91300 37.99800
O  6.16000 46.36500 39.07300
C  5.89000 45.36600 38.02600
H  10.89600 52.83900 39.84800
H  6.78800 57.75800 40.96100
H  1.98300 53.57100 41.15100
H  8.54300 48.79400 40.77400
H  10.67600 50.15000 39.38100
H  11.03100 51.08800 41.97800
H  11.59700 49.65600 41.13400
H  10.10400 49.67100 42.15900
H  8.06400 47.78600 38.75500
H  9.77900 47.91700 38.77900
H  9.83500 49.05600 36.77800
H  8.72500 50.23500 37.50600
H  11.63500 55.89000 38.22800
H  11.93900 54.33800 39.12800
H  12.23800 55.81500 39.94400
H  9.61800 60.01000 40.70800
H  8.80000 58.85500 41.72200
H  8.03000 59.32800 40.20300
H  4.21100 57.80500 40.52300
H  2.62900 56.07500 42.03700
H  4.65600 58.86700 42.34800
H  5.23300 57.50800 43.36200
H  3.45500 57.68600 43.00700
H  2.58300 55.74000 39.00800
H  2.33300 57.32100 39.51700
H  0.62200 56.06100 41.22800
H  0.52400 55.13700 39.61600
H  0.21400 56.96900 39.84200
H  1.17300 49.84800 40.40100
H  0.86000 51.64700 40.88100
H  1.14200 50.42700 42.12400
H  5.70800 47.63500 41.05300
H  4.81900 45.29300 37.83800
H  6.31900 44.39500 38.27200
H  6.34000 45.72500 37.10000

