158

Mg -1.12000 17.58300 27.26200
C  -1.64000 15.17500 29.74200
C  -1.59000 20.03100 29.48800
C  -0.55900 19.87100 24.71400
C  -0.50900 14.95000 24.90900
N  -1.57900 17.60600 29.35400
C  -1.79200 16.48400 30.23500
C  -2.02100 16.98000 31.71800
C  -2.05700 18.51600 31.49700
C  -1.83700 18.75700 30.00200
C  -3.31400 19.26400 32.18600
C  -0.86700 16.50000 32.65700
C  -0.55400 17.33700 33.92200
H  -0.12600 16.45100 35.12800
N  -1.19400 19.65400 27.07300
C  -1.43200 20.50300 28.13300
C  -1.38800 21.91200 27.67300
C  -0.99500 21.80600 26.27400
C  -0.97100 20.37700 25.94700
C  -1.73700 23.08300 28.53500
C  -0.88600 22.92200 25.25900
O  -0.66900 22.81700 24.03200
C  -1.24600 24.29500 25.85100
N  -0.71700 17.43800 25.12400
C  -0.57600 18.54000 24.26500
C  -0.37400 18.03600 22.82400
C  -0.14000 16.53400 23.01300
C  -0.43100 16.28200 24.46800
C  -1.62800 18.46900 21.89400
C  1.26700 16.04100 22.58100
C  2.46300 16.20700 23.50100
N  -1.17500 15.50900 27.25400
C  -0.83600 14.55400 26.29300
C  -1.11500 13.21400 26.76600
C  -1.37800 13.36600 28.13000
C  -1.38000 14.78700 28.36200
C  -0.96800 11.92000 26.01200
C  -1.65600 12.74600 29.40900
O  -1.69500 11.55900 29.68000
C  -1.88000 13.89100 30.47000
C  -0.94600 13.42400 31.57400
O  0.26600 13.47100 31.51200
O  -1.67000 12.69700 32.50000
C  -0.82000 12.17900 33.56300
H  -1.86500 20.82200 30.18900
H  -0.47200 20.45000 23.79200
H  -0.18400 14.18400 24.20200
H  -2.96500 16.57700 32.08500
H  -1.15200 18.98600 31.88200
H  -2.98300 19.97100 32.94700
H  -3.87800 18.48800 32.70400
H  -3.99100 19.78400 31.50800
H  -0.03100 16.26700 31.99700
H  -1.25300 15.57300 33.08100
H  -1.46100 17.91300 34.10500
H  0.20900 18.08800 33.71700
H  -2.55000 23.60300 28.02900
H  -0.86400 23.71500 28.70000
H  -2.09700 22.83500 29.53300
H  -2.31500 24.34300 26.05400
H  -1.09900 25.05800 25.08600
H  -0.53600 24.45900 26.66200
H  0.50100 18.52800 22.39900
H  -0.92000 15.96000 22.51300
H  -1.81200 19.52500 22.09400
H  -2.45900 17.94800 22.36800
H  -1.50900 18.29100 20.82500
H  1.57600 16.52200 21.65300
H  1.29500 14.96300 22.42600
H  3.38500 16.39500 22.95100
H  2.54900 15.43500 24.26600
H  2.43400 17.15600 24.03700
H  -0.31600 12.11100 25.15900
H  -1.98400 11.68200 25.69800
H  -0.72400 11.06600 26.64400
H  -2.90200 13.90200 30.84900
H  -0.37800 11.21100 33.32300
H  -1.35500 12.14600 34.51200
H  0.01500 12.84600 33.77800
Mg 17.67500 -1.72800 27.59000
C  16.53100 0.08100 30.45000
C  19.71800 -3.43600 29.69500
C  19.37700 -2.71300 24.80400
C  15.79400 0.46300 25.65700
N  18.13300 -1.53500 29.87500
C  17.42400 -0.86100 30.81700
C  17.91600 -1.20100 32.30400
C  19.01500 -2.29100 31.98600
C  18.94900 -2.45700 30.39200
C  20.36200 -2.01100 32.56600
C  16.70400 -1.60700 33.21800
C  16.60200 -0.92200 34.59900
H  17.80500 -0.26000 35.20400
N  19.12100 -3.03000 27.29000
C  19.81600 -3.70700 28.30900
C  20.67600 -4.73900 27.66900
C  20.61700 -4.45700 26.28100
C  19.64000 -3.33000 26.02600
C  21.28900 -5.90300 28.46900
C  21.62100 -5.12000 25.16900
O  21.42900 -4.80100 23.96300
C  22.63700 -6.04800 25.65400
N  17.62300 -1.15900 25.52900
C  18.43200 -1.71600 24.57900
C  18.13000 -1.16200 23.21400
C  16.83300 -0.36200 23.40600
C  16.70700 -0.30200 24.93300
C  19.34900 -0.40900 22.53900
C  15.52700 -1.00600 22.81600
C  14.49800 -0.03000 22.20700
N  16.29500 -0.17700 27.88700
C  15.65400 0.62000 27.01700
C  14.74500 1.53600 27.65700
C  15.12300 1.43400 29.03200
C  16.06500 0.32500 29.09700
C  13.87000 2.47500 26.97200
C  14.84300 1.89700 30.44600
O  13.98000 2.69700 30.87100
C  15.82300 1.09600 31.38000
C  16.71900 2.09600 31.94500
O  17.84600 2.41600 31.54200
O  15.98800 2.66600 32.93600
C  16.77700 3.67400 33.62300
H  20.35300 -4.03300 30.35200
H  20.06100 -2.93700 23.98300
H  15.27300 1.14900 24.98500
H  18.38600 -0.29300 32.68100
H  18.70900 -3.13500 32.60400
H  20.52800 -2.67800 33.41200
H  20.50800 -0.98000 32.88600
H  21.15500 -2.18000 31.83700
H  16.68000 -2.69600 33.23500
H  15.78900 -1.35200 32.68200
H  16.21000 -1.66000 35.29900
H  15.77000 -0.21800 34.61100
H  21.01100 -6.82600 27.96000
H  20.84500 -5.94400 29.46400
H  22.37300 -5.80000 28.51100
H  23.46600 -5.69700 26.26800
H  23.01900 -6.44600 24.71400
H  22.00800 -6.76900 26.17800
H  17.79100 -2.01900 22.63200
H  16.88300 0.63500 22.96800
H  20.28300 -0.54000 23.08600
H  19.14200 0.66000 22.58300
H  19.40200 -0.66600 21.48100
H  15.07100 -1.51400 23.66600
H  15.68800 -1.77100 22.05600
H  14.40900 -0.08500 21.12200
H  14.64100 1.02200 22.45200
H  13.53800 -0.28300 22.65600
H  13.18900 1.91900 26.32800
H  14.48400 3.14200 26.36600
H  13.26100 3.04700 27.67300
H  15.22100 0.69500 32.19600
H  16.91500 4.47200 32.89400
H  17.63400 3.19500 34.09700
H  16.20100 4.02900 34.47700

