158

Mg 41.02000 8.21300 29.84600
C  42.57600 9.69200 32.72100
C  38.80600 6.60000 32.01600
C  39.90100 6.61300 27.26100
C  43.68200 9.56600 27.81800
N  40.67400 8.31100 32.17400
C  41.54300 8.88000 33.10700
C  40.82500 8.75500 34.47100
C  39.70000 7.66600 34.23600
C  39.71100 7.53400 32.70900
C  39.99900 6.32500 34.91700
C  40.26800 10.09700 34.97500
C  39.66000 10.20600 36.37500
H  40.37400 11.21900 37.31500
N  39.50900 6.87000 29.67500
C  38.71500 6.30600 30.63900
C  37.70400 5.50300 30.00000
C  37.90700 5.57800 28.57400
C  39.18000 6.32500 28.43900
C  36.65800 4.58000 30.68600
C  37.07800 4.97200 27.46600
O  37.25600 5.13900 26.31400
C  35.82500 4.24700 27.75300
N  41.83000 8.00800 27.90200
C  41.01100 7.47500 26.99900
C  41.70100 7.52900 25.59500
C  42.63100 8.78600 25.79300
C  42.74700 8.70600 27.32300
C  42.38200 6.23700 25.08000
C  42.28200 10.18100 25.18400
C  40.86000 10.65100 25.06900
N  42.85800 9.37100 30.13900
C  43.74900 9.87000 29.22900
C  44.66600 10.68500 30.02300
C  44.26400 10.76500 31.36000
C  43.16900 9.86700 31.36900
C  45.74700 11.44600 29.33500
C  44.50700 11.21800 32.67700
O  45.46500 11.89900 33.05700
C  43.42100 10.55000 33.65900
C  44.17100 9.75400 34.65700
O  45.14900 9.05000 34.37300
O  43.71400 10.06800 35.87700
C  44.18900 9.30200 37.06800
H  38.00800 6.10800 32.57600
H  39.50400 6.18100 26.34000
H  44.38500 10.14100 27.21300
H  41.60000 8.35800 35.12700
H  38.78600 8.07400 34.66900
H  41.02700 6.28700 35.27500
H  39.90200 5.60300 34.10700
H  39.39200 6.19900 35.81400
H  39.55200 10.22300 34.16200
H  40.93100 10.95800 34.90200
H  39.94900 9.28500 36.88100
H  38.58800 10.39100 36.43700
H  35.57500 4.64700 30.58200
H  36.76600 4.71500 31.76200
H  36.92700 3.58800 30.32400
H  36.00100 3.29500 28.25300
H  35.28800 4.12500 26.81200
H  35.26700 4.89400 28.43000
H  40.91100 7.85700 24.91900
H  43.60600 8.57200 25.35400
H  43.40800 6.40000 24.74900
H  41.75500 5.84200 24.28100
H  42.43300 5.51200 25.89200
H  42.63900 10.18300 24.15400
H  42.82800 10.91400 25.77800
H  40.24400 10.05000 25.73800
H  40.49400 10.50700 24.05300
H  40.65900 11.69100 25.32500
H  45.50600 11.69400 28.30100
H  46.65300 10.86900 29.52100
H  45.86400 12.32500 29.96900
H  42.88600 11.37600 34.12600
H  44.26700 8.23800 36.84500
H  43.58000 9.54900 37.93800
H  45.21800 9.62500 37.22600
Mg -0.29600 43.39500 25.22600
C  2.22500 42.79800 27.67000
C  -2.58800 42.30600 27.48300
C  -2.42700 43.19800 22.69100
C  2.39700 43.91900 22.92000
N  -0.10800 42.59900 27.33400
C  0.91000 42.64800 28.18500
C  0.38600 42.34400 29.62600
C  -1.12600 41.86500 29.44500
C  -1.32200 42.25600 27.97500
C  -1.37400 40.35200 29.72200
C  0.45400 43.55400 30.53600
C  -0.27600 43.56700 31.90900
H  -0.42400 42.34400 32.88700
N  -2.30400 42.99500 25.16100
C  -3.13300 42.55700 26.18000
C  -4.48100 42.47800 25.67800
C  -4.41700 42.62300 24.30700
C  -3.00500 42.96700 23.97400
C  -5.64900 42.15200 26.61800
C  -5.55200 42.63200 23.33000
O  -5.41500 42.92400 22.11400
C  -6.99200 42.13300 23.76200
N  -0.08400 43.56800 23.15800
C  -1.13900 43.45700 22.29400
C  -0.85000 43.66800 20.84300
C  0.69500 43.91400 20.96400
C  1.06100 43.83600 22.43800
C  -1.35300 42.50400 19.89100
C  1.20600 45.21200 20.28900
C  1.05900 46.49600 21.08200
N  1.87200 43.37700 25.21800
C  2.80300 43.77100 24.26300
C  4.18900 43.63100 24.79200
C  3.97400 43.25100 26.12700
C  2.54400 43.15900 26.34500
C  5.53600 43.87200 23.98200
C  4.65300 42.94500 27.42400
O  5.83400 42.71700 27.73000
C  3.48800 42.90900 28.47900
C  3.76300 41.78900 29.43700
O  3.70300 40.59300 29.26000
O  4.24300 42.32600 30.56600
C  4.60400 41.41900 31.69800
H  -3.25800 42.05900 28.31000
H  -3.11300 43.33300 21.85300
H  3.14000 44.15000 22.15400
H  0.96600 41.54600 30.09000
H  -1.81800 42.43100 30.06900
H  -2.01800 39.89000 28.97400
H  -1.87000 40.38800 30.69200
H  -0.44500 39.78600 29.79600
H  0.03100 44.33900 29.90800
H  1.47400 43.85900 30.77200
H  -1.28700 43.94300 31.75500
H  0.27400 44.34400 32.44000
H  -5.33700 42.48100 27.60900
H  -5.62800 41.06700 26.71500
H  -6.64900 42.49100 26.34800
H  -7.00200 41.14300 24.21700
H  -7.56600 41.99100 22.84600
H  -7.53900 42.82200 24.40500
H  -1.37600 44.58000 20.56200
H  1.25800 43.06700 20.57300
H  -1.83400 43.07600 19.09700
H  -2.01300 41.76700 20.34900
H  -0.47300 42.08100 19.40700
H  0.74200 45.30700 19.30800
H  2.26000 45.23200 20.01000
H  0.63600 46.39700 22.08200
H  0.39300 47.11700 20.48400
H  1.99500 47.05200 21.03500
H  6.32600 44.17700 24.66700
H  5.41000 44.61100 23.19100
H  5.75300 42.88600 23.56900
H  3.39900 43.86500 28.99500
H  4.56400 40.34700 31.50800
H  3.84100 41.56900 32.46200
H  5.64400 41.51400 32.01100

