158

Mg -2.25200 34.73100 26.66700
C  -3.83100 32.94200 29.06100
C  -1.22800 36.92700 29.09800
C  -1.20200 36.81100 24.26600
C  -4.15300 33.07300 24.20000
N  -2.65300 34.96900 28.81400
C  -3.10800 33.97500 29.64200
C  -2.88700 34.27200 31.11900
C  -2.08400 35.62500 31.10500
C  -2.01000 35.91100 29.60900
C  -2.69400 36.77500 31.92300
C  -2.31900 33.04100 31.97500
C  -2.96200 32.67400 33.38100
H  -2.08800 32.75900 34.61600
N  -1.07100 36.46200 26.71700
C  -0.72600 37.13500 27.81800
C  0.10100 38.19800 27.39000
C  0.16600 38.15500 26.00000
C  -0.77500 37.14600 25.58000
C  0.76900 39.16700 28.34100
C  0.92600 39.04100 25.00900
O  0.82800 38.84600 23.79000
C  1.79700 40.14500 25.39000
N  -2.84700 35.01200 24.57100
C  -2.12100 35.89300 23.75700
C  -2.73200 35.91100 22.34400
C  -3.38500 34.45800 22.29400
C  -3.38500 34.03600 23.76000
C  -3.79000 36.97200 22.11900
C  -2.68400 33.45400 21.39800
C  -1.34200 32.79300 21.85300
N  -3.74900 33.32900 26.57800
C  -4.37000 32.69600 25.53900
C  -5.32800 31.70900 25.99500
C  -5.11300 31.69700 27.43500
C  -4.16300 32.71400 27.68200
C  -6.10200 30.73200 25.05400
C  -5.52300 31.14700 28.66200
O  -6.23600 30.24900 29.02900
C  -4.67600 31.91500 29.77600
C  -5.76600 32.56800 30.63100
O  -6.66300 33.37200 30.32400
O  -5.66600 32.02600 31.88000
C  -6.64600 32.49900 32.90000
H  -0.91000 37.67900 29.82300
H  -0.91300 37.46100 23.43700
H  -4.66600 32.46100 23.45500
H  -3.81800 34.56200 31.60500
H  -1.10000 35.35000 31.48500
H  -3.23500 36.41600 32.79900
H  -3.36000 37.37900 31.30700
H  -1.88000 37.44300 32.20300
H  -1.25100 33.11200 32.18100
H  -2.37800 32.13200 31.37600
H  -3.22700 31.61700 33.35700
H  -3.83700 33.31700 33.48000
H  1.83800 38.96400 28.28200
H  0.62200 38.86700 29.37800
H  0.53400 40.22200 28.19900
H  2.52300 39.62600 26.01600
H  1.09900 40.67800 26.03500
H  2.27600 40.76500 24.63100
H  -1.94300 36.11600 21.62000
H  -4.42200 34.47100 21.95700
H  -3.62700 37.80900 22.79900
H  -4.79000 36.54200 22.16600
H  -3.58100 37.39800 21.13800
H  -2.47300 33.89100 20.42200
H  -3.36400 32.61700 21.24300
H  -0.54300 33.11100 21.18400
H  -1.42200 31.71800 21.69300
H  -1.03900 32.93100 22.89100
H  -5.37300 30.03400 24.64200
H  -6.57800 31.23200 24.21100
H  -6.91200 30.21600 25.57000
H  -4.13300 31.16200 30.34700
H  -7.57000 32.83700 32.43000
H  -6.11400 33.17300 33.57200
H  -6.89900 31.70300 33.60000
Mg -6.68100 25.56800 26.50100
C  -5.06100 26.94700 29.22800
C  -8.37000 23.33700 28.59800
C  -8.16600 24.12000 23.74600
C  -4.81100 27.64700 24.42600
N  -6.74400 25.27800 28.67100
C  -6.06000 26.03800 29.59300
C  -6.66600 25.76300 31.01300
C  -7.53000 24.48100 30.82600
C  -7.50000 24.23800 29.27000
C  -6.99600 23.17700 31.55600
C  -7.50600 26.98900 31.44200
C  -7.45100 27.35700 32.93300
H  -7.04900 26.24500 33.89000
N  -8.06900 23.98500 26.19900
C  -8.62900 23.20100 27.20000
C  -9.48500 22.16400 26.62700
C  -9.42000 22.37300 25.25500
C  -8.52000 23.51700 24.98800
C  -10.33400 21.16300 27.42600
C  -10.26700 21.70800 24.12100
O  -10.11300 22.07800 22.93100
C  -11.21400 20.61200 24.46900
N  -6.46800 25.81100 24.41900
C  -7.19000 25.09700 23.47400
C  -6.82000 25.53200 22.06000
C  -5.86900 26.75000 22.23100
C  -5.70500 26.78300 23.78600
C  -6.17400 24.29800 21.30000
C  -6.28600 28.11900 21.58500
C  -5.40300 28.51200 20.41500
N  -5.19200 26.98100 26.66000
C  -4.51100 27.72000 25.76400
C  -3.55200 28.53800 26.41200
C  -3.75100 28.21700 27.78400
C  -4.72600 27.22800 27.87900
C  -2.59400 29.52700 25.71500
C  -3.28900 28.54600 29.17500
O  -2.35300 29.30700 29.55000
C  -4.18800 27.72100 30.15000
C  -3.30000 26.97200 31.07400
O  -2.33700 26.31400 30.75000
O  -3.78200 27.15900 32.42000
C  -2.90800 26.52200 33.52400
H  -8.88300 22.71400 29.33400
H  -8.62600 23.68700 22.85500
H  -4.08300 28.18600 23.81600
H  -5.80600 25.55700 31.65000
H  -8.51300 24.73800 31.22100
H  -6.32200 23.49200 32.35300
H  -6.54900 22.44400 30.88500
H  -7.79000 22.62300 32.05700
H  -8.52500 26.86400 31.07500
H  -7.17600 27.91700 30.97500
H  -8.49900 27.63100 33.05200
H  -6.77400 28.20700 33.02000
H  -10.15500 20.14200 27.09100
H  -11.35800 21.42600 27.16000
H  -10.13800 21.17200 28.49800
H  -11.62600 20.16300 23.56600
H  -11.98200 21.04800 25.10800
H  -10.73000 19.82300 25.04500
H  -7.72100 25.82600 21.52300
H  -4.88600 26.44000 21.87900
H  -5.30900 24.68300 20.76000
H  -6.87300 23.83500 20.60500
H  -5.80200 23.59800 22.04800
H  -6.12100 28.88100 22.34700
H  -7.31900 28.10000 21.23800
H  -4.91300 27.66400 19.93800
H  -4.56400 29.04700 20.85900
H  -6.00400 29.14600 19.76200
H  -1.64300 29.02300 25.54700
H  -2.20100 30.20400 26.47300
H  -3.14500 30.04900 24.93300
H  -4.82200 28.43000 30.68100
H  -3.46000 25.97400 34.28700
H  -2.10700 27.16000 33.89800
H  -2.34600 25.68100 33.11900

