158

Mg 47.37100 15.13700 27.74300
C  45.50600 15.38000 30.77000
C  49.58600 17.37600 29.07900
C  49.11200 14.95600 24.81700
C  44.73200 13.55400 26.40300
N  47.38800 16.37500 29.61300
C  46.67300 16.14200 30.72600
C  47.22200 16.86700 31.90400
C  48.31600 17.82400 31.27700
C  48.46700 17.12800 29.89800
C  47.99000 19.32300 31.08900
C  47.87000 15.88700 32.99300
C  47.44200 16.13500 34.50800
H  48.39100 15.84800 35.67900
N  49.21200 16.00900 27.09900
C  49.92200 16.86700 27.80100
C  51.02900 17.26000 26.99300
C  51.01900 16.45700 25.77600
C  49.78500 15.75100 25.84400
C  52.01900 18.34200 27.36900
C  51.81900 16.51300 24.53500
O  51.84800 15.66500 23.67300
C  52.83300 17.64600 24.31100
N  46.99300 14.30500 25.95500
C  47.86200 14.33800 24.86400
C  47.18600 13.83600 23.62500
C  45.82100 13.29000 24.07600
C  45.76700 13.81600 25.54400
C  46.83700 15.00500 22.58600
C  45.74100 11.69500 24.11200
C  46.85000 10.92700 24.74700
N  45.51500 14.49200 28.42800
C  44.57800 13.74200 27.74100
C  43.46900 13.49200 28.60000
C  43.86000 13.93100 29.89200
C  45.01700 14.66900 29.67500
C  42.24800 12.74600 28.17800
C  43.50400 14.12900 31.30900
O  42.52500 13.76100 31.91700
C  44.60000 15.08500 31.90900
C  44.01200 16.32600 32.58400
O  43.69600 17.36100 32.07400
O  43.85100 16.08300 33.83900
C  43.24200 17.10400 34.70200
H  50.43300 17.96300 29.44200
H  49.75100 14.81500 23.94400
H  43.82500 13.06300 26.04600
H  46.47800 17.49600 32.39100
H  49.25700 17.92500 31.81800
H  48.70600 19.87000 31.70200
H  46.95800 19.49200 31.39700
H  48.16600 19.61700 30.05500
H  48.94700 15.87100 32.82700
H  47.48900 14.91600 32.67700
H  46.60800 15.44100 34.61600
H  47.02200 17.13800 34.58500
H  52.43400 18.93900 26.55700
H  52.78700 17.87000 27.98200
H  51.57400 19.04500 28.07300
H  53.41800 17.68300 25.23000
H  52.23100 18.54900 24.21400
H  53.53400 17.59800 23.47800
H  47.73900 13.05400 23.10500
H  44.99600 13.65000 23.46100
H  46.51000 15.89400 23.12500
H  46.23000 14.76400 21.71300
H  47.82500 15.16700 22.15500
H  45.58600 11.50500 23.05000
H  44.79200 11.33800 24.51200
H  47.71600 10.84400 24.09000
H  46.64500 9.91100 25.08400
H  47.17200 11.43500 25.65600
H  41.98000 12.88600 27.13000
H  41.41100 12.87800 28.86400
H  42.48100 11.68500 28.26400
H  45.06100 14.50200 32.70700
H  43.82000 18.02800 34.70400
H  43.08500 16.71300 35.70800
H  42.24900 17.32700 34.31400
Mg 30.54200 58.94100 41.17500
C  27.47900 57.86700 40.05400
C  32.07100 56.08500 39.90100
C  33.66500 60.41800 41.47300
C  29.04700 62.05400 41.82200
N  29.88700 57.32300 40.01100
C  28.55500 56.98600 39.82200
C  28.44600 55.64900 39.17700
C  29.80700 54.90900 39.68800
C  30.67600 56.16300 39.87000
C  29.89200 54.01200 40.94500
C  28.30200 55.76800 37.60200
C  27.15500 54.96400 36.90500
H  26.33100 55.52900 35.77200
N  32.67900 58.32700 40.83100
C  33.02100 57.12800 40.24100
C  34.44300 57.06800 40.24200
C  34.91900 58.30700 40.68500
C  33.76100 59.09800 40.98100
C  35.22700 55.86100 39.86700
C  36.36300 58.66000 40.68800
O  37.22500 57.87200 40.37400
C  36.92400 60.03700 40.81200
N  31.27800 60.95100 41.43700
C  32.57300 61.27400 41.62700
C  32.66100 62.73900 42.06900
C  31.19900 63.22100 42.24700
C  30.46100 61.97800 41.83300
C  33.56400 63.10700 43.26700
C  30.83500 64.43500 41.25600
C  30.06700 65.63200 41.89200
N  28.56900 59.81300 41.02200
C  28.08400 61.09700 41.31100
C  26.69900 61.21000 41.10800
C  26.35200 59.86800 40.65500
C  27.53300 59.15100 40.66000
C  25.83100 62.39300 41.26200
C  25.29100 59.06100 40.13800
O  24.11500 59.21800 39.78200
C  26.00100 57.66500 39.76900
C  25.52300 56.53800 40.59800
O  26.02600 56.07200 41.62300
O  24.39200 56.06700 39.92100
C  23.92800 54.79400 40.39200
H  32.60200 55.15200 39.70100
H  34.66600 60.78200 41.71400
H  28.55100 62.97300 42.14000
H  27.55000 55.18200 39.58600
H  30.17700 54.27900 38.88000
H  28.89100 53.98500 41.37400
H  30.59000 54.47000 41.64600
H  30.31600 53.02000 40.78700
H  29.23000 55.43900 37.13500
H  28.30600 56.83500 37.37900
H  26.44000 54.66000 37.66900
H  27.51200 54.00500 36.52800
H  35.63800 55.85700 38.85800
H  34.60200 54.98100 40.01400
H  36.06000 55.78200 40.56500
H  37.97600 60.10200 40.53300
H  36.82200 60.26800 41.87300
H  36.38300 60.79000 40.23900
H  33.05100 63.14200 41.13400
H  30.94200 63.36800 43.29600
H  34.15900 62.20500 43.40400
H  32.87600 63.23600 44.10200
H  34.29100 63.86600 42.98000
H  30.20700 63.99700 40.48100
H  31.66600 64.81500 40.66200
H  29.52500 66.16600 41.11200
H  30.76200 66.34200 42.33900
H  29.37600 65.34600 42.68600
H  26.31300 63.09600 41.94100
H  24.76200 62.18400 41.31600
H  25.95400 62.83200 40.27100
H  25.79800 57.49200 38.71200
H  23.76900 54.11900 39.55100
H  22.95200 54.88000 40.86900
H  24.42000 54.26000 41.20600

