158

Mg 25.42300 1.28300 29.83500
C  27.56100 1.39900 32.66800
C  22.81600 1.36000 32.07700
C  23.30900 1.08900 27.28800
C  28.14900 1.01700 27.76800
N  25.18000 1.26900 32.16600
C  26.20100 1.46600 33.10800
C  25.71400 1.67500 34.53500
C  24.18700 1.54600 34.35000
C  24.01900 1.44400 32.75500
C  23.61300 0.36700 35.19400
C  26.14000 3.08600 35.03500
C  26.85800 3.22000 36.38100
H  26.27400 4.20400 37.36300
N  23.29300 1.13600 29.73200
C  22.42500 1.23300 30.74600
C  21.15900 1.23200 30.22700
C  21.19700 0.99600 28.86100
C  22.65400 1.02500 28.57000
C  19.94700 1.42100 30.98000
C  20.08500 0.85700 27.77100
O  20.39000 0.61200 26.59900
C  18.66800 0.98100 28.07800
N  25.62800 1.02000 27.81700
C  24.67300 1.12900 26.86700
C  25.17500 1.24400 25.42200
C  26.69700 1.29500 25.69500
C  26.83100 1.14000 27.20700
C  24.69900 0.28900 24.33600
C  27.30600 2.50000 25.01100
C  26.90700 3.85000 25.67400
N  27.44200 1.09000 30.12700
C  28.40600 0.92200 29.14300
C  29.67600 0.83300 29.78400
C  29.41000 1.02000 31.20200
C  28.05100 1.16800 31.34200
C  30.93400 0.61900 29.03500
C  30.03200 1.12200 32.45000
O  31.23600 1.21200 32.67200
C  28.85000 1.57600 33.49400
C  28.96200 0.51000 34.65100
O  28.74500 -0.69500 34.55700
O  29.32700 1.16500 35.79300
C  29.90800 0.45200 36.95800
H  21.95900 1.52100 32.73400
H  22.70000 1.21100 26.39000
H  29.03400 0.98500 27.12900
H  26.10100 0.90700 35.20500
H  23.57200 2.42800 34.53200
H  22.84200 -0.14500 34.61800
H  23.04900 0.81900 36.01000
H  24.34900 -0.31700 35.61700
H  25.25000 3.71400 34.99700
H  26.87700 3.46800 34.32700
H  27.79600 3.66100 36.04300
H  27.01600 2.23700 36.82500
H  19.47000 2.31600 30.58100
H  20.10100 1.57800 32.04800
H  19.30300 0.54200 30.99200
H  18.37500 0.20000 28.78000
H  18.13200 0.84500 27.13900
H  18.36400 1.93800 28.50300
H  24.94400 2.26800 25.12900
H  27.20800 0.46300 25.20900
H  24.12300 0.77500 23.54800
H  24.02300 -0.46600 24.73900
H  25.60500 -0.13700 23.90500
H  26.89900 2.50500 24.00000
H  28.39200 2.41800 25.07000
H  26.39900 3.58000 26.60000
H  26.13000 4.33800 25.08500
H  27.73800 4.54500 25.79800
H  31.07400 1.39100 28.27900
H  30.89900 -0.33100 28.50100
H  31.83200 0.64100 29.65100
H  29.16400 2.51300 33.95500
H  30.39700 -0.51900 36.88700
H  29.16100 0.41200 37.75100
H  30.69400 1.08400 37.37100
Mg 40.44700 9.61900 29.69700
C  42.20200 10.88400 32.43100
C  38.04800 8.74600 31.83000
C  38.90100 8.21700 27.04600
C  42.95600 10.70000 27.51700
N  40.10800 9.94200 31.87400
C  40.88200 10.50000 32.77500
C  40.30300 10.50900 34.15000
C  38.91600 9.72700 33.99900
C  39.02800 9.38800 32.48100
C  38.73100 8.54600 34.97500
C  40.22400 11.89100 34.80700
C  39.53600 11.90800 36.24700
H  40.33000 12.52800 37.34300
N  38.76100 8.54700 29.50100
C  37.86900 8.41100 30.46800
C  36.79100 7.59000 30.01500
C  36.92200 7.42500 28.62400
C  38.19400 8.06500 28.29700
C  35.62900 7.03400 30.92700
C  36.01200 6.73300 27.58400
O  36.29900 6.50100 26.42000
C  34.63200 6.29000 28.00100
N  40.95600 9.38200 27.57400
C  40.09200 8.86700 26.67800
C  40.47900 9.11500 25.19600
C  41.69100 10.09900 25.41300
C  41.86700 10.08400 26.91800
C  40.84500 7.75700 24.41200
C  41.44700 11.55800 24.93200
C  40.29300 12.33500 25.60500
N  42.23800 10.55000 29.94700
C  43.17700 10.90700 28.89100
C  44.32200 11.53100 29.58700
C  43.95600 11.56800 30.94200
C  42.70200 10.91700 31.11800
C  45.56200 11.97400 28.92600
C  44.39200 11.96500 32.21300
O  45.40400 12.58700 32.51000
C  43.33600 11.45000 33.29200
C  43.97700 10.48100 34.28900
O  44.26700 9.30200 34.17200
O  44.02600 11.04500 35.52000
C  44.33500 10.25100 36.75800
H  37.26900 8.52700 32.56300
H  38.24100 7.91600 26.23000
H  43.65700 11.00300 26.73600
H  40.97600 9.98100 34.82600
H  38.11300 10.42800 34.22600
H  37.83300 8.77300 35.54900
H  39.53500 8.46300 35.70700
H  38.57100 7.57800 34.49900
H  39.78200 12.56300 34.07100
H  41.22600 12.29400 34.95400
H  39.22100 10.92600 36.60000
H  38.73900 12.59000 35.94900
H  35.81800 5.96200 30.98800
H  34.64700 7.37200 30.59600
H  35.68000 7.39000 31.95600
H  34.05500 5.95200 27.14000
H  33.99700 6.98500 28.54900
H  34.99900 5.50000 28.65700
H  39.64600 9.58600 24.67200
H  42.57400 9.64200 24.96800
H  40.32700 7.64700 23.46000
H  40.70000 6.80200 24.91700
H  41.91000 7.69100 24.18700
H  41.25000 11.56300 23.86000
H  42.38600 12.06800 25.15000
H  39.71900 11.59100 26.15800
H  39.64000 12.88400 24.92600
H  40.71400 13.05700 26.30500
H  45.74000 11.42900 27.99900
H  46.38900 11.78100 29.60900
H  45.55100 13.05100 28.75900
H  42.99600 12.35000 33.80300
H  45.36800 10.33300 37.09500
H  44.07600 9.19800 36.64700
H  43.65100 10.69400 37.48200

