158

Mg 36.04300 2.31000 30.77800
C  33.32500 3.06900 33.03300
C  38.08800 2.19000 33.27000
C  38.30500 1.69000 28.45800
C  33.55800 2.35600 28.16600
N  35.69800 2.63900 32.88900
C  34.56300 2.87700 33.64700
C  34.95900 2.96300 35.12500
C  36.49200 2.88500 35.16100
C  36.79500 2.49300 33.65300
C  37.25200 4.21200 35.48500
C  34.20800 1.81000 36.02000
C  33.75300 2.17000 37.45500
H  34.57600 3.18000 38.20400
N  37.93500 1.89100 30.84400
C  38.64800 1.89900 32.01600
C  39.98800 1.33800 31.79000
C  40.02100 1.17200 30.38800
C  38.74600 1.66200 29.83200
C  41.01600 1.05400 32.89700
C  41.14300 0.61800 29.51100
O  40.90500 0.39200 28.36900
C  42.54600 0.35500 30.09100
N  35.91900 1.92300 28.58500
C  37.01000 1.81500 27.88300
C  36.69600 1.48100 26.45500
C  35.13300 1.49400 26.38000
C  34.77100 1.87600 27.79400
C  37.34700 2.20600 25.29000
C  34.57500 0.05200 26.10700
C  34.50000 -0.29000 24.61500
N  33.95400 2.80800 30.53700
C  33.11400 2.73800 29.44800
C  31.78900 3.02500 29.87200
C  31.88400 3.23400 31.26800
C  33.19000 3.02000 31.59100
C  30.57600 2.96300 28.97900
C  31.08800 3.50300 32.46800
O  29.92200 3.75200 32.63800
C  32.08300 3.37900 33.65100
C  32.10800 4.72000 34.32500
O  32.54000 5.76600 33.81400
O  31.52200 4.62400 35.55800
C  31.43300 5.81300 36.44600
H  38.82100 2.16400 34.07900
H  39.00800 1.42600 27.66500
H  32.93700 2.31300 27.27000
H  34.59800 3.93500 35.46300
H  36.97000 2.12900 35.78300
H  37.76100 4.66600 34.63500
H  37.99600 4.06700 36.26800
H  36.59100 5.02700 35.77900
H  34.86900 0.94400 36.04600
H  33.38900 1.46800 35.38700
H  33.78300 1.18000 37.91000
H  32.72900 2.53900 37.38900
H  41.98800 1.43900 32.58900
H  41.00300 -0.02400 33.05400
H  40.73800 1.37000 33.90300
H  43.16800 -0.06300 29.29900
H  42.39800 -0.29400 30.95400
H  43.04400 1.26600 30.42400
H  37.01500 0.45600 26.26600
H  34.77500 2.29200 25.73100
H  36.63200 2.08800 24.47600
H  38.18100 1.59800 24.94000
H  37.60200 3.26400 25.35200
H  33.61200 -0.04700 26.60900
H  35.28500 -0.64800 26.54700
H  33.66600 -0.95400 24.38600
H  35.42000 -0.71600 24.21500
H  34.35500 0.62700 24.04300
H  29.69500 2.95500 29.62100
H  30.67100 2.03300 28.41800
H  30.50800 3.79800 28.28300
H  31.75400 2.60400 34.34200
H  31.47300 5.63400 37.52100
H  30.49600 6.33300 36.24500
H  32.24100 6.51900 36.25400
Mg -9.72900 40.03900 39.01500
C  -8.60200 36.88900 38.36700
C  -6.64500 41.17700 38.59900
C  -11.03200 43.08800 38.59500
C  -13.03500 38.81900 38.86100
N  -7.88400 39.08700 38.35900
C  -7.61600 37.76500 38.15600
C  -6.14700 37.47500 38.00800
C  -5.50500 38.85400 38.36500
C  -6.73200 39.80400 38.46000
C  -4.63800 38.83800 39.63200
C  -5.66600 36.87800 36.61300
C  -6.07500 37.59100 35.28300
H  -6.97500 36.81600 34.35300
N  -8.93500 41.99800 38.84200
C  -7.62500 42.24300 38.70000
C  -7.39700 43.65000 38.64600
C  -8.67800 44.26300 38.72100
C  -9.64400 43.12400 38.68700
C  -6.04700 44.32600 38.44500
C  -8.95400 45.76200 38.66700
O  -8.06500 46.58900 38.58000
C  -10.31000 46.34600 38.59000
N  -11.76500 40.79700 38.54400
C  -12.00800 42.12100 38.50600
C  -13.54900 42.42300 38.29300
C  -14.15300 41.03200 38.60000
C  -12.94800 40.19900 38.75700
C  -14.21500 43.60300 39.09000
C  -15.13700 40.59000 37.44400
C  -16.55400 41.04700 37.72700
N  -10.56600 38.27800 38.85100
C  -11.98100 37.88900 38.83000
C  -12.14600 36.45700 38.63300
C  -10.80700 36.05000 38.44100
C  -9.94700 37.11200 38.62700
C  -13.47500 35.73200 38.55800
C  -9.99600 34.84900 38.14200
O  -10.33800 33.70100 37.95400
C  -8.46100 35.37700 38.14800
C  -7.58700 34.62200 39.17200
O  -7.74300 34.56200 40.36400
O  -6.59000 33.98700 38.44900
C  -5.52700 33.50100 39.34900
H  -5.60100 41.47300 38.47800
H  -11.51100 44.05200 38.40700
H  -14.03000 38.37500 38.92300
H  -5.74200 36.74800 38.71200
H  -5.00300 39.27100 37.49100
H  -3.61700 39.18100 39.46600
H  -4.73000 37.94000 40.24300
H  -5.12800 39.57000 40.27300
H  -5.89400 35.82000 36.48800
H  -4.59200 37.03100 36.50600
H  -5.12500 37.84500 34.81300
H  -6.69200 38.46800 35.47700
H  -5.31000 43.57100 38.72000
H  -5.89600 45.23000 39.03500
H  -5.94500 44.63600 37.40500
H  -10.93200 46.18700 39.47100
H  -10.77800 46.10900 37.63500
H  -10.29400 47.43600 38.58500
H  -13.68400 42.60800 37.22700
H  -14.67500 41.06800 39.55600
H  -13.52400 44.06200 39.79700
H  -15.09800 43.25900 39.62800
H  -14.60700 44.34000 38.39000
H  -15.00400 39.53500 37.20400
H  -15.01800 41.02100 36.44900
H  -17.16300 40.14600 37.80400
H  -17.04100 41.69000 36.99500
H  -16.65000 41.59900 38.66200
H  -13.96500 36.21000 37.70900
H  -13.94300 35.80300 39.54000
H  -13.27200 34.74400 38.14400
H  -8.04900 35.11200 37.17500
H  -5.35200 32.43200 39.23200
H  -5.55300 33.79400 40.39900
H  -4.56900 33.86100 38.97400

