158

Mg 53.81500 22.68400 44.81000
C  51.51700 25.39600 44.02500
C  51.39200 20.51500 44.14000
C  56.31500 20.36500 44.56800
C  56.35300 25.19900 45.23600
N  51.75700 22.93200 44.07800
C  51.00000 24.09500 43.95100
C  49.46200 23.70300 43.81600
C  49.47900 22.21800 44.28500
C  50.94600 21.84600 44.10400
C  49.01700 21.94900 45.73300
C  48.88900 23.94400 42.34200
C  49.82600 23.47000 41.17700
H  49.24300 23.07100 39.81700
N  53.89700 20.65200 44.33400
C  52.74200 19.96500 44.09400
C  53.10900 18.56700 43.89900
C  54.55100 18.49500 44.06100
C  54.99000 19.85800 44.34400
C  52.26500 17.52700 43.43400
C  55.37200 17.17100 43.99500
O  54.87500 16.07600 43.83800
C  56.87900 17.26800 44.16400
N  56.08500 22.79700 44.92700
C  56.84400 21.64900 44.85100
C  58.28800 21.90100 45.25000
C  58.31700 23.52200 45.52900
C  56.84000 23.92600 45.23400
C  58.70500 20.95800 46.42300
C  59.35500 24.36700 44.70300
C  60.09500 25.44300 45.56800
N  53.94200 24.80300 44.66200
C  55.04400 25.65800 44.88800
C  54.62200 27.05800 44.81900
C  53.24200 26.98200 44.52500
C  52.87100 25.61500 44.39800
C  55.54200 28.25400 45.06900
C  52.10300 27.78600 44.18700
O  51.93400 28.98800 44.15100
C  50.98500 26.78800 43.85400
C  50.74200 26.93300 42.39100
O  51.49300 26.52700 41.46400
O  49.56200 27.57600 42.17400
C  49.11500 27.74000 40.80100
H  50.59200 19.77400 44.18300
H  57.19600 19.72000 44.58900
H  57.17800 25.89400 45.40600
H  49.00900 24.35300 44.56400
H  48.89000 21.62200 43.58800
H  48.78500 22.80600 46.36600
H  49.86800 21.53300 46.27200
H  48.26100 21.16300 45.70800
H  48.75400 25.01900 42.22700
H  47.90400 23.49200 42.22200
H  50.17300 22.47100 41.44100
H  50.61200 24.20900 41.02200
H  51.25600 17.81400 43.13700
H  52.07500 16.89100 44.29900
H  52.70700 16.98900 42.59500
H  56.90400 17.70500 45.16300
H  57.18200 17.91100 43.33800
H  57.35900 16.31500 43.93900
H  58.86500 21.72600 44.34200
H  58.59900 23.65800 46.57300
H  58.98500 19.99200 46.00100
H  57.82900 20.83000 47.05800
H  59.58200 21.32400 46.95600
H  58.84400 24.96900 43.95200
H  60.10600 23.74000 44.22200
H  60.13200 26.44300 45.13700
H  61.15800 25.20300 45.59500
H  59.77100 25.58800 46.59900
H  55.83500 28.12100 46.11000
H  55.03900 29.20600 44.90200
H  56.41800 28.19100 44.42300
H  50.10100 26.93700 44.47300
H  49.89400 28.00700 40.08600
H  48.36700 28.53200 40.78000
H  48.65000 26.83000 40.42200
Mg -4.55600 25.72400 25.76800
C  -3.34700 27.06600 28.62300
C  -6.21500 23.32400 27.85300
C  -6.01300 24.28500 23.07600
C  -2.70700 27.67400 23.87500
N  -4.88800 25.30600 28.10100
C  -4.29900 26.05800 28.98200
C  -4.77000 25.65200 30.33800
C  -5.58900 24.30300 30.12000
C  -5.55600 24.29600 28.62800
C  -5.00300 22.98500 30.77000
C  -5.58700 26.80500 31.02500
C  -5.69400 27.00900 32.57900
H  -5.28600 25.85300 33.56100
N  -5.84000 24.06800 25.47900
C  -6.29100 23.19200 26.42100
C  -7.10700 22.18400 25.79600
C  -7.08700 22.40500 24.35500
C  -6.29000 23.62000 24.22600
C  -7.84600 21.01900 26.58800
C  -7.62900 21.51300 23.28400
O  -7.43000 21.67800 22.06800
C  -8.55700 20.32900 23.62100
N  -4.30400 25.81700 23.71400
C  -5.13200 25.40300 22.84500
C  -5.06700 26.05700 21.47300
C  -3.93300 27.09700 21.66400
C  -3.64300 26.86800 23.19800
C  -4.71000 24.94700 20.29800
C  -4.18100 28.44700 21.20100
C  -4.70500 28.62300 19.78700
N  -3.26200 27.10000 26.09900
C  -2.52600 27.80700 25.24900
C  -1.73300 28.79400 25.99800
C  -1.96600 28.44200 27.32700
C  -2.96100 27.49200 27.32200
C  -0.89000 29.91300 25.40000
C  -1.72100 28.84800 28.63400
O  -1.08800 29.84000 29.04800
C  -2.61200 28.03000 29.53300
C  -1.80500 27.28900 30.43800
O  -1.10200 26.42200 30.08600
O  -2.01800 27.69300 31.70700
C  -1.36700 26.90300 32.77000
H  -6.77400 22.60300 28.45300
H  -6.54500 23.93200 22.19000
H  -2.20900 28.33600 23.16300
H  -3.99200 25.42000 31.06500
H  -6.57200 24.30100 30.59100
H  -4.69300 23.14800 31.80200
H  -4.06400 22.72100 30.28300
H  -5.73900 22.18200 30.75700
H  -6.59100 26.76200 30.60200
H  -5.18000 27.75300 30.67400
H  -6.73400 27.22600 32.82300
H  -5.17500 27.93600 32.81900
H  -7.83900 20.12900 25.95900
H  -8.87100 21.30200 26.82700
H  -7.29200 20.89100 27.51800
H  -7.81900 19.57700 23.90100
H  -9.16000 20.09900 22.74300
H  -9.25600 20.65600 24.39000
H  -6.03700 26.51800 21.28200
H  -3.04900 26.70200 21.16300
H  -4.04000 24.21200 20.74300
H  -4.21800 25.42000 19.44900
H  -5.61800 24.48400 19.91100
H  -3.24400 29.00200 21.25400
H  -4.94100 28.92300 21.82000
H  -4.92200 27.70000 19.25000
H  -3.96800 29.20400 19.23300
H  -5.58800 29.26200 19.75300
H  -1.17500 30.04600 24.35600
H  0.17400 29.68200 25.44000
H  -1.04900 30.83800 25.95500
H  -3.26600 28.73700 30.04400
H  -0.45500 27.39800 33.10500
H  -1.19400 25.87500 32.45100
H  -1.95100 26.76300 33.67900

