158

Mg 17.37900 -0.58900 26.64200
C  16.09100 1.16800 29.37100
C  19.14500 -2.53600 28.85000
C  18.57600 -2.44300 24.04300
C  15.64900 1.40100 24.49800
N  17.71700 -0.52400 28.91400
C  17.03600 0.19200 29.81600
C  17.39100 -0.23000 31.23400
C  18.49400 -1.33200 31.09100
C  18.40300 -1.51600 29.55300
C  20.02000 -0.97500 31.44700
C  16.23600 -0.60100 32.13000
C  16.59500 -0.95600 33.58600
H  17.86900 -0.29700 34.20000
N  18.72900 -2.27500 26.44400
C  19.36800 -2.87900 27.51400
C  20.07400 -3.95800 27.01700
C  19.90800 -3.97800 25.54100
C  19.04600 -2.91400 25.29300
C  20.72200 -5.01100 27.80500
C  20.53000 -4.98100 24.49100
O  20.21800 -5.00200 23.33500
C  21.45600 -5.97200 25.05200
N  17.33900 -0.39600 24.55500
C  17.86700 -1.29800 23.72200
C  17.48700 -0.97600 22.23200
C  16.38100 0.20900 22.40100
C  16.50400 0.42800 23.87700
C  18.68900 -0.46800 21.37700
C  14.92500 -0.06200 22.06700
C  14.46700 -1.48900 22.35100
N  16.26500 0.97000 26.82300
C  15.51000 1.64600 25.84900
C  14.52800 2.50500 26.48000
C  14.80300 2.36700 27.90200
C  15.80200 1.41000 27.99700
C  13.49400 3.31400 25.78200
C  14.42700 2.94100 29.18900
O  13.64100 3.85400 29.43100
C  15.27300 2.10600 30.24200
C  16.15700 3.03300 31.01700
O  16.81600 3.95400 30.53300
O  15.82200 2.93700 32.32600
C  16.42200 4.04100 33.15100
H  19.81500 -3.08800 29.51200
H  18.86000 -2.96000 23.12400
H  15.12700 1.91600 23.68900
H  17.76700 0.69300 31.67500
H  18.16700 -2.27700 31.52300
H  20.18100 0.04600 31.79200
H  20.57900 -1.08100 30.51700
H  20.42500 -1.56500 32.27000
H  15.87200 -1.58600 31.83700
H  15.43600 0.13800 32.09900
H  16.66200 -2.03000 33.76000
H  15.73300 -0.59600 34.14700
H  20.29500 -5.97400 27.52700
H  20.60000 -4.92000 28.88400
H  21.80700 -5.04400 27.70200
H  21.81600 -6.66400 24.29000
H  20.92100 -6.65300 25.71500
H  22.37800 -5.51600 25.41200
H  17.04400 -1.86200 21.77800
H  16.70300 1.02100 21.75000
H  18.80700 0.60300 21.21400
H  18.70600 -1.06300 20.46400
H  19.59800 -0.66900 21.94400
H  14.84700 0.02000 20.98300
H  14.22400 0.63600 22.52400
H  13.73000 -1.30400 23.13200
H  15.21700 -2.14300 22.79600
H  13.91800 -1.77400 21.45400
H  13.22000 2.70100 24.92200
H  13.99900 4.21800 25.44200
H  12.55400 3.63600 26.22800
H  14.48300 1.66800 30.85100
H  16.24400 3.88200 34.21500
H  15.96600 5.02100 33.01200
H  17.51100 4.07500 33.10600
Mg -11.99200 16.61900 41.97200
C  -8.83500 15.59800 41.29400
C  -11.26300 19.78900 40.65800
C  -15.27900 17.51000 42.20200
C  -12.96400 13.22300 42.43100
N  -10.22600 17.57000 41.21600
C  -8.95400 16.97500 41.08500
C  -7.93300 17.92100 40.55700
C  -8.68800 19.30800 40.66300
C  -10.16700 18.90000 40.86900
C  -8.16700 20.12500 41.83700
C  -7.55600 17.56300 39.07400
C  -6.05000 17.41100 38.74900
H  -5.67500 17.96100 37.36300
N  -13.12300 18.37700 41.56600
C  -12.66800 19.49900 40.90100
C  -13.77300 20.31600 40.55600
C  -14.94900 19.78700 41.10600
C  -14.45200 18.51400 41.68300
C  -13.70300 21.55600 39.66800
C  -16.33700 20.44100 41.15500
O  -16.42900 21.58700 40.72300
C  -17.53200 19.84100 41.77000
N  -13.84900 15.53500 42.33500
C  -15.07700 16.12000 42.44400
C  -16.18600 15.06400 42.55700
C  -15.42600 13.71900 42.36500
C  -13.97600 14.17900 42.41000
C  -17.10100 15.18400 43.81400
C  -15.85500 13.00900 41.08700
C  -16.14500 11.49600 41.20500
N  -11.08100 14.74600 41.99200
C  -11.55600 13.49400 42.30900
C  -10.43100 12.59100 42.24900
C  -9.33100 13.36500 41.87200
C  -9.80400 14.64000 41.69000
C  -10.44600 11.13000 42.44800
C  -7.92300 13.32500 41.46300
O  -7.12000 12.43500 41.38000
C  -7.50200 14.80300 41.16100
C  -6.46300 15.21000 42.22900
O  -6.73600 15.21800 43.44100
O  -5.43100 15.77500 41.61400
C  -4.41600 16.17500 42.56700
H  -11.03800 20.83800 40.45500
H  -16.35700 17.68300 42.23000
H  -13.36900 12.21000 42.45700
H  -7.07600 17.98200 41.22700
H  -8.55900 19.93200 39.77800
H  -8.21600 21.17100 41.53500
H  -7.12000 19.92100 42.06200
H  -8.68800 20.03900 42.79000
H  -7.98300 18.24200 38.33600
H  -8.04500 16.60400 38.89900
H  -5.75600 16.36400 38.67100
H  -5.42600 17.99900 39.42300
H  -14.65400 21.77100 39.17900
H  -13.00600 21.27800 38.87800
H  -13.42700 22.44000 40.24300
H  -18.40500 20.37900 41.40100
H  -17.47300 19.81500 42.85800
H  -17.63600 18.83400 41.36500
H  -16.72700 15.26900 41.63300
H  -15.48900 13.09800 43.25800
H  -17.84300 15.98100 43.75300
H  -16.52900 15.37400 44.72300
H  -17.52400 14.19400 43.98500
H  -15.02300 13.11900 40.39200
H  -16.77400 13.36500 40.62300
H  -17.19000 11.23800 41.03600
H  -15.90800 11.12300 42.20200
H  -15.49900 11.00200 40.47900
H  -10.87500 10.60000 41.59800
H  -10.99900 10.92600 43.36500
H  -9.40200 10.83000 42.54000
H  -6.97700 14.87300 40.20900
H  -3.51700 15.98200 41.98200
H  -4.36200 15.55800 43.46300
H  -4.49900 17.24900 42.73400

