158

Mg 25.41100 1.40700 30.20700
C  27.71800 0.94300 32.92200
C  22.87600 1.72300 32.51300
C  23.27600 1.53700 27.65700
C  28.02600 0.55400 28.07100
N  25.33500 1.28700 32.51100
C  26.40400 1.26300 33.37500
C  25.92900 1.57300 34.84900
C  24.39700 1.70500 34.68100
C  24.14500 1.59000 33.14300
C  23.79600 0.48500 35.41100
C  26.68300 2.87100 35.49000
C  27.10300 2.85700 36.98700
H  26.39500 3.93300 37.88300
N  23.37200 1.59900 30.11500
C  22.52400 1.76600 31.18700
C  21.15200 1.93900 30.65000
C  21.23400 1.69000 29.27900
C  22.65900 1.54700 28.95500
C  19.86700 2.27600 31.37800
C  20.20000 1.66000 28.23900
O  20.45700 1.28900 27.13800
C  18.77100 1.91900 28.62600
N  25.49000 0.85800 28.12200
C  24.55600 1.30700 27.24400
C  25.11200 1.20600 25.77200
C  26.67000 1.06100 25.93900
C  26.78300 0.86400 27.47700
C  24.50200 0.22600 24.72900
C  27.52400 2.14600 25.31300
C  27.59400 3.59100 26.02700
N  27.43100 0.88300 30.38200
C  28.41700 0.56000 29.40900
C  29.72600 0.35100 29.99200
C  29.44500 0.51100 31.37400
C  28.11600 0.80800 31.52700
C  31.07400 -0.00200 29.31200
C  30.12600 0.46500 32.63600
O  31.29700 0.34800 32.92800
C  29.03800 0.91400 33.68200
C  28.89100 -0.14600 34.88100
O  28.10300 -1.06300 34.90500
O  29.64000 0.22800 35.96300
C  29.22300 -0.49900 37.18300
H  21.97900 1.88400 33.11400
H  22.61500 1.83000 26.83800
H  28.90100 0.49600 27.42000
H  26.14700 0.69000 35.45000
H  23.84300 2.51200 35.16200
H  24.36400 0.36900 36.33400
H  23.80900 -0.30700 34.66200
H  22.77100 0.67100 35.73400
H  25.98800 3.71000 35.51100
H  27.60300 3.21900 35.02000
H  28.14200 3.17800 37.05000
H  26.95600 1.89800 37.48500
H  19.29600 1.35100 31.29200
H  19.40000 3.17100 30.96800
H  19.93000 2.38200 32.46100
H  18.22300 1.85800 27.68500
H  18.74300 2.90400 29.09100
H  18.35600 1.14900 29.27600
H  24.94600 2.20800 25.37600
H  27.21700 0.21400 25.52300
H  24.00800 0.67800 23.86900
H  23.73700 -0.44800 25.11400
H  25.22000 -0.51200 24.37100
H  27.26800 2.32000 24.26700
H  28.57500 1.85600 25.32300
H  26.94800 3.55400 26.90400
H  27.19100 4.25400 25.26100
H  28.61900 3.86100 26.27900
H  31.00400 -0.46700 28.32800
H  31.50700 -0.71200 30.01700
H  31.74600 0.84300 29.16300
H  29.32400 1.90100 34.04300
H  29.68300 -1.47900 37.31400
H  28.14900 -0.63700 37.30400
H  29.56200 0.09400 38.03200
Mg 48.86300 45.74000 43.42100
C  45.39400 45.96900 42.29200
C  48.97000 42.72000 41.96100
C  52.28400 45.98400 43.50100
C  48.55300 49.17700 44.03000
N  47.27700 44.53600 42.19400
C  45.99400 44.76900 41.89500
C  45.30300 43.54900 41.27400
C  46.49000 42.57600 41.20700
C  47.68300 43.26800 41.89600
C  46.29100 41.17600 41.88000
C  44.40200 43.79900 39.93500
C  45.07800 44.43000 38.70600
H  45.69400 43.59300 37.64100
N  50.42400 44.37800 43.10600
C  50.26100 43.20500 42.49300
C  51.53200 42.51900 42.36300
C  52.51900 43.48700 42.74100
C  51.76100 44.73000 43.18200
C  51.61900 41.05000 41.97000
C  54.02800 43.13800 42.65000
O  54.40500 42.05700 42.19800
C  55.07500 44.12500 43.07000
N  50.22500 47.41500 43.62600
C  51.57000 47.16800 43.84900
C  52.33500 48.44200 44.19600
C  51.08200 49.49700 44.35400
C  49.82700 48.61600 43.96200
C  53.21900 48.33100 45.50300
C  51.21400 50.89000 43.79400
C  52.34800 51.76500 44.28700
N  47.31800 47.27400 43.41500
C  47.37400 48.60700 43.69900
C  46.02900 49.17500 43.75900
C  45.25800 48.24000 43.08800
C  46.10000 47.08200 42.96400
C  45.59800 50.60400 44.18200
C  43.95500 47.93100 42.64000
O  42.96800 48.66400 42.66800
C  44.00000 46.47700 42.13000
C  43.00800 45.72100 42.95700
O  41.85700 45.53000 42.58200
O  43.43900 45.36200 44.17300
C  42.42200 44.86300 45.15700
H  49.08800 41.76800 41.43900
H  53.36900 46.10200 43.52300
H  48.43500 50.25000 44.19600
H  44.63800 43.18600 42.05800
H  46.70800 42.44900 40.14700
H  46.44100 40.47700 41.05800
H  45.25600 41.08000 42.20800
H  46.90200 41.06800 42.77600
H  43.56100 44.43900 40.20000
H  43.98500 42.86300 39.56300
H  45.89100 45.06400 39.05900
H  44.31100 45.11000 38.33600
H  51.89100 41.00900 40.91500
H  50.65900 40.53600 42.01500
H  52.34900 40.52300 42.58400
H  54.99200 44.96800 42.38500
H  56.05100 43.71700 42.80900
H  55.12900 44.48600 44.09700
H  52.92800 48.81200 43.36000
H  50.97000 49.62200 45.43100
H  53.98500 49.10500 45.46300
H  53.63900 47.32500 45.50000
H  52.55600 48.40000 46.36600
H  50.30300 51.37200 44.15000
H  51.24100 50.87700 42.70500
H  52.71500 51.37600 45.23600
H  52.06200 52.81000 44.40800
H  53.13900 51.72700 43.53800
H  44.70700 50.88900 43.62500
H  46.42600 51.25200 43.89300
H  45.32800 50.68200 45.23500
H  43.58300 46.33200 41.13400
H  42.27400 43.79500 44.99300
H  41.50800 45.43400 44.99400
H  42.74500 45.06600 46.17800

