158

Mg 47.79400 16.80500 28.66500
C  45.93900 16.37500 31.71700
C  50.18200 18.57700 30.48000
C  48.96500 18.06600 25.79000
C  44.91200 15.67600 26.94300
N  48.01200 17.26100 30.91500
C  47.19200 16.99400 31.95800
C  47.81500 17.38700 33.25600
C  48.99500 18.39100 32.80900
C  49.10900 18.04400 31.27900
C  48.91100 19.84300 33.19700
C  48.20700 16.02100 33.97500
C  48.26600 16.02500 35.56200
H  47.94100 17.30300 36.42000
N  49.51100 17.85900 28.21500
C  50.43500 18.36600 29.14000
C  51.60000 18.89100 28.32900
C  51.23700 18.87900 26.92200
C  49.86100 18.24900 26.90600
C  52.88800 19.39500 29.02500
C  52.01100 19.38900 25.71000
O  51.53100 19.45000 24.57100
C  53.42700 19.58700 25.85600
N  46.94500 16.82700 26.64800
C  47.74900 17.33900 25.65500
C  47.09500 17.17100 24.32700
C  45.99600 16.08200 24.64600
C  45.88700 16.22200 26.17400
C  46.45200 18.51300 23.76000
C  46.47400 14.66900 24.29000
C  45.44900 13.90600 23.42600
N  45.89800 16.04800 29.24700
C  44.80300 15.73600 28.38100
C  43.65900 15.39600 29.13400
C  44.06600 15.57200 30.45000
C  45.47300 16.02500 30.49200
C  42.31200 14.83500 28.58900
C  43.60900 15.51600 31.79400
O  42.51700 15.21700 32.30400
C  44.79600 16.01300 32.69200
C  44.18600 17.11300 33.40800
O  44.06200 18.31500 33.06100
O  43.71700 16.55600 34.63200
C  42.92800 17.54300 35.36500
H  51.00500 19.10700 30.96300
H  49.35400 18.47900 24.85700
H  44.06800 15.14700 26.49500
H  47.17500 17.90200 33.97300
H  49.96100 18.10300 33.22300
H  49.74100 19.83600 33.90400
H  47.96400 20.03700 33.70000
H  49.21900 20.56900 32.44500
H  49.25900 15.77300 33.83300
H  47.60000 15.20000 33.59400
H  49.26600 15.69300 35.83800
H  47.71100 15.14600 35.88900
H  52.91000 20.48400 29.06300
H  53.77300 19.05500 28.48700
H  52.95300 18.99000 30.03500
H  53.49100 20.35400 26.62800
H  53.80500 19.90900 24.88600
H  53.91000 18.70100 26.27000
H  47.73900 16.82900 23.51600
H  45.03300 16.27500 24.17400
H  46.63700 19.24800 24.54300
H  45.39500 18.31600 23.58200
H  46.79300 18.81300 22.76900
H  46.59900 14.07300 25.19400
H  47.39500 14.66100 23.70700
H  44.99300 14.64200 22.76300
H  44.65200 13.53600 24.07000
H  45.81400 13.04900 22.86000
H  42.46800 13.78100 28.35700
H  41.92200 15.50400 27.82200
H  41.67700 14.75700 29.47100
H  45.12000 15.18200 33.31900
H  42.38500 17.13600 36.21800
H  42.08600 18.06400 34.90800
H  43.60100 18.36400 35.61000
Mg 10.44300 46.20700 25.56000
C  7.95700 46.49300 28.08900
C  12.65600 47.67900 27.65900
C  12.63600 46.04200 23.03100
C  7.88200 45.90300 23.18400
N  10.28000 47.05700 27.57400
C  9.23400 46.89800 28.47300
C  9.55100 47.57700 29.79900
C  11.02100 47.92700 29.63700
C  11.40100 47.56500 28.17500
C  11.39300 49.40400 29.97100
C  9.16700 46.75800 31.09800
C  9.80200 46.89600 32.46800
H  8.90700 46.74400 33.71500
N  12.38200 46.64400 25.42500
C  13.16800 47.26900 26.41400
C  14.55300 47.37100 25.90500
C  14.55700 46.91400 24.59300
C  13.15500 46.56600 24.28200
C  15.55100 48.17300 26.77100
C  15.70000 46.73000 23.68000
O  15.64000 46.26300 22.58000
C  17.11100 46.95700 24.13100
N  10.34000 45.83700 23.42300
C  11.38700 45.85300 22.58800
C  10.97100 45.55400 21.14100
C  9.44000 45.53300 21.23700
C  9.20300 45.74300 22.72600
C  11.50000 46.54000 20.04800
C  8.80100 44.29300 20.60200
C  9.28000 43.84400 19.22100
N  8.40000 46.05600 25.57800
C  7.49600 45.91200 24.49700
C  6.12300 45.82400 25.02700
C  6.27800 45.94800 26.43700
C  7.66700 46.18400 26.71300
C  4.91500 45.50500 24.21000
C  5.48800 45.81800 27.62700
O  4.31400 45.57000 27.80700
C  6.55500 46.26700 28.76600
C  6.46200 45.26200 29.81500
O  7.25800 44.38500 30.03700
O  5.45300 45.62400 30.66000
C  5.14700 44.69900 31.68700
H  13.42000 47.88100 28.41300
H  13.39300 45.97600 22.24700
H  7.11900 45.90200 22.40300
H  8.80600 48.36500 29.68300
H  11.55300 47.24800 30.30300
H  10.47700 49.97400 30.12800
H  11.91200 49.88300 29.14200
H  11.96100 49.31100 30.89700
H  9.31800 45.73400 30.75900
H  8.09500 46.80200 31.29400
H  10.20900 47.90700 32.49900
H  10.56900 46.12500 32.53300
H  16.25400 47.43600 27.15800
H  15.02200 48.76300 27.52000
H  16.05500 48.96400 26.21600
H  17.12600 46.61100 25.16400
H  17.44100 47.99100 24.03600
H  17.86700 46.41500 23.56300
H  11.22200 44.52300 20.89200
H  8.98700 46.35100 20.67700
H  10.65500 46.95900 19.50200
H  12.00800 45.80500 19.42400
H  12.05100 47.39800 20.43400
H  7.77500 44.59600 20.39700
H  8.81000 43.44500 21.28700
H  9.92900 44.65800 18.89700
H  8.60600 43.56400 18.41200
H  9.91100 42.96500 19.34800
H  4.90100 46.29400 23.45800
H  4.11000 45.63100 24.93300
H  4.95700 44.48200 23.83800
H  6.28700 47.22400 29.21400
H  4.49200 43.94500 31.25100
H  4.43300 45.09000 32.41200
H  6.04200 44.32600 32.18500

