158

Mg 46.89200 16.72600 28.06700
C  45.82500 16.32500 31.24300
C  49.58800 18.60700 29.32900
C  48.13200 17.28000 24.93600
C  44.14200 14.96600 26.89100
N  47.50400 17.48300 30.05100
C  46.98100 17.06500 31.20300
C  47.81200 17.43200 32.42000
C  48.80700 18.37600 31.75400
C  48.60500 18.18800 30.28400
C  48.63600 19.88200 32.03700
C  48.40700 16.22500 33.18500
C  47.92900 16.17000 34.74700
H  47.98600 17.47600 35.60800
N  48.63500 17.83800 27.21800
C  49.60200 18.53900 27.93200
C  50.58700 19.05100 27.01400
C  50.14600 18.59200 25.69400
C  48.89200 17.92600 25.94200
C  51.72700 19.86700 27.41700
C  50.82900 18.78500 24.37100
O  50.31600 18.45500 23.30300
C  52.09700 19.49300 24.31600
N  46.26100 16.16100 26.22900
C  46.92600 16.50700 25.07500
C  46.10400 16.03300 23.83800
C  44.91000 15.25900 24.41500
C  45.11800 15.47000 25.92900
C  45.65000 17.21100 22.91500
C  44.71100 13.73600 23.98600
C  44.00900 13.48000 22.70100
N  45.20300 15.91900 28.88000
C  44.25800 15.08700 28.28100
C  43.32500 14.63700 29.29300
C  43.93800 15.01800 30.52600
C  45.09800 15.76100 30.16900
C  42.14700 13.76600 29.03600
C  43.84800 14.97200 31.97400
O  43.00800 14.43000 32.72400
C  45.06600 15.77500 32.39600
C  44.54900 16.90500 33.22800
O  44.23000 18.04700 32.81000
O  44.35100 16.51300 34.56000
C  43.46700 17.35900 35.38200
H  50.41000 19.14700 29.80200
H  48.37000 17.41200 23.87800
H  43.25000 14.53500 26.43100
H  47.24400 18.07000 33.09700
H  49.79800 18.04000 32.05900
H  49.55000 20.31100 31.62700
H  48.63300 20.10600 33.10400
H  47.71600 20.23000 31.56700
H  49.49300 16.30600 33.17300
H  48.04600 15.27000 32.80200
H  48.56400 15.41000 35.20300
H  46.89900 15.84000 34.87700
H  51.70100 20.80500 26.86100
H  52.57500 19.24100 27.13900
H  51.74100 20.10300 28.48100
H  52.02700 20.46700 24.80000
H  52.23400 19.64600 23.24600
H  52.88700 18.90200 24.77900
H  46.73600 15.41100 23.20600
H  44.00500 15.81700 24.17500
H  46.32600 17.23000 22.06000
H  45.48200 18.17000 23.40400
H  44.70200 16.92000 22.46300
H  44.08000 13.28200 24.75000
H  45.72900 13.34500 23.99700
H  43.10800 12.89400 22.88100
H  44.66900 12.91000 22.04600
H  43.75300 14.37800 22.13900
H  42.07900 13.60600 27.96000
H  41.27000 14.33000 29.35400
H  42.32300 12.79900 29.50700
H  45.67000 15.21500 33.11000
H  42.43200 17.04700 35.24600
H  43.60100 18.44100 35.35000
H  43.65500 17.15700 36.43700
Mg 35.40200 49.47200 26.26900
C  35.80600 47.49100 29.00000
C  34.20600 52.06100 28.15000
C  34.99100 51.28000 23.33900
C  36.36700 46.76800 24.20400
N  34.83300 49.67600 28.36200
C  35.22700 48.79200 29.28600
C  35.12900 49.38000 30.71800
C  34.34500 50.68900 30.46200
C  34.39400 50.82000 28.93000
C  32.86000 50.78500 31.08800
C  36.50700 49.55200 31.43900
C  36.57800 48.82100 32.83400
H  35.56200 49.06100 33.99000
N  34.83000 51.37000 25.85500
C  34.44800 52.33100 26.76400
C  34.29900 53.59400 26.02000
C  34.42500 53.39700 24.64000
C  34.78700 51.93300 24.61300
C  34.05200 54.86700 26.77500
C  34.33700 54.28700 23.45000
O  34.28000 53.88300 22.28900
C  34.06900 55.73100 23.72200
N  35.76700 49.11000 24.08700
C  35.45600 50.00400 23.10400
C  35.56500 49.33600 21.71300
C  36.19200 47.97600 22.05800
C  36.17800 47.91700 23.54800
C  34.26700 49.26000 20.88400
C  37.69100 47.88900 21.46200
C  38.82900 48.30900 22.48500
N  35.96600 47.48700 26.53000
C  36.38800 46.56700 25.56400
C  36.66200 45.33500 26.34600
C  36.49500 45.67300 27.69000
C  36.07900 46.99200 27.71500
C  37.19900 44.06100 25.73700
C  36.55600 45.11500 28.97800
O  36.92100 44.04300 29.41000
C  36.10000 46.29700 29.92900
C  34.88300 45.77800 30.65700
O  33.81300 45.55500 30.24200
O  35.25100 45.50200 31.94200
C  34.14400 45.24400 32.84300
H  33.82300 52.85400 28.79700
H  35.05200 51.80800 22.38600
H  36.31300 45.88100 23.56900
H  34.49200 48.69500 31.27700
H  34.81800 51.52600 30.97500
H  32.19400 51.18300 30.32300
H  32.94000 51.49300 31.91300
H  32.47600 49.86500 31.52600
H  36.88700 50.57100 31.50700
H  37.22700 48.94800 30.88800
H  37.58400 49.00700 33.20900
H  36.58900 47.73200 32.79100
H  33.10200 55.29900 26.46200
H  34.94400 55.48700 26.68900
H  33.82600 54.68900 27.82700
H  33.06700 55.94400 24.09500
H  34.19800 56.22400 22.75900
H  34.83400 56.00800 24.44800
H  36.34700 49.90900 21.21600
H  35.62300 47.13100 21.67000
H  34.10600 48.18800 20.76900
H  34.53400 49.88400 20.03100
H  33.46700 49.71100 21.47200
H  37.68300 48.51900 20.57300
H  37.89300 46.83800 21.25800
H  39.68200 47.69500 22.19600
H  38.66600 48.26000 23.56200
H  39.09100 49.35600 22.33100
H  38.28800 44.03000 25.78300
H  36.90800 43.85900 24.70600
H  36.74200 43.29800 26.36700
H  36.89500 46.38200 30.67100
H  34.38600 45.71600 33.79500
H  33.96700 44.17100 32.91500
H  33.16900 45.63000 32.54400

