158

Mg 40.37800 9.53300 29.63600
C  42.44800 10.66800 32.10800
C  38.16500 8.46700 31.99000
C  38.53200 8.38200 27.14200
C  42.93400 10.38900 27.26300
N  40.43800 9.37700 31.81400
C  41.25100 10.13900 32.61300
C  40.74000 10.26700 34.03700
C  39.50600 9.30500 33.99600
C  39.33800 9.06100 32.50300
C  39.69300 7.91100 34.75600
C  40.46000 11.64900 34.65100
C  41.03600 12.05800 36.03200
H  40.02600 12.55900 37.04100
N  38.59400 8.47900 29.60600
C  37.75000 8.24400 30.63400
C  36.54000 7.66900 30.18600
C  36.57800 7.71100 28.72700
C  37.98100 8.16100 28.41300
C  35.50500 7.11000 30.99200
C  35.51200 7.32600 27.71700
O  35.54200 7.50600 26.48100
C  34.27800 6.63100 28.22300
N  40.79800 9.24900 27.44800
C  39.74100 8.86700 26.63300
C  40.07300 8.97600 25.15800
C  41.58100 9.50000 25.19000
C  41.81000 9.70900 26.72100
C  40.01600 7.56600 24.38500
C  41.88000 10.71800 24.27800
C  41.41900 12.08800 24.70600
N  42.34900 10.39200 29.66600
C  43.20800 10.73300 28.63300
C  44.41500 11.37100 29.20400
C  44.12800 11.44400 30.58200
C  42.91800 10.81400 30.76800
C  45.62100 11.79300 28.46300
C  44.70700 11.84300 31.89000
O  45.76200 12.35400 32.20400
C  43.53600 11.36100 32.93000
C  44.19300 10.47300 33.88300
O  44.81800 9.43600 33.58800
O  44.13300 11.03200 35.11700
C  44.84700 10.15700 36.12600
H  37.40600 8.22100 32.73500
H  37.78900 8.22600 26.35700
H  43.72000 10.64600 26.55000
H  41.49800 9.87100 34.71300
H  38.63600 9.81700 34.40500
H  38.93100 7.82000 35.53000
H  40.71300 7.78900 35.11900
H  39.48500 7.07500 34.08800
H  39.40600 11.76200 34.90800
H  40.71700 12.33300 33.84200
H  41.59000 12.91300 35.64500
H  41.75700 11.36000 36.45800
H  34.53200 7.56500 30.81000
H  35.55300 7.21900 32.07500
H  35.30500 6.04000 30.92700
H  34.50300 5.74000 28.81000
H  33.71300 6.39900 27.32000
H  33.62700 7.27900 28.80900
H  39.47400 9.71900 24.63200
H  42.18300 8.64500 24.87900
H  40.95200 7.20200 23.96200
H  39.25400 7.56000 23.60600
H  39.91200 6.74200 25.09100
H  41.33800 10.51300 23.35600
H  42.95600 10.70900 24.10200
H  42.23500 12.73800 25.02100
H  40.78300 11.97100 25.58400
H  40.95100 12.54200 23.83200
H  46.35400 12.11000 29.20600
H  45.45000 12.59300 27.74300
H  46.09000 10.98900 27.89700
H  43.15600 12.27000 33.39700
H  45.91300 10.19100 35.90000
H  44.49000 9.12800 36.09000
H  44.71700 10.52900 37.14200
Mg -11.78400 38.26900 41.40900
C  -9.32600 35.75800 41.06300
C  -9.50700 40.55500 40.61900
C  -14.35800 40.49400 41.37600
C  -14.11300 35.70900 42.08800
N  -9.75000 38.14500 40.69100
C  -8.90800 37.07900 40.69300
C  -7.56000 37.40900 40.05900
C  -7.49600 38.97500 40.31600
C  -8.96800 39.23800 40.62700
C  -6.53700 39.24200 41.47400
C  -7.43000 36.95500 38.58100
C  -6.29500 35.91500 38.33100
H  -5.34600 36.49100 37.26300
N  -11.87500 40.24100 41.10100
C  -10.81500 41.03000 40.79500
C  -11.21200 42.34100 40.59900
C  -12.62400 42.36900 40.83500
C  -13.05400 40.96400 41.08900
C  -10.42100 43.44900 40.03500
C  -13.53900 43.56100 40.62400
O  -12.94600 44.59400 40.55700
C  -15.00300 43.48200 40.45500
N  -13.92900 38.03100 41.48400
C  -14.74700 39.13800 41.49900
C  -16.18300 38.73000 41.85200
C  -16.09200 37.16800 42.00600
C  -14.59600 36.96900 41.84000
C  -16.64700 39.48800 43.10100
C  -17.00900 36.35800 41.08600
C  -17.93200 35.34100 41.75300
N  -11.78800 36.13900 41.51200
C  -12.78700 35.28800 41.85100
C  -12.22900 33.94500 41.99400
C  -10.89400 34.10900 41.65800
C  -10.66200 35.44600 41.44500
C  -12.95600 32.74700 42.51400
C  -9.67200 33.37400 41.48000
O  -9.45200 32.19100 41.49400
C  -8.47700 34.48400 41.17300
C  -7.61600 34.53500 42.45500
O  -7.78000 35.28000 43.46700
O  -6.56900 33.63600 42.26200
C  -5.68400 33.54800 43.35100
H  -8.63100 41.16800 40.39500
H  -15.21800 41.15800 41.49200
H  -14.81000 34.92600 42.39100
H  -6.88800 36.80900 40.67300
H  -7.24200 39.63200 39.48400
H  -5.98300 40.16500 41.30500
H  -5.82000 38.47200 41.76100
H  -7.23200 39.37400 42.30300
H  -7.26400 37.87400 38.02000
H  -8.38200 36.55500 38.23400
H  -6.74800 35.03400 37.87700
H  -5.83400 35.52300 39.23800
H  -9.39400 43.17800 39.79000
H  -10.41100 44.24200 40.78200
H  -10.89500 43.65300 39.07400
H  -15.34700 44.38600 39.95200
H  -15.59300 43.55300 41.36900
H  -15.20600 42.58600 39.86900
H  -16.77200 39.01800 40.98100
H  -16.35800 37.00400 43.05000
H  -17.53300 39.99000 42.71300
H  -15.92500 40.22600 43.45300
H  -16.86600 38.85200 43.95900
H  -16.38700 35.83200 40.36100
H  -17.66800 36.99000 40.49100
H  -18.86800 35.23000 41.20500
H  -18.04300 35.36000 42.83700
H  -17.55200 34.34200 41.53900
H  -13.22400 32.20000 41.61000
H  -13.85800 33.00800 43.06800
H  -12.30300 32.12000 43.12000
H  -7.84400 34.10300 40.37200
H  -5.98900 33.99400 44.29800
H  -4.74900 34.05900 43.12100
H  -5.42600 32.52600 43.62500

