158

Mg 53.10200 25.42200 44.48300
C  50.57700 27.78200 43.85800
C  50.80500 22.92000 43.46500
C  55.66300 23.33500 43.67400
C  55.31800 27.88500 44.99800
N  50.94500 25.39300 43.46500
C  50.10400 26.48800 43.54700
C  48.72400 26.06000 43.09000
C  48.70400 24.52900 43.49700
C  50.24700 24.20900 43.49700
C  47.90500 24.29900 44.89300
C  48.29900 26.30200 41.58800
C  49.38300 26.71700 40.53900
H  49.58400 25.89500 39.28400
N  53.20100 23.39400 43.81800
C  52.12300 22.58500 43.51700
C  52.65300 21.28400 43.23600
C  54.06400 21.27100 43.39300
C  54.35000 22.67900 43.63700
C  51.76100 20.10800 42.71600
C  55.08300 20.08600 43.31600
O  54.57800 18.96900 43.23600
C  56.57400 20.20800 43.33500
N  55.21200 25.57200 44.22600
C  56.02100 24.54500 44.15000
C  57.55500 24.97700 44.28300
C  57.44100 26.47500 44.64900
C  55.89500 26.72400 44.55500
C  58.33600 24.13400 45.34600
C  58.19600 27.38100 43.55300
C  58.93200 28.53400 44.17500
N  53.02900 27.44600 44.51800
C  53.98800 28.31900 44.99300
C  53.29900 29.50800 45.45300
C  52.01600 29.41600 44.94100
C  51.88900 28.13900 44.38300
C  53.93100 30.72200 46.01800
C  50.69500 30.11400 44.74200
O  50.47800 31.28100 45.06000
C  49.78700 29.05700 43.97700
C  49.48700 29.53700 42.62300
O  50.30000 29.73400 41.73400
O  48.16700 29.83200 42.55200
C  47.61900 30.51300 41.39100
H  49.99200 22.19400 43.40900
H  56.55000 22.70500 43.58000
H  56.04500 28.65200 45.27200
H  48.09200 26.65000 43.75500
H  48.25600 23.85600 42.76600
H  48.56900 23.91100 45.66700
H  47.18800 23.51300 44.65500
H  47.36300 25.20300 45.16900
H  47.52300 27.06300 41.67200
H  47.86400 25.37800 41.20600
H  50.34000 26.65600 41.05600
H  49.12900 27.74500 40.28300
H  52.16900 19.36200 42.03500
H  50.95200 20.58400 42.16100
H  51.21800 19.52200 43.45700
H  56.98400 19.23600 43.06000
H  57.04000 20.47400 44.28400
H  56.88800 20.93200 42.58300
H  57.98100 24.75100 43.30600
H  57.83400 26.72900 45.63400
H  57.60000 23.67800 46.00800
H  59.01400 24.76900 45.91700
H  58.81000 23.29100 44.84400
H  57.41300 27.79500 42.91700
H  58.88400 26.80300 42.93600
H  59.30700 28.29700 45.17100
H  58.13500 29.25300 44.36400
H  59.76700 28.93600 43.60100
H  53.18900 31.33400 46.52900
H  54.40900 31.27500 45.20900
H  54.57100 30.38200 46.83200
H  48.87100 28.99600 44.56400
H  48.02200 30.07500 40.47900
H  47.88800 31.56900 41.41300
H  46.54300 30.34900 41.45000
Mg -2.00200 33.77200 26.33300
C  -3.48900 32.25700 28.94000
C  -0.30300 35.78900 28.50600
C  -0.41800 35.15600 23.72300
C  -3.83800 31.84500 24.14100
N  -2.06400 34.05200 28.44400
C  -2.58500 33.28700 29.31900
C  -2.35400 33.62500 30.82400
C  -1.49000 34.92000 30.60300
C  -1.29400 34.96100 29.07000
C  -2.16100 36.24600 31.05800
C  -1.75900 32.44600 31.60900
C  -2.43700 32.12900 32.98500
H  -1.61500 31.91300 34.22400
N  -0.60700 35.39200 26.12200
C  0.07500 36.01200 27.15900
C  1.01400 36.96900 26.58900
C  0.92700 36.86100 25.11300
C  -0.05100 35.78800 24.94300
C  1.92400 37.86700 27.36600
C  1.58200 37.70000 23.98200
O  1.63000 37.33600 22.77800
C  2.28600 39.03100 24.39600
N  -2.16500 33.62900 24.25300
C  -1.39700 34.23600 23.40400
C  -1.70500 33.79200 21.95100
C  -2.48500 32.50600 22.17900
C  -2.87300 32.66500 23.63700
C  -2.35100 34.97600 21.18100
C  -1.56000 31.27000 21.94500
C  -2.26100 30.19700 21.07800
N  -3.44100 32.34000 26.43300
C  -4.11900 31.63500 25.45200
C  -4.97800 30.63900 26.14000
C  -4.82400 30.95000 27.51500
C  -3.85700 31.87600 27.61900
C  -5.94400 29.69600 25.41000
C  -5.23800 30.57600 28.81800
O  -6.13900 29.85300 29.20000
C  -4.44200 31.43800 29.83900
C  -5.39800 32.42200 30.52600
O  -5.68500 33.57900 30.18500
O  -5.97300 31.79800 31.61000
C  -6.64100 32.69200 32.47300
H  0.30800 36.41100 29.16400
H  0.28200 35.36200 22.91100
H  -4.22000 31.09900 23.44200
H  -3.29600 33.85500 31.32100
H  -0.58300 34.88500 31.20700
H  -1.57500 36.68500 31.86500
H  -3.13700 36.04600 31.49900
H  -2.21900 36.97800 30.25200
H  -0.69800 32.58000 31.82200
H  -1.69800 31.60300 30.92000
H  -2.99900 31.23300 32.72200
H  -3.18000 32.85400 33.31800
H  1.63700 38.91800 27.34000
H  2.91300 37.69800 26.93900
H  1.98600 37.49300 28.38800
H  2.68800 39.45200 23.47400
H  3.08800 38.97300 25.13200
H  1.44600 39.63900 24.73200
H  -0.77100 33.68200 21.39900
H  -3.37200 32.40800 21.55200
H  -3.36700 34.77100 20.84300
H  -1.81200 35.23300 20.26900
H  -2.39600 35.85600 21.82300
H  -1.39300 30.78500 22.90700
H  -0.60800 31.51400 21.47300
H  -2.09100 29.22000 21.53100
H  -1.93400 30.02200 20.05300
H  -3.33100 30.34300 20.93400
H  -6.17800 30.27900 24.51900
H  -6.76900 29.50400 26.09600
H  -5.53700 28.69900 25.24300
H  -4.05500 30.62500 30.45300
H  -7.53900 33.18100 32.09500
H  -6.10400 33.49000 32.98500
H  -7.11500 32.01600 33.18500

