158

Mg 8.36600 4.38600 28.24400
C  9.82100 2.87700 31.13600
C  6.39400 6.17100 30.36300
C  7.00000 5.69600 25.44000
C  10.03300 1.99900 26.17000
N  8.18000 4.51000 30.50100
C  8.86800 3.86100 31.50400
C  8.53100 4.32800 32.91900
C  7.36600 5.28000 32.58900
C  7.28700 5.35600 31.07000
C  5.93000 5.01500 33.22600
C  9.78300 4.83500 33.74200
C  9.45400 5.71100 34.91200
H  10.08300 5.35700 36.31300
N  6.91100 5.68000 27.94400
C  6.18400 6.31600 28.96200
C  5.32700 7.26700 28.28900
C  5.64600 7.21700 26.92000
C  6.54700 6.18500 26.69700
C  4.26700 8.12600 29.00100
C  5.14300 8.18000 25.74600
O  5.56500 8.06500 24.61500
C  4.31800 9.38500 25.99400
N  8.34800 3.75200 26.10900
C  7.82000 4.59100 25.14900
C  8.08900 4.13300 23.70900
C  9.21200 3.07600 24.00100
C  9.16700 2.84800 25.50100
C  6.88900 3.42600 23.03800
C  10.58400 3.31200 23.36200
C  11.56300 4.25900 24.00200
N  9.70900 2.85900 28.55700
C  10.24900 1.98100 27.60400
C  11.14200 1.05200 28.29200
C  11.04600 1.39900 29.71800
C  10.08500 2.43600 29.80400
C  11.92300 0.00400 27.63700
C  11.43500 1.01100 31.00100
O  12.16200 0.05500 31.37800
C  10.82700 2.08300 31.94500
C  10.29600 1.39800 33.17900
O  9.17600 0.91800 33.24700
O  11.28600 1.45100 34.13600
C  11.13300 0.57000 35.35600
H  5.89900 7.02100 30.83700
H  6.57400 6.01900 24.48800
H  10.47100 1.19600 25.57400
H  8.07000 3.49000 33.44200
H  7.58200 6.27400 32.98000
H  5.91700 3.97700 33.55600
H  5.13900 5.05100 32.47700
H  5.58600 5.68600 34.01400
H  10.50100 5.41900 33.16600
H  10.36700 4.04200 34.20700
H  8.37200 5.72200 35.04400
H  9.84200 6.70100 34.67400
H  4.59900 9.15800 28.88000
H  4.05100 7.92100 30.04900
H  3.30600 8.03200 28.49600
H  3.25900 9.20900 26.18300
H  4.45700 10.12300 25.20400
H  4.81400 9.86700 26.83600
H  8.50300 4.97100 23.14700
H  8.84400 2.15500 23.55000
H  7.02800 3.02400 22.03400
H  6.10000 4.16200 22.88800
H  6.60100 2.64000 23.73600
H  10.42100 3.69800 22.35600
H  11.14200 2.37900 23.29900
H  11.03400 4.79800 24.78700
H  12.04300 4.96800 23.32700
H  12.29300 3.63000 24.51200
H  11.32800 -0.62600 26.97600
H  12.33300 -0.63400 28.42000
H  12.81000 0.29300 27.07200
H  11.52400 2.81100 32.36200
H  10.78900 1.30100 36.08800
H  12.05200 0.07000 35.66300
H  10.33400 -0.15800 35.21100
Mg 28.30300 56.76700 40.79500
C  26.20100 54.04100 39.79300
C  31.05100 54.79200 39.66000
C  30.28300 59.46000 41.01200
C  25.47400 58.69800 40.88500
N  28.50000 54.75600 39.49200
C  27.54900 53.80800 39.34000
C  28.11500 52.40200 38.96600
C  29.68500 52.63100 39.15200
C  29.80600 54.21300 39.33300
C  30.31900 51.82900 40.23800
C  27.52100 51.92700 37.59100
C  28.08300 52.60500 36.38000
H  27.08300 53.16300 35.38200
N  30.39400 57.07500 40.51800
C  31.34600 56.11800 40.11600
C  32.64800 56.61200 40.20800
C  32.53700 57.98700 40.68700
C  31.02400 58.24600 40.75700
C  33.90100 55.77700 39.95300
C  33.64700 58.93800 40.98000
O  34.80200 58.47500 40.82200
C  33.41600 60.38300 41.32600
N  27.92500 58.81200 40.82400
C  28.90800 59.72400 41.06200
C  28.37800 61.12600 41.33500
C  26.81800 60.85300 41.31400
C  26.70800 59.35600 41.01000
C  28.84700 61.84400 42.64700
C  26.10900 61.73700 40.15000
C  25.21700 62.86000 40.65500
N  26.15700 56.45700 40.55200
C  25.16100 57.33700 40.75500
C  23.84700 56.64400 40.70300
C  24.21200 55.31700 40.40900
C  25.61800 55.28900 40.21600
C  22.44900 57.14500 40.76400
C  23.71500 53.94400 40.23000
O  22.61700 53.41500 40.42700
C  25.00000 53.13000 39.75200
C  25.18100 51.93100 40.62400
O  25.14400 50.78700 40.19500
O  25.31000 52.23200 41.94500
C  25.32600 51.14700 42.93700
H  31.88900 54.09300 39.71100
H  30.81400 60.38700 41.23700
H  24.52400 59.23100 40.96400
H  27.77600 51.63100 39.65800
H  30.22800 52.38300 38.24000
H  29.55400 51.08300 40.45400
H  30.57800 52.34600 41.16200
H  31.20800 51.30200 39.89000
H  26.45500 52.15300 37.61400
H  27.63300 50.84600 37.51000
H  28.72700 51.88300 35.88000
H  28.74800 53.39700 36.72300
H  34.63600 56.35100 39.39000
H  33.74700 54.86300 39.37900
H  34.28900 55.55700 40.94800
H  33.04100 60.42000 42.34900
H  32.71100 60.80300 40.60900
H  34.32900 60.96700 41.21400
H  28.68900 61.83100 40.56400
H  26.40800 61.01300 42.31200
H  28.03200 62.29800 43.21100
H  29.66500 62.55100 42.51200
H  29.23600 61.13100 43.37400
H  25.42900 61.05100 39.64500
H  26.76200 61.96900 39.31000
H  25.59900 63.18600 41.62300
H  24.18600 62.51900 40.75000
H  25.42000 63.64500 39.92700
H  22.41100 57.94900 41.50000
H  21.69700 56.39900 41.02200
H  22.06600 57.63600 39.86900
H  24.82200 52.83700 38.71800
H  24.34300 50.99600 43.38400
H  25.98700 51.56900 43.69500
H  25.67500 50.24200 42.43900

