158

Mg 30.61000 58.60300 39.62800
C  28.30700 56.07300 38.73900
C  33.13900 56.35600 38.72400
C  32.84900 61.06800 39.86000
C  27.97300 60.77400 39.58000
N  30.72800 56.44500 38.79400
C  29.62900 55.60800 38.69800
C  30.03800 54.30700 38.11800
C  31.54200 54.25900 38.52600
C  31.85800 55.81100 38.54700
C  31.78900 53.61800 39.93100
C  29.85900 54.09500 36.58300
C  28.80400 53.12000 36.09000
H  27.80100 53.62400 35.09000
N  32.71500 58.69100 39.36500
C  33.58300 57.65900 39.03400
C  34.96500 58.12000 38.98600
C  34.88500 59.54600 39.34300
C  33.45100 59.82700 39.58900
C  36.21800 57.31300 38.74200
C  36.07300 60.51000 39.46200
O  37.20800 60.18100 39.10000
C  35.83200 61.97700 39.79500
N  30.48800 60.69800 39.33400
C  31.47000 61.43300 39.86500
C  30.89800 62.79000 40.37000
C  29.40000 62.80000 39.90200
C  29.27400 61.33700 39.58900
C  31.15200 63.18300 41.90600
C  29.05600 63.78000 38.79400
C  27.86700 64.76800 39.16300
N  28.47600 58.47100 39.45400
C  27.53300 59.41300 39.49500
C  26.21300 58.86700 39.28600
C  26.48100 57.51000 39.00300
C  27.86800 57.32900 39.05500
C  24.89500 59.62500 39.26000
C  25.87100 56.22200 38.60500
O  24.71200 55.89200 38.46800
C  27.03100 55.32600 38.38000
C  26.77100 54.06400 39.22300
O  27.08200 53.98900 40.38200
O  25.99300 53.18300 38.54800
C  25.44200 52.00400 39.33000
H  33.99200 55.68500 38.60600
H  33.53700 61.80200 40.28400
H  27.15900 61.48700 39.72900
H  29.52400 53.56300 38.72600
H  32.15500 53.75500 37.77900
H  32.15200 54.32300 40.67800
H  32.48200 52.77700 39.90600
H  30.95700 53.08700 40.39300
H  30.80200 53.86800 36.08500
H  29.76900 55.13900 36.28300
H  28.23700 52.56300 36.83600
H  29.42400 52.39200 35.56600
H  36.13000 56.30600 39.15000
H  37.02500 57.78400 39.30300
H  36.40800 57.33200 37.66800
H  35.18800 62.38300 39.01500
H  36.76700 62.51600 39.64300
H  35.44700 61.97500 40.81500
H  31.45800 63.47900 39.73700
H  28.79600 62.99600 40.78700
H  32.01400 63.85000 41.92000
H  31.44500 62.34100 42.53100
H  30.24300 63.65300 42.28200
H  28.73300 63.17600 37.94600
H  29.98400 64.25900 38.48200
H  27.04000 64.64800 38.46300
H  28.23400 65.78900 39.05900
H  27.52700 64.72500 40.19700
H  24.92400 60.70100 39.43400
H  24.22200 59.13800 39.96600
H  24.51400 59.49800 38.24700
H  27.06200 54.97100 37.35000
H  26.15600 51.18300 39.28500
H  24.52100 51.66000 38.85900
H  25.24000 52.23500 40.37600
Mg 17.24500 51.33100 26.35400
C  19.21800 49.90900 28.86600
C  14.95300 52.26000 28.81200
C  15.27900 52.44700 23.92700
C  19.34300 49.78300 23.95500
N  17.04700 50.99700 28.62700
C  18.01500 50.48700 29.38300
C  17.66700 50.60300 30.85300
C  16.23600 51.29700 30.86500
C  15.97600 51.48400 29.33900
C  15.19300 50.48600 31.66300
C  18.74200 51.48300 31.62500
C  18.33000 52.35600 32.85400
H  17.53800 51.55400 33.88400
N  15.43000 52.32000 26.38600
C  14.64900 52.67300 27.44500
C  13.51400 53.39900 26.96200
C  13.59700 53.51500 25.55400
C  14.78900 52.72700 25.18800
C  12.43400 54.02500 27.88100
C  12.70400 54.18300 24.59300
O  12.91900 54.16100 23.40400
C  11.41300 54.85400 25.08900
N  17.41900 51.19400 24.27000
C  16.45600 51.80200 23.50300
C  16.69100 51.50200 21.95600
C  18.06700 50.78700 21.90300
C  18.30100 50.57000 23.45300
C  15.45600 50.80100 21.32900
C  19.21400 51.54600 21.06500
C  20.18000 50.66200 20.24000
N  18.93000 50.13700 26.28100
C  19.73200 49.64600 25.30100
C  20.81300 48.86400 25.86900
C  20.60200 48.97500 27.22800
C  19.49600 49.78000 27.48600
C  21.91800 48.28900 25.12000
C  21.27100 48.63700 28.51800
O  22.34600 48.08000 28.72200
C  20.39100 49.31000 29.62900
C  20.08600 48.30300 30.66000
O  19.25600 47.36300 30.45800
O  20.91000 48.55300 31.73600
C  20.68500 47.64200 32.89600
H  14.18000 52.60800 29.50000
H  14.60900 52.73700 23.11500
H  19.95900 49.23100 23.24200
H  17.62100 49.59300 31.26200
H  16.32300 52.28100 31.32700
H  14.40500 50.06000 31.04200
H  14.69600 51.05800 32.44600
H  15.68100 49.69100 32.22500
H  19.41500 52.05700 30.98700
H  19.30700 50.69600 32.12400
H  17.94000 53.30100 32.47500
H  19.23300 52.42700 33.45900
H  12.34100 55.07900 27.61700
H  12.87100 54.18400 28.86700
H  11.44800 53.56800 27.96200
H  10.82800 54.11800 25.64000
H  10.75200 55.24900 24.31800
H  11.56700 55.68600 25.77700
H  16.66400 52.45600 21.43000
H  17.91700 49.78000 21.51400
H  14.62600 50.76700 22.03400
H  15.78100 49.78900 21.08600
H  15.06900 51.28600 20.43300
H  19.81200 52.21200 21.68700
H  18.66900 52.24800 20.43400
H  21.16500 51.01400 20.54500
H  20.08300 50.70900 19.15500
H  20.03200 49.65900 20.64000
H  21.53600 47.83400 24.20600
H  22.44000 47.52400 25.69500
H  22.65000 49.05100 24.85200
H  20.90500 50.11000 30.16300
H  19.65200 47.82600 33.19100
H  21.38700 48.00500 33.64700
H  20.93900 46.65900 32.49900

