158

Mg -0.23700 7.04100 25.97100
C  0.68300 8.88800 28.87600
C  -0.74000 4.25800 27.95600
C  -0.69300 5.25200 23.26100
C  0.08600 9.87700 24.17500
N  -0.08300 6.62200 28.16500
C  0.33900 7.50200 29.09000
C  0.22000 6.78500 30.56400
C  -0.21000 5.32400 30.20100
C  -0.37100 5.42400 28.66600
C  0.68600 4.19100 30.74700
C  -0.71300 7.54800 31.56500
C  -0.14400 7.80600 32.96500
H  1.04800 6.97500 33.53200
N  -0.57300 5.03200 25.65200
C  -0.78100 4.03100 26.56700
C  -1.06900 2.72700 25.88500
C  -0.90300 3.03800 24.48100
C  -0.70300 4.46900 24.40900
C  -1.26700 1.38600 26.61800
C  -0.89200 2.08400 23.27300
O  -0.68800 2.47200 22.12100
C  -1.02600 0.48900 23.46500
N  -0.32900 7.53600 24.00400
C  -0.44700 6.61000 23.06300
C  -0.38600 7.20400 21.64100
C  -0.52300 8.72700 21.97100
C  -0.28700 8.70100 23.48000
C  0.93400 6.90700 20.89400
C  -1.89400 9.38000 21.65500
C  -1.78700 10.82800 21.14000
N  0.39600 8.95000 26.29400
C  0.48500 10.00700 25.52400
C  1.01200 11.15000 26.17900
C  1.15200 10.76200 27.48600
C  0.72500 9.43000 27.56200
C  1.30900 12.51300 25.57400
C  1.49300 11.22200 28.77200
O  1.87800 12.32300 29.20400
C  1.18100 10.02000 29.75600
C  2.43100 9.46700 30.40700
O  3.18200 8.56600 30.05500
O  2.76400 10.33200 31.41900
C  3.93000 10.08800 32.24200
H  -1.11600 3.39000 28.50200
H  -0.95000 4.77200 22.31400
H  0.15600 10.77900 23.56300
H  1.23300 6.66500 30.94800
H  -1.22900 5.16500 30.55400
H  0.13200 3.54100 31.42500
H  1.56400 4.53900 31.29100
H  0.88100 3.65200 29.82000
H  -1.60600 6.94300 31.72500
H  -0.94800 8.52000 31.13300
H  -1.01800 7.59200 33.58000
H  0.10800 8.82800 33.24700
H  -2.33200 1.18200 26.73200
H  -0.82300 1.38100 27.61300
H  -0.78700 0.62200 26.00600
H  -1.18800 0.06100 22.47500
H  -1.92300 0.13700 23.97600
H  -0.15300 0.02300 23.92100
H  -1.19500 6.75100 21.06900
H  0.32400 9.21200 21.48700
H  0.64500 6.15900 20.15500
H  1.67600 6.59100 21.62800
H  1.35500 7.75400 20.35200
H  -2.54500 9.39000 22.53000
H  -2.35600 8.76900 20.88000
H  -0.73900 11.12100 21.09300
H  -2.28500 11.50500 21.83500
H  -2.23900 10.82100 20.14900
H  2.26600 12.91400 25.90600
H  0.46000 13.19200 25.65800
H  1.30400 12.28700 24.50800
H  0.59600 10.24100 30.64900
H  4.44800 10.99100 32.56400
H  4.64800 9.57100 31.60600
H  3.72200 9.30500 32.97100
Mg 54.05700 24.59900 44.40800
C  51.46800 26.98500 44.02100
C  51.68800 22.20500 43.53100
C  56.56100 22.61100 43.54300
C  56.31100 27.30800 45.04000
N  51.87100 24.65100 43.73400
C  51.02700 25.70700 43.78500
C  49.62800 25.21100 43.38000
C  49.67800 23.77700 43.87300
C  51.15900 23.54400 43.69500
C  49.03100 23.57400 45.22300
C  49.29600 25.32300 41.80100
C  50.48000 25.51100 40.81000
H  51.22000 24.31300 40.47000
N  54.14200 22.61600 43.67800
C  53.06800 21.81700 43.43100
C  53.54600 20.47900 43.14300
C  54.95400 20.60200 43.09000
C  55.29900 21.97600 43.43100
C  52.60800 19.33700 42.75900
C  55.89500 19.45900 42.81500
O  55.46600 18.35900 42.50600
C  57.41900 19.58800 43.11200
N  56.10200 24.84100 44.51400
C  56.95000 23.82600 44.11300
C  58.36900 24.24900 44.38200
C  58.30400 25.77900 44.53600
C  56.80900 26.01300 44.75000
C  59.10500 23.44500 45.44600
C  58.80900 26.63100 43.44500
C  58.09800 26.53800 42.03300
N  53.89700 26.68200 44.69600
C  54.93100 27.67300 45.04400
C  54.34500 28.92600 45.14100
C  52.98500 28.67400 44.73400
C  52.77800 27.35200 44.41900
C  55.06000 30.14700 45.61700
C  51.76000 29.29800 44.51400
O  51.48600 30.46600 44.48200
C  50.71900 28.31200 43.90900
C  50.29700 28.73100 42.49400
O  51.07700 29.01400 41.60200
O  48.99900 28.66500 42.32900
C  48.47000 29.02600 41.03900
H  50.93000 21.42200 43.46600
H  57.53300 22.16600 43.31600
H  57.06100 28.09800 45.12200
H  48.88100 25.85000 43.85000
H  49.22600 23.11000 43.13900
H  48.20200 22.86700 45.23700
H  48.52800 24.48900 45.53300
H  49.77700 23.27100 45.95800
H  48.65400 26.18700 41.62800
H  48.68800 24.45900 41.53300
H  51.07500 26.34400 41.18200
H  50.13600 25.95500 39.87600
H  53.25500 18.45900 42.74400
H  52.13800 19.55800 41.80100
H  51.78200 19.21200 43.45900
H  57.98000 20.08800 42.32200
H  57.84600 18.58900 43.20600
H  57.68700 20.16300 43.99800
H  58.94900 23.93700 43.51300
H  58.77400 26.02500 45.48800
H  59.68200 22.66100 44.95800
H  58.37700 22.89700 46.04500
H  59.75000 24.06200 46.07200
H  59.83800 26.27700 43.38300
H  58.78500 27.69200 43.69500
H  57.79800 27.55600 41.78600
H  57.22800 25.88300 42.07000
H  58.66000 26.05000 41.23700
H  55.02400 30.16700 46.70600
H  54.44500 31.01200 45.36900
H  56.06100 30.15600 45.18600
H  49.86800 28.49600 44.56500
H  47.58900 29.66700 41.01900
H  48.22700 28.23400 40.33100
H  49.05000 29.79100 40.52200

