158

Mg 17.12900 -1.59200 27.79700
C  15.98700 0.21300 30.53500
C  18.61900 -3.82600 30.11100
C  18.43200 -3.40700 25.25600
C  15.48800 0.50100 25.60900
N  17.35100 -1.76400 30.09500
C  16.76400 -0.88900 30.93200
C  17.06600 -1.26900 32.43100
C  18.02400 -2.48400 32.28400
C  18.03700 -2.73600 30.74300
C  19.52000 -2.43400 32.73600
C  15.88300 -1.51000 33.37000
C  16.09600 -1.59100 34.96400
H  17.25700 -0.71600 35.48300
N  18.45700 -3.24800 27.73300
C  18.91300 -4.06600 28.74700
C  19.60200 -5.23300 28.26100
C  19.58300 -5.12600 26.84200
C  18.78700 -3.89700 26.52300
C  20.31300 -6.25400 29.19100
C  20.11500 -6.02900 25.75100
O  20.18300 -5.68900 24.58200
C  20.77700 -7.34300 26.15700
N  16.96800 -1.56400 25.76600
C  17.66800 -2.27400 24.92900
C  17.32100 -1.92700 23.44500
C  16.46100 -0.63600 23.64300
C  16.26400 -0.55600 25.11300
C  18.58500 -1.63700 22.66000
C  15.15600 -0.52500 22.68300
C  13.97200 -1.44000 23.00000
N  15.87200 -0.04700 28.03500
C  15.21300 0.69600 27.03000
C  14.58800 1.83300 27.59500
C  14.82400 1.60100 29.01400
C  15.61700 0.51300 29.21100
C  13.74000 2.85000 26.89700
C  14.35800 2.14900 30.30700
O  13.54700 3.00400 30.58100
C  15.32100 1.34300 31.32400
C  16.40400 2.29700 31.78500
O  17.54500 2.33800 31.35600
O  16.03800 2.96900 32.93300
C  17.08800 3.64500 33.66200
H  18.95900 -4.50200 30.89700
H  18.68800 -3.97900 24.36200
H  15.03800 1.12200 24.83200
H  17.59900 -0.46400 32.93700
H  17.67900 -3.39100 32.77900
H  20.16900 -2.87600 31.98100
H  19.55600 -2.97000 33.68400
H  19.84200 -1.39700 32.83200
H  15.44700 -2.41000 32.93800
H  15.09900 -0.79200 33.13000
H  16.16700 -2.66900 35.11000
H  15.14200 -1.28100 35.39000
H  19.85600 -7.23700 29.06600
H  20.19400 -6.08100 30.26100
H  21.38400 -6.22700 28.99100
H  21.14100 -7.80000 25.23600
H  20.08500 -7.97500 26.71200
H  21.64500 -7.21800 26.80400
H  16.76900 -2.68100 22.88400
H  17.03100 0.27400 23.45500
H  18.34000 -1.43300 21.61700
H  19.19700 -2.53800 22.70800
H  19.22700 -0.88400 23.11700
H  15.58900 -0.68600 21.69500
H  14.76700 0.48200 22.83000
H  14.26600 -2.13900 23.78400
H  13.59900 -1.97900 22.12900
H  13.14000 -0.86200 23.40000
H  13.97200 3.82700 27.32100
H  12.70600 2.50500 26.91100
H  13.97900 2.84000 25.83400
H  14.80400 1.07200 32.24500
H  18.12300 3.59900 33.32500
H  17.12100 3.22400 34.66700
H  16.71100 4.66300 33.77000
Mg 47.13800 24.76300 28.03700
C  48.08400 27.00600 30.48400
C  45.84700 22.68800 30.61200
C  46.69400 22.37300 25.68300
C  49.00000 26.66200 25.69500
N  47.06100 24.82000 30.26400
C  47.41100 25.92300 31.03400
C  46.90800 25.81500 32.49000
C  46.33400 24.31800 32.50800
C  46.34200 23.93500 31.03400
C  47.09400 23.39300 33.47400
C  45.91500 26.91800 33.01200
C  46.17800 27.36900 34.43200
H  46.69400 26.42400 35.52900
N  46.34300 22.83700 28.13000
C  45.84100 22.18600 29.26900
C  45.29000 20.92900 28.83000
C  45.53200 20.79400 27.40600
C  46.21900 22.05000 27.04400
C  44.74900 19.79900 29.74300
C  45.11700 19.66200 26.43900
O  45.50400 19.69500 25.26300
C  44.14800 18.60300 26.86900
N  47.80900 24.59300 25.89800
C  47.35000 23.50900 25.15500
C  47.97900 23.62900 23.82000
C  48.59700 25.06000 23.81800
C  48.38300 25.49600 25.17800
C  49.08500 22.48400 23.54300
C  47.91600 26.07200 22.86000
C  46.54200 26.79200 23.28900
N  48.24000 26.47500 28.00300
C  48.91800 27.19600 27.06300
C  49.44200 28.46300 27.62900
C  49.06400 28.41500 28.94800
C  48.38500 27.18700 29.12800
C  50.07400 29.62700 26.91700
C  49.27200 29.18300 30.13000
O  49.79400 30.21700 30.46500
C  48.61200 28.31400 31.21700
C  49.52300 28.06600 32.36600
O  50.20800 27.09100 32.51800
O  49.30200 29.08000 33.31600
C  49.98300 28.90100 34.57900
H  45.39800 22.09100 31.40800
H  46.61500 21.68500 24.83900
H  49.52800 27.30800 24.99000
H  47.85500 25.79500 33.03000
H  45.26600 24.42200 32.70300
H  47.71300 22.67200 32.94000
H  46.50400 22.75000 34.12800
H  47.75600 23.97300 34.11600
H  44.86400 26.63300 32.95100
H  46.07600 27.75400 32.33200
H  45.26300 27.73500 34.89700
H  46.83900 28.23500 34.41600
H  45.08500 20.06000 30.74700
H  45.27000 18.93300 29.33500
H  43.67400 19.77800 29.56300
H  44.24600 18.07300 27.81600
H  44.08600 17.84100 26.09300
H  43.19500 19.13200 26.87900
H  47.11100 23.55600 23.16400
H  49.65500 25.01600 23.56100
H  49.09100 21.75400 24.35200
H  50.03600 23.01600 23.57100
H  48.82100 21.97400 22.61600
H  47.64400 25.47200 21.99100
H  48.65900 26.80200 22.53800
H  45.80300 26.76100 22.48800
H  46.82800 27.83600 23.41300
H  46.12800 26.38500 24.21200
H  49.32400 30.41700 26.86000
H  50.44900 29.33900 25.93500
H  51.02600 29.83800 27.40200
H  47.75100 28.87900 31.57400
H  51.03500 28.62600 34.50700
H  49.48500 28.13400 35.17200
H  49.94100 29.81300 35.17400

