158

Mg 54.69100 24.17500 45.69400
C  52.42500 26.78300 44.98600
C  52.58000 21.94100 44.28300
C  57.34400 22.02400 45.69300
C  56.98300 26.76500 46.78700
N  52.74100 24.39800 44.74600
C  51.96700 25.51800 44.52000
C  50.72900 25.17200 43.64200
C  50.69600 23.60500 43.87500
C  52.06600 23.25800 44.39500
C  49.44100 23.12000 44.68100
C  50.81900 25.66000 42.14100
C  52.22300 25.99700 41.57000
H  53.17600 24.79500 41.57400
N  54.97800 22.25500 45.03900
C  53.91300 21.48800 44.53800
C  54.36400 20.11600 44.45200
C  55.78600 20.18900 44.59900
C  56.14100 21.51000 45.21000
C  53.42200 19.05000 44.09200
C  56.64900 19.06700 44.32900
O  56.19500 17.96600 43.95200
C  58.20800 19.22800 44.30200
N  56.93500 24.39800 46.08900
C  57.74100 23.30100 46.19600
C  59.17300 23.76100 46.70300
C  59.02300 25.23400 46.98900
C  57.55300 25.52500 46.52800
C  59.72600 22.92100 47.92200
C  60.13300 26.05600 46.23600
C  59.87600 26.11100 44.68700
N  54.69900 26.32000 45.99400
C  55.69300 27.17700 46.56100
C  55.16100 28.49600 46.47900
C  53.80800 28.39300 46.03500
C  53.63900 27.05000 45.62100
C  55.88800 29.69500 46.88700
C  52.65100 29.11800 45.68300
O  52.38800 30.28600 45.83300
C  51.64800 28.06800 45.03100
C  51.16100 28.62900 43.68800
O  51.85600 29.17100 42.85500
O  49.79800 28.56500 43.75700
C  49.13700 28.94400 42.54900
H  51.92800 21.21300 43.79500
H  58.19700 21.34200 45.71000
H  57.72800 27.52000 47.04900
H  49.86400 25.68900 44.05600
H  50.53900 23.03400 42.96000
H  49.06000 23.95700 45.26700
H  49.67900 22.26600 45.31500
H  48.69000 22.80400 43.95600
H  50.15100 26.52100 42.13000
H  50.23200 24.90300 41.62300
H  52.71800 26.74000 42.19500
H  52.11500 26.37700 40.55400
H  53.92700 18.09400 43.95500
H  52.91700 19.39500 43.19000
H  52.72100 19.00400 44.92600
H  58.71600 18.36800 43.86500
H  58.69300 19.41300 45.26100
H  58.57900 19.90800 43.53500
H  59.88700 23.72900 45.87900
H  59.17300 25.37800 48.05900
H  59.19900 21.97700 48.05900
H  59.73900 23.44500 48.87800
H  60.74500 22.67300 47.62700
H  61.04800 25.49200 46.41800
H  60.19900 27.05900 46.65800
H  60.73000 25.65200 44.19000
H  59.92900 27.15300 44.37100
H  58.95900 25.61800 44.36100
H  56.86700 29.72000 46.40900
H  55.97200 29.85500 47.96200
H  55.29600 30.53500 46.52400
H  50.91200 28.07800 45.83500
H  49.33200 29.88200 42.03000
H  48.07200 28.97800 42.78200
H  49.14400 28.20100 41.75100
Mg 48.60300 45.10300 42.51600
C  45.24300 44.44200 42.29400
C  49.23900 41.72800 42.19000
C  51.88400 45.79500 42.50600
C  47.86500 48.52700 42.06800
N  47.35100 43.35200 42.46300
C  45.96600 43.28800 42.22100
C  45.50700 41.82700 42.00900
C  46.85100 40.98500 42.35600
C  47.85600 42.12200 42.40300
C  46.82200 40.08000 43.60200
C  44.97300 41.56900 40.53200
C  45.88700 42.21700 39.48000
H  45.69400 41.48800 38.04500
N  50.31900 43.95400 42.20600
C  50.34200 42.57800 42.20600
C  51.70600 42.15100 42.10600
C  52.52700 43.31300 42.23900
C  51.59800 44.42300 42.31900
C  52.15200 40.70900 41.94600
C  53.99300 43.32600 42.27900
O  54.60400 42.26800 42.27600
C  54.86700 44.56400 42.32500
N  49.72700 46.84000 42.04600
C  51.00100 46.89700 42.46000
C  51.52900 48.35900 42.56100
C  50.31000 49.13100 42.04100
C  49.22600 48.13600 42.10000
C  52.10800 48.73600 43.97700
C  50.45100 49.86300 40.69600
C  49.45600 50.96900 40.28900
N  46.96500 46.31800 42.38100
C  46.75400 47.68200 42.25300
C  45.32700 48.00600 42.33700
C  44.68200 46.70900 42.32700
C  45.70400 45.76300 42.36800
C  44.62000 49.34000 42.55500
C  43.43700 46.03500 42.27100
O  42.30800 46.52300 42.27000
C  43.68500 44.50000 42.28100
C  43.08800 43.98500 43.58600
O  42.24300 43.09000 43.55400
O  43.67800 44.61400 44.71400
C  42.99600 44.08200 45.93600
H  49.36300 40.64500 42.12100
H  52.90700 46.10600 42.72700
H  47.57800 49.57300 41.94200
H  44.71100 41.68500 42.74000
H  47.10200 40.33100 41.52100
H  45.80400 39.72300 43.76200
H  47.25100 40.61200 44.45000
H  47.44200 39.19600 43.45300
H  44.05400 42.15100 40.45300
H  44.88200 40.50200 40.32700
H  46.95600 42.14400 39.68000
H  45.64500 43.27200 39.35300
H  52.98900 40.46200 42.60000
H  52.50100 40.54800 40.92700
H  51.27400 40.09400 42.14400
H  54.66700 45.27600 41.52400
H  55.91300 44.31600 42.14700
H  54.69600 45.02700 43.29700
H  52.25000 48.48800 41.75400
H  50.23600 49.92900 42.77900
H  53.15300 49.01500 43.83400
H  52.00300 47.90500 44.67400
H  51.63200 49.55000 44.52200
H  50.50200 48.97800 40.06200
H  51.44200 50.31400 40.65400
H  49.06100 51.37700 41.21900
H  48.60700 50.64800 39.68500
H  49.97000 51.81000 39.82500
H  44.94200 49.67100 43.54200
H  43.53600 49.23900 42.51400
H  44.86400 50.20200 41.93400
H  43.10300 44.01500 41.49700
H  42.84600 43.00400 45.87700
H  42.11100 44.70900 46.04300
H  43.54200 44.20600 46.87200

