158

Mg 8.51200 3.39900 28.31200
C  10.13500 1.75700 31.00800
C  6.57000 4.99400 30.34500
C  6.96700 4.37400 25.45200
C  9.99400 0.68800 26.16700
N  8.35700 3.34500 30.48800
C  9.20200 2.71100 31.39800
C  8.91200 3.32300 32.73400
C  7.55500 4.16600 32.58500
C  7.51200 4.21200 31.05400
C  6.27800 3.39300 33.15300
C  10.23700 4.14700 33.31300
C  10.89500 3.62300 34.58500
H  10.96900 4.61800 35.81100
N  7.13600 4.67300 27.93600
C  6.31300 5.16400 28.95600
C  5.31900 6.07400 28.34300
C  5.47300 5.97800 26.91900
C  6.57000 4.97600 26.74600
C  4.41500 6.98500 29.16700
C  4.75200 6.68000 25.83500
O  4.80000 6.48200 24.61900
C  3.75600 7.69800 26.18400
N  8.56800 2.66500 26.04900
C  7.86900 3.32700 25.10800
C  8.11900 2.73100 23.73500
C  8.97100 1.43700 23.97300
C  9.20800 1.60800 25.50500
C  6.80700 2.43600 22.90900
C  10.27600 1.33200 23.14800
C  10.31200 0.06700 22.24800
N  9.73300 1.68300 28.49200
C  10.26900 0.73600 27.55900
C  11.28400 -0.07900 28.22400
C  11.26200 0.34400 29.57100
C  10.34300 1.36000 29.66000
C  12.12600 -1.11400 27.62600
C  11.82300 0.09400 30.84500
O  12.61700 -0.72700 31.22500
C  11.25000 1.21400 31.81100
C  10.97100 0.39300 32.99900
O  10.05300 -0.39800 33.12200
O  11.91400 0.54500 33.96500
C  11.65000 -0.15000 35.29000
H  6.01400 5.49100 31.14200
H  6.26000 4.70400 24.68800
H  10.44100 -0.19400 25.70200
H  8.72000 2.53700 33.46400
H  7.68600 5.09700 33.13700
H  5.67700 4.03700 33.79500
H  6.49200 2.48700 33.71900
H  5.61100 3.09200 32.34500
H  9.88200 5.14600 33.56400
H  11.01900 4.30900 32.57200
H  11.86900 3.37700 34.16300
H  10.45400 2.68200 34.91400
H  4.58600 8.00200 28.81100
H  4.79500 7.06800 30.18500
H  3.39300 6.62900 29.03600
H  2.88900 7.28000 26.69600
H  3.34600 8.25000 25.33900
H  4.24600 8.50600 26.72800
H  8.54600 3.50100 23.09200
H  8.35300 0.54200 23.89700
H  5.95600 2.86100 23.44000
H  6.59500 1.37200 22.79900
H  6.85900 2.88400 21.91700
H  11.14900 1.33600 23.80100
H  10.48800 2.19500 22.51800
H  10.60600 0.54900 21.31600
H  9.41400 -0.53100 22.08900
H  11.14100 -0.54200 22.60700
H  11.45500 -1.92300 27.33600
H  13.02700 -1.34400 28.19400
H  12.61900 -0.75300 26.72400
H  12.05000 1.94900 31.90100
H  11.41900 0.54500 36.09700
H  12.60600 -0.61400 35.53100
H  10.89400 -0.92600 35.16600
Mg 48.65000 34.48500 27.53400
C  46.74100 33.09000 29.98100
C  48.86400 37.36100 29.58100
C  50.25800 36.13300 25.07800
C  48.23800 31.76500 25.49400
N  47.83400 35.11900 29.48400
C  47.20500 34.33100 30.34900
C  47.25100 34.90000 31.79500
C  47.59000 36.43000 31.46700
C  48.18300 36.27900 30.09700
C  46.40500 37.47900 31.66800
C  48.35500 34.19100 32.55500
C  48.20000 34.03000 34.10700
H  49.00100 35.07000 34.90200
N  49.59100 36.33400 27.38400
C  49.59900 37.38900 28.33600
C  50.43800 38.50300 27.82200
C  50.86700 38.05900 26.53900
C  50.20900 36.81300 26.26200
C  50.70200 39.74600 28.68000
C  51.80800 38.75900 25.54800
O  52.28100 38.27900 24.48600
C  52.25400 40.26600 25.77600
N  49.10800 34.04900 25.50800
C  49.76200 34.85900 24.74500
C  49.88200 34.27300 23.30500
C  49.56300 32.76300 23.58400
C  48.94600 32.81200 24.91600
C  48.93800 34.94100 22.20200
C  50.75000 31.78300 23.56500
C  51.17500 31.34200 22.19800
N  47.63600 32.75500 27.61500
C  47.56900 31.62200 26.76100
C  46.72800 30.60000 27.36500
C  46.34200 31.15300 28.59300
C  47.04200 32.42200 28.73500
C  46.54500 29.23400 26.85400
C  45.58700 30.86600 29.82100
O  44.97200 29.88900 30.18400
C  45.75400 32.14800 30.69000
C  46.10200 31.75800 32.05600
O  47.16200 31.33700 32.51000
O  45.03600 32.12700 32.89100
C  45.01900 32.03900 34.35000
H  48.84000 38.29700 30.14300
H  50.72900 36.56900 24.19500
H  48.25500 30.82200 24.94200
H  46.36100 34.92500 32.42300
H  48.29400 36.74600 32.23700
H  46.70300 38.50200 31.89600
H  45.60100 37.25700 32.36900
H  45.95000 37.60500 30.68500
H  49.34800 34.49800 32.22800
H  48.51400 33.16900 32.21100
H  48.43300 33.07200 34.57200
H  47.17200 34.27300 34.37300
H  50.14000 40.61600 28.33900
H  51.78400 39.86800 28.71900
H  50.39700 39.61900 29.71800
H  52.70500 40.40400 26.75900
H  51.32900 40.84100 25.73100
H  52.97000 40.47800 24.98200
H  50.87400 34.39500 22.86900
H  48.85700 32.48600 22.80100
H  48.40600 34.20000 21.60500
H  49.49400 35.58900 21.52300
H  48.12200 35.45200 22.71200
H  50.49100 30.83500 24.03700
H  51.62600 32.26400 23.99900
H  52.18900 31.59800 21.88800
H  50.63400 31.94300 21.46700
H  51.03500 30.27800 22.01100
H  45.48700 28.99300 26.74700
H  46.94700 28.58700 27.63400
H  47.05600 28.90200 25.95000
H  44.77800 32.63200 30.71300
H  45.40600 31.09300 34.72800
H  43.97100 32.00400 34.64700
H  45.51000 32.82000 34.93100

