158

Mg 17.53100 -2.33900 27.25200
C  16.46200 -0.27200 29.81500
C  19.45500 -4.04400 29.48000
C  19.06600 -3.80500 24.56000
C  15.83700 -0.19900 24.89000
N  17.81900 -2.24400 29.45000
C  17.22300 -1.42400 30.26100
C  17.68400 -1.70700 31.71100
C  18.85200 -2.69300 31.54700
C  18.66000 -3.03000 30.08600
C  20.23700 -2.15200 31.90600
C  16.47400 -2.16800 32.59000
C  16.25600 -1.43100 33.95900
H  17.41400 -0.78900 34.66700
N  18.93000 -3.82100 27.03300
C  19.57000 -4.45000 28.12400
C  20.38100 -5.51600 27.56100
C  20.29800 -5.44000 26.14200
C  19.39600 -4.37700 25.80900
C  20.93800 -6.55300 28.50300
C  20.99200 -6.31400 25.07200
O  20.64100 -6.19200 23.87600
C  21.98600 -7.29500 25.40800
N  17.52400 -2.00100 25.07900
C  18.22700 -2.77500 24.19400
C  18.07100 -2.26500 22.80800
C  16.90600 -1.20900 22.81500
C  16.69400 -1.11400 24.36500
C  19.45800 -1.84400 22.32300
C  15.66600 -1.62100 21.93700
C  14.78000 -0.41400 21.59800
N  16.35600 -0.60900 27.22000
C  15.67800 0.11700 26.23500
C  14.94600 1.17100 26.83400
C  15.24700 1.08800 28.18800
C  16.06300 -0.03900 28.42500
C  14.06500 2.24400 26.11600
C  14.98700 1.72400 29.59500
O  14.25800 2.67100 29.93900
C  15.76500 0.90800 30.57300
C  16.69300 1.94200 31.21100
O  17.66200 2.43000 30.65200
O  16.27800 2.21100 32.52500
C  17.17000 3.21400 33.11200
H  20.16000 -4.52900 30.15800
H  19.56500 -4.20200 23.67300
H  15.31300 0.47700 24.21000
H  18.10700 -0.79000 32.12000
H  18.70900 -3.53000 32.23100
H  20.95000 -2.18200 31.08100
H  20.67100 -2.86300 32.61000
H  20.06300 -1.23100 32.46200
H  16.47200 -3.25000 32.71700
H  15.56800 -1.90800 32.04200
H  15.85700 -2.13700 34.68800
H  15.48100 -0.66700 33.88600
H  22.02200 -6.46600 28.58600
H  20.67100 -7.48900 28.01200
H  20.54300 -6.55000 29.51800
H  21.60100 -8.20900 25.86000
H  22.73000 -6.83800 26.06000
H  22.42600 -7.73700 24.51500
H  17.80200 -3.09700 22.15700
H  17.28800 -0.24400 22.48400
H  20.23200 -1.83000 23.08900
H  19.46000 -0.85500 21.86400
H  19.91600 -2.51900 21.60000
H  15.02500 -2.34800 22.43600
H  16.05700 -2.08700 21.03200
H  14.88700 -0.16000 20.54300
H  14.96100 0.53100 22.10900
H  13.73000 -0.54000 21.86200
H  14.51600 2.39800 25.13600
H  13.93700 3.19700 26.62900
H  13.07500 1.81400 25.95900
H  15.05200 0.46800 31.27100
H  18.08100 2.68000 33.38400
H  16.61700 3.58900 33.97300
H  17.31100 4.05400 32.43300
Mg 16.61600 52.94900 25.90400
C  18.09300 51.50500 28.68700
C  14.22200 54.21300 28.10800
C  14.96000 54.03500 23.19600
C  19.10600 51.80300 23.90600
N  16.01500 52.57300 28.13900
C  16.93200 52.13600 29.05100
C  16.44300 52.38400 30.49000
C  15.02000 53.04600 30.19300
C  15.08500 53.33200 28.71700
C  13.80000 52.04100 30.55800
C  17.50100 53.31300 31.26500
C  17.57400 53.08300 32.84900
H  16.52400 52.16500 33.45100
N  14.80200 53.94900 25.73200
C  13.96100 54.38300 26.72600
C  12.87600 55.12600 26.10100
C  13.10300 55.00100 24.72500
C  14.28800 54.28100 24.51200
C  11.85100 55.96700 26.86000
C  12.20600 55.69100 23.56800
O  12.31900 55.51800 22.35000
C  11.05800 56.54800 23.94700
N  16.91600 52.72200 23.76800
C  16.15100 53.42600 22.89900
C  16.84300 53.70000 21.58700
C  18.17600 52.89000 21.74700
C  18.06100 52.36000 23.19100
C  16.03600 53.59900 20.26000
C  19.51000 53.69600 21.57800
C  20.74200 52.92600 20.94200
N  18.23500 51.76000 26.12800
C  19.20700 51.40800 25.26200
C  20.24900 50.73000 25.94400
C  19.87600 50.70300 27.30100
C  18.64200 51.39100 27.39300
C  21.51600 50.22500 25.31200
C  20.28300 50.24400 28.62500
O  21.18400 49.52600 29.01800
C  19.16900 50.81300 29.50900
C  18.49000 49.68300 30.26500
O  17.64500 48.90700 29.82500
O  19.06700 49.50000 31.47500
C  18.54500 48.40500 32.23400
H  13.57700 54.74600 28.81000
H  14.43700 54.32700 22.28300
H  19.99700 51.66900 23.28900
H  16.40100 51.45000 31.05000
H  14.96100 53.91300 30.85200
H  13.34400 51.69200 29.63200
H  13.05500 52.57000 31.15300
H  14.08800 51.14100 31.10100
H  17.28200 54.36300 31.06800
H  18.51300 53.23500 30.86700
H  17.50600 54.11100 33.20400
H  18.54900 52.71800 33.17100
H  11.88700 56.98500 26.47100
H  12.06000 55.87500 27.92600
H  10.81800 55.70200 26.63800
H  11.49100 57.34400 24.55300
H  10.26700 55.98400 24.44100
H  10.70700 56.97200 23.00600
H  17.01900 54.77400 21.65300
H  18.15700 51.98600 21.13900
H  15.16200 52.99800 20.51200
H  16.65200 53.15300 19.47800
H  15.74300 54.58800 19.90900
H  19.87100 54.17600 22.48800
H  19.39700 54.49500 20.84600
H  21.56100 53.04300 21.65100
H  20.84500 53.38200 19.95700
H  20.67300 51.86800 20.68900
H  21.97900 50.99000 24.68800
H  21.26700 49.45200 24.58600
H  22.15100 49.76300 26.06800
H  19.57700 51.49100 30.25800
H  17.46700 48.54200 32.30900
H  19.06200 48.23800 33.17900
H  18.74100 47.55400 31.58100

