158

Mg 41.63100 8.93700 30.14500
C  43.50100 10.09100 32.81400
C  39.17700 7.93700 32.33200
C  39.96000 7.92900 27.44800
C  44.43400 9.48800 28.06500
N  41.34200 9.02900 32.33400
C  42.26600 9.50900 33.23900
C  41.71100 9.49600 34.70200
C  40.31300 8.51600 34.51900
C  40.25100 8.48000 32.96400
C  40.48400 7.08100 35.05400
C  41.49300 10.91600 35.26000
C  42.19400 11.29800 36.60300
H  41.41200 12.04000 37.70700
N  39.84300 8.00000 29.94600
C  38.91400 7.73700 30.93300
C  37.71600 7.25100 30.30800
C  37.95100 7.28100 28.88800
C  39.30300 7.78000 28.72300
C  36.58700 6.67500 31.07500
C  36.91600 7.07200 27.76200
O  37.22900 7.17800 26.54600
C  35.55900 6.73500 28.08800
N  42.12400 8.76800 28.07900
C  41.24400 8.36400 27.13300
C  41.81900 8.49600 25.66600
C  43.29300 8.92000 25.92600
C  43.37000 8.94100 27.45400
C  41.66000 7.21500 24.83400
C  43.76300 10.15800 25.14000
C  43.19700 11.50200 25.53900
N  43.53800 9.71600 30.34900
C  44.48600 9.98900 29.38000
C  45.59100 10.61500 30.05300
C  45.18700 10.74000 31.39000
C  44.03700 10.13500 31.50200
C  46.89500 10.88400 29.43500
C  45.69300 11.13100 32.67900
O  46.78900 11.55500 32.96800
C  44.57700 10.75800 33.72500
C  45.11500 9.76700 34.75400
O  45.28500 8.55300 34.59100
O  45.36200 10.47900 35.83600
C  46.13200 9.73700 36.90900
H  38.32700 7.63700 32.94800
H  39.33700 7.67400 26.58800
H  45.31700 9.68800 27.45400
H  42.41100 8.95000 35.33400
H  39.52000 9.01700 35.07400
H  41.51400 6.99100 35.40000
H  40.37300 6.29300 34.30900
H  39.80800 6.82800 35.87100
H  40.43800 10.88800 35.53200
H  41.57800 11.68100 34.48800
H  42.99400 12.00200 36.37600
H  42.70500 10.40600 36.96400
H  35.74400 7.36400 31.03300
H  36.81700 6.41900 32.10900
H  36.27700 5.71700 30.65700
H  34.96400 6.92000 27.19400
H  35.20600 7.44500 28.83700
H  35.56400 5.69300 28.40700
H  41.30000 9.30900 25.15800
H  43.99100 8.11600 25.69100
H  41.44100 6.32100 25.41600
H  42.51100 7.02700 24.17900
H  40.76300 7.29200 24.21800
H  43.50700 9.97900 24.09600
H  44.84500 10.10500 25.26000
H  42.38200 11.46100 26.26100
H  42.85200 11.93900 24.60200
H  43.96700 12.05800 26.07500
H  47.04600 11.90700 29.09000
H  46.89700 10.41900 28.44900
H  47.68800 10.49900 30.07700
H  44.25700 11.67500 34.21900
H  46.80900 8.94800 36.58100
H  45.43000 9.32500 37.63400
H  46.81300 10.38200 37.46400
Mg -6.53600 25.54600 27.14000
C  -4.95000 27.33600 29.71100
C  -8.06400 23.66200 29.55100
C  -7.75300 23.66100 24.67000
C  -4.44800 27.35400 24.83200
N  -6.45700 25.46700 29.32100
C  -5.75500 26.27600 30.18800
C  -6.06500 25.97200 31.67600
C  -6.85900 24.61600 31.60400
C  -7.19500 24.59100 30.07700
C  -5.89500 23.48500 32.01000
C  -6.92300 27.07600 32.29300
C  -6.67900 27.36600 33.79700
H  -6.69700 26.10700 34.76300
N  -7.78300 23.99300 27.08500
C  -8.37500 23.39200 28.19300
C  -9.35100 22.37300 27.76700
C  -9.25900 22.35100 26.35300
C  -8.29800 23.38400 25.95500
C  -10.25800 21.69200 28.69100
C  -10.10800 21.55300 25.29600
O  -9.98500 21.73400 24.08000
C  -11.03000 20.56400 25.79500
N  -6.08300 25.41400 25.08100
C  -6.85600 24.65300 24.25100
C  -6.45300 24.82500 22.79500
C  -5.57300 26.16400 22.83200
C  -5.30100 26.28500 24.35000
C  -5.69700 23.64200 22.08100
C  -6.36700 27.33700 22.18300
C  -7.28900 28.18000 23.08500
N  -5.06200 27.02700 27.14600
C  -4.31000 27.68500 26.19100
C  -3.48900 28.71500 26.75600
C  -3.69500 28.56800 28.12800
C  -4.65300 27.61400 28.37900
C  -2.64800 29.73200 26.06600
C  -3.26800 29.10600 29.42200
O  -2.33600 29.85300 29.69300
C  -4.12100 28.37400 30.49900
C  -3.22100 27.83000 31.57400
O  -2.48900 26.88300 31.41700
O  -3.36700 28.53700 32.75800
C  -2.56300 28.05100 33.90700
H  -8.53000 23.05200 30.32800
H  -8.04500 23.09600 23.78200
H  -3.86900 27.90400 24.08800
H  -5.19900 25.89700 32.33500
H  -7.70000 24.66500 32.29500
H  -5.58400 23.59900 33.04800
H  -5.13600 23.26500 31.25900
H  -6.51200 22.58600 32.02800
H  -7.96200 26.74800 32.26100
H  -6.77700 27.87900 31.57100
H  -7.37900 28.09600 34.20400
H  -5.68900 27.81600 33.87000
H  -11.26900 21.51600 28.32300
H  -10.48000 22.25900 29.59500
H  -9.92700 20.74800 29.12400
H  -10.54700 19.99000 26.58500
H  -11.41600 19.98700 24.95500
H  -11.83600 21.17300 26.20500
H  -7.43200 24.94500 22.33200
H  -4.61600 26.01100 22.33400
H  -5.10700 23.20800 22.88900
H  -5.09500 24.08400 21.28800
H  -6.48400 23.09100 21.56700
H  -6.98800 26.90500 21.39800
H  -5.58400 27.94100 21.72400
H  -7.32800 27.92200 24.14300
H  -8.25600 28.23500 22.58500
H  -6.95200 29.21300 22.99900
H  -2.46600 29.22900 25.11700
H  -1.66000 29.73400 26.52700
H  -3.16900 30.68800 26.11100
H  -4.47700 29.24700 31.04600
H  -1.54000 28.26900 33.59800
H  -2.79000 26.98800 33.98900
H  -2.87400 28.45700 34.86900

