158

Mg 1.80800 -0.91200 44.66400
C  5.11700 0.04100 43.77100
C  0.65100 1.84500 42.97300
C  -1.11300 -2.32100 44.88900
C  3.32500 -3.90800 46.05000
N  2.78500 0.72700 43.47400
C  4.15900 0.89300 43.29400
C  4.43400 2.17800 42.49000
C  3.05800 2.81400 42.33700
C  2.10200 1.73700 42.92300
C  2.89300 4.15700 43.10100
C  5.25800 2.03300 41.12900
C  6.02900 3.25900 40.61500
H  5.80700 3.84300 39.22500
N  -0.06600 -0.24000 44.17100
C  -0.35100 0.92200 43.49800
C  -1.80100 1.01300 43.32600
C  -2.36500 -0.15500 43.92300
C  -1.18400 -0.95700 44.43200
C  -2.46000 2.15300 42.50300
C  -3.88600 -0.49900 43.88100
O  -4.69300 0.30200 43.33300
C  -4.42000 -1.74700 44.40500
N  1.19500 -2.86800 45.44000
C  -0.09600 -3.18000 45.34900
C  -0.34800 -4.62900 45.79000
C  1.06200 -5.06600 46.36900
C  1.95500 -3.87600 45.98700
C  -1.53300 -4.74600 46.80500
C  1.57200 -6.50000 45.93000
C  2.22900 -7.34400 47.01800
N  3.73700 -1.81200 44.82000
C  4.23500 -2.98300 45.44100
C  5.64900 -3.09300 45.38500
C  6.01000 -1.87700 44.82700
C  4.87200 -1.12200 44.48200
C  6.55000 -4.23700 45.80600
C  7.18300 -1.07600 44.43500
O  8.38700 -1.42800 44.48600
C  6.60800 0.27100 43.83100
C  7.07900 1.38700 44.63200
O  6.71300 1.56800 45.76900
O  8.01300 2.25500 43.97800
C  8.35300 3.59200 44.60600
H  0.40700 2.71200 42.35600
H  -2.07200 -2.84200 44.90300
H  3.84000 -4.73000 46.55200
H  5.11200 2.80100 43.07400
H  2.78900 3.05800 41.31000
H  2.10400 4.15700 43.85300
H  2.82200 4.89100 42.29800
H  3.81400 4.38200 43.63900
H  4.56400 1.67600 40.36800
H  5.92500 1.18400 41.28000
H  7.09700 3.11500 40.78000
H  5.72000 4.14300 41.17300
H  -3.30900 2.52300 43.07900
H  -2.75100 1.80700 41.51200
H  -1.83500 3.03700 42.37500
H  -5.42800 -1.53300 44.76300
H  -3.88500 -2.00300 45.32000
H  -4.32400 -2.56500 43.69200
H  -0.47700 -5.17100 44.85400
H  0.94700 -5.11100 47.45200
H  -1.98900 -3.76900 46.96900
H  -1.42800 -5.26100 47.75900
H  -2.25100 -5.34900 46.24800
H  2.35800 -6.45300 45.17600
H  0.69900 -7.05900 45.59200
H  1.95900 -8.38000 46.81400
H  1.99900 -7.16500 48.06900
H  3.29000 -7.22000 46.79900
H  6.29600 -4.63900 46.78700
H  7.55900 -3.87900 46.00900
H  6.42500 -5.01100 45.04900
H  7.13700 0.29800 42.87800
H  8.80800 4.30500 43.91900
H  8.87200 3.44200 45.55300
H  7.46800 4.12200 44.95700
Mg -0.72700 34.56600 26.65600
C  -3.05500 32.88600 28.83700
C  -0.02400 36.65700 29.29700
C  0.89100 36.56400 24.55400
C  -1.87300 32.56000 24.06700
N  -1.47800 34.71300 28.89600
C  -2.36500 33.91100 29.56400
C  -2.38600 34.37200 31.04200
C  -1.58800 35.67500 30.96600
C  -0.90300 35.65600 29.61300
C  -2.39200 36.85600 31.13400
C  -1.92200 33.24100 32.07600
C  -3.01100 33.05100 33.12600
H  -3.14900 34.14300 34.22300
N  0.42000 36.24800 26.92300
C  0.63700 36.92800 28.09900
C  1.52000 38.00100 27.89100
C  1.90600 37.96900 26.48100
C  1.03600 36.93700 25.89400
C  1.91900 38.90000 29.06800
C  2.79100 38.83300 25.66000
O  2.90400 38.76800 24.46800
C  3.51200 39.96000 26.35100
N  -0.46200 34.54100 24.56800
C  0.22600 35.51000 23.90100
C  0.27000 35.16100 22.37200
C  -0.33900 33.72900 22.29500
C  -0.98200 33.56400 23.74000
C  -0.56700 36.24400 21.53400
C  0.62800 32.52200 22.06400
C  1.69300 32.25600 23.18400
N  -2.15200 32.99700 26.39100
C  -2.53200 32.32500 25.26500
C  -3.61700 31.52100 25.56000
C  -3.80800 31.61200 26.96600
C  -2.90100 32.51400 27.44800
C  -4.48100 30.77800 24.60400
C  -4.66800 31.16400 28.05400
O  -5.61500 30.35200 28.15600
C  -4.10100 31.92000 29.35500
C  -5.21900 32.58900 29.95200
O  -5.72900 33.61900 29.51700
O  -5.58900 31.88200 31.09300
C  -6.71000 32.51600 31.81400
H  0.24800 37.30500 30.13300
H  1.35700 37.20900 23.80600
H  -2.09600 31.82600 23.29000
H  -3.43500 34.53500 31.28900
H  -0.85300 35.73000 31.76900
H  -2.43200 37.46500 30.23100
H  -2.02500 37.37800 32.01700
H  -3.41800 36.60700 31.40900
H  -1.03300 33.48900 32.65700
H  -1.77400 32.35300 31.46100
H  -2.69600 32.12100 33.60000
H  -4.04300 32.99700 32.77900
H  1.71000 39.86300 28.60300
H  2.95700 38.84300 29.39400
H  1.32400 38.86900 29.98100
H  2.66100 40.55400 26.68700
H  4.32300 40.35500 25.73900
H  4.11800 39.62800 27.19400
H  1.34900 35.18000 22.22100
H  -1.14600 33.61900 21.57000
H  -1.27300 36.73500 22.20300
H  -1.29300 35.79800 20.85500
H  0.03400 36.97500 20.99300
H  1.17200 32.84900 21.17800
H  0.05100 31.62400 21.84200
H  1.50500 31.49700 23.94300
H  1.94400 33.21600 23.63600
H  2.61700 31.82700 22.79700
H  -5.29500 30.22300 25.07100
H  -3.86200 30.13500 23.97900
H  -4.97800 31.53900 24.00200
H  -3.72200 31.25100 30.12800
H  -6.38400 33.37300 32.40300
H  -7.09900 31.89300 32.61900
H  -7.62000 32.68400 31.23800

