158

Mg 25.52900 0.08700 29.27100
C  27.28900 -0.12400 32.26300
C  22.68600 0.14900 31.09500
C  23.86900 0.54400 26.26900
C  28.46800 -0.06400 27.47500
N  25.08600 -0.05500 31.42700
C  25.94600 0.00600 32.50000
C  25.24400 0.06900 33.88100
C  23.72600 -0.14400 33.43500
C  23.81500 0.00700 31.91600
C  23.03600 -1.43000 33.96100
C  25.57700 1.33900 34.77800
C  26.11900 1.06200 36.19600
H  25.07400 0.64200 37.27400
N  23.54100 0.25900 28.80000
C  22.50100 0.20300 29.68500
C  21.28700 0.24800 28.92500
C  21.60900 0.39600 27.49900
C  23.07000 0.45500 27.46200
C  19.85400 0.17200 29.60800
C  20.70700 0.46500 26.24100
O  21.15600 0.62400 25.08800
C  19.24300 0.36000 26.51300
N  26.08200 -0.07000 27.11800
C  25.25100 0.25300 26.10100
C  25.95400 0.37000 24.72000
C  27.46900 0.18700 25.16900
C  27.33400 0.06300 26.71200
C  25.38700 -0.55000 23.65200
C  28.45700 1.35100 24.80600
C  29.87100 0.95100 24.28800
N  27.49400 -0.09500 29.74000
C  28.61100 -0.13300 28.88700
C  29.79700 -0.40300 29.70600
C  29.33700 -0.38800 31.04000
C  27.92100 -0.24100 31.04000
C  31.16600 -0.59300 29.17300
C  29.80300 -0.49800 32.40300
O  30.92200 -0.66700 32.83100
C  28.51500 -0.17600 33.28300
C  28.42300 -1.29600 34.26900
O  27.69900 -2.28400 34.15500
O  29.22600 -1.11200 35.33500
C  28.99900 -2.02500 36.41700
H  21.88900 0.18500 31.84100
H  23.27400 0.80500 25.39200
H  29.32200 -0.14400 26.79900
H  25.43400 -0.81400 34.49100
H  23.02800 0.62100 33.77800
H  23.64400 -2.07200 34.59900
H  22.62800 -2.08500 33.19200
H  22.24600 -1.09600 34.63300
H  24.70600 1.98900 34.86900
H  26.29800 1.93300 34.21800
H  26.65800 1.89700 36.64300
H  26.72200 0.15500 36.15700
H  19.92300 0.10700 30.69400
H  19.41700 -0.79600 29.36600
H  19.18300 0.96300 29.27200
H  18.80200 1.27900 26.89900
H  19.15300 -0.46900 27.21500
H  18.78000 0.08300 25.56600
H  25.80900 1.34500 24.25500
H  27.83700 -0.80300 24.90300
H  25.52500 -0.14100 22.65100
H  24.31500 -0.42700 23.80900
H  25.69200 -1.59500 23.69900
H  28.61100 1.92000 25.72300
H  28.03500 2.06100 24.09600
H  29.84900 -0.10600 24.02500
H  30.52500 1.11100 25.14500
H  30.12300 1.55700 23.41800
H  31.79400 -0.56300 30.06300
H  31.31700 0.09400 28.34000
H  31.24500 -1.64100 28.88400
H  28.64700 0.73800 33.86100
H  28.02900 -1.61700 36.69800
H  29.78300 -1.86200 37.15600
H  28.71500 -3.05100 36.18000
Mg -5.66300 24.99400 27.72100
C  -3.78100 26.86200 30.11200
C  -6.64800 22.84300 30.13300
C  -7.16300 23.01100 25.26300
C  -4.19900 26.83300 25.23200
N  -5.18000 24.87900 29.77300
C  -4.53500 25.78900 30.64300
C  -4.83800 25.54300 32.12900
C  -5.67100 24.15400 32.07100
C  -5.79900 23.85500 30.56700
C  -5.03200 23.03100 32.85100
C  -5.66000 26.69800 32.74100
C  -5.34100 27.00700 34.17100
H  -6.39900 26.71600 35.21100
N  -6.85700 23.17700 27.75500
C  -7.12300 22.46100 28.82800
C  -7.77100 21.24300 28.41200
C  -7.91000 21.19200 27.01300
C  -7.24100 22.45700 26.61900
C  -8.27100 20.26200 29.45600
C  -8.57700 20.12900 26.12100
O  -8.58400 20.17400 24.87000
C  -9.35100 19.02500 26.80000
N  -5.68400 24.89000 25.58100
C  -6.41200 24.04600 24.78800
C  -6.30800 24.33100 23.27500
C  -5.31300 25.61300 23.30000
C  -5.08500 25.85300 24.80100
C  -5.73900 23.14700 22.48800
C  -5.93300 26.92900 22.63200
C  -5.02400 27.73700 21.78700
N  -4.28400 26.55100 27.65900
C  -3.90800 27.22100 26.57400
C  -2.89800 28.21000 27.00700
C  -2.90800 28.20000 28.37200
C  -3.65100 27.09200 28.73500
C  -2.30000 29.21900 26.14000
C  -2.36900 28.74400 29.60200
O  -1.59100 29.68500 29.76600
C  -3.00500 27.96200 30.78800
C  -1.83100 27.50600 31.61900
O  -0.79500 26.97500 31.26200
O  -2.11800 27.90200 32.88500
C  -0.97400 27.72000 33.79800
H  -6.92100 22.12800 30.91200
H  -7.59300 22.32300 24.53300
H  -3.86800 27.55600 24.48400
H  -3.87900 25.36700 32.61700
H  -6.67300 24.21300 32.49700
H  -5.78400 22.37400 33.28800
H  -4.36300 23.33300 33.65600
H  -4.46100 22.41500 32.15700
H  -6.67500 26.30800 32.66500
H  -5.78500 27.60000 32.14300
H  -5.10200 28.06800 34.24800
H  -4.45000 26.44400 34.45100
H  -9.34500 20.09000 29.38500
H  -7.99800 20.54000 30.47400
H  -7.64000 19.38600 29.30800
H  -9.95900 18.51100 26.05500
H  -10.09900 19.38400 27.50800
H  -8.53900 18.52600 27.32900
H  -7.30600 24.51300 22.87600
H  -4.32100 25.33700 22.94200
H  -4.94600 23.46200 21.80900
H  -6.53000 22.63300 21.94100
H  -5.34800 22.39500 23.17200
H  -6.27100 27.58300 23.43600
H  -6.83700 26.67700 22.07900
H  -5.49100 27.88900 20.81400
H  -4.03300 27.28700 21.72400
H  -4.81400 28.72400 22.19800
H  -1.75800 28.62100 25.40800
H  -1.43600 29.67300 26.62600
H  -2.98500 29.96100 25.72800
H  -3.70400 28.59500 31.33400
H  -0.07800 28.13500 33.33600
H  -0.68900 26.67200 33.89100
H  -1.16800 28.13800 34.78600

