158

Mg 16.46600 52.65600 26.19800
C  18.70700 51.23100 28.39300
C  14.28500 53.15500 28.72000
C  14.53500 54.04800 23.87900
C  18.74100 51.60200 23.61500
N  16.60000 52.32100 28.28500
C  17.56200 51.81700 29.04500
C  17.23100 51.89200 30.54100
C  15.72100 52.04600 30.56200
C  15.51700 52.53900 29.11600
C  15.01600 50.71900 30.84400
C  17.99700 53.12200 31.12900
C  18.23400 53.25200 32.61700
H  17.30500 52.51000 33.53700
N  14.60600 53.45100 26.26500
C  13.88100 53.64600 27.46800
C  12.60300 54.35400 27.14900
C  12.69700 54.68800 25.74800
C  13.97500 54.06600 25.22600
C  11.68200 54.85000 28.20200
C  11.73700 55.56800 24.91700
O  11.83900 55.78800 23.72200
C  10.60800 56.33500 25.53100
N  16.69000 52.76300 24.03900
C  15.70500 53.41900 23.35000
C  16.10900 53.54900 21.87000
C  17.54100 52.94600 21.84700
C  17.71300 52.45500 23.23900
C  15.09400 52.91400 20.78400
C  18.67500 53.83500 21.32100
C  19.83600 54.28700 22.38700
N  18.29100 51.55700 25.97200
C  19.05700 51.16000 24.91200
C  20.24300 50.51500 25.31500
C  20.13400 50.48600 26.69700
C  18.91400 51.11100 27.03700
C  21.36500 49.99900 24.35800
C  20.80300 50.08000 27.88700
O  21.84400 49.40900 28.02800
C  19.92500 50.60300 29.03000
C  19.60000 49.59200 29.99500
O  18.89300 48.61100 29.77500
O  19.97500 50.00600 31.24700
C  19.56900 49.18400 32.37800
H  13.52600 53.21800 29.50400
H  13.94400 54.62700 23.16600
H  19.40000 51.34200 22.78400
H  17.45100 51.02600 31.16400
H  15.57800 52.74700 31.38400
H  14.00300 50.81100 30.45100
H  14.91300 50.62000 31.92500
H  15.60900 49.84000 30.59400
H  17.51300 54.05000 30.82200
H  18.92100 53.19900 30.55500
H  18.17500 54.32600 32.79700
H  19.28100 52.96100 32.70800
H  11.83400 54.28000 29.11900
H  10.68300 54.75000 27.77700
H  11.92300 55.87200 28.49300
H  10.28700 57.05800 24.78100
H  11.05200 56.81500 26.40400
H  9.93600 55.50600 25.75300
H  16.13300 54.61300 21.63400
H  17.42700 52.08900 21.18300
H  14.09300 53.08400 21.18100
H  15.32800 51.88800 20.50000
H  15.28100 53.52900 19.90300
H  18.33300 54.64800 20.68000
H  19.33300 53.28500 20.64900
H  20.79300 53.78500 22.24400
H  19.59100 54.38700 23.44400
H  20.12600 55.28500 22.05700
H  21.95900 49.17700 24.75700
H  22.04800 50.84000 24.24100
H  21.02100 49.69300 23.37000
H  20.47500 51.33200 29.62700
H  20.29000 48.39800 32.60100
H  18.62300 48.64400 32.41300
H  19.54700 49.93000 33.17300
Mg -11.30900 37.77500 41.97800
C  -9.31000 35.04600 41.21000
C  -9.12200 39.71400 40.12800
C  -13.41900 40.33700 42.34500
C  -13.70300 35.61600 43.22000
N  -9.63400 37.29500 40.46700
C  -8.89400 36.17100 40.57400
C  -7.64600 36.30300 39.65400
C  -7.39700 37.83600 39.73500
C  -8.79800 38.35300 40.08000
C  -6.23600 38.28700 40.69400
C  -7.85200 35.68900 38.21700
C  -6.73500 34.68800 37.92200
H  -5.52900 35.32900 37.14300
N  -11.29700 39.78400 41.22100
C  -10.28300 40.37000 40.58500
C  -10.68100 41.72700 40.39200
C  -11.86900 41.97300 41.10600
C  -12.23400 40.65300 41.62300
C  -9.90900 42.74000 39.71800
C  -12.54200 43.43100 41.09500
O  -12.02800 44.43900 40.64900
C  -13.99400 43.50400 41.61500
N  -13.40600 37.87900 42.34100
C  -13.89900 39.05500 42.68700
C  -15.42600 38.90900 43.08600
C  -15.60000 37.33300 43.21000
C  -14.14600 36.88200 42.86100
C  -15.74100 39.69400 44.43400
C  -16.70400 36.57400 42.37600
C  -16.82100 36.92000 40.97700
N  -11.51600 35.71100 42.22800
C  -12.46000 35.07200 42.89600
C  -11.94600 33.72500 43.09500
C  -10.72600 33.64300 42.48700
C  -10.58300 34.88500 41.86400
C  -12.51400 32.69900 43.98000
C  -9.60300 32.82400 42.16000
O  -9.48100 31.57800 42.32900
C  -8.65300 33.60800 41.20500
C  -7.21800 33.62100 41.78700
O  -6.44400 32.69400 41.64500
O  -6.96400 34.74000 42.47300
C  -5.71300 34.85200 43.20400
H  -8.40200 40.37700 39.64400
H  -14.10400 41.12300 42.66900
H  -14.41900 34.96900 43.73100
H  -6.73700 35.88500 40.08800
H  -7.05900 38.17000 38.75400
H  -6.68100 38.91500 41.46600
H  -5.55200 38.93600 40.14700
H  -5.51700 37.56500 41.08200
H  -7.98500 36.48400 37.48400
H  -8.72500 35.03500 38.20100
H  -7.07800 33.83900 37.33000
H  -6.34900 34.21500 38.82500
H  -9.68900 43.45900 40.50800
H  -10.65400 43.08000 39.00000
H  -9.00200 42.54000 39.14800
H  -13.94300 43.29800 42.68400
H  -14.51300 42.76900 41.00000
H  -14.31700 44.52300 41.40600
H  -16.08300 39.18300 42.26100
H  -15.89000 37.07800 44.23000
H  -15.71800 40.74900 44.16100
H  -14.89300 39.36500 45.03500
H  -16.69300 39.33800 44.82600
H  -17.63800 36.84400 42.86900
H  -16.64500 35.49000 42.46400
H  -15.93200 37.42200 40.59500
H  -17.62600 37.64500 40.85700
H  -17.01200 36.01600 40.39900
H  -13.01800 31.86300 43.49400
H  -13.19000 33.15800 44.70200
H  -11.67900 32.26600 44.53100
H  -8.55700 33.22700 40.18900
H  -4.88400 35.10500 42.54400
H  -5.46100 33.87200 43.60900
H  -5.93100 35.57200 43.99300

