158

Mg 40.51100 10.15400 29.81900
C  42.51300 11.37900 32.29500
C  38.27100 9.02700 32.17400
C  38.61000 8.80000 27.31400
C  43.10200 10.64100 27.50900
N  40.41200 10.31000 31.94100
C  41.24900 10.97700 32.74900
C  40.69400 11.05200 34.20400
C  39.44100 10.06400 34.22000
C  39.38800 9.73800 32.65700
C  39.67700 8.73700 35.03100
C  40.57600 12.50600 34.65500
C  39.76100 12.74100 35.95200
H  40.64700 13.26000 37.10100
N  38.65800 9.16300 29.73400
C  37.85600 8.83100 30.83100
C  36.66500 8.18500 30.34300
C  36.76100 8.12200 28.92900
C  38.00500 8.75300 28.58600
C  35.62200 7.54900 31.32400
C  35.73800 7.62400 28.01800
O  35.75800 7.74400 26.78600
C  34.55700 6.92500 28.59300
N  40.88300 9.88500 27.65100
C  39.95300 9.17600 26.95000
C  40.46300 9.04300 25.47400
C  41.92800 9.65300 25.54800
C  41.97600 10.07600 26.97100
C  40.35900 7.69000 24.67200
C  42.29500 10.72900 24.55300
C  42.13400 12.17700 24.95000
N  42.43500 10.98600 29.79500
C  43.38500 11.15900 28.82600
C  44.60100 11.66800 29.42800
C  44.29400 11.91200 30.79200
C  42.97900 11.41500 30.97000
C  45.82200 12.12100 28.78200
C  44.77600 12.47000 31.99800
O  45.85800 13.05200 32.27400
C  43.59000 12.22300 33.06400
C  44.17400 11.37500 34.10500
O  44.91700 10.38900 34.00200
O  43.77100 11.79300 35.32100
C  44.21700 10.98000 36.47600
H  37.56300 8.74800 32.95700
H  38.04900 8.32600 26.50600
H  43.95300 10.87300 26.86500
H  41.47200 10.62100 34.83400
H  38.49100 10.55900 34.42200
H  39.80900 7.90000 34.34500
H  38.87700 8.44200 35.70900
H  40.54300 8.71200 35.69300
H  40.09100 13.02800 33.83000
H  41.56400 12.95900 34.74100
H  39.23900 11.87000 36.35000
H  39.02800 13.50500 35.69400
H  35.56900 6.47800 31.13000
H  34.68000 8.07800 31.18100
H  35.85800 7.68400 32.38000
H  33.91100 7.57800 29.17900
H  34.95400 6.04000 29.09000
H  33.82200 6.58500 27.86400
H  39.69900 9.55700 24.89100
H  42.68500 8.87700 25.42700
H  39.62800 7.68100 23.86300
H  40.18600 6.84900 25.34300
H  41.35800 7.58600 24.24900
H  41.66300 10.49000 23.69700
H  43.36400 10.52800 24.47800
H  43.03000 12.59700 25.40800
H  41.26200 12.13700 25.60400
H  41.78800 12.85000 24.16600
H  46.03600 11.61000 27.84400
H  46.63800 11.83300 29.44500
H  45.86500 13.20100 28.63900
H  43.30100 13.19500 33.46300
H  43.59300 11.37600 37.27700
H  45.27000 11.11800 36.72100
H  43.95500 9.93500 36.31000
Mg 1.96800 41.63000 25.22500
C  2.72200 41.77500 28.71600
C  -1.04800 40.36800 26.10000
C  1.49900 40.84600 21.97200
C  5.16300 42.95600 24.57200
N  1.02300 41.01200 27.18100
C  1.43800 41.24400 28.49100
C  0.33900 41.01600 29.52800
C  -0.81500 40.49500 28.66700
C  -0.28000 40.64700 27.20800
C  -1.30400 39.01600 28.91900
C  -0.01300 42.26200 30.42600
C  0.09500 41.86800 31.88800
H  -0.77100 40.76900 32.50500
N  0.44100 40.79200 24.16800
C  -0.74000 40.37700 24.69500
C  -1.62600 39.88500 23.57800
C  -0.88000 40.10600 22.38600
C  0.43800 40.55800 22.82800
C  -3.02100 39.23300 23.72300
C  -1.29500 39.82600 20.93400
O  -0.65300 40.24600 19.97300
C  -2.54300 39.14900 20.61300
N  3.25900 41.85000 23.47800
C  2.83600 41.36100 22.23600
C  3.81900 41.85300 21.17600
C  4.90400 42.72000 21.96900
C  4.42400 42.48800 23.41900
C  4.47900 40.67500 20.36800
C  4.88700 44.29100 21.47300
C  3.87500 45.26200 22.12300
N  3.64300 42.32700 26.39500
C  4.83400 42.90200 25.94100
C  5.66000 43.19200 27.09000
C  4.81000 42.70600 28.15800
C  3.61500 42.21500 27.72000
C  7.03600 43.72900 27.10900
C  4.89600 42.55100 29.59400
O  5.75700 42.84800 30.40300
C  3.54800 41.82200 29.94600
C  3.78700 40.53200 30.51600
O  4.43600 39.60300 29.94500
O  3.27900 40.43900 31.77500
C  3.47700 39.24100 32.60100
H  -2.00800 39.90100 26.33000
H  1.38600 40.75200 20.89000
H  6.08000 43.50000 24.33700
H  0.70200 40.16100 30.09900
H  -1.67000 41.14200 28.86800
H  -0.83400 38.54500 29.78200
H  -1.06400 38.39700 28.05500
H  -2.38300 39.05900 29.06600
H  -0.96100 42.75600 30.21000
H  0.61000 43.15300 30.33500
H  0.20200 42.79500 32.45200
H  1.07500 41.41200 32.02700
H  -3.73000 39.66800 23.01900
H  -3.32700 39.35500 24.76200
H  -2.99000 38.16000 23.53400
H  -3.41100 39.79400 20.75100
H  -2.61400 38.24400 21.21600
H  -2.43200 38.95900 19.54600
H  3.15600 42.48000 20.58000
H  5.90600 42.31600 21.82100
H  5.48900 40.49300 20.73700
H  4.46500 41.09000 19.36000
H  3.76700 39.86000 20.49800
H  4.73900 44.28600 20.39300
H  5.86000 44.73400 21.68500
H  3.33600 45.58700 21.23300
H  4.35600 46.08000 22.65800
H  3.20300 44.88500 22.89400
H  7.19700 44.15300 26.11800
H  7.74700 42.91100 27.22700
H  7.10300 44.46900 27.90800
H  3.07800 42.51000 30.64900
H  4.29900 39.64500 33.19300
H  3.67500 38.26500 32.15900
H  2.46600 39.14200 32.99700

