158

Mg 45.75100 3.91200 47.08500
C  43.41800 6.63300 46.54600
C  43.17100 1.79400 46.54000
C  48.01000 1.63700 46.80200
C  48.37700 6.40700 47.13500
N  43.58300 4.23100 46.51600
C  42.81900 5.42300 46.41300
C  41.33900 5.04500 46.00200
C  41.26900 3.51500 46.19600
C  42.71400 3.11800 46.42400
C  40.23400 2.98800 47.23800
C  41.05500 5.48000 44.51400
C  40.34500 6.78000 44.21500
H  40.86900 7.61900 43.02200
N  45.59900 1.96400 46.87100
C  44.41100 1.23800 46.65500
C  44.74400 -0.12300 46.70700
C  46.18600 -0.20100 46.66200
C  46.67700 1.16000 46.82500
C  43.68400 -1.19300 46.55500
C  47.01500 -1.53900 46.60800
O  46.47800 -2.61300 46.56200
C  48.58700 -1.58100 46.70300
N  47.91200 4.03700 46.78300
C  48.61100 2.89000 46.74400
C  50.15500 3.12200 46.75300
C  50.29500 4.63200 46.92500
C  48.76100 5.08600 46.93200
C  50.94400 2.21500 47.68600
C  51.22700 5.36000 45.91400
C  52.52500 5.99400 46.35300
N  45.89800 6.05600 46.94000
C  47.06000 6.86800 47.00900
C  46.64700 8.32300 47.01000
C  45.18600 8.23600 46.91800
C  44.79100 6.88100 46.75700
C  47.46500 9.60500 46.82600
C  43.94300 9.02400 46.88800
O  43.75100 10.22600 47.00400
C  42.76200 8.00400 46.73500
C  41.92800 8.09100 47.99300
O  42.19800 7.58600 49.06300
O  40.86000 8.95400 47.78200
C  40.07300 9.34300 48.97800
H  42.33000 1.10700 46.42900
H  48.80900 0.92300 46.59300
H  49.20800 7.09700 47.29500
H  40.71200 5.67500 46.63400
H  40.87700 2.97300 45.33600
H  39.39400 2.71000 46.60200
H  39.96900 3.82800 47.88000
H  40.66100 2.13000 47.75800
H  40.59700 4.65900 43.96200
H  41.98800 5.52400 43.95200
H  40.31600 7.41400 45.10200
H  39.28600 6.64300 43.99600
H  43.78300 -1.62300 45.55800
H  42.62900 -0.92300 46.60900
H  43.82100 -1.93500 47.34100
H  48.84900 -0.95800 47.55900
H  48.97300 -1.19400 45.76000
H  48.87300 -2.61800 46.87500
H  50.50100 2.88000 45.74800
H  50.73400 4.83200 47.90200
H  50.37600 2.07600 48.60600
H  51.92000 2.67400 47.84300
H  51.13300 1.25400 47.20700
H  50.65100 6.18400 45.49300
H  51.40200 4.69700 45.06600
H  52.28400 7.04100 46.53500
H  53.32300 6.09300 45.61700
H  52.97700 5.49200 47.20800
H  48.33800 9.50300 47.47000
H  46.84100 10.37600 47.27800
H  47.72900 9.76200 45.78000
H  42.18400 8.25700 45.84600
H  40.68500 9.89000 49.69500
H  39.81800 8.44400 49.54100
H  39.19400 9.91200 48.67500
Mg -0.18800 44.20100 24.98700
C  1.71900 44.45000 28.06600
C  -2.85200 43.24900 26.77200
C  -1.84500 43.45500 22.07800
C  2.77200 44.35200 23.26000
N  -0.43900 43.81600 27.21600
C  0.35500 44.17000 28.33700
C  -0.42500 43.90200 29.61200
C  -1.90700 43.52400 29.12500
C  -1.69400 43.49300 27.59000
C  -2.54100 42.25200 29.82000
C  -0.43800 45.18500 30.49600
C  0.07400 44.88100 31.95900
H  -0.22700 43.41700 32.51700
N  -2.18800 43.57700 24.48600
C  -3.08900 43.23600 25.42700
C  -4.34900 42.91800 24.76000
C  -4.14600 43.12200 23.34900
C  -2.68500 43.32200 23.21700
C  -5.57000 42.41700 25.65500
C  -5.11800 43.06600 22.16300
O  -4.76000 43.30800 21.02300
C  -6.66100 42.97400 22.58100
N  0.38600 44.02500 23.02500
C  -0.46800 43.76700 22.01100
C  0.23500 43.81900 20.66100
C  1.57800 44.38500 21.06000
C  1.54000 44.27400 22.50800
C  0.31000 42.42300 20.04100
C  1.86300 45.89700 20.52000
C  1.66800 47.03000 21.45500
N  1.81800 44.40900 25.46600
C  2.93400 44.45800 24.65400
C  4.12100 44.63800 25.45000
C  3.68500 44.62400 26.81400
C  2.29400 44.52400 26.81500
C  5.51900 44.88100 25.02600
C  4.14600 44.68900 28.23900
O  5.27700 44.78100 28.68100
C  2.81700 44.70300 29.06300
C  2.90700 43.68200 30.20500
O  2.42400 42.55000 30.16500
O  3.69900 44.17300 31.18700
C  4.05300 43.13100 32.15000
H  -3.74000 43.04300 27.37300
H  -2.44200 43.46300 21.16400
H  3.68500 44.37500 22.66200
H  0.11400 43.08700 30.09600
H  -2.56900 44.36700 29.32100
H  -3.49000 42.58300 30.24300
H  -1.79200 41.79400 30.46700
H  -2.62900 41.56200 28.98100
H  -1.47600 45.50700 30.58700
H  0.24700 45.97300 30.18300
H  -0.24700 45.67000 32.63900
H  1.16000 44.89200 31.87000
H  -6.11000 41.63400 25.12200
H  -6.25400 43.24500 25.83800
H  -5.19800 41.92200 26.55200
H  -6.98800 41.95300 22.78200
H  -7.25700 43.38200 21.76600
H  -7.00900 43.46500 23.49000
H  -0.30200 44.52100 20.02300
H  2.36400 43.67700 20.79700
H  1.23100 42.42100 19.45800
H  -0.50300 42.13500 19.37400
H  0.28500 41.72200 20.87600
H  1.21800 46.10300 19.66500
H  2.81600 46.10400 20.03400
H  1.03800 47.81300 21.03400
H  2.62800 47.48500 21.70200
H  1.07300 46.76900 22.33000
H  5.74300 45.16200 23.99700
H  6.07900 43.97600 25.25900
H  5.74700 45.74600 25.64900
H  2.70700 45.62400 29.63400
H  4.96300 42.61200 31.84900
H  3.31500 42.33000 32.20600
H  4.25000 43.54800 33.13700

