158

Mg 49.15400 45.22000 42.74000
C  45.86900 45.76200 41.62000
C  48.86000 41.91300 41.72600
C  52.43000 44.89500 42.73400
C  49.42700 48.73800 43.09600
N  47.53000 43.98600 41.63400
C  46.26000 44.45600 41.28300
C  45.41300 43.30200 40.57900
C  46.26900 42.03400 41.06800
C  47.64000 42.64000 41.46600
C  45.67200 41.15100 42.16000
C  45.40900 43.47700 39.10800
C  44.33100 42.68800 38.40800
H  44.76800 41.61200 37.30500
N  50.46500 43.62500 42.48400
C  50.14000 42.37600 42.04200
C  51.31700 41.56800 42.05300
C  52.39000 42.34600 42.36500
C  51.80600 43.66900 42.57800
C  51.47700 40.10100 41.70000
C  53.86600 41.92900 42.46200
O  54.23300 40.77200 42.22100
C  54.98500 42.93900 42.85800
N  50.66700 46.60000 43.18400
C  51.93300 46.19900 42.97900
C  52.92300 47.43200 42.96200
C  51.95400 48.63500 43.28800
C  50.60500 47.96300 43.12800
C  54.19600 47.33000 43.94000
C  52.21000 49.79500 42.27600
C  52.46200 51.12700 42.98800
N  47.88700 46.88500 42.55000
C  48.12800 48.23200 42.80200
C  46.94300 48.97000 42.60000
C  45.96800 48.04300 42.20000
C  46.60800 46.82800 42.20500
C  46.84500 50.48900 42.75100
C  44.68500 47.93100 41.68000
O  43.78200 48.69500 41.44000
C  44.53000 46.42600 41.25900
C  43.25100 45.83800 41.72000
O  42.53100 45.05100 41.08400
O  42.87800 46.28100 42.94800
C  41.61900 45.74600 43.55900
H  48.63200 40.85500 41.58700
H  53.51700 44.97400 42.65800
H  49.45300 49.76800 43.46000
H  44.39600 43.42200 40.95300
H  46.36200 41.32300 40.24600
H  46.16900 41.01100 43.12000
H  45.56700 40.11700 41.83200
H  44.67400 41.57100 42.28900
H  46.43300 43.22500 38.83400
H  45.29400 44.55400 38.98700
H  43.78100 43.44000 37.84300
H  43.68200 42.21000 39.14200
H  51.93100 39.54600 42.52100
H  52.05900 40.01800 40.78300
H  50.49700 39.64300 41.57100
H  55.12100 43.49800 41.93200
H  55.86000 42.31600 43.04600
H  54.76800 43.46300 43.78800
H  53.30400 47.49200 41.94300
H  51.96500 48.84000 44.35800
H  55.09000 47.13300 43.34800
H  54.15900 46.59100 44.74000
H  54.30800 48.29700 44.43100
H  51.38200 49.91100 41.57700
H  53.14600 49.64000 41.73800
H  53.49700 51.38400 42.76200
H  52.51700 51.07800 44.07600
H  51.76300 51.93200 42.75800
H  46.72800 50.71100 43.81200
H  45.99200 50.89400 42.20600
H  47.75300 50.97500 42.39600
H  44.33800 46.42500 40.18600
H  40.77300 45.88000 42.88500
H  41.39000 46.21600 44.51600
H  41.71400 44.71500 43.89900
Mg 17.06600 52.19800 26.74200
C  19.17600 50.79100 29.30100
C  14.81800 52.90800 29.24100
C  15.20600 53.48100 24.39800
C  19.25800 50.80900 24.43400
N  17.06200 51.94200 28.98000
C  18.01800 51.42400 29.78300
C  17.61000 51.52600 31.23100
C  16.07600 51.70900 31.11200
C  15.97700 52.24100 29.65600
C  15.41900 50.29700 31.08800
C  18.36000 52.73200 31.90200
C  18.38000 52.66800 33.46600
H  17.39000 51.73500 34.19900
N  15.27800 53.11200 26.77200
C  14.52400 53.36400 27.94700
C  13.41500 54.27600 27.55000
C  13.55700 54.46600 26.12900
C  14.68000 53.63400 25.66900
C  12.32600 54.75800 28.50400
C  12.78000 55.41200 25.28900
O  12.97300 55.39400 24.07800
C  11.75000 56.37000 25.85100
N  17.15800 52.01100 24.67800
C  16.29200 52.73000 23.93600
C  16.83700 52.91300 22.56200
C  18.08400 51.92700 22.52000
C  18.21600 51.58200 23.96200
C  15.81600 52.50200 21.37800
C  19.43600 52.68600 22.13600
C  20.22100 52.22200 20.93900
N  18.78700 50.99500 26.81700
C  19.54700 50.45000 25.78000
C  20.63600 49.60600 26.25300
C  20.58500 49.73100 27.59500
C  19.47200 50.64200 27.87600
C  21.65500 48.88900 25.40000
C  21.23100 49.37600 28.84200
O  22.20000 48.67500 29.11700
C  20.39600 50.16600 29.92600
C  20.01800 49.22200 31.02200
O  19.45300 48.18700 30.79900
O  20.37200 49.60600 32.20700
C  20.25500 48.64000 33.32000
H  14.11800 53.05400 30.06600
H  14.94800 54.01400 23.47900
H  20.03800 50.54600 23.71600
H  17.93800 50.59300 31.69000
H  15.51400 52.40000 31.74100
H  16.16900 49.52100 30.93400
H  14.65800 50.28900 30.30700
H  14.89100 50.25300 32.04000
H  17.93300 53.67300 31.55500
H  19.41200 52.62100 31.64100
H  18.39900 53.68500 33.85800
H  19.38000 52.26300 33.62000
H  12.47200 55.83500 28.42100
H  12.56600 54.40100 29.50600
H  11.38300 54.34800 28.14500
H  11.05800 55.79800 26.46800
H  11.29000 56.94200 25.04500
H  12.07400 57.15200 26.53700
H  17.12500 53.95400 22.42100
H  17.87800 51.05300 21.90200
H  15.19000 51.64400 21.62200
H  16.47300 52.43200 20.51100
H  15.22400 53.40800 21.24900
H  20.18500 52.80800 22.91900
H  19.09100 53.69900 21.92800
H  21.22600 52.11800 21.34800
H  20.23200 52.87400 20.06500
H  19.74900 51.29000 20.62800
H  22.62300 49.10100 25.85300
H  21.61600 49.41800 24.44700
H  21.48300 47.81300 25.37700
H  21.15200 50.88300 30.24700
H  20.12000 47.57400 33.13700
H  19.37700 48.99500 33.85900
H  21.15700 48.65700 33.93200

