158

Mg 41.61200 8.47600 29.79900
C  43.54600 9.47600 32.50400
C  39.24500 7.34800 32.12800
C  39.90300 7.17500 27.25000
C  44.26700 9.18200 27.66600
N  41.55000 8.29500 32.04300
C  42.36600 8.90600 32.95000
C  41.86000 8.86500 34.38800
C  40.51500 8.01100 34.22100
C  40.40200 7.84100 32.69900
C  40.61500 6.65500 34.99100
C  41.57000 10.34100 34.87600
C  40.67700 10.49700 36.10700
H  41.19000 11.30200 37.27400
N  39.82000 7.41100 29.69700
C  38.95300 7.09300 30.76600
C  37.77100 6.48500 30.21000
C  37.84200 6.61300 28.74000
C  39.23900 7.05700 28.51300
C  36.55200 5.85100 31.07200
C  36.71200 6.42400 27.73000
O  36.98900 6.41100 26.46400
C  35.31500 6.27500 28.23100
N  42.06500 8.04400 27.75300
C  41.12900 7.57200 26.92300
C  41.51800 7.64400 25.48400
C  42.95600 8.35000 25.55100
C  43.11600 8.60800 27.07100
C  41.59900 6.20500 24.78900
C  42.98700 9.65700 24.73400
C  42.19400 10.92500 25.16000
N  43.53500 9.16800 29.99000
C  44.45500 9.50400 29.03000
C  45.63500 10.01300 29.65300
C  45.30000 10.11000 30.99800
C  44.02500 9.54600 31.12900
C  46.88700 10.34800 29.04200
C  45.78500 10.49500 32.30900
O  46.85900 11.00600 32.62300
C  44.59400 10.21400 33.31200
C  45.15200 9.41100 34.40700
O  45.79500 8.35300 34.26300
O  45.06100 10.05400 35.61200
C  45.67800 9.42000 36.75400
H  38.47900 7.14300 32.87800
H  39.34600 7.01800 26.32400
H  45.13500 9.44800 27.05900
H  42.58500 8.35300 35.02100
H  39.68700 8.61600 34.59200
H  40.72000 5.80100 34.32100
H  39.78700 6.51900 35.68600
H  41.46800 6.54600 35.66100
H  41.37900 10.92500 33.97500
H  42.48800 10.67700 35.35600
H  40.47700 9.49100 36.47400
H  39.76000 11.00200 35.80400
H  36.78900 5.94000 32.13200
H  36.30400 4.82000 30.81900
H  35.65500 6.42500 30.84100
H  34.67800 6.13900 27.35700
H  34.91700 7.06600 28.86700
H  35.41400 5.35200 28.80200
H  40.88500 8.31900 24.90800
H  43.76800 7.72300 25.18300
H  41.47100 5.33900 25.43900
H  42.47300 6.05400 24.15600
H  40.81100 6.21900 24.03600
H  42.55000 9.53200 23.74300
H  44.01400 9.89100 24.45400
H  41.40400 11.17700 24.45300
H  42.88200 11.76900 25.14900
H  41.74100 10.80500 26.14500
H  46.75800 10.97200 28.15800
H  47.44000 9.48800 28.66300
H  47.44500 10.88800 29.80700
H  44.25400 11.16100 33.73000
H  46.41900 10.09900 37.17700
H  46.31700 8.56900 36.51900
H  44.91400 9.12200 37.47100
Mg 48.95600 34.89000 26.98500
C  47.14100 33.43500 29.63000
C  49.06900 37.84800 28.99700
C  50.72800 36.30000 24.67100
C  48.01100 32.20100 24.87700
N  48.20800 35.52200 29.13900
C  47.66400 34.68000 30.03700
C  47.55000 35.34200 31.41200
C  47.74700 36.89800 31.10300
C  48.37900 36.78700 29.67600
C  46.40300 37.77200 31.14900
C  48.49300 34.67900 32.41600
C  47.97500 34.26400 33.86500
H  47.01700 35.24500 34.57000
N  49.89800 36.74100 26.94100
C  49.80300 37.86000 27.78400
C  50.52000 38.99900 27.21800
C  51.04800 38.45900 25.98600
C  50.64200 37.05200 25.78900
C  50.50500 40.35600 27.75600
C  51.94200 39.18200 24.86900
O  52.53400 38.62800 23.97300
C  52.32100 40.68800 25.01000
N  49.23000 34.40500 25.10700
C  50.09700 35.09200 24.30900
C  50.54700 34.36700 23.03200
C  49.73000 33.06600 23.11900
C  48.90700 33.21300 24.42600
C  50.29900 35.19000 21.69800
C  50.56800 31.73800 23.20100
C  49.97600 30.57600 22.38900
N  47.72800 33.17300 27.15200
C  47.36300 32.21200 26.20200
C  46.51600 31.21400 26.86100
C  46.47200 31.65000 28.23000
C  47.09300 32.92400 28.32400
C  45.88900 30.03700 26.25300
C  45.88200 31.31000 29.49000
O  45.25400 30.38500 29.91800
C  46.20300 32.48700 30.46400
C  46.72200 31.82600 31.71400
O  47.86800 31.44500 31.87400
O  45.64400 31.62100 32.57800
C  45.99800 30.82500 33.71300
H  49.00100 38.71800 29.65400
H  51.30300 36.72500 23.84600
H  47.64000 31.36800 24.27500
H  46.54800 35.31700 31.84000
H  48.46500 37.35200 31.78500
H  45.95700 37.81400 30.15500
H  46.69800 38.74300 31.54600
H  45.72600 37.30800 31.86600
H  49.24200 35.46000 32.54900
H  48.92300 33.82700 31.88900
H  48.86700 34.25400 34.49200
H  47.58100 33.24800 33.88600
H  49.86700 41.05500 27.21400
H  51.48600 40.81900 27.65100
H  50.27400 40.38300 28.82100
H  52.71600 41.05100 24.06200
H  53.06500 40.68000 25.80700
H  51.49000 41.25500 25.42900
H  51.58100 34.05100 23.17000
H  48.97700 33.00500 22.33500
H  49.95600 34.58700 20.85700
H  51.22700 35.62900 21.33100
H  49.65600 36.03200 21.95400
H  50.59700 31.41400 24.24100
H  51.58900 31.98100 22.90500
H  48.98900 30.74800 21.96100
H  49.88500 29.70700 23.04000
H  50.57900 30.36100 21.50600
H  46.38600 29.73600 25.33000
H  44.86700 30.26900 25.95300
H  45.85300 29.19200 26.94000
H  45.25100 32.99500 30.62100
H  45.87100 29.77700 33.44500
H  45.29000 31.12600 34.48500
H  47.01800 30.87300 34.09300

