158

Mg 2.05900 8.70300 26.88800
C  2.64600 10.18300 29.91500
C  2.48800 5.59200 28.47000
C  1.77500 7.11800 23.79900
C  2.32300 11.74200 25.17800
N  2.36700 7.99400 29.02600
C  2.32100 8.84500 30.08400
C  2.19800 8.07200 31.42900
C  2.36500 6.59100 30.93700
C  2.42000 6.71200 29.41800
C  3.57500 5.86200 31.58300
C  0.87600 8.37300 32.16800
C  0.97200 8.45300 33.70800
H  2.20000 7.78200 34.41000
N  1.88200 6.69000 26.29300
C  2.10700 5.58700 27.05700
C  1.82500 4.42300 26.31200
C  1.45800 4.87000 25.00300
C  1.68300 6.31800 24.99900
C  1.93400 2.99500 26.88000
C  1.00400 4.10300 23.83000
O  0.50400 4.65300 22.84700
C  1.26600 2.61400 23.76200
N  2.05700 9.33100 24.80900
C  2.02300 8.51800 23.73900
C  2.18600 9.33000 22.43700
C  1.69400 10.67300 22.94700
C  1.95000 10.63900 24.41300
C  3.65100 9.27400 21.93000
C  0.24100 11.07900 22.69100
C  -0.10600 12.40300 21.90600
N  2.60000 10.56200 27.40500
C  2.66800 11.70500 26.59600
C  3.17900 12.75600 27.49300
C  3.09800 12.24100 28.78400
C  2.70000 10.88800 28.69000
C  3.45100 14.20800 27.11600
C  3.18800 12.54500 30.18700
O  3.44500 13.59400 30.75900
C  2.90600 11.24800 30.96200
C  3.93800 11.01500 32.01900
O  5.03600 10.46800 31.94700
O  3.43000 11.55300 33.22900
C  4.49300 11.78800 34.20000
H  2.50000 4.66200 29.04300
H  1.82900 6.65300 22.81200
H  2.55800 12.69800 24.70500
H  3.09700 8.39900 31.95200
H  1.49500 5.96700 31.14100
H  4.19200 6.53700 32.17700
H  4.24700 5.36100 30.88700
H  3.15400 5.01700 32.12700
H  0.22700 7.54600 31.88200
H  0.39500 9.26400 31.76700
H  0.02200 8.05200 34.06000
H  0.98100 9.50400 33.99800
H  2.82200 2.53800 26.44500
H  1.06800 2.35800 26.70100
H  2.08500 3.00800 27.96000
H  2.27000 2.30000 24.04800
H  1.11400 2.22100 22.75700
H  0.61400 2.02500 24.40800
H  1.55600 8.96400 21.62700
H  2.24500 11.47400 22.45500
H  4.38600 8.83000 22.60300
H  3.91100 10.33200 21.92900
H  3.65900 8.76000 20.96900
H  -0.24500 11.14000 23.66500
H  -0.26200 10.28100 22.14500
H  0.77200 12.51100 21.26900
H  -0.17700 13.29800 22.52500
H  -1.02700 12.37600 21.32400
H  3.77100 14.87800 27.91400
H  2.59700 14.66600 26.61700
H  4.34400 14.06200 26.50900
H  1.98000 11.29800 31.53400
H  5.40000 12.14700 33.71300
H  4.75400 10.88500 34.75200
H  4.14100 12.47200 34.97200
Mg 17.23900 -1.34100 28.40200
C  16.16600 0.64400 30.97900
C  19.46500 -2.96400 30.65300
C  18.89400 -2.79700 25.84300
C  15.68200 0.76600 26.16600
N  17.79900 -1.18500 30.53700
C  17.08000 -0.32900 31.43300
C  17.53800 -0.67100 32.92500
C  18.74300 -1.70100 32.75700
C  18.71500 -1.93700 31.18500
C  20.11200 -1.23000 33.26600
C  16.30000 -1.15700 33.81400
C  16.30200 -0.83600 35.33500
H  17.63800 -0.79400 36.06300
N  18.78600 -2.87700 28.32300
C  19.53400 -3.45600 29.31500
C  20.37000 -4.54000 28.81000
C  20.18100 -4.55200 27.35400
C  19.29500 -3.37400 27.12500
C  21.29700 -5.30800 29.75900
C  20.74000 -5.54400 26.30600
O  20.42400 -5.41800 25.12300
C  21.64500 -6.68500 26.69800
N  17.29500 -0.99100 26.32300
C  18.04500 -1.78400 25.49700
C  17.76700 -1.39200 23.95400
C  16.63500 -0.28800 24.02400
C  16.48900 -0.20800 25.57800
C  19.07700 -0.89900 23.21100
C  15.35600 -0.66000 23.25800
C  14.09500 -1.22200 23.98700
N  16.10700 0.41600 28.49600
C  15.49100 1.13500 27.53300
C  14.73500 2.20000 28.15400
C  15.02800 2.07100 29.52300
C  15.90500 0.93400 29.63800
C  13.82400 3.24700 27.48400
C  14.67100 2.67400 30.77100
O  13.91500 3.55500 31.14500
C  15.33700 1.69300 31.78000
C  16.26000 2.55900 32.66700
O  17.20100 3.16700 32.29800
O  15.92100 2.52400 33.98900
C  16.83500 3.24100 34.92300
H  20.02900 -3.43800 31.46000
H  19.35400 -3.29100 24.98400
H  15.05600 1.42800 25.56400
H  17.85600 0.26300 33.38700
H  18.47200 -2.62400 33.26900
H  20.43600 -1.83600 34.11300
H  19.98800 -0.20000 33.60000
H  20.83400 -1.18800 32.45000
H  16.44000 -2.23800 33.81600
H  15.41100 -0.84400 33.26600
H  15.67300 -1.65800 35.67700
H  15.70000 0.07200 35.38200
H  22.33700 -5.26800 29.43400
H  20.94000 -6.33100 29.87400
H  21.29600 -4.80000 30.72300
H  22.02500 -6.68000 27.72000
H  22.51000 -6.70200 26.03400
H  20.94000 -7.50800 26.58900
H  17.39700 -2.29300 23.46500
H  16.97900 0.70000 23.72000
H  18.94300 0.08300 22.75700
H  19.35000 -1.67200 22.49200
H  19.85800 -0.76200 23.95900
H  15.58000 -1.31900 22.42000
H  15.13300 0.28300 22.76100
H  13.26700 -0.51400 24.02100
H  14.38100 -1.52600 24.99400
H  13.79700 -2.04700 23.34000
H  12.92600 3.17700 28.09800
H  13.57700 3.06100 26.43900
H  14.39900 4.16800 27.57900
H  14.57400 1.20700 32.38700
H  16.22300 3.83500 35.60200
H  17.50900 3.90600 34.38300
H  17.45100 2.59400 35.54800

