158

Mg -2.07500 17.44900 27.19400
C  -2.68700 15.15600 29.88900
C  -2.68700 20.03800 29.33200
C  -2.08700 19.41500 24.56600
C  -1.91600 14.57700 25.09300
N  -2.61300 17.58700 29.42000
C  -2.77900 16.50600 30.32100
C  -2.95100 17.07900 31.82000
C  -2.96000 18.65900 31.50300
C  -2.75700 18.83100 29.98400
C  -4.19600 19.39800 32.01600
C  -1.77700 16.60100 32.74700
C  -1.35500 17.55900 33.87000
H  -0.98400 16.73600 35.13300
N  -2.27700 19.46600 26.97200
C  -2.41000 20.37700 27.98800
C  -2.44100 21.73400 27.40700
C  -2.29800 21.62100 25.95300
C  -2.29600 20.10500 25.79200
C  -2.59800 22.99700 28.28900
C  -2.23400 22.55900 24.98500
O  -2.17100 22.25300 23.83100
C  -2.16000 23.93200 25.33400
N  -2.20400 17.00800 25.18800
C  -2.06600 18.04100 24.31700
C  -1.92100 17.49000 22.88300
C  -1.68700 15.98900 23.08400
C  -1.94800 15.81400 24.52600
C  -3.14500 17.81100 21.96700
C  -0.20800 15.57800 22.64000
C  1.02200 16.18300 23.31800
N  -2.13900 15.40000 27.41400
C  -1.99000 14.38200 26.43600
C  -2.02500 13.10500 27.06400
C  -2.45300 13.40000 28.38800
C  -2.34100 14.74500 28.53500
C  -1.97100 11.80600 26.47500
C  -2.74600 12.78000 29.67800
O  -2.92300 11.60100 29.99500
C  -2.74000 13.88300 30.69100
C  -1.50500 13.68900 31.39900
O  -0.36200 13.95200 31.03100
O  -1.78700 13.13500 32.62700
C  -0.64200 12.87100 33.54600
H  -2.91600 20.89100 29.97500
H  -1.80600 19.99500 23.68400
H  -1.80900 13.74800 24.39000
H  -3.82500 16.68300 32.33700
H  -2.10600 19.11400 32.00600
H  -3.95500 19.91900 32.94300
H  -4.80400 18.61500 32.46800
H  -4.70900 20.07500 31.33300
H  -0.86100 16.45000 32.17600
H  -2.07200 15.66700 33.22600
H  -2.12600 18.20900 34.28400
H  -0.48900 18.17700 33.63100
H  -1.69100 23.58500 28.15300
H  -2.72600 22.73400 29.33900
H  -3.41400 23.66200 28.00700
H  -1.19200 24.27200 25.70100
H  -2.99700 24.21100 25.97500
H  -2.18300 24.43800 24.36900
H  -1.12900 17.97900 22.31600
H  -2.40400 15.38200 22.53000
H  -2.93200 17.78200 20.89800
H  -3.42300 18.85500 22.11000
H  -4.08300 17.28800 22.15400
H  -0.08400 15.79300 21.57800
H  -0.06300 14.50200 22.73900
H  1.50300 16.78100 22.54500
H  1.69700 15.51600 23.85500
H  0.68700 16.97800 23.98400
H  -1.10200 11.85600 25.81900
H  -2.89800 11.49900 25.99100
H  -1.62100 11.03800 27.16400
H  -3.62000 13.86200 31.33400
H  -0.95800 13.27300 34.50800
H  0.32600 13.33800 33.36000
H  -0.54600 11.79300 33.67800
Mg 48.47600 15.64700 29.34700
C  46.32800 15.29300 32.13700
C  50.61100 17.37600 31.33300
C  50.33500 15.99900 26.63700
C  45.77700 14.38200 27.29700
N  48.53300 16.12800 31.43100
C  47.60500 15.83900 32.43100
C  48.04400 16.19300 33.84600
C  49.29700 17.10800 33.58600
C  49.49500 16.94700 32.04500
C  49.15700 18.59700 33.95500
C  48.34900 14.89800 34.52800
C  48.04700 14.93100 36.05700
H  47.85200 16.22500 36.83000
N  50.28100 16.45500 29.04300
C  51.06400 17.10500 30.03700
C  52.27200 17.46600 29.44500
C  52.30200 16.98400 28.08200
C  50.92300 16.43600 27.85200
C  53.44300 18.08100 30.19500
C  53.44400 17.00100 27.01200
O  53.26400 16.55700 25.85900
C  54.79100 17.48800 27.45200
N  48.11600 15.19700 27.28100
C  49.10900 15.37100 26.41400
C  48.59600 14.87400 25.00000
C  47.25900 14.16100 25.29000
C  47.00300 14.60900 26.71200
C  48.48100 16.10400 24.06000
C  47.22500 12.62500 25.12400
C  46.41600 12.12200 23.95900
N  46.46700 15.04100 29.59600
C  45.48000 14.66600 28.67900
C  44.24000 14.30500 29.35000
C  44.59200 14.48800 30.71800
C  45.93700 14.97200 30.78800
C  43.01500 13.70000 28.73100
C  44.04800 14.50400 32.03200
O  42.93100 14.26600 32.44900
C  45.19600 14.92000 33.03200
C  44.60900 16.11300 33.76500
O  44.51500 17.24400 33.22600
O  44.13300 15.87000 35.03200
C  43.57200 16.95500 35.78900
H  51.23900 18.01800 31.95400
H  50.95800 16.16900 25.75700
H  44.91000 14.08000 26.70600
H  47.23100 16.78900 34.26200
H  50.08400 16.57900 34.12300
H  48.16200 18.79800 34.35300
H  49.32100 19.25800 33.10400
H  49.87800 18.84900 34.73300
H  49.35200 14.52600 34.31800
H  47.65900 14.12100 34.19900
H  48.89700 14.40800 36.49600
H  47.19600 14.28500 36.27200
H  53.78000 18.97200 29.66300
H  54.24400 17.35300 30.07000
H  53.37300 18.27100 31.26600
H  55.23700 16.76700 28.13800
H  54.76700 18.54500 27.71600
H  55.38300 17.45000 26.53700
H  49.21800 14.08200 24.58400
H  46.51600 14.48900 24.56300
H  49.09400 16.93600 24.40800
H  47.49300 16.55500 23.97100
H  48.81600 15.80000 23.06800
H  46.84300 12.22700 26.06400
H  48.24800 12.25800 25.04000
H  46.92900 11.41400 23.30900
H  45.95800 12.92900 23.38700
H  45.52700 11.61000 24.32800
H  42.34900 14.52800 28.97300
H  42.67400 12.77100 29.18900
H  43.05500 13.65900 27.64300
H  45.44900 14.23900 33.84400
H  42.52800 16.95500 35.47400
H  43.97500 17.91700 35.47200
H  43.71700 16.71200 36.84100

