158

Mg 53.34800 22.79600 43.84900
C  50.48700 24.52300 42.70900
C  51.79700 19.84200 43.42000
C  56.37700 21.32600 43.93100
C  54.85700 25.93300 44.36200
N  51.49400 22.19900 42.67600
C  50.45000 23.11500 42.51700
C  49.19200 22.24800 42.23700
C  49.51000 20.86500 42.84900
C  50.99700 20.90900 42.98800
C  48.67800 20.64000 44.20700
C  48.96900 22.12600 40.70800
C  47.80600 21.22200 40.24000
H  48.01000 20.17300 39.18900
N  53.99200 20.80800 43.67700
C  53.20700 19.75500 43.60400
C  53.99800 18.56200 43.54200
C  55.36200 18.89900 43.70500
C  55.27900 20.39800 43.76800
C  53.46200 17.12800 43.37300
C  56.55600 17.95900 43.62600
O  56.35800 16.73600 43.53700
C  58.00600 18.38700 43.66000
N  55.36000 23.53500 43.88800
C  56.42900 22.70700 44.07800
C  57.71800 23.52300 44.33400
C  57.24000 25.02400 44.46100
C  55.72500 24.84400 44.21000
C  58.68200 23.01200 45.43000
C  57.96400 25.95500 43.36900
C  57.21100 26.43200 42.12400
N  52.80100 24.78400 43.75500
C  53.46700 25.87900 44.05200
C  52.56700 26.98800 44.06500
C  51.41600 26.50300 43.50500
C  51.58400 25.14300 43.27000
C  52.70900 28.41500 44.62300
C  50.08100 26.85700 43.03800
O  49.40500 27.86100 43.16800
C  49.45400 25.52800 42.39700
C  49.40700 25.78800 40.95000
O  50.40200 26.02600 40.20000
O  48.14600 25.53100 40.46900
C  47.95100 25.78800 38.99900
H  51.20300 18.92700 43.39200
H  57.35400 20.85300 44.05100
H  55.28500 26.91100 44.58900
H  48.28600 22.68600 42.65400
H  49.27100 20.07300 42.13900
H  48.06100 19.76200 44.01600
H  48.09800 21.51300 44.50700
H  49.35800 20.37400 45.01600
H  49.87100 21.60700 40.38200
H  48.85200 23.11100 40.25800
H  47.07000 21.91000 39.82400
H  47.43900 20.68000 41.11200
H  53.89600 16.54700 42.56000
H  52.38700 17.25400 43.25000
H  53.63200 16.57300 44.29600
H  58.59500 17.53500 43.32000
H  58.13100 18.59100 44.72300
H  58.27300 19.29700 43.12300
H  58.30200 23.35600 43.42900
H  57.40800 25.39900 45.47100
H  58.12400 22.52900 46.23200
H  59.41000 23.75600 45.75400
H  59.31600 22.28300 44.92500
H  58.89400 25.50300 43.02400
H  58.43300 26.73600 43.96800
H  56.41600 25.74400 41.83500
H  57.89100 26.63200 41.29600
H  56.76700 27.38700 42.40600
H  52.21500 29.20600 44.06000
H  53.78400 28.59600 44.63700
H  52.29600 28.53600 45.62400
H  48.43300 25.35200 42.73500
H  48.54400 26.61500 38.60800
H  46.91200 25.96200 38.71900
H  48.19100 24.85400 38.49200
Mg 25.75400 51.13900 26.51300
C  23.39600 52.44000 28.92800
C  27.94700 50.52200 29.03700
C  28.07600 51.09200 24.23600
C  23.34000 52.37400 24.15000
N  25.66300 51.47000 28.62100
C  24.64600 51.98900 29.48600
C  25.04100 51.93700 30.95200
C  26.60200 51.56200 30.90500
C  26.77600 51.25000 29.44600
C  27.56400 52.55700 31.56500
C  24.09400 51.10700 31.91700
C  24.54200 50.42500 33.25300
H  25.00100 51.42000 34.37800
N  27.77500 50.75200 26.64100
C  28.48500 50.44400 27.73700
C  29.85300 50.16900 27.35600
C  29.87300 50.32100 25.92000
C  28.52400 50.71100 25.53300
C  30.83900 49.76800 28.40000
C  31.00300 50.04400 24.94200
O  30.83600 49.90900 23.74000
C  32.37600 49.82400 25.58000
N  25.76600 51.85500 24.60700
C  26.89100 51.65200 23.82900
C  26.60300 52.07300 22.40200
C  25.09400 52.11500 22.27200
C  24.63800 52.08400 23.74900
C  27.35300 53.27200 21.95700
C  24.38400 51.00900 21.45400
C  22.85900 51.25300 21.09900
N  23.60000 51.99300 26.43100
C  22.82700 52.42000 25.41300
C  21.61700 53.00700 25.90700
C  21.79200 53.01500 27.30100
C  23.00600 52.41700 27.56000
C  20.57400 53.68600 25.00300
C  21.25300 53.48900 28.63200
O  20.28900 54.18700 28.89600
C  22.27000 52.96400 29.70400
C  22.70200 54.25100 30.45500
O  23.05500 55.31600 29.93700
O  22.67900 54.06500 31.82400
C  22.65500 55.29800 32.61700
H  28.56000 50.06700 29.81700
H  28.89000 51.17800 23.51300
H  22.63600 52.86300 23.47400
H  24.91100 52.95900 31.30700
H  26.67400 50.60400 31.42000
H  28.22200 53.05800 30.85500
H  28.17000 51.99800 32.27800
H  26.98800 53.32000 32.08800
H  23.49100 50.43800 31.30300
H  23.38600 51.83600 32.31200
H  25.36300 49.74400 33.02900
H  23.75000 49.81800 33.69200
H  30.63200 49.96300 29.45200
H  31.77700 50.28000 28.18500
H  30.95500 48.73000 28.08600
H  33.07100 49.42300 24.84200
H  32.39600 49.08000 26.37600
H  32.71700 50.78900 25.95500
H  26.87200 51.26800 21.71800
H  24.74800 53.02100 21.77600
H  27.62700 53.13000 20.91200
H  28.18600 53.51600 22.61700
H  26.69500 54.13400 22.06600
H  24.45000 50.09400 22.04300
H  24.98000 50.94700 20.54400
H  22.65700 52.27400 21.42300
H  22.20000 50.52600 21.57300
H  22.66900 51.26200 20.02500
H  20.56300 53.50000 23.92900
H  20.86800 54.73000 25.10600
H  19.61800 53.40800 25.44700
H  21.93900 52.22500 30.43400
H  23.23900 55.18700 33.53100
H  21.58200 55.37400 32.79300
H  22.92800 56.28400 32.24000

