158

Mg 16.57900 -0.75500 27.83000
C  15.77400 1.30900 30.51000
C  18.68800 -2.55700 29.94200
C  17.99500 -2.34200 24.99200
C  15.28700 1.65000 25.61300
N  17.00600 -0.73700 29.98900
C  16.51900 0.15200 30.87100
C  16.89600 -0.17900 32.36200
C  17.81700 -1.47800 32.12400
C  17.98200 -1.53400 30.56100
C  19.24400 -1.39900 32.79100
C  15.72900 -0.49100 33.36900
C  15.67700 0.19700 34.71600
H  17.00600 0.55200 35.50500
N  18.06600 -2.31200 27.52000
C  18.70400 -2.98600 28.56000
C  19.59400 -3.93000 27.90700
C  19.34100 -3.95500 26.49200
C  18.38600 -2.85400 26.23500
C  20.51800 -4.80600 28.66300
C  19.95900 -4.83300 25.42800
O  19.73800 -4.72300 24.21700
C  21.00500 -5.83100 25.76600
N  16.68600 -0.37100 25.58700
C  17.29000 -1.19700 24.69200
C  17.16200 -0.56700 23.22700
C  16.13900 0.55700 23.55600
C  16.00300 0.62100 25.03100
C  18.50700 0.06500 22.68200
C  14.69500 0.35900 22.87500
C  14.19700 1.59500 21.97300
N  15.63000 1.06700 27.98600
C  15.18600 1.92300 27.01200
C  14.35200 2.89200 27.68600
C  14.63600 2.74500 29.06600
C  15.41500 1.59000 29.14700
C  13.58100 3.98000 27.08800
C  14.40300 3.37500 30.35900
O  13.73400 4.37200 30.64300
C  15.17400 2.40000 31.40200
C  16.09100 3.12600 32.26800
O  17.23000 3.39800 32.01100
O  15.58400 3.55200 33.49700
C  16.48300 4.41900 34.28600
H  19.18000 -3.32200 30.54600
H  18.33700 -2.76400 24.04500
H  14.70300 2.41100 25.09000
H  17.62300 0.57200 32.67000
H  17.31600 -2.35000 32.54400
H  20.06400 -1.28700 32.08200
H  19.29700 -2.28300 33.42500
H  19.31200 -0.50800 33.41500
H  15.72800 -1.55100 33.62200
H  14.74700 -0.36800 32.91100
H  14.99300 -0.35400 35.36200
H  15.12900 1.12400 34.55000
H  21.49400 -4.95400 28.20000
H  20.06100 -5.78800 28.78400
H  20.60800 -4.34700 29.64700
H  20.47200 -6.63200 26.27900
H  21.75700 -5.24000 26.28700
H  21.41700 -6.29000 24.86700
H  16.71400 -1.30800 22.56500
H  16.64500 1.45800 23.21100
H  19.21500 0.08500 23.51000
H  18.51300 1.07300 22.26800
H  18.93500 -0.64400 21.97300
H  13.91200 0.23100 23.62300
H  14.63100 -0.52600 22.24200
H  13.31200 2.06100 22.40700
H  13.87000 1.40100 20.95200
H  14.99000 2.33800 21.89700
H  14.21800 4.49400 26.36900
H  13.39600 4.74200 27.84600
H  12.73400 3.49900 26.59900
H  14.30300 2.04700 31.95400
H  16.47600 5.31500 33.66600
H  17.44300 3.94400 34.48600
H  15.99600 4.62800 35.23900
Mg 6.33000 54.13900 41.31600
C  5.93800 50.55200 41.00300
C  9.39700 54.03100 39.97300
C  6.28400 57.47800 41.27400
C  2.94000 54.13100 42.44700
N  7.41200 52.44100 40.55100
C  7.14400 51.07600 40.48400
C  8.38700 50.30500 39.93100
C  9.54000 51.40000 39.90400
C  8.74500 52.72000 40.17400
C  10.71200 51.25200 40.92600
C  8.21600 49.58800 38.54400
C  7.50000 50.34100 37.37600
H  6.81800 49.53300 36.19100
N  7.71400 55.62600 40.72600
C  8.94500 55.38300 40.18500
C  9.59700 56.58600 39.98900
C  8.70200 57.60400 40.31700
C  7.48900 56.91100 40.80500
C  11.00700 56.60100 39.44200
C  8.93500 59.12500 40.17600
O  9.98700 59.60800 39.70500
C  7.86800 60.22300 40.37500
N  4.71500 55.59200 41.66300
C  5.04200 56.90400 41.69500
C  3.81200 57.78600 41.94100
C  2.67900 56.64800 42.12500
C  3.49000 55.39600 42.09900
C  3.97500 58.77500 43.16400
C  1.59500 56.79900 41.00300
C  0.38000 57.59500 41.43500
N  4.71300 52.66800 41.60000
C  3.50600 52.82300 42.19500
C  2.95300 51.50900 42.59900
C  3.85600 50.54900 42.01200
C  4.90200 51.37400 41.43300
C  1.68900 51.26800 43.40400
C  4.17100 49.14500 41.89800
O  3.52000 48.22600 42.42100
C  5.55400 49.09700 41.21100
C  5.43300 48.17100 40.00600
O  4.88800 48.47500 38.89900
O  5.90200 46.89800 40.26700
C  5.50400 45.97000 39.21100
H  10.42600 54.01700 39.60900
H  6.29200 58.55300 41.46500
H  1.89700 54.06500 42.76300
H  8.66000 49.56800 40.68700
H  9.98500 51.40900 38.90900
H  11.70500 51.26600 40.47600
H  10.60400 50.24500 41.32800
H  10.63000 52.11200 41.59100
H  7.88000 48.56900 38.73700
H  9.20400 49.40000 38.12500
H  8.19800 51.04600 36.92500
H  6.73500 50.94000 37.87000
H  11.67300 56.08800 40.13600
H  11.28500 57.65000 39.34000
H  11.12500 56.20500 38.43400
H  8.21400 61.17000 39.96300
H  7.54000 60.27700 41.41300
H  7.03300 59.98400 39.71500
H  3.52700 58.36300 41.06100
H  2.24200 56.88000 43.09600
H  3.73900 59.82900 43.01200
H  5.03900 58.81400 43.39700
H  3.50800 58.56900 44.12700
H  1.28400 55.80900 40.66800
H  2.01600 57.33800 40.15400
H  0.15300 58.31400 40.64800
H  0.58800 58.18800 42.32500
H  -0.50000 56.97400 41.60400
H  1.71900 51.87100 44.31100
H  1.77700 50.26500 43.82300
H  0.78000 51.41200 42.82100
H  6.34100 48.60600 41.78400
H  4.41900 45.98900 39.10900
H  5.68400 44.93400 39.49900
H  5.97500 46.08000 38.23400

