158

Mg 47.58200 14.93400 28.44700
C  45.60400 14.84700 31.13000
C  49.86800 16.88800 30.09300
C  49.51800 14.99300 25.61600
C  44.93000 13.66200 26.46300
N  47.69100 15.76800 30.34700
C  46.82300 15.45600 31.37400
C  47.22500 16.13100 32.67900
C  48.45700 16.99400 32.24600
C  48.73400 16.53500 30.84100
C  48.37000 18.53600 32.42400
C  47.45500 15.01300 33.77000
C  47.03900 15.51300 35.14200
H  47.19500 16.92800 35.62200
N  49.39300 15.69400 27.97400
C  50.22100 16.47500 28.84700
C  51.51100 16.69600 28.20900
C  51.48200 16.06200 26.99800
C  50.09100 15.54700 26.81100
C  52.69300 17.34200 28.86500
C  52.63000 15.83600 26.02700
O  52.48000 15.19900 25.02300
C  53.95100 16.50300 26.15200
N  47.25100 14.47000 26.36000
C  48.24700 14.43600 25.42100
C  47.75800 14.04800 24.03900
C  46.38200 13.45200 24.35900
C  46.14500 13.82400 25.85800
C  47.78100 15.22700 23.10700
C  46.40400 11.89700 24.04600
C  46.78800 10.98100 25.20800
N  45.58100 14.49800 28.65600
C  44.64800 13.91700 27.84400
C  43.47400 13.64600 28.50000
C  43.72400 13.96100 29.83400
C  45.05400 14.48800 29.89800
C  42.26500 12.88200 27.92800
C  43.20400 13.89400 31.15200
O  42.13100 13.56000 31.62300
C  44.40400 14.49400 32.03200
C  43.80100 15.66800 32.71500
O  43.63100 16.81200 32.33600
O  43.42800 15.19400 33.93800
C  42.63200 16.11900 34.75300
H  50.56800 17.56100 30.59200
H  50.09900 15.10300 24.69700
H  44.19100 13.19600 25.80600
H  46.36600 16.77700 32.85700
H  49.23500 16.70800 32.95300
H  49.32000 18.95000 32.76400
H  47.61000 18.98400 33.06400
H  48.22200 19.09300 31.49900
H  48.51800 14.77700 33.81000
H  46.80300 14.14700 33.65600
H  47.55600 14.88300 35.86600
H  45.96400 15.33700 35.12900
H  52.78700 18.29400 28.34200
H  53.55700 16.67800 28.85100
H  52.48400 17.62300 29.89700
H  53.95000 17.58800 26.26000
H  54.55200 16.20900 25.29200
H  54.48900 15.99100 26.95000
H  48.36500 13.25700 23.59800
H  45.58800 13.97500 23.82600
H  47.35800 16.12600 23.55400
H  47.20200 14.93500 22.23100
H  48.82500 15.43900 22.87700
H  47.13400 11.59400 23.29500
H  45.40000 11.57600 23.76800
H  46.71200 11.41500 26.20500
H  47.81100 10.62800 25.07800
H  46.11000 10.12700 25.21000
H  41.78200 13.47100 27.14900
H  41.62100 12.76400 28.80000
H  42.48900 11.89300 27.52700
H  44.62000 13.70700 32.75500
H  41.89500 16.61100 34.11800
H  43.30500 16.74800 35.33500
H  42.07600 15.50200 35.45900
Mg 16.15300 52.44100 26.05100
C  18.13200 51.03000 28.71100
C  13.77300 53.18700 28.30200
C  14.16200 53.32300 23.47100
C  18.34400 50.68600 23.87100
N  15.98100 52.09200 28.28800
C  16.93600 51.66400 29.13600
C  16.45900 51.84900 30.56400
C  15.01200 52.43600 30.48900
C  14.85700 52.54400 28.94600
C  13.86000 51.59000 31.19500
C  17.37800 52.88100 31.39800
C  17.29300 52.76900 32.92100
H  16.21300 51.98800 33.62400
N  14.34600 53.35400 25.89500
C  13.49100 53.64800 26.95600
C  12.44800 54.52100 26.49200
C  12.48200 54.46700 25.03500
C  13.66700 53.69100 24.73200
C  11.31900 55.06600 27.39000
C  11.53500 55.11700 24.08400
O  11.63700 54.95100 22.88100
C  10.42900 56.02800 24.55400
N  16.22600 51.99900 23.99300
C  15.33100 52.52800 23.15400
C  15.67800 52.02900 21.66800
C  17.19400 51.66800 21.78200
C  17.29500 51.40200 23.31200
C  14.67600 50.84300 21.36100
C  18.13900 52.78200 21.27500
C  19.53200 52.37000 20.64900
N  17.94600 51.15600 26.17000
C  18.71900 50.58200 25.20300
C  19.82400 49.90800 25.79100
C  19.70900 50.13200 27.15400
C  18.47800 50.84500 27.39000
C  20.91800 49.24600 24.99500
C  20.39400 49.97600 28.51000
O  21.54200 49.53900 28.73700
C  19.37500 50.58200 29.57300
C  18.90400 49.50700 30.50900
O  18.26400 48.54600 30.13800
O  19.25700 49.78800 31.83200
C  18.85000 48.82700 32.88100
H  12.99300 53.47200 29.01100
H  13.58100 53.55500 22.57500
H  18.90000 50.13200 23.11200
H  16.40700 50.88400 31.06900
H  15.10300 53.45500 30.86600
H  13.44900 51.92900 32.14600
H  14.26500 50.63000 31.51400
H  12.98500 51.46100 30.55800
H  17.09900 53.85700 31.00000
H  18.42400 52.77800 31.11000
H  17.18800 53.77900 33.31800
H  18.24300 52.30700 33.18700
H  11.35400 54.58200 28.36600
H  10.37600 54.83000 26.89800
H  11.28400 56.13600 27.59900
H  10.10600 56.60600 23.68900
H  10.68700 56.75400 25.32500
H  9.57900 55.44600 24.91100
H  15.56900 52.87600 20.99000
H  17.30000 50.69700 21.30000
H  13.99400 50.70700 22.20100
H  15.20200 49.90100 21.20700
H  14.17400 51.05500 20.41700
H  18.36900 53.57200 21.99000
H  17.51200 53.24100 20.51000
H  20.29600 52.96500 21.15100
H  19.55800 52.52000 19.57000
H  19.72100 51.32500 20.89200
H  21.72100 49.17700 25.72900
H  21.06500 49.71000 24.02000
H  20.57200 48.23800 24.76400
H  19.93200 51.35100 30.10900
H  18.32300 47.95500 32.49300
H  18.19500 49.34400 33.58200
H  19.71100 48.42500 33.41600

