158

Mg 26.88800 49.91300 26.23900
C  24.91200 51.10900 28.82900
C  28.99500 48.52600 28.56900
C  28.89500 48.85200 23.64900
C  24.83900 51.57700 23.93000
N  26.93800 49.96800 28.44800
C  25.95200 50.37600 29.31900
C  26.30200 50.03700 30.75100
C  27.76000 49.42000 30.63500
C  27.89400 49.22500 29.08800
C  28.93500 50.27400 31.24100
C  25.18000 49.23000 31.44100
C  24.35200 49.73200 32.59600
H  24.41300 48.94000 33.88000
N  28.68500 48.88800 26.15400
C  29.36300 48.32500 27.25400
C  30.59400 47.70300 26.76800
C  30.47400 47.71600 25.35400
C  29.30300 48.54100 24.97800
C  31.63100 47.22300 27.67700
C  31.50600 47.17200 24.33300
O  31.37900 47.25500 23.11100
C  32.66500 46.49100 24.82800
N  26.81500 50.13800 24.08000
C  27.75800 49.62400 23.26400
C  27.38800 49.89300 21.75300
C  26.07300 50.69700 21.90000
C  25.87400 50.84700 23.39200
C  28.54800 50.55400 20.97700
C  24.85300 49.96500 21.26600
C  23.75100 50.86100 20.68400
N  25.26600 51.18100 26.23700
C  24.56300 51.84400 25.28400
C  23.46800 52.52100 25.88800
C  23.53400 52.22200 27.24700
C  24.66600 51.47200 27.43600
C  22.47300 53.35300 25.06500
C  22.93900 52.50500 28.54400
O  21.89200 53.11200 28.88600
C  23.75300 51.76900 29.63800
C  24.06300 52.65200 30.78300
O  25.12500 53.26100 31.02100
O  22.94400 52.75900 31.60000
C  23.27500 53.35600 32.93300
H  29.76100 48.28600 29.31000
H  29.49300 48.61600 22.76700
H  24.20400 52.10300 23.21300
H  26.42500 51.00000 31.24800
H  27.68900 48.43900 31.10300
H  28.45800 51.21400 31.51900
H  29.65300 50.33000 30.42300
H  29.43400 49.90700 32.13700
H  25.58500 48.32100 31.88600
H  24.42600 48.91700 30.71900
H  23.30100 49.80700 32.31700
H  24.68000 50.74300 32.83600
H  32.62500 47.51500 27.33900
H  31.58000 46.13500 27.61700
H  31.53900 47.41400 28.74600
H  33.18700 46.07000 23.96900
H  32.32000 45.72500 25.52300
H  33.37200 47.19300 25.26900
H  27.18100 48.88700 21.38800
H  26.11300 51.71300 21.50800
H  29.28100 50.64500 21.77900
H  28.27100 51.50400 20.52100
H  28.82900 49.91400 20.14100
H  24.40300 49.43200 22.10400
H  25.19900 49.21700 20.55300
H  22.99200 51.09400 21.43000
H  23.18200 50.43700 19.85700
H  24.27500 51.74600 20.32100
H  21.43100 53.37900 25.38400
H  22.44800 53.00500 24.03200
H  22.79600 54.39200 24.99300
H  23.15200 51.04600 30.18900
H  23.51000 52.67500 33.75200
H  22.33300 53.78600 33.27300
H  23.85200 54.26400 33.10900
Mg 6.22700 53.65500 41.05200
C  5.48600 50.13600 40.83300
C  9.31200 52.86100 39.77100
C  6.67000 56.91300 40.60700
C  2.84200 54.26600 41.71100
N  7.22000 51.67600 40.18100
C  6.78600 50.39900 40.25900
C  7.94800 49.50500 39.90400
C  9.25400 50.37700 39.90800
C  8.56500 51.72700 39.77800
C  10.21600 50.20700 41.14200
C  7.69500 48.75900 38.47200
C  6.68000 49.25400 37.46600
H  7.08300 49.76900 36.07800
N  7.86000 54.75900 40.46900
C  9.05800 54.20500 40.07300
C  9.90000 55.35600 39.88900
C  9.20100 56.61000 40.14300
C  7.84200 56.18700 40.38300
C  11.40600 55.13400 39.56600
C  9.89600 57.95400 40.25100
O  11.13100 58.09900 40.09900
C  9.11900 59.16900 40.55500
N  4.95700 55.37600 41.06700
C  5.40000 56.57100 41.03600
C  4.39300 57.70500 41.37800
C  3.14300 56.78600 41.60500
C  3.69300 55.35100 41.52600
C  4.96700 58.69100 42.51200
C  1.85400 57.18300 40.77000
C  1.67000 56.50400 39.37200
N  4.51900 52.48900 41.32400
C  3.22200 52.88900 41.59300
C  2.44800 51.67700 41.91400
C  3.33800 50.60400 41.66000
C  4.52400 51.13300 41.20000
C  0.97800 51.58200 42.41300
C  3.44300 49.13000 41.76800
O  2.66300 48.32500 42.24100
C  4.82400 48.74600 41.14700
C  4.59300 47.97000 39.92200
O  3.93700 48.28700 38.95100
O  5.28100 46.83400 40.09100
C  5.06900 45.72200 39.17600
H  10.29000 52.71500 39.30600
H  6.75300 57.97200 40.35400
H  1.79800 54.43900 41.98300
H  8.10200 48.68400 40.60400
H  9.78600 50.27300 38.96200
H  10.26300 50.97300 41.91600
H  11.22800 50.07200 40.76200
H  9.99000 49.31600 41.72800
H  7.41100 47.73100 38.69700
H  8.65300 48.77900 37.95200
H  6.14000 50.03800 37.99700
H  6.02400 48.41300 37.24100
H  11.76400 55.48300 38.59800
H  11.75400 54.11900 39.76100
H  12.00200 55.71900 40.26600
H  9.84300 59.98300 40.60400
H  8.57300 59.12700 41.49700
H  8.52600 59.35200 39.65900
H  4.19700 58.35700 40.52700
H  2.89700 56.80000 42.66600
H  4.21500 58.80300 43.29300
H  5.12400 59.66900 42.05500
H  5.87700 58.30200 42.96800
H  1.73800 58.25800 40.63200
H  1.10200 57.01100 41.54000
H  2.55700 55.97600 39.02100
H  1.37900 57.17900 38.56700
H  0.80500 55.84600 39.44200
H  0.79200 52.40600 43.10100
H  0.74900 50.61400 42.86000
H  0.37500 51.81100 41.53500
H  5.34200 48.12200 41.87600
H  5.58100 46.02100 38.26100
H  4.00200 45.54000 39.04400
H  5.66700 44.89500 39.55700

