158

Mg 24.59900 -4.83400 46.64700
C  26.29400 -2.06300 45.32000
C  21.84500 -3.98200 44.65500
C  23.29800 -7.90700 47.15600
C  27.61300 -5.99700 48.01800
N  24.22400 -3.22000 45.16400
C  25.02500 -2.16900 44.80400
C  24.32600 -1.26100 43.81000
C  22.79900 -1.58400 44.05500
C  22.94400 -3.05000 44.61700
C  21.95300 -0.67500 45.03000
C  24.81700 -1.58700 42.37300
C  25.36500 -0.52100 41.45300
H  24.85500 -0.60700 39.99400
N  22.76600 -5.74900 46.06700
C  21.75700 -5.18300 45.35300
C  20.71100 -6.10800 45.37200
C  21.11600 -7.28200 46.09800
C  22.44800 -7.04600 46.44600
C  19.39100 -5.82400 44.69800
C  20.18900 -8.51700 46.29400
O  19.08700 -8.61400 45.70000
C  20.55800 -9.78300 47.08800
N  25.30100 -6.75200 47.37400
C  24.59000 -7.86600 47.56600
C  25.25700 -8.81400 48.60100
C  26.73600 -8.33400 48.62000
C  26.59600 -6.95300 47.90500
C  24.62000 -8.95600 50.03300
C  27.72700 -9.26000 47.94800
C  28.70600 -10.00800 48.78900
N  26.60100 -4.15800 46.70800
C  27.67400 -4.70700 47.37600
C  28.79500 -3.69200 47.38200
C  28.34600 -2.65600 46.53500
C  27.01400 -2.98200 46.12800
C  30.08300 -3.77100 48.16300
C  28.68700 -1.33800 45.94600
O  29.72000 -0.67500 46.06100
C  27.37600 -0.90100 45.06400
C  26.86000 0.49900 45.42200
O  27.15300 1.55400 44.87200
O  25.94600 0.32200 46.45400
C  25.30200 1.53600 46.90600
H  21.02200 -3.51300 44.11200
H  22.84400 -8.79400 47.60300
H  28.48800 -6.21500 48.63500
H  24.55400 -0.23900 44.11100
H  22.32800 -1.60800 43.07200
H  21.00200 -0.38900 44.58000
H  22.40100 0.27100 45.33100
H  21.69600 -1.15800 45.97300
H  24.08900 -2.18100 41.82000
H  25.66600 -2.25800 42.50700
H  26.44300 -0.68000 41.47800
H  25.07700 0.47200 41.79700
H  19.20100 -4.77200 44.91200
H  18.54800 -6.38000 45.10900
H  19.36400 -6.05200 43.63300
H  20.75500 -9.43700 48.10300
H  21.42900 -10.32000 46.71300
H  19.66000 -10.39700 47.15300
H  25.16300 -9.80300 48.15300
H  27.13800 -8.27600 49.63100
H  25.10700 -8.36100 50.80600
H  24.35500 -9.96500 50.35000
H  23.74200 -8.33700 49.85200
H  28.34900 -8.62600 47.31600
H  27.22200 -9.90600 47.23000
H  29.68100 -9.52400 48.74000
H  28.75300 -11.04400 48.45200
H  28.45400 -9.92500 49.84600
H  30.89100 -3.16200 47.75700
H  30.35500 -4.78700 48.45100
H  29.88700 -3.23300 49.09100
H  27.58800 -0.78500 44.00200
H  24.78600 2.00000 46.06600
H  25.88300 2.26700 47.47000
H  24.49300 1.30500 47.59800
Mg 48.70700 34.00500 26.57900
C  47.17300 32.69400 29.47200
C  49.13000 36.92500 28.29900
C  49.45500 35.52900 23.60300
C  47.62700 31.09600 24.80900
N  48.29400 34.62100 28.70700
C  47.73000 33.92900 29.71100
C  47.89200 34.71100 31.00500
C  47.97000 36.17700 30.46700
C  48.67400 35.89100 29.06100
C  46.55700 36.83500 30.41100
C  49.03400 34.24400 31.89000
C  48.88800 34.12800 33.47300
H  47.80300 34.91400 34.21000
N  49.34700 35.87000 26.05200
C  49.45100 36.93500 26.90000
C  50.08200 38.09900 26.16900
C  50.18300 37.67900 24.80300
C  49.59400 36.35300 24.71700
C  50.62200 39.31900 26.81000
C  50.76500 38.36200 23.52500
O  50.75600 37.83100 22.37300
C  51.48500 39.73200 23.69400
N  48.59100 33.40400 24.56200
C  48.96500 34.24600 23.52900
C  48.85700 33.48900 22.13000
C  48.29700 32.01800 22.56400
C  48.13300 32.22400 24.07600
C  48.06500 34.24200 20.97900
C  49.28900 30.99100 22.20000
C  50.58500 30.81200 22.97500
N  47.77200 32.18900 26.96000
C  47.41400 31.09900 26.18100
C  46.85800 30.01700 27.03600
C  46.59800 30.63500 28.31300
C  47.16100 31.98300 28.19900
C  46.41400 28.68300 26.58700
C  46.04900 30.44800 29.54400
O  45.40200 29.47600 29.97900
C  46.24600 31.86000 30.28300
C  46.60200 31.48700 31.74000
O  47.76500 31.32200 32.20400
O  45.43000 31.24600 32.41000
C  45.47400 31.12700 33.84500
H  49.22600 37.89400 28.79400
H  49.92300 35.75700 22.64300
H  47.28400 30.24900 24.21100
H  46.96100 34.46800 31.51600
H  48.72600 36.72300 31.03200
H  46.58300 37.75300 30.99800
H  45.82600 36.08300 30.71000
H  46.30400 36.97100 29.36000
H  49.87300 34.90300 31.66700
H  49.40500 33.28500 31.52700
H  49.83600 34.57600 33.77100
H  49.02400 33.09900 33.80600
H  51.70400 39.21500 26.72200
H  50.41800 39.49300 27.86600
H  50.26000 40.22700 26.32900
H  50.76900 40.50800 23.96600
H  51.86700 39.96600 22.70000
H  52.30900 39.64000 24.40100
H  49.86700 33.29500 21.76600
H  47.36000 31.79200 22.05500
H  47.74400 35.24900 21.24800
H  47.19300 33.62600 20.75600
H  48.58700 34.30400 20.02400
H  49.46900 31.12800 21.13300
H  48.70200 30.08100 22.31700
H  50.63200 31.02600 24.04300
H  51.44200 31.29600 22.50700
H  50.83600 29.75100 22.95400
H  45.33600 28.55300 26.48900
H  46.86400 27.94000 27.24500
H  46.64300 28.56600 25.52800
H  45.30800 32.40300 30.39900
H  45.73300 32.11000 34.23800
H  46.18700 30.40000 34.23400
H  44.46100 30.77500 34.04100

