158

Mg 45.36400 4.08500 45.31700
C  43.25700 6.96600 45.41700
C  42.50600 2.22100 44.68300
C  47.36200 1.45800 44.77800
C  48.14600 6.28700 45.16000
N  43.12500 4.56800 45.01000
C  42.55400 5.82200 44.98200
C  41.02700 5.78700 44.74400
C  40.76100 4.22900 44.87700
C  42.21700 3.60900 44.88300
C  39.94600 3.75600 46.12400
C  40.43600 6.37400 43.50600
C  41.33400 6.31400 42.24900
H  40.64500 6.45000 40.92500
N  44.98700 2.08900 44.91700
C  43.77100 1.54000 44.61600
C  43.94200 0.06900 44.37500
C  45.33400 -0.12800 44.60800
C  45.96000 1.13300 44.84200
C  42.72800 -0.91000 44.11900
C  45.96300 -1.50600 44.50900
O  45.25500 -2.48100 44.15300
C  47.36300 -1.73500 44.95400
N  47.45200 3.88400 45.02900
C  48.00700 2.67500 44.94900
C  49.51500 2.76500 44.65600
C  49.78500 4.28600 44.76300
C  48.40100 4.88900 45.05400
C  50.55900 1.88800 45.40500
C  50.44000 4.80900 43.42500
C  51.95000 4.76000 43.39000
N  45.71500 6.23000 45.23400
C  46.85800 6.97100 45.22700
C  46.50600 8.44000 45.39800
C  45.10400 8.42800 45.64300
C  44.70500 7.10400 45.39200
C  47.42100 9.62200 45.24400
C  43.97300 9.27100 45.98200
O  43.91700 10.47500 46.34500
C  42.76100 8.34000 45.73600
C  41.96400 8.36400 46.96900
O  42.17100 7.65100 47.97400
O  40.96900 9.29900 46.92500
C  40.15000 9.35700 48.14100
H  41.61200 1.63200 44.46800
H  48.06900 0.65400 44.56300
H  49.06800 6.87200 45.15500
H  40.43100 6.19900 45.55800
H  40.19900 3.90800 44.00000
H  40.52800 3.40600 46.97700
H  39.32200 2.88000 45.94800
H  39.27400 4.54600 46.45900
H  40.25500 7.41000 43.79100
H  39.44800 5.94800 43.33600
H  41.80700 5.33200 42.20700
H  42.07600 7.06100 42.53000
H  42.51600 -1.54000 44.98300
H  43.01400 -1.43400 43.20700
H  41.78300 -0.38000 44.00100
H  47.45200 -2.80300 45.15200
H  47.64000 -1.08800 45.78700
H  48.01400 -1.45100 44.12700
H  49.65400 2.40000 43.63800
H  50.49700 4.59400 45.52900
H  50.07500 1.24200 46.13800
H  51.30800 2.47100 45.94100
H  51.05300 1.25300 44.67000
H  50.12700 5.84100 43.27000
H  50.16300 4.18500 42.57600
H  52.30800 4.18100 42.53900
H  52.38400 4.18400 44.20700
H  52.42200 5.73800 43.29000
H  48.29500 9.24100 44.71600
H  47.67100 9.85700 46.27900
H  46.94200 10.55200 44.93900
H  42.07400 8.72100 44.98100
H  39.60000 8.42800 48.29500
H  39.44800 10.18900 48.19900
H  40.69700 9.44300 49.08000
Mg 6.43200 54.08300 40.48700
C  5.45100 50.68100 40.37900
C  9.72200 53.04800 39.68600
C  7.27500 57.34000 40.39200
C  3.11400 54.91100 40.98000
N  7.45600 52.06200 39.96700
C  6.78300 50.86900 40.06500
C  7.83300 49.71500 39.94600
C  9.20600 50.49300 40.10400
C  8.81100 51.96900 39.73100
C  9.89200 50.38800 41.53900
C  7.79800 49.10800 38.52800
C  7.94800 49.95200 37.25600
H  7.06500 49.44100 36.10100
N  8.23700 55.05900 40.17000
C  9.41200 54.49300 39.83000
C  10.31000 55.52800 39.54300
C  9.72500 56.83800 39.81500
C  8.35000 56.47000 40.24600
C  11.76600 55.22200 39.10800
C  10.29900 58.20300 39.58400
O  11.47500 58.32000 39.29300
C  9.56500 59.55700 39.69300
N  5.36900 55.85000 40.90200
C  5.91200 57.09700 40.71900
C  4.89200 58.22000 40.62300
C  3.51100 57.36600 40.68200
C  4.01600 55.94100 40.81100
C  5.25100 59.29900 41.63700
C  2.43600 57.57700 39.53600
C  1.00500 57.73000 40.11400
N  4.63500 53.05300 40.74300
C  3.41000 53.53800 41.05000
C  2.45200 52.46100 41.21200
C  3.25200 51.27700 41.00500
C  4.52300 51.70100 40.61800
C  1.05800 52.55400 41.67400
C  3.24900 49.87700 41.16000
O  2.41700 49.06600 41.54200
C  4.67700 49.43900 40.61800
C  4.37200 48.63100 39.44900
O  3.76600 48.89800 38.43900
O  4.92300 47.37500 39.71600
C  4.74100 46.37400 38.71300
H  10.76500 52.74700 39.56800
H  7.51700 58.40000 40.29000
H  2.09000 55.28500 41.05000
H  7.72900 48.97700 40.74200
H  9.91600 50.09100 39.38200
H  10.04700 51.36000 42.00900
H  10.83600 49.92500 41.25000
H  9.25200 49.76200 42.16000
H  6.85200 48.56900 38.49100
H  8.61000 48.38700 38.43300
H  8.96500 49.83500 36.88000
H  7.83100 51.02500 37.40300
H  12.13900 55.90800 38.34800
H  11.92700 54.22600 38.69700
H  12.41700 55.35100 39.97300
H  10.29800 60.34000 39.50000
H  9.15800 59.64500 40.70000
H  8.74400 59.59800 38.97700
H  4.99400 58.57300 39.59700
H  3.06300 57.73700 41.60400
H  5.83500 60.02400 41.07000
H  5.74600 58.97200 42.55100
H  4.28700 59.73500 41.89700
H  2.57700 56.72000 38.87700
H  2.61200 58.47900 38.95100
H  0.92800 57.79800 41.19900
H  0.39000 56.89300 39.78300
H  0.55600 58.63300 39.70200
H  0.39200 52.18300 40.89400
H  0.89400 53.60500 41.90900
H  0.90000 52.05500 42.63000
H  5.26300 48.89700 41.36100
H  5.29000 45.45400 38.91200
H  4.97900 46.70700 37.70200
H  3.70400 46.04100 38.76900

