158

Mg 54.35600 24.54700 44.66500
C  51.84000 26.91700 43.99400
C  52.13600 22.05100 43.49400
C  56.87600 22.41700 44.53700
C  56.59800 27.18300 45.18100
N  52.27400 24.57800 43.78900
C  51.50900 25.62000 43.62600
C  50.17600 25.15000 42.92800
C  50.11100 23.60000 43.22100
C  51.58000 23.37400 43.56700
C  49.12400 22.97600 44.18400
C  50.28400 25.45100 41.42100
C  48.86500 25.41200 40.73500
H  48.77000 24.38800 39.63700
N  54.48300 22.47600 44.06900
C  53.48000 21.62400 43.71700
C  54.01400 20.27000 43.59900
C  55.35000 20.36700 44.06200
C  55.64200 21.79300 44.22900
C  53.24700 19.10300 43.09100
C  56.28300 19.12900 44.17600
O  55.75800 18.01100 44.01000
C  57.84000 19.15200 44.43000
N  56.44300 24.80300 44.74000
C  57.28300 23.75700 44.77700
C  58.73700 24.08500 45.12200
C  58.63600 25.61900 45.18600
C  57.11800 25.94400 45.01900
C  59.19800 23.37200 46.38800
C  59.58800 26.32200 44.17200
C  60.14400 27.63700 44.75700
N  54.27400 26.62800 44.79100
C  55.22300 27.53800 45.07200
C  54.55400 28.80300 45.34800
C  53.24900 28.60000 44.82300
C  53.09100 27.21500 44.59500
C  55.18300 30.02600 45.81000
C  52.06300 29.27900 44.54000
O  51.73500 30.48900 44.69900
C  51.09000 28.16500 44.00000
C  50.76800 28.60100 42.64100
O  51.51300 28.70400 41.65900
O  49.50700 28.81000 42.51200
C  48.97700 29.39600 41.30400
H  51.40800 21.29700 43.18800
H  57.61800 21.62600 44.41600
H  57.13200 28.09300 45.46200
H  49.30200 25.57900 43.41800
H  50.02700 22.98000 42.32800
H  49.00500 21.92400 43.92700
H  48.16700 23.39000 43.86800
H  49.42700 23.24300 45.19600
H  51.03200 24.79400 40.97800
H  50.74700 26.41700 41.22200
H  48.68600 26.43800 40.41200
H  48.09400 25.19300 41.47400
H  52.19800 19.25900 42.83900
H  53.22700 18.28200 43.80700
H  53.68000 18.68400 42.18300
H  58.40800 19.64900 43.64300
H  58.20900 18.12900 44.50200
H  58.06600 19.52900 45.42700
H  59.32000 23.73800 44.26800
H  59.00400 25.99400 46.14200
H  59.11400 23.99800 47.27600
H  60.21500 22.98200 46.34700
H  58.58200 22.48500 46.53900
H  58.97100 26.43200 43.28000
H  60.47900 25.71700 44.00800
H  59.83000 28.55200 44.25400
H  61.23300 27.64600 44.70700
H  59.84900 27.74400 45.80100
H  54.91100 30.84500 45.14400
H  56.25700 29.85400 45.88200
H  54.72800 30.18300 46.78700
H  50.21800 28.10100 44.65100
H  48.71700 28.61500 40.59000
H  49.61300 30.19100 40.91500
H  48.05900 29.94200 41.52000
Mg 9.56600 48.47200 25.95700
C  7.68000 48.40000 28.85100
C  12.14000 49.54300 27.88600
C  11.39300 48.49700 23.14700
C  6.59700 48.01100 24.06700
N  9.88800 48.87700 28.11900
C  8.98900 48.78200 29.10100
C  9.58200 49.33900 30.36100
C  10.91700 49.90100 29.98200
C  10.97700 49.52300 28.52800
C  11.00400 51.44700 30.13800
C  9.74600 48.25700 31.49100
C  9.05800 48.66200 32.82700
H  8.96500 47.54000 33.81800
N  11.53900 48.94200 25.56300
C  12.47100 49.24400 26.51000
C  13.82800 49.35200 25.87800
C  13.56100 48.99900 24.50500
C  12.13300 48.85300 24.35000
C  15.10200 49.61200 26.58400
C  14.54700 48.91800 23.33400
O  14.26200 48.82100 22.17000
C  15.97200 48.94500 23.66500
N  9.13500 48.21700 23.91400
C  10.05100 48.26600 22.95200
C  9.51400 47.75900 21.61000
C  7.98800 47.43200 21.99800
C  7.83500 47.93800 23.40700
C  9.73200 48.73100 20.38900
C  7.73100 45.89400 21.96600
C  8.29600 45.07100 23.11900
N  7.53900 48.22200 26.29100
C  6.46200 48.07000 25.44900
C  5.26100 47.80900 26.24700
C  5.70500 48.01100 27.54600
C  7.07600 48.19500 27.57300
C  3.94400 47.42500 25.69000
C  5.22100 48.02100 28.89200
O  4.06900 47.87400 29.25300
C  6.46400 48.18400 29.83200
C  6.64100 46.89300 30.69500
O  7.25000 45.91100 30.33300
O  6.04900 47.12300 31.83900
C  6.02700 45.99500 32.76500
H  13.05100 49.83800 28.41100
H  12.02000 48.50500 22.25400
H  5.70900 47.93600 23.43700
H  8.93300 50.11400 30.76900
H  11.75100 49.40800 30.48200
H  11.04900 51.87900 29.13900
H  11.96000 51.64100 30.62500
H  10.12400 51.78500 30.68500
H  10.78000 48.14600 31.81700
H  9.37300 47.29100 31.15100
H  8.07600 49.03400 32.53500
H  9.69800 49.39300 33.32100
H  15.41200 50.65500 26.51400
H  15.97600 48.98200 26.41700
H  14.79800 49.38700 27.60600
H  16.20500 48.12500 24.34500
H  16.14100 49.86400 24.22600
H  16.55000 48.87800 22.74300
H  10.07800 46.86100 21.36100
H  7.33600 47.86100 21.23600
H  10.34600 49.59200 20.65300
H  8.76000 49.16900 20.15900
H  10.21700 48.15800 19.59900
H  8.20600 45.45000 21.09100
H  6.65000 45.90400 21.83000
H  9.11900 45.49300 23.69600
H  8.56100 44.07400 22.76600
H  7.44300 44.83900 23.75800
H  4.02200 46.45800 25.19100
H  3.55000 48.22900 25.06900
H  3.24100 47.24000 26.50200
H  6.37800 49.05300 30.48400
H  6.01500 46.62300 33.65600
H  6.92900 45.39000 32.68400
H  5.11400 45.40400 32.83500

