158

Mg 8.68500 2.99500 27.69400
C  9.81900 1.60500 30.34500
C  6.76100 5.23000 29.42500
C  7.21500 4.08700 24.65000
C  10.19300 0.44700 25.63800
N  8.16900 3.26000 29.66300
C  8.85500 2.61300 30.63300
C  8.49200 3.22000 32.01200
C  7.45800 4.33400 31.71000
C  7.33100 4.25800 30.19500
C  6.07600 4.19800 32.37000
C  9.83400 3.82400 32.71300
C  10.21500 3.39600 34.12600
H  10.58600 4.40000 35.25700
N  7.25700 4.39800 27.13800
C  6.64800 5.35400 28.01400
C  5.96800 6.34400 27.25600
C  6.04800 5.99100 25.88400
C  6.88900 4.76500 25.87300
C  5.24500 7.49000 27.95100
C  5.36000 6.69100 24.72700
O  5.34800 6.25500 23.59900
C  4.72100 8.07400 24.93200
N  8.59000 2.21800 25.38100
C  8.03200 2.93200 24.42000
C  8.38700 2.47900 23.02200
C  9.45700 1.39400 23.30100
C  9.41800 1.34100 24.84800
C  7.06600 2.04600 22.11300
C  10.78600 1.56600 22.60700
C  10.82700 0.96000 21.16200
N  9.78200 1.21900 27.93800
C  10.37300 0.42100 27.04200
C  11.16100 -0.55100 27.83100
C  11.08400 -0.04700 29.22600
C  10.16900 1.01500 29.13800
C  11.94100 -1.65200 27.31900
C  11.40500 -0.24300 30.63900
O  12.19300 -0.98500 31.21200
C  10.60600 0.86900 31.43600
C  9.84200 0.11700 32.50600
O  8.78800 -0.45600 32.34000
O  10.45000 0.20600 33.76400
C  9.74100 -0.19600 34.93300
H  6.12400 5.86200 30.04800
H  6.95900 4.58100 23.71100
H  10.78600 -0.25300 25.04500
H  8.11500 2.43100 32.66200
H  7.89200 5.30700 31.93900
H  6.10300 3.54300 33.24000
H  5.27600 3.80400 31.74300
H  5.84600 5.21100 32.70000
H  9.83300 4.91300 32.66300
H  10.64000 3.61300 32.01100
H  11.08100 2.74000 34.03800
H  9.42800 2.69600 34.40800
H  5.19200 7.52200 29.03900
H  4.17800 7.45900 27.72800
H  5.58400 8.40900 27.47300
H  5.44800 8.78300 25.32700
H  3.74100 8.00200 25.40400
H  4.51900 8.51600 23.95700
H  8.74600 3.29500 22.39500
H  8.97200 0.46100 23.01200
H  7.12700 1.13400 21.52000
H  6.88300 2.83000 21.37800
H  6.23700 1.94600 22.81400
H  11.48000 1.07200 23.28600
H  10.87500 2.65000 22.67600
H  11.09600 1.84700 20.58900
H  9.87700 0.56600 20.80000
H  11.58500 0.18400 21.05400
H  11.62400 -1.91200 26.30900
H  11.58200 -2.45400 27.96400
H  13.01900 -1.49300 27.31200
H  11.30800 1.58000 31.87100
H  9.86100 0.71600 35.51800
H  10.10800 -1.03100 35.53000
H  8.71500 -0.41900 34.64000
Mg 17.21800 52.14300 26.56000
C  18.84800 50.78100 29.24800
C  14.70400 53.14600 28.67800
C  15.36800 52.94300 23.82900
C  19.50700 50.67300 24.47800
N  16.82900 51.99300 28.75500
C  17.68800 51.44700 29.63100
C  17.18500 51.64700 31.02600
C  15.72400 52.31100 30.87600
C  15.73400 52.53300 29.38400
C  14.60600 51.38200 31.44200
C  18.14400 52.56000 31.85600
C  18.07600 52.43900 33.38200
H  17.13800 51.38200 34.01300
N  15.34300 53.00200 26.32100
C  14.40300 53.23600 27.30700
C  13.35500 54.01000 26.70500
C  13.55300 53.94000 25.32100
C  14.79100 53.17900 25.09500
C  12.24800 54.77400 27.54200
C  12.63400 54.49600 24.18800
O  12.81000 54.32100 23.00200
C  11.29600 55.08200 24.65200
N  17.41700 51.90100 24.39600
C  16.61000 52.41500 23.47100
C  17.18300 52.35500 22.02800
C  18.62100 51.72700 22.36500
C  18.52300 51.41200 23.89300
C  16.41300 51.39200 21.02700
C  19.81500 52.62400 21.86900
C  20.49200 52.14700 20.55600
N  18.90300 50.98500 26.78500
C  19.75200 50.40300 25.83500
C  20.80000 49.76200 26.48100
C  20.50100 49.84900 27.81400
C  19.27100 50.55500 27.92800
C  21.99300 49.07700 25.94300
C  20.98000 49.53500 29.15400
O  21.92700 48.85600 29.54700
C  19.89000 50.08300 30.09200
C  19.41900 48.86300 30.88000
O  18.87300 47.89100 30.37100
O  19.63100 48.96200 32.25200
C  19.21900 47.83900 33.14200
H  13.88400 53.58000 29.25500
H  14.80300 53.31700 22.97300
H  20.24600 50.19000 23.83500
H  17.15000 50.69400 31.55300
H  15.70400 53.27400 31.38600
H  14.04600 51.93500 32.19600
H  14.94400 50.40500 31.78600
H  13.94800 51.24600 30.58400
H  17.91800 53.58300 31.55700
H  19.17000 52.40200 31.52200
H  17.99100 53.41300 33.86400
H  19.07900 52.06900 33.59600
H  12.17100 55.83800 27.32100
H  12.45900 54.56000 28.59000
H  11.27600 54.32500 27.33800
H  10.69500 55.27700 23.76300
H  11.54700 56.03300 25.12100
H  10.69800 54.33800 25.17800
H  17.26300 53.40900 21.76300
H  18.76700 50.73200 21.94500
H  15.37100 51.41700 21.34500
H  16.84500 50.39300 20.97100
H  16.49300 51.77800 20.01000
H  20.50700 52.91000 22.66200
H  19.41700 53.57900 21.52400
H  19.80200 51.44900 20.08000
H  21.41000 51.59500 20.75500
H  20.64000 53.02800 19.93200
H  21.80900 48.21100 25.30600
H  22.56700 48.84400 26.84000
H  22.64300 49.74000 25.37100
H  20.33700 50.71700 30.85700
H  18.21700 47.43300 33.00200
H  19.27800 48.06900 34.20600
H  19.86400 46.96800 33.02500

