158

Mg 54.99600 24.91700 44.12400
C  51.93200 26.88700 43.36200
C  53.13400 22.23000 43.03600
C  57.86100 23.43600 43.89100
C  56.48900 27.93200 44.77600
N  52.84000 24.73100 43.06900
C  51.82100 25.59900 42.89800
C  50.60300 24.86200 42.29900
C  50.91000 23.41700 42.90900
C  52.37500 23.44000 43.12700
C  50.13500 23.07600 44.30100
C  50.48600 24.90600 40.71800
C  49.06900 24.49000 40.29000
H  48.65300 24.64300 38.80100
N  55.42700 23.05900 43.63300
C  54.51800 22.05200 43.18100
C  55.24800 20.79800 43.08800
C  56.61400 21.06700 43.38400
C  56.67800 22.53200 43.60900
C  54.59000 19.45700 42.66500
C  57.66400 20.03400 43.48900
O  57.39900 18.88100 43.41200
C  59.06700 20.40800 43.83200
N  56.93600 25.62400 44.12100
C  57.96400 24.76600 44.15100
C  59.22200 25.41100 44.65900
C  58.79300 26.95800 44.67300
C  57.23600 26.88400 44.52800
C  59.70900 24.90400 46.06000
C  59.43100 27.74300 43.46100
C  60.15800 29.07200 43.86400
N  54.35300 26.95700 44.21300
C  55.13200 28.02800 44.55900
C  54.31400 29.23000 44.62500
C  53.05800 28.77200 44.18200
C  53.11500 27.39500 43.91100
C  54.72800 30.64100 44.98300
C  51.75800 29.29700 43.86100
O  51.33500 30.45800 43.93200
C  50.91300 28.02000 43.36100
C  50.42000 28.27100 41.99800
O  51.16700 28.68000 41.12200
O  49.10000 27.90200 41.82400
C  48.71200 27.97400 40.42400
H  52.44500 21.39300 42.90800
H  58.78800 22.93000 44.16900
H  57.03300 28.87100 44.89800
H  49.74200 25.26800 42.83100
H  50.74400 22.68400 42.12000
H  49.37600 23.82500 44.52800
H  50.86900 23.02100 45.10500
H  49.65200 22.10400 44.20600
H  51.05000 24.02500 40.41100
H  50.85800 25.81800 40.25300
H  48.26900 24.88800 40.91500
H  48.91400 23.41600 40.38800
H  53.70700 19.70800 42.07700
H  54.19900 18.99000 43.56900
H  55.19600 18.73700 42.11600
H  59.45000 21.11300 43.09400
H  59.70000 19.53700 44.00400
H  58.89600 20.95400 44.75900
H  59.88100 25.07800 43.85600
H  59.10000 27.42500 45.60900
H  60.14800 23.90600 46.06500
H  58.93100 25.06700 46.80500
H  60.52200 25.48100 46.50100
H  58.68600 27.93400 42.68900
H  60.18100 27.08000 43.03000
H  59.82200 29.77600 43.10400
H  61.21500 28.93400 44.09100
H  59.62400 29.38400 44.76200
H  53.94400 31.28100 44.57900
H  55.71300 30.87200 44.57600
H  54.83200 30.72900 46.06400
H  50.19900 27.83200 44.16300
H  47.86200 27.33400 40.19100
H  49.51300 27.69000 39.74200
H  48.41500 28.99300 40.17300
Mg -12.28800 17.22600 42.16400
C  -9.46200 15.39600 41.80100
C  -10.63700 20.04500 40.96900
C  -15.23900 18.79700 41.74300
C  -14.03800 14.19800 42.78600
N  -10.26400 17.66600 41.28900
C  -9.26000 16.72700 41.35700
C  -7.87500 17.39500 40.96900
C  -8.28500 18.94200 41.03700
C  -9.82100 18.93300 41.16000
C  -7.68900 19.82400 42.17600
C  -7.30000 16.96300 39.60400
C  -5.91200 16.29500 39.60200
H  -5.82200 14.99600 38.72200
N  -12.87800 19.07900 41.53900
C  -12.05600 20.12900 41.08600
C  -12.86400 21.31400 40.86900
C  -14.17200 20.98300 41.16800
C  -14.17300 19.60200 41.53700
C  -12.30900 22.67900 40.41300
C  -15.28200 21.95300 40.95900
O  -15.09300 23.08700 40.57200
C  -16.65500 21.71500 41.47700
N  -14.35500 16.59300 42.36000
C  -15.38200 17.43400 42.10200
C  -16.76300 16.72800 42.30100
C  -16.37200 15.24600 42.62100
C  -14.83600 15.30700 42.53800
C  -17.85800 17.31100 43.27200
C  -17.01100 14.21400 41.69300
C  -17.95700 13.18400 42.36500
N  -11.87400 15.22700 42.43800
C  -12.66700 14.11000 42.66600
C  -11.86700 12.92200 42.70100
C  -10.63500 13.38700 42.38500
C  -10.70500 14.75900 42.11400
C  -12.19200 11.47800 43.11100
C  -9.27400 13.02000 42.22100
O  -8.72400 11.95000 42.38700
C  -8.42100 14.27000 41.85100
C  -7.39000 14.28200 42.92000
O  -7.58500 14.30600 44.10400
O  -6.16100 14.25200 42.36900
C  -5.00400 14.35000 43.19400
H  -10.17900 21.01200 40.75200
H  -16.20300 19.23100 41.46800
H  -14.63000 13.28100 42.82300
H  -7.17400 17.09800 41.74900
H  -8.05800 19.47700 40.11500
H  -6.86200 20.46300 41.86500
H  -7.25300 19.11500 42.88000
H  -8.39400 20.46900 42.70100
H  -7.31900 17.88300 39.02000
H  -8.01100 16.34500 39.05600
H  -5.57800 16.05700 40.61200
H  -5.16800 17.02300 39.27800
H  -12.86600 23.04400 39.55100
H  -11.27700 22.55200 40.08700
H  -12.24200 23.38500 41.24100
H  -16.70100 21.11400 42.38500
H  -17.25900 21.19300 40.73500
H  -17.15700 22.65300 41.71700
H  -17.26800 16.76400 41.33500
H  -16.47600 14.94300 43.66300
H  -18.66000 17.69400 42.64200
H  -17.39100 18.16700 43.75900
H  -18.27900 16.53700 43.91500
H  -16.14200 13.67900 41.31100
H  -17.51300 14.75400 40.89100
H  -18.93500 13.66400 42.32100
H  -17.65500 13.01700 43.39900
H  -17.96700 12.30200 41.72500
H  -11.50500 11.00800 43.81400
H  -12.26900 10.90800 42.18600
H  -13.12000 11.57900 43.67500
H  -8.00300 13.96900 40.89100
H  -4.32700 13.58500 42.81500
H  -5.15900 14.27600 44.27000
H  -4.52900 15.30300 42.96200

