158

Mg -2.97700 17.63500 26.72900
C  -3.32500 15.31500 29.47900
C  -3.56900 20.14000 28.97700
C  -3.25100 19.75900 24.16800
C  -3.14600 14.88700 24.67500
N  -3.46900 17.69300 29.02000
C  -3.45700 16.62400 29.92100
C  -3.60800 17.12100 31.39500
C  -3.80200 18.66200 31.15200
C  -3.69900 18.87100 29.58900
C  -5.10000 19.18000 31.77700
C  -2.36400 16.79600 32.31500
C  -2.35200 17.64500 33.59100
H  -1.89500 16.95700 34.90300
N  -3.21000 19.66600 26.64100
C  -3.30300 20.52400 27.64500
C  -2.94800 21.84400 27.10600
C  -2.82400 21.78600 25.69000
C  -3.15300 20.41900 25.44200
C  -2.89100 23.07600 28.02200
C  -2.44200 22.88700 24.73600
O  -2.30700 22.65400 23.53800
C  -2.32200 24.30800 25.16000
N  -3.39100 17.34500 24.71400
C  -3.35600 18.36000 23.86700
C  -3.59800 17.90500 22.40000
C  -3.45900 16.29700 22.57900
C  -3.28100 16.14900 24.07800
C  -4.69100 18.58600 21.56100
C  -2.23600 15.75100 21.81900
C  -0.86600 16.31900 22.25600
N  -3.08100 15.54000 26.95900
C  -3.15400 14.57900 26.00500
C  -3.05400 13.25200 26.57400
C  -3.19200 13.52200 27.93700
C  -3.19800 14.92000 28.14000
C  -2.96100 11.97500 25.85400
C  -3.37600 12.83200 29.22500
O  -3.47200 11.68300 29.58100
C  -3.42300 14.01700 30.24600
C  -2.29900 13.77300 31.10600
O  -1.12900 14.02600 30.89800
O  -2.73100 13.08400 32.20800
C  -1.67900 12.77900 33.23100
H  -3.54400 20.96800 29.69000
H  -3.41400 20.41100 23.30700
H  -3.24100 13.98000 24.07300
H  -4.49400 16.63000 31.79800
H  -3.09600 19.36800 31.58900
H  -5.68900 19.64800 30.98800
H  -4.88200 19.92400 32.54300
H  -5.69300 18.42200 32.28800
H  -1.41700 16.76100 31.77900
H  -2.65400 15.83400 32.73700
H  -3.15700 18.36400 33.74600
H  -1.55300 18.34300 33.33800
H  -1.89900 23.52400 27.96300
H  -3.15600 22.90200 29.06500
H  -3.59000 23.88300 27.79900
H  -2.40500 24.92900 24.26800
H  -1.42100 24.31900 25.77400
H  -3.17500 24.57800 25.78200
H  -2.67600 18.24100 21.92600
H  -4.39900 15.83500 22.27800
H  -5.15800 17.98100 20.78400
H  -4.34900 19.54100 21.16100
H  -5.57600 18.79200 22.16300
H  -2.28700 15.86500 20.73700
H  -2.08000 14.69200 22.02600
H  -0.90900 17.13300 22.98000
H  -0.34000 16.61600 21.34900
H  -0.31500 15.52600 22.76300
H  -3.74200 12.02700 25.09500
H  -3.12400 11.17200 26.57200
H  -1.98900 11.91900 25.36400
H  -4.34800 13.95500 30.82000
H  -2.17100 11.90100 33.64900
H  -1.57600 13.65700 33.86800
H  -0.71600 12.46100 32.83100
Mg 1.14600 42.08500 25.22800
C  1.97600 42.23400 28.72300
C  -1.89000 40.72100 26.31300
C  0.42200 41.71300 22.14400
C  4.32500 43.11700 24.58400
N  0.08600 41.71500 27.28100
C  0.61500 41.89900 28.49100
C  -0.43800 41.83500 29.63200
C  -1.62200 41.25100 28.79900
C  -1.12500 41.15100 27.35700
C  -2.32100 39.96900 29.40500
C  -0.78800 43.17100 30.38100
C  -1.35200 43.08900 31.80700
H  -1.97000 41.73000 32.22300
N  -0.53900 41.36700 24.34500
C  -1.68500 40.88300 24.90300
C  -2.57700 40.43500 23.93500
C  -1.97100 40.69400 22.63700
C  -0.66200 41.34200 23.00300
C  -3.85600 39.65900 24.10400
C  -2.43700 40.39700 21.21200
O  -1.83600 40.74800 20.25200
C  -3.72900 39.75800 20.97300
N  2.23600 42.22900 23.63700
C  1.69500 42.23500 22.38600
C  2.69100 42.44000 21.27000
C  3.89300 43.09500 22.07000
C  3.48900 42.81000 23.56200
C  3.11400 41.18400 20.50200
C  4.05200 44.64400 21.74400
C  2.85500 45.57400 21.91300
N  2.86200 42.63600 26.37000
C  4.12100 42.97300 25.91000
C  5.01300 43.22400 26.95600
C  4.21200 42.90400 28.09100
C  2.88500 42.59200 27.70000
C  6.51700 43.56700 26.78100
C  4.21100 42.68700 29.59000
O  5.10900 42.82600 30.43500
C  2.76900 42.25200 30.02400
C  2.72500 40.85300 30.55600
O  3.22900 39.94800 30.00700
O  1.93300 40.87500 31.71700
C  1.75000 39.49500 32.33700
H  -2.83800 40.30500 26.65900
H  0.13800 41.49200 21.11300
H  5.31100 43.46900 24.27500
H  -0.17200 41.03600 30.32400
H  -2.35400 42.05700 28.75000
H  -2.32100 39.11700 28.72400
H  -3.33800 40.30700 29.60800
H  -1.80500 39.68900 30.32400
H  -1.35600 43.84900 29.74500
H  0.17000 43.68700 30.31900
H  -2.26500 43.68300 31.78200
H  -0.74100 43.58200 32.56300
H  -3.91500 39.30200 25.13200
H  -3.94900 38.70100 23.59100
H  -4.76700 40.19500 23.83700
H  -4.65500 40.24800 21.27300
H  -3.70000 38.74200 21.36600
H  -3.89500 39.61400 19.90600
H  2.40900 43.15200 20.49400
H  4.87000 42.63100 21.93200
H  2.88300 41.37300 19.45400
H  2.60900 40.25300 20.75900
H  4.18900 41.09300 20.66200
H  4.59800 44.86000 20.82500
H  4.64400 44.97000 22.59900
H  1.86600 45.17500 22.13900
H  2.70900 46.03700 20.93700
H  3.10400 46.32300 22.66400
H  6.69000 43.97500 25.78600
H  7.12400 42.69700 27.03400
H  6.70100 44.35500 27.51100
H  2.28300 42.87700 30.77400
H  1.24800 38.81100 31.65300
H  1.06700 39.41500 33.18300
H  2.72600 39.11000 32.63100

