158

Mg 48.34100 14.67800 28.03400
C  46.52000 14.96700 31.08300
C  50.63900 16.75200 29.43200
C  50.17500 14.38000 25.19000
C  45.77400 12.82000 26.76900
N  48.57700 15.72600 29.97000
C  47.74700 15.68900 31.08000
C  48.26900 16.39600 32.31700
C  49.35100 17.24000 31.63400
C  49.58400 16.53900 30.31700
C  48.89600 18.74800 31.37000
C  48.68200 15.40600 33.45600
C  47.94100 15.58800 34.78000
H  48.68400 15.39100 36.09400
N  50.19600 15.33500 27.49100
C  51.01500 16.18000 28.16900
C  52.31100 16.35500 27.45800
C  52.12100 15.78500 26.18300
C  50.75100 15.13400 26.23000
C  53.46900 17.11500 28.05800
C  53.07100 15.65100 24.93800
O  52.90000 14.93200 23.98100
C  54.30500 16.50800 24.96300
N  47.91900 13.83100 26.20800
C  48.86600 13.78400 25.16100
C  48.30600 13.01800 23.93500
C  47.00000 12.41400 24.53700
C  46.85700 13.04400 25.90000
C  48.13900 13.92800 22.63900
C  47.01300 10.84500 24.48600
C  48.18300 10.14600 25.17700
N  46.52800 14.06600 28.69300
C  45.58200 13.26400 28.04500
C  44.39800 13.10600 28.91700
C  44.72700 13.67800 30.09100
C  46.01600 14.23700 29.95300
C  43.31600 12.19500 28.60000
C  44.27200 13.94200 31.51100
O  43.26500 13.53100 32.13900
C  45.50600 14.68600 32.23900
C  44.80600 15.84900 32.79600
O  44.64200 16.90400 32.23900
O  44.53000 15.62300 34.09900
C  44.05700 16.84700 34.76400
H  51.34300 17.45100 29.88700
H  50.53400 14.38900 24.15800
H  44.99800 12.19600 26.32000
H  47.48600 17.02600 32.73900
H  50.29400 17.16300 32.17700
H  48.53300 18.75300 30.34200
H  49.74800 19.41100 31.51200
H  48.11400 19.06700 32.05900
H  49.76600 15.49700 33.53000
H  48.47100 14.34800 33.29800
H  47.19200 14.81800 34.96700
H  47.37000 16.51600 34.77900
H  53.36000 18.19800 28.11800
H  54.43900 16.89800 27.61100
H  53.45200 16.82800 29.10900
H  54.88600 16.54400 24.04100
H  54.99500 16.04400 25.66700
H  54.01800 17.53800 25.17600
H  48.98300 12.18100 23.76300
H  46.10400 12.61800 23.95100
H  48.51700 13.41800 21.75300
H  48.72000 14.84600 22.72500
H  47.10800 14.22800 22.45100
H  46.91900 10.54200 23.44300
H  46.09800 10.54300 24.99500
H  47.93900 9.47800 26.00300
H  48.88800 10.75700 25.74100
H  48.87600 9.72500 24.44900
H  42.73400 11.85500 29.45600
H  43.58000 11.28800 28.05600
H  42.66700 12.83200 27.99900
H  45.86900 14.02400 33.02500
H  43.29400 17.35200 34.17200
H  44.82500 17.61900 34.70500
H  43.77900 16.79600 35.81700
Mg -5.47900 24.74000 26.31500
C  -3.83200 26.68300 28.65700
C  -6.49100 22.68300 28.82200
C  -6.51000 22.57000 23.97600
C  -3.93000 26.67700 23.71000
N  -5.17600 24.78500 28.44800
C  -4.54800 25.66500 29.22800
C  -4.74100 25.40500 30.75800
C  -5.40600 24.02100 30.73700
C  -5.79700 23.80400 29.24500
C  -4.52400 22.86000 31.37700
C  -5.58500 26.64500 31.33800
C  -5.15500 27.13600 32.75500
H  -4.80200 26.02200 33.71000
N  -6.43600 22.89700 26.37300
C  -6.85500 22.29700 27.50900
C  -7.68400 21.13900 27.23400
C  -7.74400 21.09700 25.74500
C  -6.91600 22.21300 25.24500
C  -8.33700 20.25200 28.26100
C  -8.66000 20.43300 24.77900
O  -8.68100 20.73500 23.58600
C  -9.59000 19.36400 25.39800
N  -5.34000 24.74400 24.16100
C  -5.79000 23.60300 23.48400
C  -5.52200 23.72600 21.96400
C  -4.69500 25.03900 21.79300
C  -4.69700 25.59700 23.30500
C  -4.91700 22.43700 21.29300
C  -5.23300 26.03200 20.74800
C  -6.12100 27.18900 21.24000
N  -4.30700 26.39200 26.08700
C  -3.71900 27.08200 25.00600
C  -2.95700 28.16200 25.47100
C  -2.91400 28.00100 26.88000
C  -3.80200 26.95500 27.22900
C  -2.15500 29.05200 24.58900
C  -2.25300 28.46500 28.03400
O  -1.44200 29.37800 28.05600
C  -2.88000 27.69700 29.26900
C  -1.90300 27.19600 30.23500
O  -1.08300 26.35700 29.91400
O  -2.07800 27.66900 31.53200
C  -1.06400 27.06300 32.41500
H  -6.75400 22.02500 29.65300
H  -6.69200 21.74900 23.27900
H  -3.46600 27.21300 22.88000
H  -3.82800 25.28900 31.34200
H  -6.36400 23.98800 31.25700
H  -5.03300 21.91200 31.55300
H  -4.17300 23.17100 32.36100
H  -3.60100 22.71900 30.81600
H  -6.55600 26.15000 31.35300
H  -5.53400 27.45100 30.60600
H  -6.00900 27.68300 33.15500
H  -4.28800 27.79400 32.81500
H  -9.42500 20.29100 28.19500
H  -7.91900 20.41000 29.25500
H  -8.01600 19.25800 27.94700
H  -10.45400 19.90000 25.79100
H  -9.03200 18.89500 26.20800
H  -9.99300 18.67000 24.66100
H  -6.48800 23.87900 21.48300
H  -3.67300 24.88500 21.44500
H  -4.22600 22.04400 22.03900
H  -4.33500 22.77600 20.43600
H  -5.72500 21.72200 21.13500
H  -5.81900 25.46600 20.02400
H  -4.37000 26.36300 20.17000
H  -5.69700 28.13700 20.90900
H  -6.30100 27.33900 22.30500
H  -7.11100 27.15000 20.78500
H  -2.88700 29.81200 24.31500
H  -1.83400 28.52700 23.68900
H  -1.36000 29.53300 25.15800
H  -3.46800 28.42000 29.83400
H  -1.13900 25.97700 32.37100
H  -1.28700 27.35300 33.44200
H  -0.03300 27.37400 32.24500

