158

Mg 40.83000 41.53100 26.75800
C  40.25000 43.90500 29.28100
C  41.79700 39.32800 29.14800
C  41.84900 39.41500 24.26400
C  39.93300 44.00000 24.34500
N  40.86100 41.56500 29.00800
C  40.60600 42.66700 29.76300
C  40.70900 42.25000 31.22500
C  41.26800 40.77100 31.21600
C  41.32600 40.54700 29.73000
C  42.64300 40.39100 31.90800
C  39.32800 42.43000 31.95400
C  39.18000 41.66800 33.22300
H  38.73500 42.53500 34.44000
N  41.57500 39.59700 26.67600
C  42.00500 38.84400 27.81800
C  42.55900 37.63700 27.30100
C  42.61000 37.70300 25.90900
C  42.02900 38.97300 25.58800
C  42.87400 36.45900 28.19500
C  43.13200 36.66600 24.85600
O  42.98400 36.82500 23.67500
C  43.75500 35.46600 25.40900
N  40.83800 41.73000 24.60100
C  41.13400 40.59600 23.80900
C  40.89300 40.93600 22.33600
C  40.05700 42.28300 22.43700
C  40.15100 42.70100 23.87300
C  42.25800 41.21000 21.60000
C  38.58300 42.17700 21.93800
C  37.42900 41.73600 22.88300
N  40.25100 43.60400 26.74200
C  39.97700 44.46500 25.75000
C  39.66900 45.77200 26.28100
C  39.71000 45.57900 27.68000
C  40.15200 44.29500 27.92600
C  39.34700 47.06800 25.48000
C  39.70900 46.28100 28.95900
O  39.42300 47.38500 29.31500
C  39.95200 45.14800 30.04600
C  41.11500 45.61700 30.76600
O  42.23900 45.61200 30.29400
O  40.77200 46.28600 31.89300
C  41.85200 46.94300 32.56100
H  41.95100 38.53200 29.88000
H  42.06800 38.82000 23.37500
H  39.56700 44.72300 23.61400
H  41.54100 42.86500 31.56900
H  40.47200 40.11300 31.56300
H  42.52600 39.57300 32.61900
H  43.00100 41.23700 32.49500
H  43.40900 40.10000 31.19000
H  38.59600 42.13200 31.20200
H  39.26400 43.48600 32.21400
H  40.07400 41.11200 33.50700
H  38.45100 40.88800 33.00500
H  42.14200 35.72200 27.86600
H  42.69300 36.70900 29.24100
H  43.93500 36.39900 27.95400
H  42.89400 34.91900 25.79300
H  44.56500 35.73800 26.08600
H  44.06100 34.81000 24.59400
H  40.20800 40.26600 21.81800
H  40.52900 43.03200 21.80000
H  43.10100 41.01000 22.26100
H  42.27200 42.12500 21.00700
H  42.31200 40.46100 20.81000
H  38.54200 41.41300 21.16100
H  38.37300 43.14100 21.47300
H  36.78900 42.60100 23.05700
H  37.86200 41.39800 23.82400
H  36.91100 40.86700 22.47600
H  39.06300 46.83500 24.45400
H  40.26400 47.65100 25.40000
H  38.51900 47.58700 25.96300
H  39.10600 45.17600 30.73300
H  42.21800 47.77000 31.95200
H  42.70000 46.32900 32.86500
H  41.38100 47.39300 33.43500
Mg 29.38800 57.77700 40.68500
C  26.38100 56.14800 39.75300
C  31.01000 55.12000 39.28300
C  32.16700 59.59400 40.90600
C  27.46500 60.67300 41.10600
N  28.75400 55.78000 39.84500
C  27.52200 55.46000 39.38300
C  27.48700 54.41600 38.24600
C  28.87600 53.84400 38.65800
C  29.65400 54.97000 39.30000
C  28.82400 52.63200 39.66500
C  27.36200 55.00100 36.75700
C  26.04100 54.69900 36.00700
H  26.06900 54.40800 34.49900
N  31.34500 57.25300 40.38300
C  31.79200 56.15700 39.77500
C  33.27400 56.22800 39.78900
C  33.69100 57.47100 40.18200
C  32.38700 58.14000 40.51900
C  34.14500 55.11100 39.23100
C  35.08600 58.04800 40.22700
O  36.02200 57.34100 39.93000
C  35.44500 59.58000 40.50100
N  29.73300 59.83500 40.84700
C  30.97100 60.36900 41.05300
C  30.96200 61.91000 41.22100
C  29.46800 62.12900 41.44700
C  28.81600 60.79900 41.11700
C  32.06600 62.49500 42.23500
C  28.76500 63.24300 40.60500
C  28.54200 62.87300 39.12100
N  27.32200 58.26500 40.69400
C  26.69300 59.46500 40.87900
C  25.25300 59.18700 40.91300
C  25.10000 57.91800 40.43600
C  26.43500 57.41900 40.34100
C  24.23200 60.30200 41.15300
C  24.07800 57.00800 40.10100
O  22.82900 57.15800 40.13300
C  24.82800 55.77100 39.51100
C  24.40600 54.48800 40.19200
O  24.41000 54.23700 41.44800
O  23.69600 53.63400 39.34000
C  22.77000 52.85800 40.13400
H  31.52600 54.27800 38.81800
H  33.08700 60.15200 41.09000
H  26.80600 61.51500 41.32600
H  26.59700 53.84700 38.51300
H  29.44000 53.46300 37.80700
H  27.81200 52.40900 40.00300
H  29.21800 52.90300 40.64500
H  29.36900 51.73500 39.37000
H  28.15600 54.76400 36.04800
H  27.49700 56.06600 36.94900
H  25.37900 55.55300 36.14700
H  25.50900 53.93300 36.57000
H  33.65600 54.21400 39.61100
H  35.11900 54.96200 39.69800
H  34.01600 55.19300 38.15200
H  35.30400 59.87800 41.54000
H  35.05300 60.25000 39.73500
H  36.50700 59.69800 40.29000
H  31.27500 62.37600 40.28700
H  29.31300 62.39500 42.49200
H  32.85000 62.99000 41.66100
H  32.40500 61.65600 42.84300
H  31.43200 63.21300 42.75400
H  29.46600 64.07700 40.60600
H  27.78600 63.54300 40.97900
H  28.95900 61.92800 38.77400
H  28.99400 63.64700 38.50000
H  27.49700 62.98100 38.82800
H  24.28500 60.99000 40.30900
H  24.53900 60.81800 42.06200
H  23.21900 59.92200 41.28700
H  24.49600 55.77300 38.47300
H  22.14300 52.43600 39.34900
H  22.19900 53.46900 40.83300
H  23.27100 52.05100 40.66900

