158

Mg 35.70800 0.34600 30.20900
C  33.49300 1.78100 32.39800
C  38.10800 0.57100 32.82700
C  38.25700 -0.63500 28.08000
C  33.69700 0.86300 27.42600
N  35.74000 1.06100 32.31000
C  34.64500 1.49700 33.03800
C  34.92600 1.61000 34.49900
C  36.59800 1.67400 34.48900
C  36.87000 1.01000 33.13500
C  37.32000 3.09900 34.69000
C  34.36700 0.45500 35.32300
C  33.38500 0.83700 36.41400
H  33.59200 2.13800 37.22400
N  37.85800 -0.16000 30.47800
C  38.58100 0.00500 31.59800
C  39.97500 -0.42500 31.34800
C  39.94200 -0.98400 30.02200
C  38.66000 -0.53900 29.44100
C  41.06700 -0.45100 32.37300
C  40.98900 -1.72800 29.17700
O  40.79900 -2.13800 28.00600
C  42.26400 -2.09200 29.87300
N  36.08300 0.51100 27.97100
C  37.12400 -0.11400 27.41100
C  36.95800 -0.28700 25.89100
C  35.40300 0.10000 25.63600
C  35.03200 0.48400 27.11500
C  37.87200 0.52100 25.06000
C  34.47000 -0.97600 25.15700
C  33.43800 -0.52500 24.06500
N  33.95800 1.14000 29.87100
C  33.19200 1.20100 28.74700
C  31.85500 1.71800 29.06300
C  31.93600 1.93900 30.48200
C  33.23200 1.58600 30.94400
C  30.77200 1.87200 28.12100
C  31.26000 2.46400 31.61900
O  30.16600 2.95100 31.71500
C  32.20300 2.35000 32.88000
C  32.30400 3.61800 33.58000
O  33.05800 4.54400 33.27400
O  31.39400 3.76400 34.47800
C  31.35500 5.02800 35.29200
H  38.89600 0.56100 33.58200
H  38.81800 -1.23700 27.36100
H  32.97000 0.76700 26.61700
H  34.39900 2.49500 34.85600
H  36.99000 1.02900 35.27600
H  37.93500 3.51000 33.89000
H  37.85300 3.03000 35.63800
H  36.52500 3.81500 34.90100
H  35.13100 -0.09100 35.87600
H  33.63900 -0.09300 34.72400
H  33.47400 0.07600 37.19000
H  32.35900 0.81700 36.04800
H  41.26900 -1.52100 32.41000
H  40.66400 -0.21400 33.35800
H  41.96100 0.14200 32.18000
H  42.71100 -1.12200 30.08800
H  42.84900 -2.49200 29.04400
H  42.02600 -2.65600 30.77400
H  37.04600 -1.31100 25.52900
H  35.36600 0.98400 24.99900
H  38.82600 -0.00800 25.05300
H  37.92900 1.55500 25.40000
H  37.47400 0.49300 24.04600
H  34.04000 -1.41300 26.05700
H  35.02100 -1.82700 24.75800
H  32.46800 -0.74200 24.51200
H  33.52700 -1.17500 23.19400
H  33.29700 0.54300 23.90000
H  30.73500 0.88000 27.67200
H  31.06600 2.67500 27.44500
H  29.83400 2.06900 28.64100
H  31.74600 1.72500 33.64800
H  30.66300 5.85400 35.12900
H  32.34100 5.48300 35.38900
H  31.04600 4.66400 36.27100
Mg 35.72900 49.53600 24.99000
C  35.60600 47.87400 28.08200
C  34.45600 52.38500 26.60300
C  35.09800 50.82600 22.00300
C  37.01500 46.58900 23.60600
N  35.15900 50.03900 27.17100
C  35.25800 49.20900 28.26600
C  34.85900 49.89300 29.54500
C  34.62600 51.40200 29.06100
C  34.85000 51.34900 27.51500
C  33.38500 52.19400 29.56300
C  35.89200 49.76200 30.68300
C  35.43900 49.32400 32.14900
H  34.01000 49.54400 32.63900
N  34.77800 51.34900 24.40400
C  34.34900 52.36200 25.22500
C  33.69400 53.34600 24.46600
C  33.96500 53.05400 23.06900
C  34.65200 51.72200 23.07500
C  33.18600 54.63600 25.07400
C  33.69000 53.79700 21.78600
O  34.13700 53.45300 20.71900
C  32.85100 55.07700 21.88700
N  35.92300 48.76900 23.07100
C  35.60000 49.51500 21.96800
C  36.05300 48.75300 20.74100
C  36.93400 47.56300 21.28700
C  36.59200 47.60700 22.77200
C  34.97600 48.39400 19.69300
C  38.48500 47.61900 21.04300
C  39.17100 46.27600 20.80300
N  36.28700 47.61200 25.60300
C  36.74000 46.47600 24.94000
C  36.73100 45.32700 25.77500
C  36.29500 45.88000 27.03800
C  35.99300 47.21700 26.87200
C  36.98200 43.90900 25.45900
C  36.02300 45.48800 28.46600
O  36.07900 44.43200 29.01700
C  35.66600 46.78600 29.14100
C  34.46600 46.42900 29.90300
O  33.31400 46.41000 29.51800
O  34.86600 46.03600 31.17700
C  33.85800 45.33100 31.94800
H  34.02100 53.29200 27.02600
H  35.10800 51.35600 21.04900
H  37.46700 45.68800 23.18600
H  33.89100 49.54800 29.91000
H  35.49900 51.97400 29.37600
H  33.68300 52.94900 30.29100
H  32.73700 51.46000 30.04100
H  32.84500 52.69000 28.75700
H  36.31600 50.74100 30.90400
H  36.75500 49.11800 30.51300
H  36.13400 49.73300 32.88300
H  35.66500 48.25900 32.09900
H  33.06900 54.68100 26.15700
H  32.20200 54.74200 24.61600
H  33.69400 55.58600 24.91000
H  32.93100 55.67600 20.98000
H  33.42500 55.63400 22.62800
H  31.80700 54.88400 22.13200
H  36.81700 49.40500 20.31700
H  36.47100 46.61100 21.02900
H  34.34600 49.27300 19.55400
H  34.26000 47.66500 20.07200
H  35.44300 48.02200 18.78200
H  38.88200 48.17000 21.89600
H  38.51400 48.16800 20.10200
H  39.54200 46.18800 19.78200
H  38.53700 45.39900 20.93300
H  40.06600 46.21200 21.42200
H  36.34900 43.63800 24.61400
H  36.56800 43.40300 26.33100
H  38.02600 43.74300 25.19500
H  36.39100 47.03800 29.91500
H  32.98300 45.91600 32.23200
H  34.24500 45.09400 32.93900
H  33.54100 44.42000 31.44100

