158

Mg 26.51100 0.43000 29.71700
C  28.17200 0.16300 32.77900
C  23.63500 1.07800 31.49900
C  24.66700 0.40900 26.73700
C  29.19600 -0.99600 28.00400
N  25.99400 0.62600 31.90700
C  26.86900 0.58900 32.98500
C  26.21100 0.94100 34.27500
C  24.76600 1.35200 33.81200
C  24.78800 0.98900 32.31400
C  23.64300 0.42500 34.47800
C  26.94700 2.04800 35.10700
C  27.45700 1.80000 36.50000
H  27.21500 2.90300 37.48700
N  24.46500 0.78500 29.15400
C  23.47600 0.96700 30.06500
C  22.22800 1.16600 29.38200
C  22.53800 1.09700 28.01200
C  23.96100 0.75100 27.94100
C  20.92900 1.50700 29.98100
C  21.62300 1.29600 26.76500
O  22.00100 1.01900 25.64600
C  20.31000 1.85900 26.91000
N  26.85600 -0.21600 27.65900
C  25.99400 -0.06500 26.64800
C  26.59600 -0.27400 25.22300
C  28.06000 -0.79900 25.70200
C  28.06100 -0.70400 27.17700
C  25.87100 -1.23500 24.25400
C  29.30300 -0.10800 25.11400
C  29.28900 1.37000 25.06100
N  28.37200 -0.30900 30.26100
C  29.33800 -0.80600 29.44300
C  30.44700 -1.14500 30.26600
C  30.09000 -0.67800 31.55800
C  28.74500 -0.20000 31.52000
C  31.65000 -1.79400 29.71900
C  30.53300 -0.50900 32.92700
O  31.59300 -0.89800 33.35300
C  29.32700 0.04600 33.81200
C  29.09300 -0.95600 34.88400
O  28.37600 -1.93500 34.85300
O  29.84700 -0.61700 35.94800
C  29.94100 -1.68500 36.94000
H  22.78100 1.49200 32.03800
H  24.35000 0.42100 25.69200
H  30.03900 -1.43400 27.46500
H  26.38400 0.02000 34.83100
H  24.39400 2.36800 33.94200
H  24.09200 -0.11200 35.31400
H  23.22000 -0.33100 33.81800
H  22.81100 1.05500 34.79200
H  26.23700 2.87500 35.08200
H  27.81800 2.44800 34.58800
H  28.54400 1.75600 36.42000
H  26.85500 0.95600 36.83600
H  20.88700 1.30000 31.05000
H  20.12100 0.94800 29.50900
H  20.72200 2.55500 29.76300
H  20.03400 2.34600 25.97500
H  20.30100 2.60300 27.70700
H  19.69600 1.00700 27.20400
H  26.67800 0.71800 24.78000
H  28.18600 -1.85600 25.46500
H  24.91100 -1.47600 24.71100
H  26.44300 -2.15100 24.11000
H  25.61700 -0.82600 23.27600
H  29.25500 -0.42000 24.07100
H  30.15400 -0.59000 25.59500
H  28.60200 1.82600 25.77400
H  29.40600 1.73200 24.03900
H  30.28800 1.51100 25.47200
H  32.08500 -2.46800 30.45700
H  32.43600 -1.07500 29.48600
H  31.42100 -2.24400 28.75300
H  29.58400 0.96400 34.34100
H  29.33100 -1.53500 37.83100
H  30.93300 -1.63700 37.38800
H  29.78100 -2.67900 36.52100
Mg 41.51300 8.67900 30.19600
C  43.71900 10.27000 32.49800
C  39.68600 7.47000 32.90400
C  39.80300 6.61700 28.07200
C  43.89400 9.20700 27.78800
N  41.59400 9.05300 32.50200
C  42.49000 9.83500 33.16800
C  42.24700 9.72400 34.66200
C  41.07900 8.61700 34.78000
C  40.77200 8.31000 33.32600
C  41.59300 7.43800 35.67500
C  41.87100 11.12700 35.28400
C  42.47100 11.37100 36.67800
H  41.34800 11.31300 37.83700
N  39.90800 7.35700 30.40700
C  39.26000 7.02700 31.60100
C  38.14500 6.16800 31.34500
C  38.18400 5.94800 29.86900
C  39.33300 6.67800 29.39300
C  37.22700 5.68000 32.39900
C  37.30000 5.04400 28.99500
O  37.44900 4.89500 27.77400
C  36.22200 4.31800 29.70300
N  41.78900 7.93600 28.26100
C  40.94000 7.22200 27.50900
C  41.40800 7.12300 26.05900
C  42.78600 7.77700 26.04600
C  42.80200 8.45400 27.40400
C  41.39600 5.67600 25.55700
C  42.94400 8.81200 24.89500
C  42.43600 10.25400 25.14600
N  43.29100 9.80300 30.05500
C  44.17700 9.89200 28.99500
C  45.34700 10.58700 29.38700
C  45.25300 10.73000 30.80800
C  43.97100 10.20000 31.16500
C  46.49900 10.95800 28.51000
C  45.91700 11.20700 31.99700
O  47.04600 11.63600 32.06200
C  44.96100 10.90200 33.20000
C  45.54400 9.82600 33.97700
O  45.82500 8.71400 33.62700
O  45.67400 10.30000 35.30000
C  45.90100 9.18400 36.17000
H  38.98800 7.10200 33.65900
H  39.13600 6.16000 27.33800
H  44.68000 9.24000 27.03100
H  43.14800 9.24000 35.04000
H  40.16900 9.09700 35.13800
H  42.26500 7.88100 36.41000
H  42.08400 6.70200 35.03800
H  40.87300 7.02400 36.38000
H  40.79600 11.25000 35.41500
H  42.26700 11.94900 34.68800
H  42.93400 12.35600 36.60700
H  43.16500 10.56400 36.91100
H  36.19000 5.91900 32.16200
H  37.45100 6.08500 33.38600
H  37.40500 4.60900 32.48500
H  35.54100 5.03700 30.15800
H  36.82900 3.83500 30.47000
H  35.77100 3.57000 29.05100
H  40.72700 7.73000 25.46300
H  43.60700 7.06700 25.94400
H  41.04300 5.00800 26.34300
H  42.33000 5.35300 25.09700
H  40.74800 5.66800 24.68100
H  42.53800 8.50700 23.93000
H  44.01200 8.88300 24.68800
H  43.27900 10.91100 25.35800
H  41.75900 10.26300 26.00000
H  41.74600 10.57700 24.36800
H  47.10500 11.62300 29.12600
H  46.03000 11.42900 27.64600
H  47.01300 9.99900 28.45300
H  44.78400 11.84800 33.71000
H  46.86700 8.70100 36.01700
H  45.14200 8.42300 35.98900
H  45.72000 9.32200 37.23600

