158

Mg 49.41700 46.85500 43.18000
C  46.18300 47.44100 42.15700
C  49.22800 43.96400 41.16400
C  52.69300 46.39800 43.56000
C  49.66600 49.97900 44.36500
N  47.90900 45.81700 41.86600
C  46.68500 46.32900 41.55000
C  46.02300 45.53200 40.44200
C  46.94600 44.29600 40.19200
C  48.13600 44.72500 41.11900
C  46.25600 42.85700 40.40700
C  45.65300 46.23200 39.19000
C  44.23100 45.92700 38.64800
H  44.15000 45.82000 37.08500
N  50.82300 45.29100 42.64300
C  50.46300 44.17200 41.85500
C  51.65900 43.25500 41.86000
C  52.65700 43.91500 42.69500
C  52.05100 45.22700 43.06900
C  51.83100 41.90300 41.14400
C  53.98700 43.39400 43.09500
O  54.38300 42.25700 42.72400
C  54.82500 44.01800 44.27100
N  50.94000 48.04200 43.95800
C  52.21700 47.64300 43.97700
C  53.20300 48.70700 44.59700
C  52.18100 49.77200 44.96800
C  50.81200 49.23200 44.41800
C  54.23100 48.32800 45.63000
C  52.56400 51.21100 44.34600
C  52.53700 52.27200 45.41200
N  48.22400 48.39000 43.39200
C  48.42000 49.60800 43.91700
C  47.13300 50.35600 43.95300
C  46.22500 49.46200 43.35800
C  46.93000 48.29600 42.98600
C  46.87100 51.79500 44.51400
C  44.90100 49.35900 42.94900
O  44.01300 50.19200 43.03100
C  44.77900 48.02700 42.13600
C  43.78600 47.03700 42.76300
O  43.79900 46.78900 43.96700
O  42.87400 46.68300 41.77100
C  41.80300 45.83300 42.35100
H  49.32200 43.14200 40.45100
H  53.72800 46.16400 43.81700
H  49.75600 51.00800 44.72100
H  45.07300 45.25200 40.89700
H  47.37100 44.30600 39.18800
H  45.31900 42.86300 40.96400
H  47.05400 42.32600 40.92500
H  46.08800 42.47400 39.40000
H  46.39900 46.07600 38.41000
H  45.86500 47.29100 39.33300
H  43.58100 46.71200 39.03600
H  43.90200 44.98200 39.07900
H  52.54800 42.02200 40.33200
H  50.89900 41.55100 40.70200
H  52.19700 41.14000 41.83000
H  55.41700 43.21300 44.70600
H  54.19900 44.32600 45.10800
H  55.41200 44.87900 43.95300
H  53.74400 48.91000 43.67300
H  52.05000 49.77200 46.05100
H  54.40700 49.07500 46.40400
H  55.18100 48.06400 45.16600
H  53.76900 47.46800 46.11300
H  51.94000 51.49700 43.49900
H  53.61300 51.19100 44.04900
H  51.73800 52.90400 45.02400
H  53.53900 52.69900 45.37200
H  52.32400 51.95900 46.43400
H  45.92700 51.86500 45.05500
H  46.83400 52.60400 43.78400
H  47.64800 52.07500 45.22500
H  44.48400 48.29400 41.12100
H  41.28000 46.36500 43.14600
H  42.29800 44.99300 42.83800
H  41.10400 45.37600 41.65100
Mg 30.11100 58.58200 40.01300
C  27.29700 56.41400 39.19200
C  32.29100 56.06200 39.16600
C  32.52500 60.83100 40.31600
C  27.77600 61.10600 40.32100
N  29.83600 56.51100 39.39900
C  28.63500 55.80900 39.23300
C  28.87300 54.36400 38.76400
C  30.44100 54.30600 38.68200
C  30.91600 55.69900 39.13000
C  30.94400 53.14700 39.40300
C  28.07600 53.79300 37.45100
C  28.15900 54.85800 36.29900
H  29.20000 54.67100 35.12700
N  32.21000 58.42700 39.77100
C  32.86200 57.30900 39.46000
C  34.25400 57.66100 39.49200
C  34.43700 58.95800 40.03500
C  33.01600 59.52200 40.07600
C  35.42500 56.73700 39.16400
C  35.60800 59.74900 40.46100
O  36.71200 59.30200 40.31800
C  35.51600 61.00100 41.21000
N  30.14600 60.74500 40.10900
C  31.24000 61.39200 40.37000
C  31.00700 62.88200 40.69700
C  29.46500 62.99100 40.77100
C  29.10200 61.50200 40.44500
C  31.69800 63.32100 42.05600
C  28.90700 63.91200 39.64500
C  28.43900 65.33600 40.10100
N  27.93300 58.83300 39.73600
C  27.16400 59.93200 39.91100
C  25.78800 59.55100 39.71200
C  25.87200 58.20300 39.33000
C  27.14500 57.78900 39.51000
C  24.62200 60.47600 39.76800
C  25.01500 57.11700 38.90500
O  23.77800 57.05400 38.72100
C  25.95300 55.91400 38.85300
C  25.53900 54.68600 39.54400
O  25.96000 54.28300 40.59100
O  24.62400 53.90600 38.74100
C  24.37700 52.55300 39.25300
H  33.00300 55.25000 39.00600
H  33.26600 61.61300 40.49500
H  27.04200 61.86400 40.60300
H  28.36500 53.90800 39.61300
H  30.68800 54.23100 37.62300
H  31.61500 53.38800 40.22600
H  31.54700 52.60700 38.67300
H  30.09100 52.63800 39.85100
H  27.10300 53.35900 37.68200
H  28.81800 53.01500 37.26800
H  28.38800 55.82400 36.74800
H  27.12800 54.95400 35.95700
H  36.22600 57.15300 38.55400
H  35.11300 55.91900 38.51500
H  35.86300 56.36400 40.09000
H  35.49200 61.76300 40.43000
H  36.48200 61.18500 41.68000
H  34.84100 61.03300 42.06600
H  31.36600 63.47400 39.85500
H  29.11200 63.34100 41.74200
H  30.94800 63.75700 42.71500
H  32.38300 64.13500 41.81800
H  32.11200 62.45300 42.56900
H  28.11700 63.37600 39.11900
H  29.65600 64.27400 38.94000
H  28.46800 65.39000 41.18900
H  27.41100 65.54800 39.80900
H  29.07000 66.12800 39.69700
H  23.74100 59.98100 40.17700
H  24.51300 60.80400 38.73400
H  24.75100 61.38900 40.35000
H  25.94400 55.74800 37.77600
H  24.17200 52.40000 40.31300
H  25.05000 51.76100 38.92400
H  23.49400 52.27800 38.67700

