158

Mg 1.13000 7.79100 26.29400
C  1.70500 9.81100 29.22900
C  1.17000 5.09500 28.32900
C  1.10200 6.00800 23.46100
C  1.39200 10.78900 24.32000
N  1.42500 7.54800 28.51900
C  1.47000 8.47500 29.53900
C  1.20700 7.79000 30.88300
C  1.47400 6.25400 30.58300
C  1.33800 6.24700 29.02700
C  2.83600 5.65200 31.08900
C  -0.21600 8.07300 31.57600
C  -0.31400 8.28200 33.07900
H  0.75700 7.67900 33.97400
N  1.15000 5.81800 25.97900
C  1.20400 4.87400 26.93200
C  1.16700 3.55500 26.33400
C  1.05600 3.77200 24.92300
C  1.05100 5.29100 24.70800
C  1.10600 2.24200 27.10400
C  0.81700 2.75700 23.81000
O  0.68300 3.05800 22.62600
C  0.91900 1.26000 24.10800
N  0.96500 8.39100 24.19700
C  1.12100 7.45000 23.27400
C  1.30600 8.08400 21.84300
C  1.22600 9.61400 22.12200
C  1.26800 9.60900 23.66100
C  2.62400 7.69500 21.11400
C  -0.03800 10.27600 21.60800
C  0.01300 11.76800 21.36200
N  1.45600 9.84800 26.65200
C  1.50900 10.91400 25.70600
C  1.69000 12.15400 26.44900
C  1.90500 11.76800 27.76800
C  1.66700 10.33400 27.91700
C  1.80700 13.49200 25.80300
C  2.15300 12.32700 29.11800
O  2.51700 13.44300 29.47500
C  1.96300 11.13900 30.08900
C  3.08400 11.14600 31.13600
O  4.28200 10.75500 30.98200
O  2.64800 11.64400 32.28100
C  3.43500 11.32700 33.46700
H  1.10000 4.27400 29.04500
H  1.07400 5.43400 22.53300
H  1.30900 11.73100 23.77500
H  1.99800 8.02400 31.59500
H  0.78200 5.66600 31.18600
H  3.36600 5.36000 30.18200
H  2.68200 4.78700 31.73400
H  3.39400 6.42600 31.61600
H  -0.83600 7.19800 31.37900
H  -0.71600 8.95300 31.17000
H  -1.23600 7.81600 33.42600
H  -0.31800 9.30900 33.44200
H  0.08700 1.89800 27.27900
H  1.53900 2.40600 28.09100
H  1.78800 1.49600 26.69700
H  1.90800 1.07700 24.52800
H  0.74500 0.60700 23.25300
H  0.13000 1.06700 24.83600
H  0.49000 7.81900 21.17100
H  2.04100 10.20800 21.70800
H  3.36000 8.48900 21.23600
H  2.39300 7.52500 20.06200
H  2.88700 6.81500 21.70000
H  -0.89700 10.14300 22.26600
H  -0.28600 9.82000 20.65000
H  0.96900 12.22400 21.61800
H  -0.77600 12.23200 21.95400
H  -0.04400 11.97900 20.29400
H  2.65000 13.60700 25.12200
H  1.97400 14.18000 26.63200
H  0.90100 13.85500 25.31800
H  1.07100 11.55100 30.56000
H  2.87600 11.77800 34.28700
H  4.42500 11.78300 33.48000
H  3.66100 10.26100 33.47900
Mg 35.91300 2.04100 30.52900
C  33.24900 3.11000 32.59400
C  38.04800 2.73000 33.10900
C  38.40500 1.02100 28.44900
C  33.61000 2.05100 27.78800
N  35.65400 2.80200 32.60600
C  34.46600 3.15800 33.28000
C  34.70300 3.26700 34.84000
C  36.25100 3.31300 34.89400
C  36.71400 2.92000 33.46400
C  36.89600 4.69100 35.35800
C  34.09000 2.10300 35.63200
C  33.80700 2.24900 37.11300
H  34.21000 3.57800 37.76000
N  37.91100 1.86800 30.72100
C  38.59300 2.09200 31.91400
C  39.90400 1.57100 31.76400
C  40.08700 1.20500 30.36300
C  38.77300 1.39900 29.76500
C  40.96900 1.50400 32.85900
C  41.29400 0.70900 29.65200
O  41.29700 0.66200 28.43700
C  42.71700 0.41200 30.32900
N  36.02200 1.60500 28.48300
C  37.16600 1.11900 27.86900
C  36.81200 0.74500 26.39900
C  35.34500 1.10900 26.21100
C  34.91800 1.60900 27.60600
C  37.76300 1.24800 25.30800
C  34.42600 -0.14100 25.76600
C  33.21400 0.11200 24.89400
N  33.75900 2.43000 30.20500
C  33.02300 2.43600 29.03400
C  31.56300 2.77200 29.37500
C  31.68100 3.02700 30.73300
C  33.01200 2.90800 31.18800
C  30.30000 2.78900 28.47000
C  30.88500 3.33900 31.94500
O  29.68800 3.51900 32.11400
C  31.89400 3.42300 33.08300
C  31.74400 4.75600 33.72200
O  32.19600 5.86000 33.34400
O  31.17900 4.49200 34.95200
C  30.88900 5.69700 35.71400
H  38.77200 2.74000 33.92600
H  39.19000 0.74300 27.74300
H  33.14900 2.18900 26.80800
H  34.39200 4.23500 35.23200
H  36.56300 2.45300 35.48600
H  36.13500 5.44100 35.57500
H  37.50000 5.12700 34.56100
H  37.66000 4.59400 36.12900
H  34.71500 1.22500 35.46700
H  33.10500 2.04300 35.16800
H  34.27500 1.46100 37.70400
H  32.74600 2.00700 37.17500
H  41.54300 0.57900 32.90800
H  40.50600 1.90000 33.76300
H  41.71100 2.25700 32.59300
H  43.39400 0.46800 29.47600
H  42.66000 -0.53600 30.86300
H  43.04500 1.19700 31.01100
H  36.84800 -0.33500 26.53900
H  35.21100 1.97600 25.56500
H  38.73900 1.68100 25.52500
H  37.17900 1.96100 24.72600
H  38.02800 0.39900 24.67800
H  34.06000 -0.67700 26.64100
H  35.09100 -0.77100 25.17600
H  33.39800 -0.37400 23.93500
H  32.95200 1.15500 24.71600
H  32.36800 -0.38900 25.36500
H  30.11500 1.84300 27.96100
H  30.36500 3.59300 27.73700
H  29.45500 2.99000 29.12900
H  31.61100 2.64600 33.79400
H  31.71200 6.41100 35.73300
H  30.63400 5.53300 36.76100
H  29.96700 6.11000 35.30500

