158

Mg 1.74400 -3.42000 44.39700
C  5.17500 -2.78500 44.13200
C  0.97700 -0.90100 42.27800
C  -1.42200 -4.67300 44.10900
C  2.74300 -6.41600 46.15700
N  2.98800 -2.08200 43.28700
C  4.36000 -1.91100 43.38700
C  4.76700 -0.70200 42.39900
C  3.38100 0.00900 42.24400
C  2.34900 -1.05900 42.58200
C  3.28900 1.40300 43.05200
C  5.46900 -1.32300 41.07000
C  7.03500 -1.08000 40.97300
H  7.53100 -0.58800 39.59900
N  -0.04000 -2.78400 43.48200
C  -0.15700 -1.71200 42.61900
C  -1.54700 -1.53200 42.14200
C  -2.30400 -2.54700 42.73600
C  -1.24600 -3.40300 43.51300
C  -1.93900 -0.47000 41.19900
C  -3.76200 -2.81500 42.52500
O  -4.40700 -2.05700 41.84800
C  -4.49000 -3.87800 43.17700
N  0.82600 -5.31700 44.94500
C  -0.54900 -5.41900 44.89800
C  -1.06100 -6.55200 45.74600
C  0.26300 -7.19600 46.37400
C  1.36200 -6.24000 45.81100
C  -2.14800 -6.32700 46.88200
C  0.58700 -8.67200 45.85900
C  0.99400 -9.69500 46.94100
N  3.62100 -4.49000 45.04500
C  3.82600 -5.57800 45.75900
C  5.22000 -5.78400 45.90200
C  5.79000 -4.60700 45.35400
C  4.75000 -3.89800 44.80200
C  5.87700 -6.94400 46.67300
C  7.03200 -3.96400 45.21000
O  8.16700 -4.15000 45.59800
C  6.71200 -2.71400 44.25500
C  7.12200 -1.51200 44.90300
O  8.19200 -0.92800 44.59800
O  6.24900 -0.95800 45.84900
C  6.77100 0.27200 46.46000
H  0.63400 0.02400 41.81100
H  -2.44000 -5.06900 44.10500
H  3.02600 -7.29900 46.73500
H  5.45400 0.05000 42.78600
H  3.32000 0.27500 41.18900
H  3.44900 2.19000 42.31500
H  4.05200 1.51300 43.82200
H  2.35600 1.36200 43.61300
H  4.92600 -0.98300 40.18700
H  5.21500 -2.38000 41.15500
H  7.52400 -2.04400 41.11400
H  7.46400 -0.44500 41.74800
H  -1.67200 -0.66900 40.16100
H  -1.46000 0.43300 41.57600
H  -2.97700 -0.14900 41.27900
H  -4.36600 -3.80400 44.25700
H  -4.09900 -4.82900 42.81300
H  -5.55600 -3.80900 42.96100
H  -1.53700 -7.20600 45.01500
H  0.28600 -7.13200 47.46100
H  -1.85200 -5.48900 47.51200
H  -2.50200 -7.11900 47.54100
H  -2.99500 -6.06800 46.24500
H  1.27900 -8.69700 45.01800
H  -0.36500 -8.96000 45.41400
H  0.71300 -9.33300 47.93000
H  2.05400 -9.93200 46.85700
H  0.58500 -10.69400 46.78700
H  6.91500 -6.90600 46.34400
H  5.37900 -7.87700 46.40900
H  5.71000 -6.58400 47.68800
H  7.17200 -2.71500 43.26700
H  6.20400 0.75000 47.25900
H  6.82700 1.08300 45.73300
H  7.81400 0.20000 46.76900
Mg 34.88100 3.68500 30.38300
C  32.76200 4.80500 32.91700
C  37.47000 3.87200 32.72200
C  37.02800 2.98200 28.03200
C  32.35500 4.02300 28.06700
N  34.98700 4.17800 32.56500
C  34.03100 4.57800 33.40200
C  34.47500 4.60400 34.81400
C  36.04900 4.58600 34.72300
C  36.18200 4.24500 33.24800
C  36.74700 5.90400 35.09400
C  33.88100 3.40000 35.56200
C  33.74500 3.51200 37.09400
H  34.32400 4.61900 37.94100
N  36.88700 3.24500 30.39600
C  37.74300 3.35600 31.44700
C  39.03400 2.82900 31.04700
C  38.96500 2.46800 29.68100
C  37.58900 2.94600 29.27600
C  40.30300 2.72800 31.91900
C  39.92300 1.71100 28.78500
O  39.62800 1.44700 27.60800
C  41.35300 1.46500 29.16200
N  34.71800 3.79100 28.34500
C  35.81900 3.42500 27.60600
C  35.46000 3.55700 26.05800
C  33.91600 3.66000 26.13400
C  33.61300 3.78800 27.59600
C  36.05600 4.83000 25.32200
C  33.23100 2.45100 25.39600
C  32.90600 1.18300 26.22600
N  32.92300 4.36500 30.45300
C  31.94400 4.38300 29.45300
C  30.59100 4.73200 30.05700
C  30.88500 4.93200 31.44200
C  32.31800 4.75300 31.62200
C  29.37100 4.96300 29.33200
C  30.35100 5.35000 32.67500
O  29.26700 5.72300 33.02600
C  31.48400 5.18500 33.69800
C  31.69900 6.38500 34.58400
O  32.39500 7.34500 34.32600
O  30.99600 6.22600 35.77600
C  30.75000 7.38600 36.60300
H  38.23300 4.10800 33.46800
H  37.71800 2.88100 27.19200
H  31.64100 4.18500 27.25600
H  34.09100 5.48200 35.33500
H  36.37700 3.79800 35.40100
H  37.24000 5.82400 36.06300
H  35.96400 6.65500 35.19100
H  37.42600 6.22400 34.30300
H  34.54500 2.53800 35.49500
H  32.94100 3.06300 35.12500
H  34.11200 2.59800 37.56100
H  32.67400 3.56000 37.29000
H  40.68600 1.72200 32.09300
H  40.21200 2.98000 32.97600
H  41.01000 3.34300 31.36100
H  41.82800 0.89900 28.36100
H  41.42800 0.79900 30.02100
H  41.85700 2.41700 29.32600
H  35.73400 2.73000 25.40300
H  33.58600 4.59800 25.68800
H  36.40500 5.61400 25.99300
H  35.32900 5.29000 24.65200
H  36.91400 4.42900 24.78300
H  33.84000 2.17100 24.53600
H  32.33000 2.83600 24.92000
H  31.83700 0.97000 26.23900
H  33.31100 1.16300 27.23800
H  33.40100 0.43300 25.60900
H  28.90100 5.70700 29.97600
H  28.74500 4.09500 29.12300
H  29.56300 5.36700 28.33800
H  31.18600 4.36000 34.34500
H  29.81000 7.13000 37.09200
H  30.62900 8.26800 35.97400
H  31.57300 7.52500 37.30300

