158

Mg 26.82700 50.66100 27.52100
C  24.61200 51.84600 29.92000
C  28.88500 49.68000 29.94000
C  28.87300 49.72200 25.09000
C  24.57300 52.03200 25.11200
N  26.69300 50.72500 29.61500
C  25.74300 51.29500 30.46000
C  26.00400 51.05200 31.90000
C  27.51200 50.49700 31.88700
C  27.71700 50.27200 30.37500
C  28.62700 51.48900 32.36700
C  25.07600 49.97200 32.54100
C  24.44700 50.34500 33.90400
H  25.42200 50.93700 35.01100
N  28.61000 49.86300 27.46500
C  29.30600 49.51300 28.61300
C  30.60700 48.98600 28.27000
C  30.71700 49.12300 26.85600
C  29.35700 49.56400 26.38400
C  31.60400 48.52700 29.21100
C  31.88500 48.77200 25.91300
O  31.80400 48.76000 24.67500
C  33.21400 48.27500 26.34100
N  26.76100 50.84400 25.31800
C  27.69400 50.32200 24.57200
C  27.26200 50.31200 23.14100
C  25.84700 50.91000 23.16900
C  25.71200 51.32000 24.62700
C  28.21000 51.07600 22.10400
C  24.71500 49.86800 22.84700
C  23.52900 50.40900 22.07000
N  24.97000 51.80400 27.44600
C  24.19100 52.36100 26.41600
C  23.08700 53.04800 26.94500
C  23.17200 52.91100 28.31200
C  24.35200 52.15400 28.57500
C  22.01300 53.72700 26.26500
C  22.56400 53.24600 29.55500
O  21.59600 53.95500 29.72000
C  23.52300 52.66900 30.69700
C  23.92700 53.86300 31.58300
O  24.94200 54.52400 31.33600
O  23.04700 54.02100 32.60400
C  23.46200 54.90400 33.70500
H  29.42300 49.26600 30.79600
H  29.55000 49.41800 24.28900
H  23.97700 52.34100 24.25100
H  25.85300 51.96700 32.47300
H  27.61800 49.54300 32.40400
H  29.29400 51.73700 31.54200
H  29.20000 50.97000 33.13500
H  28.27900 52.42700 32.79800
H  25.66300 49.06400 32.67800
H  24.26800 49.70800 31.85800
H  23.84500 49.49900 34.23700
H  23.76000 51.14100 33.61500
H  31.75000 47.44700 29.19600
H  31.36100 48.70500 30.25800
H  32.54800 49.07100 29.21300
H  33.62700 47.79400 25.45400
H  32.90300 47.40600 26.92100
H  33.59600 49.19200 26.79100
H  27.22300 49.24700 22.91100
H  25.78400 51.85600 22.63100
H  29.10100 51.55500 22.51200
H  27.65700 51.75900 21.46000
H  28.59000 50.27300 21.47200
H  24.40300 49.38800 23.77500
H  25.11500 49.00700 22.31000
H  22.55400 50.46200 22.55500
H  23.49200 49.63300 21.30600
H  23.69800 51.35600 21.55800
H  22.32700 54.09300 25.28700
H  21.69700 54.53700 26.92200
H  21.19200 53.02000 26.14900
H  22.90000 52.01800 31.31000
H  23.47800 55.93700 33.35800
H  24.40200 54.60400 34.16900
H  22.79700 54.85800 34.56800
Mg -1.24000 34.35000 25.77200
C  -2.97100 32.76900 28.33800
C  -0.19000 36.71100 27.98900
C  0.01900 36.01000 23.14100
C  -2.76100 32.06300 23.48700
N  -1.61600 34.71000 27.87700
C  -2.17900 33.84600 28.74400
C  -1.95700 34.29300 30.22300
C  -1.07900 35.61500 30.08400
C  -0.94200 35.67600 28.52200
C  -1.67700 36.86800 30.76100
C  -1.32800 33.33900 31.25700
C  -1.95900 33.31000 32.62700
H  -1.19000 32.57700 33.72300
N  -0.03000 36.01600 25.64000
C  0.18700 36.93300 26.61900
C  0.91700 38.02300 26.06200
C  1.09600 37.76100 24.64800
C  0.36700 36.51300 24.44300
C  1.53100 39.14600 26.91000
C  1.71400 38.64400 23.55900
O  1.62100 38.45800 22.39100
C  2.37000 39.88700 23.95400
N  -1.35300 34.08500 23.56700
C  -0.66700 34.85600 22.78500
C  -0.87300 34.39800 21.28500
C  -1.41900 32.94500 21.47300
C  -1.86700 32.99300 22.93200
C  -1.70800 35.24700 20.33500
C  -0.39300 31.71300 21.20500
C  0.26400 31.10300 22.51800
N  -2.57200 32.79300 25.86200
C  -3.04000 31.91500 24.87100
C  -3.91000 30.90800 25.39300
C  -3.90100 31.24700 26.75000
C  -3.01000 32.30900 26.97400
C  -4.80700 29.92800 24.65900
C  -4.52100 30.94700 27.97800
O  -5.34700 30.07200 28.21800
C  -3.86400 31.86000 29.10400
C  -4.91900 32.52000 29.96800
O  -5.53700 33.46700 29.56500
O  -5.04200 31.99100 31.23000
C  -5.97500 32.62300 32.16600
H  0.21100 37.42300 28.71400
H  0.44500 36.50200 22.26400
H  -3.11200 31.21700 22.89300
H  -2.92900 34.43500 30.69600
H  -0.03300 35.66100 30.38400
H  -2.32400 36.59900 31.59600
H  -2.14900 37.58200 30.08600
H  -0.93600 37.48700 31.26700
H  -0.29800 33.59700 31.50600
H  -1.22200 32.32600 30.87100
H  -2.91000 32.79500 32.49100
H  -2.12200 34.30500 33.04300
H  2.61600 39.09700 26.82000
H  1.34400 38.91000 27.95800
H  1.09300 40.10800 26.64500
H  1.63300 40.49200 24.48200
H  2.59800 40.47900 23.06700
H  3.31800 39.71100 24.46200
H  0.11000 34.35300 20.81700
H  -2.19700 32.87300 20.71300
H  -2.73800 34.91900 20.19500
H  -1.31500 35.37800 19.32700
H  -1.86400 36.24600 20.74300
H  0.34800 32.11300 20.51300
H  -0.87000 30.87900 20.69100
H  -0.02500 31.65900 23.41000
H  1.34800 31.21700 22.50200
H  0.04300 30.03600 22.52900
H  -4.32900 29.68400 23.71100
H  -5.71400 30.46000 24.37500
H  -4.93400 28.98700 25.19500
H  -3.13100 31.34200 29.72300
H  -6.64900 33.33300 31.68600
H  -5.45500 33.06100 33.01800
H  -6.52200 31.74100 32.49800

