158

Mg 36.30100 49.63400 24.47800
C  36.35900 47.99400 27.57300
C  34.88900 52.32500 26.01500
C  35.84200 50.93000 21.39600
C  37.41300 46.65000 22.96600
N  35.54300 49.97000 26.57900
C  35.82200 49.22900 27.68800
C  35.15400 49.93700 28.89400
C  34.71100 51.38600 28.37100
C  35.13200 51.21200 26.88700
C  33.24500 52.01100 28.71200
C  36.05100 49.89500 30.20100
C  35.39000 49.11300 31.25400
H  35.10300 49.83800 32.59800
N  35.55400 51.44200 23.80700
C  35.06500 52.44100 24.65300
C  34.76000 53.58200 23.76500
C  34.96300 53.21800 22.40200
C  35.44900 51.79800 22.47800
C  34.11200 54.85300 24.29900
C  34.84400 54.08300 21.13900
O  35.11300 53.73100 19.98400
C  34.63000 55.55100 21.34500
N  36.66300 48.86100 22.45200
C  36.34800 49.60500 21.37000
C  36.51500 48.76000 20.12900
C  37.18400 47.44800 20.64300
C  37.09200 47.62000 22.10400
C  35.15900 48.54700 19.39200
C  38.61500 47.20300 20.18800
C  38.63100 46.33900 18.91000
N  36.78500 47.66100 25.05300
C  37.23400 46.64400 24.37500
C  37.59300 45.52600 25.27300
C  37.35500 46.11100 26.55300
C  36.77900 47.39300 26.33500
C  38.29100 44.21300 24.87300
C  37.44500 45.79600 27.96300
O  37.72500 44.74800 28.50700
C  36.56400 46.88000 28.61100
C  35.31400 46.30100 29.05000
O  34.41900 45.99500 28.27000
O  35.41700 45.94700 30.35600
C  34.33400 45.14000 30.90700
H  34.47500 53.15200 26.59500
H  35.69700 51.38000 20.41200
H  37.81800 45.75500 22.48800
H  34.26600 49.32600 29.05600
H  35.39700 52.18300 28.65600
H  33.45200 52.84000 29.38900
H  32.76800 51.23500 29.31000
H  32.55800 52.21000 27.88900
H  36.28800 50.86200 30.64400
H  36.99700 49.49700 29.83400
H  36.13000 48.34100 31.46400
H  34.52000 48.54200 30.93000
H  34.10000 54.89000 25.38800
H  33.14100 54.90400 23.80700
H  34.71200 55.71900 24.01800
H  33.61400 55.73100 21.69800
H  34.77000 56.05300 20.38700
H  35.40300 55.92600 22.01500
H  37.25000 49.19700 19.45300
H  36.55400 46.57300 20.48800
H  34.45300 49.33500 19.65200
H  34.65700 47.58000 19.43300
H  35.29000 48.76100 18.33100
H  39.08300 46.57100 20.94200
H  39.22100 48.06200 19.89800
H  37.71800 46.26700 18.32000
H  38.74100 45.35600 19.36800
H  39.56900 46.43800 18.36300
H  39.21300 44.29400 24.29600
H  37.62600 43.48900 24.40300
H  38.74500 43.94300 25.82700
H  37.04100 47.39200 29.44700
H  34.35500 44.13600 30.48200
H  33.31800 45.53100 30.85800
H  34.54800 45.08700 31.97500
Mg -5.70900 25.13900 26.34500
C  -4.39300 26.63000 29.28300
C  -7.52600 22.99300 28.17400
C  -7.07400 23.90500 23.56500
C  -3.71000 27.32500 24.53200
N  -5.90800 24.93700 28.49400
C  -5.34200 25.61400 29.53000
C  -5.95100 25.10300 30.93300
C  -6.51800 23.73400 30.49700
C  -6.64900 23.86600 28.96100
C  -5.53100 22.59700 30.92000
C  -7.06200 26.04600 31.49300
C  -7.56000 25.78400 32.89800
H  -6.68200 24.81700 33.83000
N  -7.20400 23.69800 25.86600
C  -7.78900 22.87600 26.79700
C  -8.75500 22.00100 26.12300
C  -8.56500 22.21000 24.72400
C  -7.57300 23.28400 24.62400
C  -9.74800 21.10600 26.87000
C  -9.26800 21.50700 23.57500
O  -8.93000 21.73900 22.41000
C  -10.42600 20.45300 23.79300
N  -5.42300 25.56700 24.37500
C  -6.13500 24.91600 23.33900
C  -5.62400 25.44200 21.95900
C  -4.72200 26.64200 22.33500
C  -4.63800 26.53800 23.84500
C  -4.93900 24.28900 21.09400
C  -5.24500 27.91300 21.78100
C  -5.16000 28.13700 20.20700
N  -4.18200 26.63700 26.77800
C  -3.43300 27.40100 25.89900
C  -2.37500 28.13200 26.68200
C  -2.79000 27.88100 28.03300
C  -3.89400 26.98700 28.04700
C  -1.40400 29.17000 26.17700
C  -2.61700 28.30400 29.43600
O  -1.88900 29.15400 29.89800
C  -3.64300 27.47100 30.26900
C  -2.88300 26.68700 31.29300
O  -2.46600 25.54700 31.20500
O  -2.87100 27.42400 32.52600
C  -2.06200 26.80200 33.53200
H  -8.06400 22.41700 28.93000
H  -7.50800 23.57500 22.61900
H  -3.00500 27.84700 23.88000
H  -5.15900 24.92900 31.66100
H  -7.42700 23.58400 31.07900
H  -4.47100 22.85100 30.90400
H  -5.68600 21.77800 30.21800
H  -5.75500 22.40500 31.96900
H  -7.83800 26.04400 30.72800
H  -6.66700 27.05800 31.41000
H  -8.55700 25.34400 32.88800
H  -7.57800 26.71600 33.46200
H  -9.56800 20.03400 26.78700
H  -10.80000 21.11100 26.58200
H  -9.71100 21.50700 27.88200
H  -10.75600 19.94700 22.88600
H  -11.31000 20.96700 24.17000
H  -10.11900 19.69600 24.51500
H  -6.52500 25.80000 21.46100
H  -3.72000 26.44000 21.95400
H  -5.39600 24.13500 20.11700
H  -5.24100 23.36600 21.58800
H  -3.86300 24.34900 20.93100
H  -4.60600 28.73700 22.09800
H  -6.25800 28.12200 22.12400
H  -4.90600 27.20500 19.70200
H  -4.52300 28.99500 19.99400
H  -6.15600 28.47200 19.91500
H  -1.97700 29.95700 25.68900
H  -0.57400 28.80000 25.57500
H  -0.78700 29.67800 26.91800
H  -4.42200 28.05800 30.75700
H  -2.50300 25.84300 33.80500
H  -2.04900 27.47600 34.38900
H  -1.03400 26.69000 33.19000

