158

Mg 24.92400 -5.83500 46.30400
C  26.33800 -2.85700 44.85800
C  22.16700 -5.30000 44.30100
C  24.00600 -8.85300 47.09600
C  27.98800 -6.26700 47.89600
N  24.37500 -4.22500 44.67600
C  25.06300 -3.15300 44.32600
C  24.37700 -2.45000 43.23600
C  22.90600 -3.03500 43.31200
C  23.11700 -4.24400 44.14300
C  21.86500 -2.03800 43.97500
C  25.07700 -2.73900 41.86400
C  25.21000 -1.54600 40.97000
H  24.99000 -1.65100 39.44200
N  23.25600 -6.86700 45.90600
C  22.25000 -6.50200 45.02300
C  21.25400 -7.55200 44.96500
C  21.76300 -8.63800 45.69200
C  23.11400 -8.21400 46.18700
C  19.86100 -7.50500 44.19100
C  21.09100 -9.99500 45.94500
O  19.96200 -10.04300 45.62100
C  21.93500 -11.23400 46.44600
N  25.89000 -7.26800 47.33200
C  25.22200 -8.40600 47.55100
C  26.07500 -9.23500 48.61700
C  27.34800 -8.39100 48.83200
C  27.07900 -7.24800 47.96800
C  25.32700 -9.78900 49.89400
C  28.64900 -9.20700 48.49400
C  29.61200 -9.38200 49.65900
N  26.78800 -4.70400 46.43100
C  27.93400 -5.03800 47.15100
C  28.95500 -4.05400 47.00500
C  28.32900 -3.17100 46.02800
C  27.05700 -3.64300 45.72300
C  30.30600 -3.99800 47.66600
C  28.65400 -1.94700 45.31800
O  29.61300 -1.18300 45.33100
C  27.28900 -1.69100 44.50700
C  26.76000 -0.27600 44.89000
O  25.54700 -0.04700 45.17800
O  27.77500 0.72000 44.85500
C  27.32800 2.07200 45.32700
H  21.29300 -5.24100 43.64900
H  23.67500 -9.81400 47.49500
H  28.87300 -6.28600 48.53500
H  24.38900 -1.37100 43.39500
H  22.66400 -3.32200 42.28900
H  21.61200 -1.30900 43.20500
H  22.34500 -1.49400 44.78800
H  21.05100 -2.69100 44.28700
H  24.54900 -3.57300 41.40100
H  26.07600 -3.13900 42.03400
H  26.29000 -1.40200 40.99600
H  24.63400 -0.67600 41.28500
H  18.98700 -7.80100 44.77100
H  19.92300 -8.19300 43.34700
H  19.67300 -6.58000 43.64500
H  21.36600 -12.10500 46.12000
H  21.94700 -11.21200 47.53500
H  22.86500 -11.28800 45.88000
H  26.29200 -10.07300 47.95500
H  27.50800 -8.09100 49.86800
H  25.53000 -10.79800 50.25300
H  24.25800 -9.67900 49.71300
H  25.43300 -9.14800 50.77000
H  29.12000 -8.77800 47.60900
H  28.45800 -10.22500 48.15400
H  29.96700 -10.41300 49.64900
H  29.19100 -9.20400 50.64900
H  30.43200 -8.68000 49.50900
H  30.27100 -3.28000 48.48500
H  31.07100 -3.51800 47.05600
H  30.58900 -4.99700 48.00000
H  27.48800 -1.58100 43.44100
H  27.23300 2.21600 46.40300
H  26.35900 2.41100 44.96000
H  27.98900 2.81800 44.88400
Mg -5.41400 25.91300 26.04900
C  -4.06400 27.05200 29.06200
C  -7.44100 23.64300 27.93200
C  -6.32700 24.45400 23.27400
C  -2.87800 27.73600 24.40500
N  -5.69600 25.46400 28.16100
C  -5.05400 26.04800 29.19100
C  -5.53600 25.54600 30.58000
C  -6.42800 24.31300 30.18500
C  -6.60500 24.51800 28.66200
C  -5.75800 22.96200 30.65500
C  -6.34400 26.65400 31.24400
C  -6.71500 26.51900 32.75800
H  -6.12100 25.34800 33.62400
N  -6.85000 24.37000 25.65100
C  -7.62600 23.62500 26.50600
C  -8.48500 22.74200 25.71300
C  -8.16700 22.93600 24.29800
C  -7.06200 23.89200 24.35400
C  -9.51600 21.84600 26.29200
C  -8.84000 22.32600 23.13300
O  -8.41700 22.44200 21.98700
C  -10.00700 21.42400 23.23200
N  -4.86900 26.12500 24.17300
C  -5.37400 25.42700 23.13000
C  -4.68300 25.71300 21.79100
C  -3.87100 26.99300 22.12200
C  -3.87400 26.96500 23.67200
C  -3.97600 24.44200 21.24300
C  -4.55100 28.29200 21.58900
C  -3.68500 29.17400 20.65300
N  -3.91200 27.30700 26.57900
C  -3.00900 27.92200 25.77600
C  -2.13500 28.75000 26.56500
C  -2.56700 28.43900 27.87200
C  -3.61000 27.60200 27.80600
C  -1.10400 29.67000 26.12400
C  -2.25300 28.69100 29.27000
O  -1.47100 29.44700 29.86100
C  -3.24500 27.79100 30.08300
C  -2.45300 27.07700 31.05500
O  -1.81000 26.01600 30.95200
O  -2.57000 27.80900 32.21800
C  -1.89100 27.11400 33.39200
H  -8.07600 22.98800 28.53200
H  -6.63300 23.98000 22.33900
H  -2.12100 28.20800 23.77400
H  -4.74200 25.17500 31.22900
H  -7.39300 24.46500 30.67000
H  -5.10100 23.07600 31.51700
H  -5.18100 22.45600 29.88000
H  -6.52400 22.22300 30.89000
H  -7.20200 26.88200 30.61100
H  -5.71900 27.54700 31.27500
H  -7.80300 26.48900 32.80400
H  -6.34800 27.44500 33.20100
H  -10.46900 22.30300 26.02600
H  -9.55300 21.97300 27.37400
H  -9.43300 20.79200 26.02700
H  -9.84200 20.42200 23.62800
H  -10.36800 21.20600 22.22600
H  -10.80400 21.86600 23.83100
H  -5.51300 25.98700 21.14100
H  -2.87100 26.96000 21.69000
H  -4.46800 24.20600 20.29900
H  -3.99600 23.56400 21.88800
H  -2.90600 24.61300 21.13300
H  -4.73900 28.90200 22.47300
H  -5.54700 28.10800 21.18600
H  -2.76800 28.63800 20.40800
H  -3.49200 30.18300 21.01800
H  -4.25600 29.30400 19.73400
H  -0.31700 29.25300 25.49600
H  -0.51000 29.94700 26.99400
H  -1.48700 30.59100 25.68600
H  -3.96200 28.43600 30.59100
H  -0.80700 27.22700 33.40900
H  -2.03000 26.03400 33.42000
H  -2.09800 27.54800 34.37100

