158

Mg 9.11900 4.39500 27.50700
C  10.02000 2.59800 30.35600
C  7.16500 6.40000 29.35200
C  8.43400 6.24000 24.75400
C  10.51400 1.98700 25.51100
N  8.58100 4.36400 29.60200
C  9.20500 3.66600 30.65500
C  8.88000 4.32700 32.04900
C  7.83500 5.47300 31.67300
C  7.77400 5.37100 30.09400
C  6.48200 5.45400 32.46700
C  10.13200 4.60900 32.94400
C  9.65700 5.27200 34.22100
H  10.08200 4.62800 35.55100
N  7.98800 6.16600 27.11200
C  7.20700 6.82100 28.04900
C  6.36900 7.82100 27.41500
C  6.93400 7.87600 26.11700
C  7.86800 6.71900 25.92900
C  5.37700 8.68700 28.13300
C  6.69500 8.94300 25.00800
O  7.25500 8.87500 23.88200
C  5.67500 10.03000 25.17500
N  9.43800 4.13900 25.46600
C  9.15900 5.04300 24.48400
C  9.44800 4.51000 23.06700
C  9.99100 3.08300 23.34100
C  9.93200 3.03500 24.87200
C  8.20800 4.65400 22.11800
C  11.30300 2.72500 22.63300
C  11.30500 1.41100 21.87500
N  10.06500 2.57800 27.77000
C  10.66700 1.72000 26.88500
C  11.35400 0.60700 27.59100
C  11.15600 1.00000 28.98100
C  10.32300 2.08900 29.01500
C  12.06700 -0.56600 27.07800
C  11.51900 0.66600 30.32000
O  12.18700 -0.31100 30.63900
C  10.82100 1.67600 31.24500
C  9.96900 0.96100 32.20300
O  8.84400 0.59700 32.00800
O  10.57300 0.82100 33.40600
C  9.84200 0.22900 34.51500
H  6.58700 7.00900 30.05100
H  8.12600 6.71600 23.82000
H  11.00600 1.22800 24.89900
H  8.37800 3.59600 32.68200
H  8.24700 6.46900 31.83500
H  5.65600 5.42100 31.75600
H  6.24000 6.36800 33.00800
H  6.45700 4.64900 33.20100
H  10.75400 5.23900 32.30900
H  10.70500 3.70500 33.15100
H  8.56800 5.30400 34.21200
H  10.13100 6.25300 34.18300
H  5.59800 9.74000 27.95400
H  5.46700 8.58000 29.21400
H  4.35100 8.39700 27.90600
H  5.74500 10.74700 24.35700
H  6.04300 10.54300 26.06300
H  4.73500 9.50400 25.33900
H  10.24400 5.11700 22.63500
H  9.23500 2.36600 23.02100
H  7.99000 3.65400 21.74200
H  8.47300 5.25300 21.24700
H  7.39700 5.09300 22.70000
H  12.18600 2.76000 23.27200
H  11.51500 3.52500 21.92400
H  10.31600 1.02000 21.63500
H  11.78800 0.76200 22.60500
H  11.78000 1.43300 20.89500
H  11.40000 -1.08500 26.38900
H  12.38000 -1.17700 27.92500
H  12.96000 -0.25100 26.53800
H  11.62100 2.10500 31.84900
H  9.07600 0.95800 34.78000
H  10.40200 -0.07600 35.39900
H  9.30600 -0.65200 34.16100
Mg 9.30900 48.24700 25.34500
C  6.98500 48.80500 27.86600
C  11.70100 49.46500 27.44000
C  11.46100 47.64800 22.96800
C  6.67200 47.70000 22.98800
N  9.27800 49.20400 27.40000
C  8.28300 49.05500 28.35000
C  8.81800 49.13700 29.83200
C  10.21500 49.83500 29.60200
C  10.42800 49.47400 28.02300
C  10.15700 51.34300 29.82700
C  8.80600 47.75600 30.52400
C  9.37600 47.75700 31.96000
H  8.46000 47.21600 33.06100
N  11.34000 48.39000 25.25500
C  12.14800 48.90400 26.25200
C  13.50900 48.71900 25.78200
C  13.52000 48.21600 24.51400
C  12.05500 48.08700 24.18400
C  14.66000 49.15200 26.71600
C  14.58300 47.90800 23.57400
O  14.38600 47.35600 22.50000
C  15.96700 48.10200 23.99600
N  9.07200 47.81300 23.23600
C  10.18100 47.60200 22.57300
C  9.86500 46.99000 21.16000
C  8.29500 47.01700 21.13800
C  7.97200 47.61500 22.47700
C  10.67700 47.51000 19.93700
C  7.60600 45.67000 20.78800
C  6.59400 45.75600 19.54200
N  7.25800 48.33100 25.37600
C  6.28400 48.09200 24.30600
C  4.98400 48.18200 24.90900
C  5.25700 48.41800 26.34000
C  6.59000 48.52500 26.50700
C  3.62800 48.18300 24.17600
C  4.58800 48.66500 27.59900
O  3.36000 48.60700 27.88300
C  5.70100 48.85900 28.65100
C  5.39500 47.74800 29.66100
O  5.74900 46.60100 29.59600
O  4.60200 48.23000 30.65900
C  4.06900 47.26200 31.63700
H  12.46900 49.69000 28.18300
H  12.11900 47.31300 22.16400
H  5.87000 47.53400 22.26700
H  8.16000 49.77200 30.42500
H  11.05600 49.35900 30.10600
H  9.26000 51.61300 30.38300
H  10.18700 51.88500 28.88100
H  11.01300 51.60800 30.44800
H  9.23700 46.91900 29.97700
H  7.75500 47.52200 30.69300
H  9.72300 48.78000 32.10900
H  10.23500 47.08700 31.92400
H  14.42900 49.36600 27.75900
H  15.03900 50.12400 26.40000
H  15.44800 48.40000 26.67200
H  16.12500 47.31300 24.73100
H  16.01300 49.05400 24.52400
H  16.60700 48.05500 23.11500
H  10.25500 45.97200 21.13900
H  7.94100 47.86300 20.54900
H  10.08800 48.19400 19.32700
H  11.14300 46.77800 19.27700
H  11.49900 48.06200 20.39300
H  7.14800 45.14300 21.62500
H  8.37700 44.93900 20.54800
H  5.78600 45.04900 19.73300
H  7.07300 45.67600 18.56600
H  6.10900 46.72500 19.65500
H  3.84300 48.10200 23.11100
H  2.99700 49.04400 24.39900
H  3.10500 47.35500 24.65500
H  5.67300 49.83300 29.14000
H  3.44600 47.92100 32.24100
H  4.89500 46.97800 32.28900
H  3.57600 46.37700 31.23500

