158

Mg 8.03100 3.24700 27.83400
C  9.56300 1.60400 30.44000
C  6.30600 5.19600 30.12300
C  6.32300 4.72300 25.18900
C  9.31200 0.86200 25.65400
N  7.80800 3.18900 29.99700
C  8.70700 2.63200 30.84700
C  8.55000 3.24600 32.28300
C  7.27400 4.15200 32.21700
C  7.15700 4.21700 30.66300
C  5.98200 3.61200 32.95300
C  9.86700 3.83500 32.97100
C  10.42500 3.16400 34.16400
H  10.96100 4.01500 35.26800
N  6.52000 4.69800 27.65600
C  6.01100 5.47200 28.73000
C  5.30700 6.57200 28.14600
C  5.34300 6.45200 26.73200
C  6.04600 5.24400 26.46300
C  4.60100 7.46500 29.18700
C  4.73100 7.41700 25.75100
O  4.92200 7.19300 24.54400
C  4.06900 8.66400 26.25200
N  7.76200 2.74900 25.74000
C  7.07500 3.51500 24.87700
C  7.20500 2.93200 23.39500
C  8.06200 1.57400 23.65000
C  8.44200 1.74200 25.10400
C  5.86800 2.75500 22.67000
C  9.29200 1.47600 22.62500
C  9.49000 0.14400 21.97100
N  9.34500 1.56300 27.97800
C  9.73800 0.67100 27.03200
C  10.60900 -0.23900 27.67700
C  10.68800 0.06900 29.06500
C  9.79900 1.17700 29.12900
C  11.25000 -1.35300 26.87800
C  11.15500 -0.35000 30.36000
O  11.93700 -1.23500 30.70300
C  10.39100 0.63400 31.26900
C  9.55300 -0.00200 32.28100
O  8.48100 -0.65100 32.09800
O  10.09700 0.08000 33.54400
C  9.15700 -0.29200 34.65000
H  5.93500 5.84700 30.91700
H  6.02200 5.23800 24.27400
H  9.63100 0.07500 24.96700
H  8.33300 2.34700 32.86100
H  7.38700 5.20200 32.48600
H  5.30200 3.20500 32.20500
H  5.56000 4.36200 33.62100
H  6.26500 2.73600 33.53700
H  9.46100 4.78900 33.31000
H  10.73500 3.99200 32.33100
H  11.18800 2.42100 33.92900
H  9.66100 2.50700 34.58000
H  5.29900 8.10000 29.73400
H  4.16500 6.84400 29.97000
H  3.85900 8.17200 28.81600
H  4.76700 9.30800 26.78800
H  3.17300 8.42900 26.82600
H  3.71700 9.16300 25.35000
H  7.74700 3.67500 22.81000
H  7.44700 0.67600 23.60500
H  5.78800 3.34300 21.75600
H  5.09500 3.10300 23.35700
H  5.62100 1.70800 22.49800
H  10.15800 1.61500 23.27200
H  9.27600 2.22500 21.83400
H  8.68700 -0.55100 22.21700
H  10.44300 -0.13600 22.42000
H  9.48700 0.20500 20.88300
H  11.84800 -0.91000 26.08200
H  10.63900 -2.16300 26.47900
H  11.94700 -1.85000 27.55200
H  11.15700 1.10300 31.88700
H  8.74600 -1.28300 34.45700
H  8.48800 0.56200 34.74900
H  9.83100 -0.40600 35.49900
Mg -13.22000 38.00600 43.38000
C  -11.17500 35.62800 41.87100
C  -11.50400 40.50000 41.73500
C  -15.83300 40.07500 43.98000
C  -14.87900 35.41300 45.01000
N  -11.51800 38.07100 41.97600
C  -10.83800 36.94100 41.57100
C  -9.61400 37.34200 40.67800
C  -9.50600 38.93800 40.95800
C  -10.92500 39.18600 41.53800
C  -8.29700 39.36200 41.94800
C  -9.83100 37.00700 39.17900
C  -8.81500 35.99500 38.60800
H  -7.97000 36.43500 37.37200
N  -13.60200 39.99600 42.88800
C  -12.77100 40.90200 42.25800
C  -13.43600 42.17300 42.06100
C  -14.77700 41.95900 42.50800
C  -14.81100 40.57800 43.17400
C  -12.86000 43.41800 41.51600
C  -15.93900 42.90800 42.39600
O  -15.77400 44.06800 42.03600
C  -17.35400 42.50200 42.56600
N  -15.18200 37.73800 44.24700
C  -15.98200 38.79200 44.51100
C  -17.15000 38.40400 45.41500
C  -16.77700 36.87700 45.80000
C  -15.50300 36.63100 45.01900
C  -17.56900 39.28700 46.64100
C  -17.88600 35.87200 45.46900
C  -18.04300 34.77700 46.52500
N  -13.21000 35.85900 43.42700
C  -13.82800 34.97100 44.19900
C  -13.23600 33.68100 44.08500
C  -12.28300 33.84700 43.08300
C  -12.25900 35.26100 42.72600
C  -13.54800 32.45000 44.99100
C  -11.25600 33.21700 42.35900
O  -10.96200 31.99600 42.17900
C  -10.44200 34.35600 41.55900
C  -9.00800 34.35500 42.09200
O  -8.02200 34.01300 41.41900
O  -8.92500 34.78800 43.41800
C  -7.61600 34.83600 44.04300
H  -10.75500 41.25800 41.49900
H  -16.57000 40.80100 44.33200
H  -15.26000 34.59400 45.62400
H  -8.71600 36.83900 41.03700
H  -9.43600 39.40900 39.97700
H  -7.59100 40.03300 41.45900
H  -7.73000 38.62800 42.51900
H  -8.87000 39.91200 42.69500
H  -9.76000 37.90100 38.55900
H  -10.80800 36.53000 39.11100
H  -9.42900 35.18400 38.21600
H  -8.12300 35.65800 39.38000
H  -13.38000 44.34300 41.76300
H  -12.91200 43.34700 40.42900
H  -11.79900 43.59200 41.69500
H  -17.50300 41.47800 42.22500
H  -17.97500 43.15600 41.95400
H  -17.62000 42.65000 43.61300
H  -17.99500 38.35500 44.72700
H  -16.63700 36.83900 46.88000
H  -16.95600 40.18800 46.67000
H  -17.59000 38.74200 47.58500
H  -18.58500 39.61800 46.42900
H  -17.54600 35.45600 44.52100
H  -18.86500 36.31000 45.27200
H  -18.95100 34.89900 47.11500
H  -17.24700 34.78600 47.26900
H  -17.88600 33.77900 46.11600
H  -14.61000 32.42900 45.23700
H  -13.03000 32.51600 45.94800
H  -13.25200 31.54700 44.45800
H  -10.47600 34.06800 40.50900
H  -7.42400 35.86100 44.35800
H  -6.69100 34.58600 43.52300
H  -7.59600 34.22000 44.94200

