158

Mg 16.89800 -2.41200 28.18200
C  16.01800 -0.32100 30.86400
C  18.69900 -4.29200 30.32500
C  18.03300 -3.99100 25.43700
C  15.29000 -0.00800 26.03700
N  17.27500 -2.20600 30.32700
C  16.78200 -1.37400 31.29600
C  17.37100 -1.67900 32.66800
C  18.39200 -2.84200 32.32600
C  18.04700 -3.17800 30.89400
C  19.91400 -2.46700 32.46800
C  16.32300 -1.99200 33.72100
C  16.58000 -1.51400 35.16600
H  18.01000 -1.63900 35.71300
N  18.06000 -4.08100 27.92300
C  18.70900 -4.70700 28.97100
C  19.39900 -5.86300 28.40200
C  19.20500 -5.79400 26.92400
C  18.38500 -4.58400 26.69700
C  20.10200 -6.79400 29.35900
C  19.75800 -6.67400 25.86400
O  19.54500 -6.63300 24.63800
C  20.71700 -7.66000 26.24600
N  16.67700 -2.06600 26.01500
C  17.35100 -2.79700 25.07400
C  17.06500 -2.27600 23.66600
C  16.20800 -1.07700 23.92100
C  16.06400 -1.02800 25.42700
C  18.33100 -1.90500 22.80100
C  14.86100 -1.05600 23.05400
C  13.45800 -1.47600 23.49900
N  15.84400 -0.62500 28.29100
C  15.16000 0.18100 27.42200
C  14.42900 1.18200 28.11700
C  14.79200 1.06600 29.45100
C  15.63500 -0.01700 29.53600
C  13.51100 2.17400 27.50000
C  14.62300 1.71400 30.72400
O  13.99600 2.70500 30.99400
C  15.40700 0.78100 31.72500
C  16.48700 1.61600 32.38900
O  17.66200 1.72100 32.11500
O  15.87900 2.46300 33.26100
C  16.75400 3.51300 33.82400
H  19.17300 -4.90100 31.09700
H  18.51700 -4.50000 24.60100
H  14.80700 0.74100 25.40500
H  17.86600 -0.77600 33.02600
H  18.20000 -3.67100 33.00700
H  20.03200 -1.42600 32.76900
H  20.31500 -2.56300 31.45900
H  20.44100 -3.15300 33.13200
H  16.10300 -3.05700 33.64500
H  15.39200 -1.51900 33.41100
H  15.90100 -2.21500 35.65100
H  16.09700 -0.54700 35.30700
H  19.45000 -7.27700 30.08700
H  20.91900 -6.25900 29.84400
H  20.49100 -7.65600 28.81700
H  21.10000 -8.13300 25.34200
H  20.14700 -8.39200 26.81800
H  21.59800 -7.33600 26.79900
H  16.49200 -2.98300 23.06700
H  16.72600 -0.12000 23.85800
H  18.26800 -2.67800 22.03500
H  19.21500 -2.15300 23.38800
H  18.36000 -0.88400 22.42000
H  15.06900 -1.58000 22.12100
H  14.78600 -0.00800 22.76300
H  12.84600 -0.58400 23.63300
H  13.58100 -1.98200 24.45600
H  13.03100 -2.14900 22.75500
H  12.82400 1.62800 26.85500
H  14.10400 2.90500 26.95000
H  13.04100 2.80400 28.25600
H  14.75700 0.28900 32.45000
H  17.67000 3.13600 34.27800
H  16.30900 4.09300 34.63200
H  17.18000 4.22400 33.11600
Mg 36.91300 49.78700 25.32800
C  36.69300 47.93400 28.36200
C  36.22800 52.69700 27.02300
C  36.45100 51.26400 22.35200
C  37.24500 46.60200 23.67700
N  36.49800 50.22200 27.46300
C  36.52400 49.28700 28.49200
C  36.27600 50.06400 29.82000
C  35.82500 51.56200 29.31100
C  36.26500 51.50500 27.85200
C  34.35300 52.07600 29.58700
C  37.48700 50.04100 30.80500
C  37.23700 49.51900 32.23400
H  35.86000 49.78400 32.90300
N  36.56400 51.72900 24.77800
C  36.39600 52.81100 25.60400
C  36.43300 54.03700 24.82300
C  36.36400 53.59300 23.43400
C  36.41400 52.12000 23.49300
C  36.43700 55.39400 25.42300
C  36.27000 54.41300 22.08700
O  36.24000 53.91600 20.95500
C  36.30600 56.01700 22.22500
N  36.71300 49.07300 23.27100
C  36.61700 49.91600 22.23500
C  36.73500 49.06400 20.88200
C  37.19100 47.66800 21.38400
C  37.10400 47.79500 22.85800
C  35.49000 49.12100 19.97100
C  38.66500 47.30100 20.91400
C  38.73200 45.99000 20.28700
N  36.98900 47.70400 25.84500
C  37.11800 46.54700 25.07000
C  37.28900 45.45900 25.92800
C  37.07100 45.97200 27.23500
C  36.82600 47.31600 27.08700
C  37.63900 44.09400 25.53700
C  37.07300 45.59200 28.63100
O  37.39200 44.50700 29.19100
C  36.77600 46.84900 29.35700
C  35.55400 46.56200 30.08200
O  34.44800 46.72600 29.63800
O  35.83300 46.04300 31.29600
C  34.70600 45.67800 32.17600
H  36.02800 53.55900 27.66200
H  36.34800 51.80100 21.40600
H  37.51900 45.66600 23.18800
H  35.38100 49.62500 30.26200
H  36.51800 52.26000 29.78000
H  34.02800 52.37700 28.59200
H  34.51700 52.95200 30.21500
H  33.63700 51.38700 30.03600
H  37.93600 51.03500 30.80600
H  38.15500 49.29500 30.37500
H  37.96100 49.96500 32.91700
H  37.40000 48.44400 32.15600
H  37.49500 55.62200 25.55000
H  36.03200 55.52600 26.42600
H  35.89900 56.11400 24.80600
H  35.36800 56.33700 22.67900
H  36.19700 56.27500 21.17200
H  37.14700 56.56200 22.65300
H  37.46200 49.46100 20.17200
H  36.45500 46.91300 21.10800
H  35.17700 50.13600 19.72400
H  34.63900 48.72900 20.52800
H  35.72500 48.51000 19.10000
H  39.39400 47.22300 21.72000
H  39.07500 47.99900 20.18400
H  39.39700 45.21900 20.67700
H  39.08700 46.24000 19.28700
H  37.75000 45.55700 20.10000
H  36.83000 43.71300 24.91400
H  37.95100 43.54700 26.42700
H  38.48500 44.11900 24.85000
H  37.50000 47.01800 30.15500
H  33.79800 45.62800 31.57500
H  34.61600 46.45400 32.93600
H  34.79000 44.69600 32.64000

