158

Mg 23.93900 -6.71600 47.05100
C  26.51600 -4.59300 45.93600
C  21.86300 -5.29400 44.63700
C  21.73300 -9.33600 47.31000
C  26.35500 -8.48500 48.75300
N  24.18300 -4.98700 45.55400
C  25.34500 -4.30700 45.28800
C  25.11400 -3.39000 44.07900
C  23.55100 -3.60300 43.70100
C  23.13700 -4.70100 44.69200
C  22.72800 -2.28700 43.73200
C  26.11400 -3.67800 42.87200
C  27.11000 -2.48700 42.54300
H  27.05900 -1.78500 41.23300
N  22.06100 -7.17600 46.20200
C  21.35900 -6.39600 45.33600
C  20.02000 -6.98200 45.03400
C  19.97500 -8.18400 45.79700
C  21.24600 -8.26400 46.54600
C  19.01200 -6.30800 44.08200
C  18.71900 -9.08700 45.91900
O  17.62700 -8.87800 45.40700
C  18.80300 -10.37600 46.77400
N  24.00000 -8.65600 47.76400
C  22.98500 -9.50700 47.93300
C  23.31100 -10.73300 48.87500
C  24.83500 -10.41700 49.32500
C  25.08000 -9.05300 48.62600
C  22.30100 -10.81200 50.07100
C  25.75200 -11.62300 49.03100
C  26.68700 -12.14300 50.19300
N  25.96600 -6.57200 47.44800
C  26.83300 -7.33700 48.20000
C  28.12200 -6.71800 48.23700
C  28.03300 -5.67100 47.33900
C  26.74200 -5.61500 46.88900
C  29.37600 -7.07700 49.05100
C  28.76200 -4.52900 46.77800
O  29.89000 -4.09500 46.98500
C  27.82800 -3.74000 45.77400
C  27.60400 -2.38200 46.41000
O  26.82400 -2.10700 47.33100
O  28.28500 -1.38600 45.78400
C  27.88600 0.05100 46.12000
H  21.17000 -4.75100 43.99100
H  21.07200 -10.14800 47.62100
H  27.03800 -8.94700 49.46900
H  25.21900 -2.33200 44.32400
H  23.37100 -3.99500 42.70000
H  23.40100 -1.49100 43.41500
H  22.43400 -2.20300 44.77900
H  21.92300 -2.42300 43.00900
H  25.70400 -3.97100 41.90600
H  26.72500 -4.54500 43.12600
H  28.12900 -2.86100 42.63800
H  27.02500 -1.81500 43.39700
H  19.15100 -5.22800 44.02100
H  17.96800 -6.46600 44.35200
H  19.16900 -6.90500 43.18300
H  18.95400 -10.08200 47.81300
H  19.66700 -10.88300 46.34400
H  17.91700 -11.01100 46.75100
H  23.25500 -11.65000 48.28800
H  24.83900 -10.06000 50.35500
H  21.52800 -10.04400 50.07400
H  22.80700 -10.75000 51.03500
H  21.76700 -11.76100 50.01000
H  26.47900 -11.34700 48.26800
H  25.16500 -12.46700 48.66800
H  27.63000 -11.59700 50.21000
H  26.74200 -13.23000 50.24900
H  26.13600 -11.77100 51.05800
H  30.02400 -6.20300 49.11100
H  29.69700 -7.95100 48.48500
H  29.15900 -7.48900 50.03600
H  28.19200 -3.70200 44.74700
H  27.99900 0.59200 45.18000
H  28.54000 0.49200 46.87200
H  26.85700 0.29900 46.38100
Mg 47.93000 34.78600 26.50300
C  45.71700 33.67900 29.14400
C  48.52500 37.61000 28.30500
C  49.25500 35.99800 23.77300
C  46.83700 31.88700 24.71200
N  47.00300 35.58800 28.43400
C  46.25600 34.95300 29.37100
C  46.37600 35.70100 30.73500
C  46.98700 37.07800 30.29800
C  47.52600 36.78400 28.91100
C  46.06000 38.28800 30.34200
C  47.40800 34.90300 31.69200
C  47.05300 34.78000 33.24200
H  47.99900 35.37000 34.33000
N  48.91800 36.43900 26.12100
C  49.10000 37.45500 27.07300
C  49.94000 38.41700 26.47900
C  50.08500 38.01200 25.04900
C  49.43300 36.75800 24.94700
C  50.35200 39.76000 27.11000
C  50.83200 38.77500 23.97900
O  50.80800 38.41400 22.79300
C  51.71300 39.98100 24.32200
N  48.14800 33.93000 24.58900
C  48.67900 34.70800 23.59100
C  48.87200 33.91900 22.25900
C  48.40800 32.42700 22.72300
C  47.69600 32.74300 24.02500
C  48.06800 34.45200 21.06300
C  49.54100 31.26600 22.88800
C  50.98700 31.64000 22.58800
N  46.57200 33.04900 26.80600
C  46.27300 32.00500 25.96900
C  45.30900 31.08500 26.62800
C  45.07000 31.68800 27.88600
C  45.89900 32.84100 27.95600
C  44.64200 29.77800 26.19700
C  44.38500 31.58600 29.17800
O  43.58800 30.74700 29.61800
C  44.64500 32.89700 29.93300
C  44.86900 32.60500 31.37000
O  45.79700 31.86600 31.73000
O  43.83700 33.14800 32.14600
C  43.78200 32.76700 33.58100
H  48.80600 38.50900 28.85800
H  49.61400 36.46200 22.85200
H  46.60500 30.96700 24.17200
H  45.38400 35.81800 31.17100
H  47.81100 37.43400 30.91600
H  46.52000 38.94700 29.60700
H  45.90000 38.77700 31.30300
H  45.05800 38.16000 29.93300
H  48.43600 35.25400 31.78900
H  47.47900 33.88200 31.31500
H  46.91500 33.71300 33.42000
H  46.02600 35.07200 33.45800
H  51.41800 39.98100 27.07600
H  50.12600 39.90600 28.16700
H  49.88000 40.56400 26.54500
H  51.14900 40.57800 25.03900
H  51.83400 40.60600 23.43700
H  52.70500 39.68800 24.66700
H  49.93500 34.04800 22.05400
H  47.55900 32.10400 22.12100
H  48.79900 34.34300 20.26200
H  47.97400 35.53400 21.16500
H  47.08800 34.02900 20.84400
H  49.30400 30.44500 22.21100
H  49.44500 30.81800 23.87700
H  51.37600 32.25900 23.39600
H  51.07000 32.27500 21.70600
H  51.63800 30.77200 22.49400
H  43.56100 29.87200 26.30000
H  45.11200 29.10200 26.91200
H  45.00600 29.50000 25.20800
H  43.74300 33.50300 29.85100
H  43.90500 33.62000 34.24800
H  44.51600 32.00600 33.84500
H  42.78500 32.34900 33.72300

