158

Mg -1.56700 17.96700 26.39400
C  -2.33400 15.76500 29.12800
C  -2.23800 20.64300 28.49800
C  -1.46200 20.02400 23.67300
C  -1.68500 15.22900 24.26100
N  -2.12500 18.19800 28.59900
C  -2.21000 17.13300 29.47800
C  -2.37900 17.72000 30.92700
C  -2.61300 19.22100 30.68900
C  -2.34200 19.38500 29.18700
C  -4.14600 19.61800 30.98300
C  -1.32100 17.35900 32.01500
C  -1.44000 18.11100 33.33200
H  -0.99900 17.34000 34.60600
N  -1.68400 19.98600 26.10700
C  -1.99100 20.91500 27.10800
C  -2.01900 22.26300 26.51100
C  -1.79500 22.09300 25.08500
C  -1.58300 20.66700 24.90700
C  -2.39500 23.53100 27.25700
C  -1.82000 23.19700 23.93300
O  -1.62200 22.87800 22.75700
C  -2.14000 24.57700 24.25900
N  -1.56200 17.64800 24.29100
C  -1.34200 18.65500 23.37300
C  -1.29200 18.15600 21.92100
C  -1.18100 16.62400 22.18200
C  -1.50200 16.43400 23.65300
C  -2.56400 18.48400 21.06100
C  0.20000 16.05200 21.79100
C  1.51200 16.76000 22.25000
N  -1.97100 15.91800 26.56100
C  -1.92000 14.91200 25.60700
C  -2.28000 13.60500 26.23300
C  -2.47300 13.90000 27.61300
C  -2.27500 15.32600 27.74800
C  -2.33900 12.33200 25.48200
C  -2.69700 13.26900 28.83600
O  -2.81500 12.06300 29.12800
C  -2.51200 14.50200 29.98400
C  -1.25300 14.17800 30.73900
O  -0.19500 14.22600 30.33800
O  -1.66300 13.55400 31.88300
C  -0.67500 12.87800 32.68200
H  -2.45800 21.54200 29.07700
H  -1.32600 20.62600 22.77200
H  -1.70200 14.32100 23.65300
H  -3.26800 17.16800 31.23200
H  -1.94000 19.80200 31.31800
H  -4.75300 18.72600 31.13900
H  -4.56200 20.13600 30.11900
H  -4.18400 20.33000 31.80800
H  -0.37100 17.58400 31.53000
H  -1.40800 16.30100 32.26400
H  -2.50500 18.31100 33.44800
H  -0.90300 19.04300 33.15500
H  -3.35400 23.91300 26.90700
H  -1.64800 24.30600 27.08500
H  -2.48800 23.33900 28.32600
H  -3.19500 24.63100 24.52900
H  -1.87600 25.15500 23.37300
H  -1.47900 24.93400 25.04900
H  -0.38000 18.47300 21.41500
H  -2.01700 16.17100 21.64900
H  -3.29800 17.68300 20.97300
H  -2.27600 18.74400 20.04200
H  -3.05500 19.37100 21.46100
H  0.18300 16.03400 20.70100
H  0.20900 14.99900 22.07400
H  1.53800 17.71200 22.78000
H  2.15900 16.92700 21.38900
H  2.03200 15.99800 22.83100
H  -2.80100 12.54800 24.51800
H  -2.98200 11.69200 26.08700
H  -1.33400 11.91000 25.49700
H  -3.39700 14.46400 30.61900
H  0.13200 12.53300 32.03500
H  -1.15500 11.96900 33.04300
H  -0.29600 13.51200 33.48400
Mg 30.29500 57.99100 39.75700
C  27.32300 56.11000 39.21800
C  32.13300 55.38100 38.72400
C  32.87900 59.95500 39.87300
C  28.13800 60.87400 40.15700
N  29.66800 56.04700 38.92500
C  28.51700 55.39300 39.02000
C  28.61700 53.90400 38.71000
C  30.17900 53.71100 38.67500
C  30.72900 55.14000 38.82700
C  30.93000 52.79300 39.67100
C  27.86900 53.47600 37.39900
C  27.53400 54.60400 36.37000
H  27.71700 54.20700 34.95900
N  32.26500 57.65100 39.42600
C  32.81700 56.54300 38.95600
C  34.27500 56.73800 38.84400
C  34.57700 58.04200 39.21500
C  33.21900 58.61000 39.53300
C  35.28800 55.70300 38.43700
C  35.96500 58.66100 39.41700
O  36.94500 58.02500 39.05500
C  36.23900 59.95900 40.08800
N  30.45300 60.11400 40.04600
C  31.66900 60.60800 40.17100
C  31.73900 62.17900 40.22000
C  30.14500 62.43800 40.52800
C  29.52300 61.09700 40.10800
C  32.62400 62.85500 41.19800
C  29.49900 63.66900 39.80600
C  28.81300 64.69000 40.70600
N  28.19300 58.43700 39.67500
C  27.50400 59.62600 39.95300
C  26.12300 59.39700 39.85700
C  25.93900 58.04600 39.66300
C  27.24900 57.47800 39.54000
C  25.10400 60.46800 39.84400
C  25.01700 56.91900 39.48400
O  23.80400 56.93100 39.44900
C  25.89200 55.56500 39.28700
C  25.68400 54.69400 40.48700
O  26.46000 54.50800 41.40400
O  24.45300 54.18500 40.31500
C  24.23200 53.10600 41.34200
H  32.76700 54.52500 38.48300
H  33.79000 60.53300 40.04600
H  27.57700 61.80000 40.30100
H  28.10800 53.46900 39.56900
H  30.56100 53.37400 37.71100
H  31.19500 53.39500 40.54000
H  31.80200 52.31200 39.22700
H  30.25600 52.07100 40.13300
H  27.04000 52.77900 37.52300
H  28.60300 52.80100 36.95800
H  28.04700 55.55100 36.53800
H  26.47600 54.82000 36.51600
H  34.86500 55.27200 37.52900
H  35.28300 54.85700 39.12400
H  36.31900 55.97200 38.20700
H  35.88600 60.76500 39.44500
H  37.31700 60.10000 40.16200
H  35.89600 60.04400 41.11900
H  31.90200 62.49700 39.19000
H  30.07100 62.50800 41.61400
H  32.09900 63.44400 41.94900
H  33.37800 63.46800 40.70500
H  33.21800 62.09300 41.70300
H  28.74300 63.36100 39.08300
H  30.28900 64.13600 39.21800
H  29.17900 65.66900 40.39600
H  29.04000 64.51500 41.75700
H  27.74200 64.51900 40.59500
H  24.88900 60.69500 38.80000
H  25.55900 61.33800 40.31600
H  24.28100 59.98900 40.37300
H  25.61100 54.90800 38.46400
H  24.11600 53.46400 42.36500
H  25.01900 52.35400 41.39700
H  23.27800 52.60900 41.16200

