158

Mg 1.29900 -1.10600 44.15700
C  4.36600 0.11800 43.20800
C  -0.20300 1.55700 42.64400
C  -1.72400 -2.50900 44.74800
C  2.93200 -4.02400 45.28900
N  2.08600 0.59700 42.90300
C  3.34600 0.95500 42.69400
C  3.49600 2.15000 41.78000
C  2.01700 2.75800 41.86600
C  1.22700 1.53700 42.47300
C  1.87800 3.95600 42.94900
C  4.00000 1.89300 40.26200
C  3.69800 0.48700 39.67700
H  3.38000 0.24300 38.24600
N  -0.74200 -0.54700 43.66400
C  -1.16300 0.60000 43.07400
C  -2.59900 0.63200 43.11000
C  -2.97800 -0.46900 43.90300
C  -1.80500 -1.22700 44.13700
C  -3.35200 1.79000 42.43400
C  -4.41400 -0.75800 44.31100
O  -5.31600 -0.05900 43.83100
C  -4.82400 -1.86500 45.18600
N  0.76600 -3.09900 44.80100
C  -0.55100 -3.33200 45.01600
C  -0.77600 -4.78200 45.69500
C  0.69300 -5.30400 45.61200
C  1.53400 -4.07900 45.14200
C  -1.39400 -4.75900 47.05600
C  0.93300 -6.58800 44.81000
C  0.85700 -7.85500 45.65000
N  3.25700 -1.80500 44.30800
C  3.80900 -2.97200 44.81300
C  5.29200 -2.94700 44.75900
C  5.52900 -1.74200 44.16200
C  4.28000 -1.14400 43.89600
C  6.31100 -3.94600 45.30600
C  6.63800 -0.81800 43.71600
O  7.89300 -0.91600 43.74200
C  5.85900 0.36400 43.03100
C  6.35800 1.64200 43.70500
O  5.91900 2.11400 44.71800
O  7.44300 2.16100 42.93500
C  8.04900 3.46800 43.31500
H  -0.65700 2.38100 42.09000
H  -2.66300 -2.92300 45.12100
H  3.44700 -4.85900 45.76800
H  4.20300 2.91800 42.09500
H  1.50600 3.00500 40.93500
H  1.56900 4.85000 42.40800
H  2.77900 4.12900 43.53800
H  1.24900 3.75400 43.81600
H  5.03200 2.15900 40.03200
H  3.28400 2.45000 39.65800
H  2.89300 0.00500 40.23100
H  4.55800 -0.15900 39.85300
H  -4.30900 2.01800 42.90300
H  -3.44200 1.65400 41.35600
H  -2.71300 2.67300 42.46300
H  -5.89300 -1.75700 45.37200
H  -4.28300 -2.02500 46.11800
H  -4.73300 -2.72600 44.52300
H  -1.35200 -5.35000 44.96400
H  1.12600 -5.37000 46.61100
H  -1.78900 -5.75700 47.24600
H  -2.21500 -4.04400 47.00300
H  -0.70300 -4.37700 47.80700
H  1.86800 -6.54900 44.25100
H  0.09600 -6.58700 44.11300
H  1.05800 -8.67800 44.96500
H  -0.09300 -7.97800 46.17000
H  1.56800 -7.87900 46.47700
H  5.96000 -4.94400 45.04500
H  6.53200 -3.87600 46.37200
H  7.17200 -3.69700 44.68700
H  6.15200 0.42400 41.98300
H  7.91800 3.68400 44.37500
H  7.51900 4.21800 42.72700
H  9.09500 3.60400 43.04200
Mg 40.61200 9.62400 29.20300
C  42.36000 10.76500 31.79900
C  38.37000 8.07300 31.42700
C  38.72700 8.43800 26.56700
C  42.80200 10.93400 26.97000
N  40.45500 9.39400 31.39900
C  41.15400 10.22300 32.28200
C  40.69600 10.16600 33.71700
C  39.54100 9.08100 33.54000
C  39.49200 8.74000 32.03100
C  39.70400 7.72400 34.36100
C  40.14100 11.55200 34.09200
C  39.59100 11.75700 35.43600
H  40.27100 12.48800 36.53600
N  38.85500 8.33300 29.03500
C  38.12000 7.83200 30.07800
C  37.02500 6.97100 29.55500
C  37.03900 7.16300 28.14400
C  38.18100 8.01000 27.83400
C  35.92500 6.32100 30.42300
C  36.18000 6.60100 27.04300
O  36.29300 6.89200 25.87200
C  34.96600 5.80500 27.37200
N  40.64000 9.79500 27.06700
C  39.85400 9.13900 26.16600
C  40.33300 9.32000 24.66700
C  41.60300 10.20500 24.89800
C  41.65300 10.40800 26.40800
C  40.45900 8.06100 23.76700
C  41.59700 11.58500 24.11900
C  40.85900 12.82000 24.76500
N  42.22900 10.57500 29.27200
C  43.08900 11.06500 28.33800
C  44.27100 11.63100 28.97000
C  43.95900 11.58700 30.36000
C  42.80000 10.83700 30.47600
C  45.46800 12.19800 28.32200
C  44.43700 11.92300 31.68200
O  45.51600 12.36500 31.88200
C  43.31800 11.55900 32.63000
C  43.97100 10.89600 33.83900
O  44.34400 9.71000 33.87300
O  44.02000 11.70000 34.95900
C  44.54000 11.20900 36.21800
H  37.71500 7.58800 32.15400
H  38.33300 7.89300 25.70700
H  43.64300 11.21600 26.33200
H  41.41400 9.94100 34.50600
H  38.53600 9.41900 33.79400
H  39.58600 6.84200 33.73200
H  39.08200 7.73000 35.25600
H  40.71600 7.69000 34.76500
H  39.38000 11.94800 33.42000
H  40.94600 12.23700 33.82500
H  39.49400 10.73500 35.80200
H  38.57200 12.13300 35.34700
H  36.35900 5.37700 30.75000
H  34.92700 6.19300 30.00200
H  35.87800 6.96100 31.30400
H  35.26500 5.08600 28.13500
H  34.75100 5.31900 26.42000
H  34.07800 6.39100 27.60900
H  39.62000 9.99600 24.19600
H  42.52500 9.72600 24.56700
H  41.04500 7.38400 24.38800
H  41.23900 8.16200 23.01200
H  39.55000 7.55700 23.43700
H  41.19100 11.34800 23.13600
H  42.65500 11.75400 23.92000
H  40.58700 12.55500 25.78600
H  40.01400 13.25600 24.23100
H  41.61000 13.59800 24.90300
H  45.63900 13.11700 28.88200
H  45.15900 12.42400 27.30100
H  46.29800 11.49100 28.32100
H  42.84300 12.43300 33.07600
H  44.02600 10.26400 36.39200
H  44.23900 11.91100 36.99400
H  45.62900 11.16300 36.23300

