158

Mg 16.52300 -1.91400 27.85100
C  15.47500 0.31200 30.37400
C  18.79200 -3.31500 30.12000
C  17.71000 -3.72800 25.35900
C  14.43300 0.02400 25.59200
N  17.11100 -1.42300 29.94000
C  16.49500 -0.51600 30.83300
C  16.96900 -0.85100 32.26400
C  18.16400 -1.75400 32.06700
C  18.11000 -2.15400 30.61600
C  19.54700 -1.07700 32.31900
C  15.88300 -1.43500 33.21800
C  15.41300 -0.50900 34.29900
H  16.45300 0.37000 35.10600
N  17.88800 -3.36900 27.83700
C  18.65800 -3.84200 28.85600
C  19.26200 -5.13100 28.50100
C  19.05000 -5.26000 27.12000
C  18.21600 -4.10500 26.71700
C  20.04500 -6.14200 29.38700
C  19.52600 -6.41600 26.17400
O  19.30200 -6.31800 25.00200
C  20.34700 -7.48200 26.72100
N  16.33800 -1.62200 25.72400
C  16.93300 -2.57800 24.91100
C  16.45700 -2.34800 23.46500
C  15.29500 -1.33900 23.61600
C  15.35300 -1.00600 25.10800
C  17.55300 -2.00600 22.44300
C  13.87300 -1.83400 23.12000
C  12.87400 -2.56400 24.07500
N  15.24400 -0.11900 27.91600
C  14.43800 0.44000 26.93500
C  13.60400 1.42700 27.51000
C  13.93100 1.32500 28.89700
C  14.98600 0.44400 29.05200
C  12.63600 2.32900 26.74600
C  13.56300 1.92200 30.17500
O  12.75600 2.82600 30.49400
C  14.56000 1.24900 31.20600
C  15.39200 2.27400 31.94700
O  16.58200 2.58400 31.83300
O  14.59000 2.80300 32.94700
C  15.15500 3.94500 33.57500
H  19.27600 -3.89100 30.91100
H  18.19100 -4.28200 24.55000
H  13.83600 0.53800 24.83600
H  17.30000 0.15600 32.51900
H  18.12300 -2.68900 32.62600
H  19.37500 -0.15400 32.87300
H  20.25300 -0.99500 31.49300
H  20.04100 -1.77000 33.00000
H  16.17800 -2.44000 33.51900
H  14.97500 -1.69300 32.67400
H  14.94000 -1.20700 34.98900
H  14.54200 0.10500 34.07000
H  19.47800 -7.06000 29.54200
H  20.19800 -5.68700 30.36500
H  21.08600 -6.32100 29.11600
H  21.33600 -7.18600 27.07200
H  20.63100 -8.06500 25.84500
H  19.67900 -7.95900 27.43800
H  16.08500 -3.34300 23.22200
H  15.51100 -0.42000 23.07300
H  18.54500 -2.14400 22.87200
H  17.27100 -0.99600 22.14700
H  17.56000 -2.56700 21.50800
H  14.07900 -2.56700 22.34100
H  13.39300 -0.99700 22.61300
H  13.20700 -2.49000 25.11000
H  12.70000 -3.55600 23.65800
H  11.88400 -2.11000 24.04100
H  12.53600 1.93600 25.73400
H  13.03300 3.33600 26.62100
H  11.67000 2.27200 27.24600
H  13.97900 0.64700 31.90400
H  15.25600 4.76100 32.85900
H  16.06800 3.79600 34.15200
H  14.39400 4.44000 34.17900
Mg 36.33900 49.97800 25.54700
C  36.35300 48.28200 28.51600
C  35.17500 52.82600 27.17400
C  36.00700 51.44900 22.49800
C  37.32400 47.12700 23.98500
N  35.74400 50.42500 27.57300
C  35.91500 49.60500 28.60900
C  35.77400 50.49800 29.91700
C  35.27700 51.89700 29.47300
C  35.39300 51.74600 27.98800
C  34.05500 52.43400 30.17500
C  37.10300 50.47000 30.70900
C  37.04000 50.21000 32.18000
H  35.75400 50.17200 33.04300
N  35.77800 51.85300 24.91300
C  35.34500 52.89700 25.71200
C  35.01800 54.04800 24.89700
C  35.22800 53.61400 23.55600
C  35.72900 52.26700 23.58900
C  34.31200 55.29100 25.41100
C  34.94900 54.50200 22.29500
O  35.10400 54.16000 21.16300
C  34.31900 55.88800 22.35600
N  36.67400 49.39800 23.59400
C  36.46600 50.17400 22.49800
C  36.80900 49.50200 21.18100
C  37.66800 48.30800 21.72500
C  37.21100 48.25200 23.17400
C  35.70400 49.01400 20.17600
C  39.23100 48.44200 21.65500
C  40.06700 47.15400 21.28800
N  36.68100 48.02200 26.06400
C  37.11000 46.91900 25.36200
C  37.29900 45.71400 26.17100
C  37.08400 46.22600 27.44600
C  36.73000 47.62900 27.29700
C  37.87800 44.35200 25.74300
C  37.21800 45.97100 28.91100
O  37.67100 45.01800 29.48200
C  36.66200 47.22400 29.63400
C  35.51400 46.87700 30.44200
O  34.36000 46.80900 29.99900
O  35.90100 46.43300 31.66000
C  34.82300 45.88000 32.56800
H  34.77000 53.65200 27.76300
H  35.99100 51.80600 21.46600
H  37.59900 46.17100 23.53500
H  34.99900 50.00000 30.49800
H  36.05000 52.63300 29.69100
H  34.39700 53.29200 30.75400
H  33.55000 51.74200 30.84900
H  33.32200 52.76200 29.43700
H  37.50600 51.47200 30.56500
H  37.85700 49.88400 30.18300
H  37.76100 50.87300 32.65600
H  37.50500 49.22800 32.27200
H  33.29900 55.25700 25.00800
H  34.85100 56.21900 25.22000
H  34.26800 55.14500 26.49000
H  34.43300 56.30800 21.35700
H  34.92300 56.58800 22.93400
H  33.29000 55.82900 22.71200
H  37.50900 50.17000 20.67900
H  37.35600 47.40000 21.20800
H  34.77200 49.56900 20.28500
H  35.45300 47.97600 20.39200
H  36.05300 49.10600 19.14700
H  39.64300 49.01200 22.48800
H  39.51700 49.18700 20.91200
H  40.47900 46.76300 22.21700
H  40.86200 47.41000 20.58800
H  39.29800 46.52600 20.83700
H  38.45600 44.02500 26.60700
H  38.55300 44.38000 24.88700
H  37.07400 43.64700 25.53500
H  37.39900 47.55100 30.36700
H  33.91100 46.47700 32.58200
H  35.14600 45.73800 33.59900
H  34.61500 44.89000 32.16300

