158

Mg 0.38100 8.13100 25.54200
C  1.38800 10.11800 28.08800
C  0.89100 5.41200 27.54700
C  -0.14100 6.18000 22.82000
C  0.67500 10.85000 23.40700
N  1.26200 7.77500 27.53900
C  1.28600 8.74100 28.44700
C  1.42600 8.17000 29.84900
C  1.45000 6.64700 29.67600
C  1.12200 6.60700 28.18600
C  2.80600 5.98300 30.01900
C  0.26700 8.58100 30.73300
C  0.41600 8.28400 32.23100
H  1.64300 7.54700 32.74700
N  0.35900 6.10100 25.22700
C  0.63800 5.08800 26.24600
C  0.40400 3.71800 25.74400
C  -0.02700 3.93800 24.34500
C  0.01000 5.44300 24.03700
C  0.43400 2.38000 26.51000
C  -0.41700 2.94500 23.19100
O  -0.73100 3.36100 22.10600
C  -0.50600 1.48500 23.44700
N  0.31900 8.47200 23.38200
C  0.02200 7.52800 22.44600
C  -0.10900 8.11800 20.98700
C  0.17700 9.59800 21.23800
C  0.40700 9.72400 22.79300
C  0.86100 7.45000 19.92900
C  -0.97800 10.55500 20.78600
C  -2.20300 10.51100 21.79000
N  0.95500 10.11300 25.65500
C  0.86200 11.08800 24.75200
C  1.17900 12.36400 25.38200
C  1.26800 12.03500 26.78900
C  1.21700 10.62900 26.82500
C  1.32700 13.65800 24.74000
C  1.65900 12.54300 28.08600
O  2.00300 13.66500 28.47900
C  1.69800 11.33000 28.99100
C  3.04300 11.31300 29.63700
O  3.97100 10.55300 29.36800
O  2.98600 12.11600 30.65800
C  4.00000 11.96800 31.68800
H  0.87500 4.54600 28.21200
H  -0.33700 5.50500 21.98400
H  0.81400 11.77200 22.83900
H  2.27800 8.68300 30.29400
H  0.71500 6.12700 30.29000
H  3.52800 6.74600 30.30800
H  3.16900 5.59300 29.06800
H  2.74100 5.21000 30.78400
H  -0.59200 8.02200 30.36200
H  0.11000 9.65400 30.62400
H  -0.38800 7.60800 32.52200
H  0.36600 9.13000 32.91600
H  -0.43200 1.76400 26.26800
H  0.26700 2.38100 27.58700
H  1.33100 1.82400 26.23500
H  -1.37500 1.16300 24.02100
H  0.33100 1.13500 24.05100
H  -0.41800 0.96300 22.49400
H  -1.09600 7.84200 20.61600
H  1.05000 9.89200 20.65500
H  1.70800 6.94400 20.39300
H  1.15400 8.24200 19.24000
H  0.35400 6.65400 19.38300
H  -1.19200 10.26300 19.75800
H  -0.67800 11.60100 20.84800
H  -2.29100 11.35200 22.47700
H  -2.13200 9.54200 22.28400
H  -3.11600 10.46600 21.19600
H  0.39200 14.21300 24.68200
H  1.72200 13.39600 23.75800
H  1.94500 14.37500 25.28000
H  0.92700 11.63900 29.69700
H  4.91600 12.14300 31.12400
H  3.96100 10.94100 32.05000
H  3.78500 12.62100 32.53500
Mg -10.81100 16.57200 42.55000
C  -7.80100 15.04100 42.50500
C  -9.46900 19.35200 41.07200
C  -14.06200 17.90700 42.14600
C  -12.38000 13.58000 43.54200
N  -8.83100 17.05500 41.70700
C  -7.72000 16.34100 42.06700
C  -6.47600 17.14600 41.65900
C  -7.02300 18.60700 41.53600
C  -8.53800 18.33800 41.39400
C  -6.60600 19.67200 42.58200
C  -5.80600 16.65900 40.32800
C  -4.36000 16.07200 40.41300
H  -4.19900 14.89100 39.44100
N  -11.64700 18.43800 41.85100
C  -10.87700 19.34300 41.18900
C  -11.79500 20.39100 40.71600
C  -13.09600 20.12300 41.14100
C  -12.99300 18.81000 41.78300
C  -11.30300 21.57600 39.94600
C  -14.28100 20.98000 40.98300
O  -14.16800 22.15200 40.54900
C  -15.69500 20.60300 41.36700
N  -12.95100 15.81400 42.92500
C  -14.05800 16.60400 42.67400
C  -15.34300 15.86600 42.92500
C  -14.82800 14.54700 43.63900
C  -13.34500 14.59300 43.32300
C  -16.47300 16.49500 43.66200
C  -15.44100 13.23400 43.18900
C  -15.77000 12.21800 44.22300
N  -10.29400 14.69900 42.83700
C  -10.98400 13.57500 43.28600
C  -10.03700 12.50300 43.53400
C  -8.81700 13.07000 43.29200
C  -8.99700 14.36600 42.87300
C  -10.35800 11.07700 43.99900
C  -7.38100 12.74000 43.25800
O  -6.88200 11.66000 43.57800
C  -6.62700 14.05900 42.78500
C  -5.80700 14.52900 43.95400
O  -6.16500 15.07400 44.97800
O  -4.52200 14.29000 43.62600
C  -3.54800 14.84500 44.59500
H  -8.88600 20.16900 40.64100
H  -15.06900 18.12000 41.78000
H  -12.79700 12.66400 43.96600
H  -5.71500 17.08900 42.43700
H  -6.73800 19.01000 40.56400
H  -7.49100 20.11000 43.04400
H  -6.06500 20.44300 42.03200
H  -5.85200 19.35400 43.30200
H  -5.89300 17.46400 39.59900
H  -6.47400 16.00100 39.77300
H  -4.04300 15.68600 41.38200
H  -3.66600 16.88300 40.19200
H  -11.31900 22.41700 40.64000
H  -11.93100 21.81800 39.08900
H  -10.28500 21.54900 39.55800
H  -16.33600 21.43000 41.06400
H  -15.73300 20.44000 42.44400
H  -16.01000 19.76200 40.74800
H  -15.75500 15.58600 41.95500
H  -14.95800 14.55800 44.72100
H  -17.36000 16.59000 43.03500
H  -16.15600 17.48700 43.98000
H  -16.68600 15.85200 44.51500
H  -14.84400 12.66800 42.47400
H  -16.27400 13.45500 42.52200
H  -16.85900 12.18700 44.26100
H  -15.38000 12.47200 45.20900
H  -15.51300 11.16900 44.07000
H  -10.55900 10.46400 43.12000
H  -11.21500 11.02200 44.67000
H  -9.42900 10.78400 44.48600
H  -5.99400 13.84400 41.92500
H  -3.07400 15.77200 44.27200
H  -2.65500 14.23400 44.71900
H  -3.93500 15.17500 45.56000

