158

Mg 1.17900 -1.98000 43.43100
C  4.60400 -1.64500 42.87500
C  0.52000 0.63700 41.23000
C  -2.06600 -3.04700 43.03900
C  1.90800 -5.23600 44.66300
N  2.44300 -0.72400 42.25800
C  3.78900 -0.75400 42.13100
C  4.24400 0.16300 41.03400
C  2.95300 1.07200 40.84300
C  1.88500 0.33700 41.55500
C  3.17300 2.53600 41.34800
C  4.73200 -0.67400 39.87800
C  6.13400 -0.26500 39.37700
H  6.27700 0.45500 38.01800
N  -0.52000 -1.20600 42.45300
C  -0.60900 -0.05700 41.71500
C  -1.96100 0.16300 41.31600
C  -2.74900 -0.91600 41.77700
C  -1.79600 -1.77900 42.55100
C  -2.33400 1.27600 40.36400
C  -4.25000 -1.17900 41.43400
O  -4.77500 -0.39300 40.63800
C  -5.15100 -2.24800 42.10400
N  0.12400 -3.96300 43.74700
C  -1.26200 -4.03300 43.60400
C  -1.76000 -5.40200 43.95500
C  -0.51900 -6.06200 44.64600
C  0.59700 -5.08000 44.34500
C  -3.03500 -5.53600 44.76100
C  -0.14100 -7.54100 44.27100
C  -0.25500 -8.66200 45.26000
N  2.84200 -3.09300 44.00600
C  2.97600 -4.34000 44.45300
C  4.39100 -4.75500 44.54500
C  5.02700 -3.69500 43.93600
C  4.09700 -2.70200 43.64800
C  4.97800 -6.04200 45.05500
C  6.35800 -3.17600 43.59600
O  7.45000 -3.51500 43.96800
C  6.05200 -1.93200 42.67200
C  6.81100 -0.76800 43.30900
O  7.93000 -0.45500 43.03300
O  6.14300 -0.24200 44.42100
C  6.86500 0.86800 45.14000
H  0.25300 1.40200 40.49800
H  -3.00400 -3.53100 42.76100
H  2.22700 -6.18800 45.09500
H  5.02100 0.80000 41.45600
H  2.74400 1.02100 39.77400
H  3.10200 3.19500 40.48300
H  4.10000 2.72500 41.89100
H  2.38600 2.68000 42.08800
H  3.97500 -0.61500 39.09600
H  4.82800 -1.73900 40.08900
H  6.74900 -1.16400 39.39300
H  6.56300 0.39900 40.12700
H  -1.61800 2.07500 40.55800
H  -3.35100 1.65400 40.46800
H  -2.31000 0.76600 39.40100
H  -6.16600 -1.85400 42.16200
H  -4.86400 -2.41700 43.14200
H  -5.02500 -3.23500 41.66100
H  -1.82700 -5.82900 42.95400
H  -0.63500 -6.09600 45.72900
H  -3.65500 -4.64000 44.73500
H  -2.88300 -5.74400 45.82000
H  -3.59600 -6.42700 44.48100
H  0.87200 -7.55700 43.86800
H  -0.74300 -7.73900 43.38400
H  -0.56700 -8.30100 46.24000
H  0.67100 -9.20900 45.43600
H  -0.98800 -9.38200 44.89400
H  6.06300 -5.94000 45.07700
H  4.74500 -6.80900 44.31700
H  4.60300 -6.26600 46.05400
H  6.33400 -1.98700 41.62100
H  6.27600 1.49100 45.81300
H  7.50200 1.53700 44.56200
H  7.51800 0.33800 45.83400
Mg 26.11300 -0.09700 29.40100
C  27.71200 -0.46900 32.38400
C  23.10900 0.38200 31.16800
C  24.29800 -0.46100 26.54500
C  28.94000 -0.87400 27.72500
N  25.43300 -0.18700 31.55100
C  26.36000 -0.20100 32.58400
C  25.66900 0.09600 33.89000
C  24.12800 0.09600 33.44400
C  24.22300 0.16600 31.93800
C  23.30400 -1.13500 33.89100
C  26.15400 1.38900 34.51100
C  26.87400 1.30700 35.91000
H  26.26500 2.11700 37.08300
N  23.96300 -0.01300 28.91600
C  22.98200 0.13100 29.79200
C  21.69600 0.26500 29.08700
C  21.98700 0.04000 27.74800
C  23.47000 -0.11300 27.67500
C  20.43300 0.45600 29.88600
C  21.01500 -0.23500 26.55200
O  21.42400 -0.40300 25.41800
C  19.54400 -0.11700 26.82900
N  26.60900 -0.45200 27.37300
C  25.71100 -0.53100 26.39000
C  26.26400 -0.81700 25.04000
C  27.77800 -0.79900 25.34400
C  27.82900 -0.64700 26.90300
C  25.79900 -2.02900 24.20500
C  28.72200 0.28500 24.72700
C  29.03500 0.17800 23.20400
N  27.99800 -0.60200 29.87000
C  29.10200 -0.80000 29.12300
C  30.21500 -0.93100 29.91400
C  29.78900 -0.81400 31.22900
C  28.37700 -0.59800 31.11000
C  31.66300 -0.93400 29.40300
C  30.20800 -0.67300 32.63100
O  31.28600 -0.71500 33.10600
C  28.86100 -0.45700 33.44900
C  28.74900 -1.54200 34.42400
O  28.01300 -2.54200 34.22100
O  29.39900 -1.27500 35.60600
C  29.01100 -2.11600 36.72000
H  22.24500 0.70700 31.75200
H  23.75600 -0.60700 25.60900
H  29.79700 -1.14300 27.10400
H  25.93100 -0.76000 34.51300
H  23.62400 1.03000 33.69300
H  22.73800 -1.54900 33.05700
H  22.60100 -0.87300 34.68200
H  23.99500 -1.83000 34.37000
H  25.28400 2.02000 34.69700
H  26.85000 1.85500 33.81400
H  27.90600 1.63000 35.77600
H  26.97200 0.25100 36.16200
H  20.08700 1.46700 30.09700
H  20.43900 -0.20100 30.75500
H  19.58000 0.05900 29.33600
H  19.13200 -0.94700 27.40300
H  18.94900 -0.09000 25.91600
H  19.26700 0.77000 27.39800
H  26.03000 0.13700 24.56700
H  28.24600 -1.74000 25.05500
H  24.94200 -2.55800 24.62400
H  26.50400 -2.81200 23.92700
H  25.37600 -1.62800 23.28400
H  29.64400 0.15900 25.29600
H  28.20300 1.20600 24.99300
H  28.66900 1.05300 22.66600
H  28.57700 -0.72400 22.79700
H  30.09500 0.07900 22.96900
H  32.25300 -0.24200 30.00500
H  31.67800 -0.64200 28.35300
H  32.08500 -1.93300 29.51500
H  28.97700 0.47800 33.99700
H  29.80500 -2.22800 37.45900
H  28.78500 -3.13200 36.39600
H  28.23200 -1.52900 37.20500

