158

Mg 35.65500 3.00300 30.41400
C  33.08700 3.92700 32.76700
C  37.77400 2.81700 33.20000
C  38.09000 2.45900 28.29800
C  33.31400 3.21700 27.74700
N  35.41000 3.42900 32.80300
C  34.28700 3.58800 33.46700
C  34.46900 3.65400 34.99200
C  36.02000 3.47700 35.11800
C  36.44200 3.19500 33.65900
C  36.75600 4.75100 35.79000
C  33.58500 2.61900 35.76100
C  33.97900 2.26500 37.16800
H  34.55700 3.40600 38.04400
N  37.68900 2.77900 30.67200
C  38.33200 2.55200 31.86800
C  39.68500 2.17400 31.56100
C  39.81400 2.06100 30.14800
C  38.56200 2.44200 29.64400
C  40.85300 1.84600 32.52700
C  41.00600 1.65300 29.26100
O  41.03000 1.84000 28.02000
C  42.18900 1.00800 29.97700
N  35.66000 2.98100 28.26400
C  36.86700 2.74600 27.70600
C  36.74400 2.82100 26.15000
C  35.13100 2.81700 26.01500
C  34.67100 2.98900 27.44300
C  37.43200 4.04900 25.51200
C  34.66900 1.51400 25.29400
C  33.75400 1.76100 24.06800
N  33.67200 3.50600 30.26300
C  32.89500 3.51000 29.06600
C  31.53400 3.84100 29.51800
C  31.58100 4.04100 30.89500
C  32.91200 3.87300 31.34500
C  30.37400 3.80500 28.55300
C  30.79100 4.38500 32.03100
O  29.58900 4.69800 32.13500
C  31.71900 4.24100 33.24900
C  31.69400 5.44600 34.07800
O  32.35900 6.46300 33.78900
O  30.99600 5.35700 35.23500
C  31.19000 6.45000 36.25700
H  38.46400 2.69300 34.03800
H  38.84300 2.26100 27.53200
H  32.54700 3.16800 26.97100
H  34.15600 4.66800 35.23800
H  36.42600 2.67500 35.73500
H  37.46900 4.47100 36.56600
H  36.01900 5.47600 36.13500
H  37.39600 5.21400 35.03900
H  33.83900 1.72600 35.19000
H  32.51400 2.80600 35.68600
H  34.66500 1.42100 37.24700
H  33.01300 1.98700 37.58700
H  41.77300 2.41500 32.39100
H  40.91400 0.76800 32.67400
H  40.50300 2.26200 33.47200
H  41.97600 0.30100 30.77900
H  42.77300 1.84100 30.37000
H  42.87100 0.55000 29.26100
H  37.25600 1.96300 25.71500
H  34.66600 3.64900 25.48700
H  36.68000 4.73900 25.13000
H  38.05500 3.77700 24.66000
H  37.99900 4.68500 26.19200
H  34.03100 0.99400 26.00900
H  35.47100 0.82200 25.03600
H  34.33100 1.39700 23.21800
H  33.42700 2.79500 23.96300
H  32.84100 1.17900 24.19700
H  30.63000 4.52200 27.77300
H  29.38300 3.86700 29.00300
H  30.44100 2.88700 27.97000
H  31.28300 3.45100 33.85900
H  31.56600 7.39000 35.85500
H  31.79700 6.19400 37.12500
H  30.19300 6.61400 36.66700
Mg 9.47900 48.31400 25.78000
C  6.91400 49.04300 28.14600
C  11.79800 49.54200 27.95200
C  11.70100 48.07100 23.41300
C  6.95200 47.72200 23.44800
N  9.39700 49.14700 27.75900
C  8.26500 49.04100 28.60000
C  8.69900 48.99000 30.03700
C  10.22700 49.61900 29.98400
C  10.54200 49.46300 28.49100
C  10.36100 51.07800 30.51900
C  8.45400 47.54600 30.64000
C  8.11400 47.58700 32.17300
H  8.63800 46.62400 33.19600
N  11.48300 48.50100 25.77300
C  12.29800 48.98500 26.76500
C  13.69000 48.92200 26.37500
C  13.63100 48.34200 25.04100
C  12.23100 48.28300 24.73400
C  14.90500 49.24700 27.28900
C  14.77900 47.96600 24.06200
O  14.57300 47.48200 22.93600
C  16.17800 48.17900 24.49100
N  9.28300 48.15900 23.58600
C  10.39300 47.98400 22.92400
C  10.11000 47.64200 21.45200
C  8.53600 47.69900 21.38700
C  8.25600 47.77000 22.87100
C  10.77600 48.53600 20.44200
C  7.89300 46.50100 20.59300
C  7.17500 46.77600 19.29900
N  7.35200 48.27900 25.77800
C  6.49700 48.05700 24.70700
C  5.12900 48.26300 25.15100
C  5.28000 48.64400 26.47700
C  6.59700 48.66700 26.83800
C  3.90700 48.04300 24.31300
C  4.55400 49.02500 27.69900
O  3.33100 49.02600 27.83000
C  5.59100 49.28000 28.89800
C  5.09000 48.32800 30.01400
O  4.87700 47.12000 29.93500
O  4.87500 49.10200 31.12200
C  4.08400 48.53000 32.14200
H  12.57300 49.83800 28.66200
H  12.36300 47.75500 22.60400
H  6.20200 47.57700 22.66700
H  8.14800 49.72500 30.62400
H  10.85800 48.97900 30.60100
H  10.74600 51.75800 29.75900
H  11.06100 51.07300 31.35500
H  9.43400 51.54500 30.85400
H  9.36600 46.95100 30.59100
H  7.74700 46.98500 30.02900
H  7.02800 47.65900 32.23700
H  8.31200 48.59900 32.52900
H  14.60100 49.49600 28.30500
H  15.52700 50.05200 26.89700
H  15.57100 48.38500 27.25800
H  16.45900 47.43000 25.23100
H  16.29200 49.19000 24.88100
H  16.89100 48.03600 23.67900
H  10.38800 46.58800 21.44500
H  8.24900 48.65400 20.94600
H  11.34400 49.23300 21.05800
H  10.08600 49.05700 19.77900
H  11.45900 47.93000 19.84600
H  7.24500 45.97800 21.29600
H  8.66400 45.75600 20.39400
H  7.19100 47.79700 18.91800
H  6.12000 46.60200 19.50900
H  7.50800 46.10900 18.50300
H  4.19100 48.16200 23.26700
H  3.17200 48.83000 24.48000
H  3.42300 47.07000 24.39800
H  5.46600 50.33500 29.14400
H  3.61900 47.55700 31.98400
H  3.31100 49.24600 32.42100
H  4.72400 48.53100 33.02500

