158

Mg 17.04600 -1.77100 28.07700
C  16.30600 0.26600 30.95000
C  18.88300 -3.73400 30.29400
C  18.31600 -3.44700 25.39700
C  15.73300 0.59500 26.02000
N  17.57500 -1.67500 30.37900
C  17.08200 -0.86000 31.33700
C  17.60600 -1.16200 32.72200
C  18.55100 -2.36600 32.44100
C  18.27500 -2.63200 30.96400
C  20.11600 -2.28500 32.73900
C  16.46400 -1.48000 33.79000
C  16.68200 -0.91800 35.19400
H  18.07000 -0.34600 35.55800
N  18.24100 -3.45300 27.86100
C  18.84800 -4.15200 28.90600
C  19.42200 -5.40000 28.38600
C  19.33000 -5.33400 26.95700
C  18.59200 -4.03800 26.69200
C  20.04800 -6.46600 29.29000
C  19.78900 -6.30100 25.97400
O  19.71000 -6.12500 24.76600
C  20.64700 -7.48400 26.38500
N  17.00000 -1.53800 26.05500
C  17.57400 -2.27700 25.11100
C  17.54800 -1.68700 23.72900
C  16.58500 -0.55000 24.04900
C  16.39700 -0.52400 25.46200
C  18.95300 -1.18500 23.26000
C  15.22500 -0.67800 23.23200
C  14.98600 0.54500 22.22800
N  16.14200 -0.02500 28.35800
C  15.63700 0.75500 27.41400
C  14.88100 1.85400 28.00600
C  15.11400 1.69800 29.42000
C  15.99900 0.60500 29.58200
C  14.06800 2.85000 27.31700
C  14.90700 2.32900 30.72700
O  14.38000 3.31600 31.07500
C  15.55400 1.34600 31.75200
C  16.55500 2.11000 32.51900
O  17.66500 2.40400 32.21500
O  15.98200 2.52500 33.74100
C  16.82400 3.51300 34.42900
H  19.46800 -4.25900 31.05200
H  18.50600 -4.04100 24.50000
H  15.23700 1.24900 25.30000
H  18.26200 -0.35500 33.04900
H  18.23800 -3.26900 32.96600
H  20.33800 -1.33800 33.23100
H  20.71900 -2.38500 31.83700
H  20.28500 -3.20600 33.29700
H  16.21600 -2.53900 33.72900
H  15.64900 -0.85800 33.42100
H  16.40000 -1.75700 35.83100
H  15.93200 -0.14600 35.36700
H  19.87300 -6.33500 30.35800
H  21.13400 -6.53100 29.35800
H  19.69800 -7.47700 29.08300
H  19.97100 -8.19300 26.86200
H  21.47600 -7.28500 27.06300
H  21.18600 -8.08300 25.65000
H  17.26700 -2.45800 23.01200
H  17.04000 0.36800 23.67600
H  19.03200 -0.09900 23.32200
H  19.02100 -1.50900 22.22200
H  19.74900 -1.71600 23.78200
H  14.43500 -0.79400 23.97400
H  15.11100 -1.52100 22.55000
H  14.60700 0.16400 21.27900
H  15.88400 1.14300 22.07200
H  14.18700 1.16000 22.64100
H  13.13300 2.45600 26.91700
H  14.56700 3.32000 26.47000
H  13.75600 3.70100 27.92300
H  14.89400 1.01400 32.55400
H  17.03000 4.27300 33.67600
H  17.74600 3.06300 34.79700
H  16.28100 4.03800 35.21500
Mg 9.35000 47.55500 27.51200
C  7.20700 47.26800 30.25600
C  12.00800 47.95000 29.72000
C  11.30500 48.33900 25.01200
C  6.54700 47.57900 25.50000
N  9.50600 47.78800 29.74700
C  8.49500 47.49200 30.66100
C  9.00300 47.60300 32.17600
C  10.56900 47.86900 31.86500
C  10.76000 47.78100 30.33800
C  11.21500 49.15800 32.50400
C  8.62300 46.48500 33.21900
C  9.40400 46.41900 34.51000
H  8.94900 45.62000 35.67700
N  11.42500 47.89000 27.30100
C  12.31900 48.04600 28.30900
C  13.60000 48.29800 27.72800
C  13.43100 48.28100 26.31100
C  11.99000 48.18500 26.13200
C  14.80000 48.32400 28.50500
C  14.42600 48.27600 25.17800
O  14.10600 48.10400 24.04100
C  15.78900 48.45300 25.50000
N  8.91200 48.03200 25.50200
C  9.93900 48.29000 24.70300
C  9.42400 48.34900 23.24500
C  7.83700 48.04100 23.38500
C  7.74200 47.80600 24.88700
C  9.79200 49.75100 22.55100
C  7.45100 46.79400 22.58000
C  6.02800 46.77700 21.93700
N  7.31700 47.36200 27.69800
C  6.25600 47.48100 26.81500
C  5.00300 47.30800 27.46900
C  5.31600 47.16300 28.81700
C  6.70400 47.30500 28.92700
C  3.71800 47.34300 26.81300
C  4.76600 47.07300 30.15600
O  3.61000 47.02700 30.52100
C  6.00200 46.93400 31.14000
C  6.05500 45.54200 31.78300
O  6.74000 44.61900 31.43600
O  5.22000 45.52800 32.87300
C  5.20700 44.22900 33.62900
H  12.78100 48.14700 30.46500
H  11.92300 48.60000 24.15000
H  5.66500 47.56200 24.85700
H  8.58200 48.50800 32.61400
H  11.03500 46.94000 32.19500
H  12.27500 48.93700 32.62800
H  10.81300 49.36100 33.49700
H  11.06300 50.09900 31.97600
H  8.70100 45.50900 32.74000
H  7.59500 46.66900 33.53000
H  9.60900 47.45200 34.79100
H  10.34100 45.93700 34.22800
H  15.59000 47.61600 28.25700
H  14.78100 48.30600 29.59500
H  15.31600 49.25400 28.26600
H  16.37100 48.23900 24.60400
H  16.07100 47.71500 26.25200
H  15.86500 49.49700 25.80500
H  9.86500 47.55200 22.64600
H  7.12200 48.86300 23.36000
H  10.23000 50.39500 23.31400
H  8.91200 50.18200 22.07300
H  10.52300 49.49700 21.78400
H  7.47000 45.92900 23.24300
H  8.17900 46.52300 21.81500
H  5.29100 46.20400 22.49900
H  6.04100 46.43500 20.90200
H  5.73700 47.81500 21.77600
H  3.32400 48.35900 26.86500
H  3.10900 46.74200 27.48800
H  3.89000 46.90100 25.83200
H  5.82400 47.76000 31.82900
H  6.19900 44.02500 34.03200
H  4.82800 43.35100 33.10600
H  4.64500 44.45400 34.53500

