158

Mg 44.85000 4.08400 47.08300
C  43.36600 7.14700 47.22000
C  41.79100 2.57600 46.49900
C  46.39000 0.97900 46.40300
C  47.94600 5.58800 46.96000
N  42.76800 4.83400 46.82900
C  42.45400 6.13400 47.01800
C  40.92200 6.34100 46.97500
C  40.39400 4.81200 46.84700
C  41.69600 3.97400 46.72400
C  39.54000 4.37300 48.12300
C  40.31500 7.35000 45.89800
C  40.95900 7.29900 44.54400
H  40.13000 6.98000 43.36700
N  44.16700 2.03500 46.67500
C  42.88500 1.69400 46.45000
C  42.78800 0.24800 46.24500
C  44.12900 -0.21200 46.19300
C  44.95100 0.92900 46.35100
C  41.45500 -0.53400 45.90700
C  44.43400 -1.67700 45.80800
O  43.48200 -2.43700 45.65300
C  45.84600 -2.15000 45.63400
N  46.82100 3.45500 46.58800
C  47.22000 2.15600 46.53100
C  48.73200 1.93900 46.54500
C  49.26600 3.47900 46.69500
C  47.94600 4.22200 46.74600
C  49.32800 0.99600 47.64000
C  50.30200 3.89800 45.62200
C  51.62500 4.58000 46.14400
N  45.59700 6.00200 47.13100
C  46.85600 6.46700 47.11000
C  46.89200 7.89700 47.29300
C  45.50800 8.21500 47.38200
C  44.77800 7.00800 47.26600
C  48.04000 8.86500 47.43600
C  44.52200 9.27300 47.53400
O  44.69300 10.47700 47.74300
C  43.08200 8.58300 47.47300
C  42.38300 8.74600 48.81400
O  42.59300 8.18600 49.86900
O  41.45600 9.70800 48.64600
C  40.46700 10.01500 49.77400
H  40.84300 2.07000 46.30600
H  46.88500 0.02300 46.22200
H  48.91900 6.08300 46.98000
H  40.76800 6.80400 47.95000
H  39.84000 4.68300 45.91800
H  38.66800 3.87500 47.69900
H  39.21200 5.20600 48.74500
H  40.21000 3.75900 48.72600
H  40.14000 8.33800 46.32300
H  39.27900 7.05600 45.73300
H  41.80100 6.60800 44.50800
H  41.48800 8.24600 44.44000
H  41.51100 -1.59500 46.14700
H  41.17400 -0.36000 44.86800
H  40.63400 -0.17500 46.52800
H  46.32000 -1.78100 46.54400
H  46.28400 -1.66300 44.76300
H  45.89000 -3.22800 45.48200
H  49.03000 1.50000 45.59300
H  49.74200 3.48100 47.67600
H  49.56000 0.00000 47.26200
H  48.58300 0.90900 48.43000
H  50.23100 1.43000 48.06900
H  49.67400 4.60200 45.07700
H  50.54700 3.04000 44.99500
H  52.44200 4.20000 45.53100
H  51.75400 4.38500 47.20900
H  51.50400 5.65700 46.02900
H  47.69500 9.88500 47.27100
H  48.78500 8.63900 46.67300
H  48.42800 8.85900 48.45500
H  42.39800 8.99100 46.72900
H  41.04400 10.21700 50.67700
H  39.79100 9.17500 49.93400
H  39.86100 10.85700 49.44000
Mg 16.51500 51.81600 26.36900
C  18.41900 50.11100 28.73000
C  14.40200 52.75000 28.86300
C  14.88600 53.26900 24.09400
C  18.76100 50.46500 23.93800
N  16.50300 51.55100 28.50800
C  17.38300 50.84200 29.23900
C  17.26600 51.13500 30.74300
C  15.78800 51.54800 30.80100
C  15.53800 52.04900 29.33000
C  14.88900 50.27700 31.06700
C  18.20500 52.19800 31.29900
C  18.60700 52.01700 32.74700
H  17.44500 51.53300 33.69000
N  14.86700 52.92500 26.50600
C  14.10700 53.21800 27.58500
C  13.01500 54.06800 27.26500
C  13.23000 54.37400 25.88000
C  14.30500 53.50100 25.38300
C  12.04200 54.68200 28.18900
C  12.48400 55.32500 24.95200
O  12.79400 55.53100 23.74400
C  11.29400 56.12300 25.54900
N  16.68200 51.65600 24.20300
C  15.83600 52.46700 23.55400
C  16.22700 52.55800 22.00300
C  17.55100 51.68900 21.95100
C  17.72000 51.28600 23.43600
C  15.18000 52.15700 20.91600
C  18.79900 52.25800 21.16800
C  19.59400 53.39800 21.81000
N  18.15800 50.49000 26.28300
C  19.00900 50.05800 25.30700
C  20.20000 49.37500 25.82600
C  20.01800 49.37900 27.19800
C  18.74900 50.05100 27.41500
C  21.31800 48.71900 25.07400
C  20.50100 48.89100 28.46500
O  21.49500 48.15200 28.64100
C  19.50700 49.31600 29.52500
C  19.09300 48.18000 30.37700
O  18.15400 47.44000 30.16800
O  19.64100 48.35900 31.61200
C  19.12100 47.61900 32.72200
H  13.52200 52.85600 29.50100
H  14.52300 53.84100 23.23800
H  19.54700 50.14000 23.25400
H  17.38200 50.22600 31.33300
H  15.55800 52.31000 31.54700
H  14.14100 50.15600 30.28400
H  14.49200 50.37000 32.07800
H  15.43400 49.33500 31.11600
H  17.71500 53.16800 31.21900
H  19.14500 52.23100 30.74800
H  19.00700 52.92600 33.19800
H  19.33700 51.21200 32.82800
H  12.02100 54.29800 29.20900
H  10.99200 54.65200 27.89700
H  12.43800 55.68300 28.36300
H  10.36000 55.56200 25.58600
H  11.01000 56.82800 24.76700
H  11.63300 56.72500 26.39200
H  16.53100 53.59700 21.87000
H  17.24100 50.75600 21.47900
H  14.94000 53.02100 20.29600
H  14.32000 51.72600 21.42800
H  15.52400 51.37200 20.24300
H  18.37300 52.65300 20.24600
H  19.47200 51.43400 20.92800
H  19.12500 53.81800 22.70000
H  19.78000 54.11400 21.00900
H  20.54700 52.90900 22.01400
H  21.34400 47.65100 25.28700
H  22.27800 49.18000 25.30500
H  21.06700 48.76200 24.01400
H  19.95500 50.16000 30.04900
H  18.47100 46.79500 32.42700
H  18.63700 48.36500 33.35300
H  19.95700 47.15200 33.24200

