158

Mg 17.32900 -1.47900 27.77800
C  16.16200 0.42200 30.57600
C  19.42300 -3.08500 29.72700
C  18.78800 -2.73200 24.96300
C  15.57300 0.87300 25.76900
N  17.77900 -1.28600 29.91400
C  17.12500 -0.59700 30.84400
C  17.63800 -0.93000 32.24300
C  18.88200 -1.87200 31.95400
C  18.66100 -2.11000 30.44400
C  20.31600 -1.27200 32.23900
C  16.49000 -1.46700 33.11300
C  16.33900 -0.84400 34.52500
H  17.65600 -0.29600 35.23700
N  18.71100 -2.94100 27.41200
C  19.43100 -3.51300 28.39800
C  20.20500 -4.60400 27.75100
C  20.12600 -4.42900 26.32900
C  19.18600 -3.33600 26.16300
C  20.96100 -5.57000 28.55500
C  20.69800 -5.26700 25.18700
O  20.62900 -5.06200 23.98000
C  21.55400 -6.44900 25.54100
N  17.16700 -0.98200 25.72600
C  17.94000 -1.63900 24.72300
C  17.67400 -1.03000 23.36200
C  16.39400 -0.17600 23.65400
C  16.37500 -0.04300 25.14300
C  18.91400 -0.36700 22.65100
C  15.13700 -0.91100 23.09800
C  13.81200 -0.10500 23.02200
N  16.10700 0.35300 28.05700
C  15.38200 1.05500 27.12600
C  14.50700 1.98500 27.79300
C  14.78900 1.79400 29.19800
C  15.79600 0.78800 29.27000
C  13.52900 3.01900 27.23500
C  14.44500 2.21600 30.53800
O  13.60900 2.96700 30.94700
C  15.40100 1.32000 31.54400
C  16.23600 2.28400 32.22300
O  17.40400 2.51800 32.04400
O  15.49500 2.91400 33.22400
C  16.29400 3.82500 34.04400
H  20.17800 -3.59800 30.32700
H  19.32100 -3.04500 24.06300
H  15.16600 1.69200 25.17300
H  18.00200 0.01300 32.65100
H  18.82500 -2.77800 32.55700
H  20.65000 -1.71400 33.17800
H  20.31200 -0.18300 32.28500
H  21.08400 -1.46800 31.49100
H  16.35200 -2.54800 33.10800
H  15.59600 -1.25500 32.52600
H  15.79200 -1.65500 35.00700
H  15.70000 0.03600 34.44900
H  20.52700 -6.57000 28.54500
H  21.04300 -5.17600 29.56800
H  21.94200 -5.58600 28.08100
H  22.60500 -6.16200 25.55600
H  21.54000 -7.14600 24.70400
H  21.12100 -7.05600 26.33600
H  17.34700 -1.93900 22.85800
H  16.45900 0.76600 23.11100
H  18.79200 0.71300 22.72600
H  18.96800 -0.59000 21.58600
H  19.87100 -0.64500 23.09300
H  14.91000 -1.74600 23.76000
H  15.38500 -1.28200 22.10300
H  13.89100 0.89400 23.45200
H  13.02800 -0.56900 23.62100
H  13.39400 -0.09900 22.01500
H  13.80800 3.08600 26.18400
H  13.66500 3.97100 27.74800
H  12.50200 2.67600 27.36300
H  14.75100 0.80800 32.25400
H  15.68800 4.16500 34.88400
H  16.59300 4.72400 33.50500
H  17.21200 3.40200 34.45100
Mg 10.14600 47.73500 24.53400
C  7.62800 48.40500 26.77900
C  12.42900 48.90400 26.86900
C  12.43900 47.06000 22.27000
C  7.57000 46.97300 22.06500
N  9.99500 48.45600 26.61400
C  8.87600 48.59900 27.35100
C  9.23700 48.84300 28.82400
C  10.68500 49.43400 28.70300
C  11.08800 48.83200 27.31400
C  10.67200 50.92300 28.66600
C  9.26400 47.54700 29.70200
C  8.95200 47.81200 31.18300
H  8.45800 46.67100 32.01400
N  12.13500 47.87200 24.58000
C  12.88800 48.43700 25.56400
C  14.30600 48.33900 25.18100
C  14.37400 47.70600 23.88600
C  12.94800 47.55000 23.51800
C  15.47200 48.78400 26.14000
C  15.58600 47.28900 23.06400
O  15.49500 46.98000 21.93500
C  16.93200 47.36600 23.71200
N  9.98300 47.01800 22.52400
C  11.17100 46.70800 21.79900
C  10.87500 46.05000 20.39300
C  9.33200 46.03200 20.44300
C  8.91100 46.76400 21.72500
C  11.36600 46.92000 19.20100
C  8.70100 44.57300 20.32000
C  8.64000 43.75300 21.67100
N  8.03000 47.60400 24.40500
C  7.09000 47.37800 23.34700
C  5.75700 47.62900 23.83000
C  5.92100 48.06500 25.16800
C  7.29100 48.06700 25.48300
C  4.49700 47.48800 23.03400
C  5.27200 48.56800 26.36000
O  4.07000 48.83800 26.55100
C  6.34600 48.79100 27.42300
C  5.90500 47.95700 28.53400
O  5.96200 46.71600 28.60400
O  5.32000 48.75700 29.54400
C  4.74900 47.95100 30.64300
H  13.07100 49.32000 27.64700
H  13.20200 46.82900 21.52400
H  6.89300 46.80800 21.22400
H  8.45100 49.51200 29.17400
H  11.42200 49.02700 29.39600
H  11.67400 51.22700 28.96800
H  9.90500 51.34000 29.31900
H  10.50100 51.31300 27.66300
H  10.26100 47.11100 29.76800
H  8.63200 46.73200 29.35100
H  8.28300 48.64400 31.40500
H  9.95600 47.91200 31.59300
H  16.15900 47.94800 26.27000
H  15.12900 48.94000 27.16300
H  16.08300 49.59400 25.74200
H  17.32900 48.28000 24.15400
H  17.66000 47.03300 22.97300
H  17.02800 46.52600 24.40100
H  11.20000 45.01900 20.25500
H  8.93600 46.47100 19.52700
H  11.59900 47.93900 19.51000
H  10.63900 47.02900 18.39700
H  12.31500 46.51800 18.84600
H  9.27400 44.07200 19.54000
H  7.72200 44.84900 19.92700
H  9.22700 44.17500 22.48600
H  9.09900 42.80200 21.40200
H  7.62400 43.52800 21.99700
H  4.09000 46.48000 23.12100
H  4.67100 47.65100 21.97000
H  3.71500 48.13800 23.42600
H  6.27900 49.86800 27.57800
H  5.48800 47.46700 31.28200
H  4.05800 47.17000 30.32700
H  4.25000 48.59600 31.36700

