158

Mg 34.70000 3.16600 29.44300
C  32.68700 4.33700 32.09700
C  37.30500 3.14400 31.63600
C  36.69700 2.78600 26.77900
C  31.85900 3.92300 27.31900
N  34.95600 3.60200 31.66400
C  33.95300 3.90700 32.56300
C  34.42800 3.82300 34.01000
C  36.02400 3.54100 33.83200
C  36.13800 3.49500 32.25900
C  36.85400 4.48600 34.60400
C  33.62400 2.89400 34.91600
C  33.19500 3.22600 36.37600
H  34.04200 4.34200 37.06000
N  36.67300 2.81200 29.25300
C  37.57800 2.74700 30.26100
C  38.85800 2.38400 29.76200
C  38.69400 2.26300 28.35500
C  37.33500 2.64100 28.05700
C  40.04500 2.01700 30.59100
C  39.71800 1.85800 27.24300
O  39.42300 1.74700 26.06300
C  41.17200 1.48300 27.60600
N  34.29700 3.38800 27.43200
C  35.32700 3.06300 26.49000
C  34.79700 3.06800 25.02000
C  33.25300 3.34900 25.28300
C  33.08200 3.52800 26.78000
C  35.44300 4.13100 24.14700
C  32.30600 2.13400 24.79800
C  32.12900 0.95600 25.74200
N  32.70800 3.94000 29.63500
C  31.69600 4.13600 28.70900
C  30.52500 4.67800 29.28300
C  30.86200 4.78200 30.64500
C  32.23800 4.34800 30.80500
C  29.32700 5.00400 28.68400
C  30.39100 5.15700 31.94900
O  29.34700 5.64900 32.37700
C  31.49000 4.78800 32.95700
C  31.68900 5.93500 33.98000
O  32.36000 6.96500 33.79500
O  30.82300 5.72300 34.99000
C  30.59300 6.88100 35.78200
H  37.95400 3.00800 32.50400
H  37.15000 2.40700 25.86000
H  31.03500 4.18400 26.65100
H  34.26100 4.87500 34.24000
H  36.24600 2.49100 34.02300
H  37.61700 4.94400 33.97500
H  37.39700 3.90600 35.35000
H  36.33200 5.28500 35.13100
H  34.26500 2.07000 35.23000
H  32.78100 2.45500 34.38300
H  33.40100 2.38100 37.03300
H  32.11600 3.38200 36.36800
H  39.69600 1.70500 31.57600
H  40.85600 2.74300 30.64500
H  40.48800 1.07700 30.26200
H  41.16100 0.67500 28.33800
H  41.60600 2.36300 28.08000
H  41.73700 1.17000 26.72800
H  34.84800 2.05400 24.62300
H  32.94500 4.26100 24.77100
H  35.87900 3.68200 23.25400
H  36.21000 4.50700 24.82400
H  34.80600 4.96100 23.84200
H  32.68000 1.69000 23.87500
H  31.32400 2.60100 24.71600
H  31.10200 0.83500 26.08400
H  32.78500 0.94900 26.61200
H  32.27300 -0.01500 25.26700
H  28.67100 5.41800 29.45000
H  28.75900 4.24300 28.14900
H  29.51500 5.70000 27.86600
H  31.11300 3.85300 33.37100
H  31.50600 7.22800 36.26600
H  29.86900 6.53300 36.51900
H  30.07700 7.61500 35.16300
Mg 53.54700 24.36800 44.70000
C  50.73200 26.38600 44.23700
C  51.73000 21.71900 44.23500
C  56.53500 22.55000 44.13400
C  55.49300 27.29000 45.13500
N  51.43200 24.16100 44.21300
C  50.45900 25.05700 44.01100
C  49.13100 24.36800 43.69600
C  49.45100 22.87600 43.92200
C  50.96100 22.89700 44.23200
C  48.58500 22.07200 44.97100
C  48.54600 24.64600 42.26400
C  49.50200 24.59700 41.10200
H  49.04600 24.37500 39.64500
N  54.05400 22.29300 44.31800
C  53.14500 21.37500 44.22800
C  53.76600 20.07100 43.98100
C  55.17900 20.24600 44.01000
C  55.32500 21.73500 44.11700
C  52.96900 18.82200 43.92800
C  56.24300 19.15200 44.01400
O  56.00100 17.98400 43.89800
C  57.68800 19.51700 44.24700
N  55.80700 24.91300 44.74700
C  56.78800 23.97500 44.35700
C  58.14900 24.75900 44.28600
C  57.78500 26.24700 44.58100
C  56.28100 26.15400 44.90700
C  59.26700 24.21100 45.23100
C  58.15600 27.36200 43.51600
C  59.51800 28.09500 43.74200
N  53.20400 26.36300 44.81500
C  54.13200 27.45200 45.02400
C  53.36500 28.67400 45.06700
C  52.06300 28.28900 44.73700
C  52.03300 26.91200 44.61500
C  53.93500 30.00400 45.22000
C  50.75000 28.81400 44.58800
O  50.24100 29.96400 44.70600
C  49.83200 27.65700 44.13000
C  49.38700 27.90800 42.74500
O  50.13900 28.12000 41.81200
O  48.10400 28.43000 42.86000
C  47.45600 28.97000 41.63400
H  51.10000 20.83200 44.14000
H  57.53000 22.12400 43.98800
H  56.00300 28.24900 45.24800
H  48.36600 24.73500 44.38000
H  49.23900 22.21900 43.07800
H  48.29700 22.64600 45.85200
H  49.08700 21.22600 45.44100
H  47.73000 21.74700 44.37900
H  48.02100 25.59400 42.14700
H  47.87000 23.85300 41.94600
H  50.31500 23.87300 41.15800
H  50.11100 25.49600 41.19200
H  53.52500 17.91400 43.69100
H  52.13900 18.75300 43.22500
H  52.67700 18.68500 44.96900
H  58.24600 18.59700 44.41900
H  57.69000 19.91700 45.26100
H  58.01400 20.20300 43.46400
H  58.50200 24.77700 43.25500
H  58.29600 26.55000 45.49500
H  58.81400 23.55900 45.97800
H  59.69700 25.01900 45.82300
H  60.04100 23.74400 44.62200
H  57.39000 28.13600 43.47300
H  58.21700 26.98100 42.49700
H  59.37500 29.17500 43.71500
H  60.29300 27.90600 42.99900
H  59.99700 27.87000 44.69500
H  53.91700 30.31800 44.17700
H  54.90000 30.00200 45.72700
H  53.18700 30.46400 45.86700
H  48.98400 27.59700 44.81200
H  46.53300 29.43300 41.98500
H  47.11900 28.04200 41.17400
H  47.91200 29.69500 40.96000

