158

Mg 24.80200 -7.95900 47.02700
C  27.16200 -5.60500 45.98300
C  22.59900 -6.60700 44.75200
C  22.66700 -10.46500 47.69200
C  27.31600 -9.52600 48.97000
N  24.97000 -6.40600 45.42900
C  25.99100 -5.55900 45.20700
C  25.61700 -4.50200 44.14000
C  24.10200 -4.64000 44.02200
C  23.81300 -5.98100 44.79300
C  23.20100 -3.45400 44.48300
C  26.44400 -4.72400 42.81000
C  27.16200 -3.51400 42.18900
H  26.44600 -2.59500 41.27800
N  22.82000 -8.38000 46.34500
C  22.10600 -7.69700 45.43100
C  20.84800 -8.36800 45.21300
C  20.85900 -9.57600 45.94500
C  22.14100 -9.51000 46.69000
C  19.81800 -7.91500 44.15100
C  19.80200 -10.55500 45.93600
O  18.68200 -10.23200 45.51000
C  19.88300 -11.95900 46.48100
N  24.95100 -9.69900 48.21800
C  23.92700 -10.53900 48.36500
C  24.37100 -11.84100 49.18400
C  25.89700 -11.52800 49.43800
C  26.09300 -10.15800 48.84600
C  23.52300 -11.94100 50.50900
C  26.84900 -12.60500 48.96700
C  26.67000 -12.92800 47.50100
N  26.73800 -7.53900 47.64900
C  27.64700 -8.29400 48.38100
C  28.88700 -7.56400 48.53200
C  28.66200 -6.49200 47.64400
C  27.40300 -6.51900 47.08500
C  30.14200 -7.89400 49.30600
C  29.34900 -5.37000 47.00700
O  30.52100 -4.94200 47.23500
C  28.38500 -4.71000 46.00700
C  28.16100 -3.31900 46.44500
O  27.76800 -2.98500 47.57700
O  28.30600 -2.45700 45.41100
C  28.06500 -1.05700 45.75700
H  21.90500 -6.16200 44.03600
H  21.97300 -11.29000 47.86400
H  28.11500 -9.97800 49.56100
H  25.83700 -3.47100 44.41800
H  23.71200 -4.70400 43.00600
H  22.61200 -3.03500 43.66600
H  23.71400 -2.57300 44.86900
H  22.59900 -3.78600 45.32900
H  25.69500 -5.01900 42.07500
H  27.15600 -5.53500 42.96700
H  27.97600 -3.91100 41.58400
H  27.60200 -2.92900 42.99700
H  20.12300 -7.24300 43.34900
H  19.01800 -7.41300 44.69600
H  19.48100 -8.74800 43.53400
H  19.68900 -11.82900 47.54600
H  20.85100 -12.30700 46.12100
H  19.13200 -12.65300 46.10500
H  24.37000 -12.79300 48.65400
H  26.12400 -11.52900 50.50400
H  23.96400 -11.49700 51.40100
H  23.47100 -13.02100 50.64700
H  22.54100 -11.47300 50.43800
H  26.55300 -13.51600 49.48700
H  27.88900 -12.38200 49.20500
H  27.65400 -13.16700 47.09700
H  26.14800 -12.08600 47.04700
H  26.07900 -13.81400 47.27100
H  30.41500 -8.94900 49.30100
H  29.95300 -7.69000 50.36000
H  30.93300 -7.20800 49.00400
H  28.79500 -4.64700 44.99900
H  27.01700 -0.81400 45.92800
H  28.23100 -0.38100 44.91800
H  28.49400 -0.71500 46.69900
Mg 26.04600 -0.57600 28.66500
C  27.87900 -0.78500 31.70100
C  23.23000 -0.71900 30.56000
C  24.31900 -0.46400 25.85100
C  29.07800 -1.00300 27.04800
N  25.65200 -0.85300 30.91500
C  26.52500 -0.69600 31.91700
C  25.76800 -0.36200 33.20400
C  24.27600 -0.58900 32.84400
C  24.36400 -0.76300 31.31500
C  23.47100 -1.61000 33.63600
C  26.14600 0.96900 33.93100
C  26.81000 0.76000 35.26300
H  26.44200 1.74300 36.37600
N  24.08700 -0.61800 28.22100
C  23.00700 -0.60100 29.14700
C  21.70000 -0.38800 28.46600
C  22.03000 -0.28400 27.10700
C  23.56700 -0.39200 27.00900
C  20.40300 -0.19200 29.18300
C  21.14300 0.05600 25.99600
O  21.50400 0.09200 24.82900
C  19.65900 0.41500 26.22000
N  26.63600 -0.96100 26.78500
C  25.74200 -0.70800 25.78800
C  26.38400 -0.79000 24.42800
C  27.90800 -0.71300 24.76400
C  27.89400 -0.88400 26.29200
C  25.94900 -1.97000 23.60400
C  28.74800 0.50600 24.28300
C  28.25500 1.87200 24.78500
N  28.10600 -0.94800 29.20900
C  29.16800 -1.13300 28.46800
C  30.31700 -1.20500 29.25600
C  29.88700 -1.08400 30.55400
C  28.53000 -0.93000 30.48700
C  31.68300 -1.47200 28.78900
C  30.29300 -1.08900 31.96500
O  31.37400 -1.39700 32.39300
C  28.96500 -0.78400 32.76300
C  28.76700 -1.78300 33.78200
O  28.08300 -2.83100 33.63500
O  29.42500 -1.45100 34.95100
C  29.21900 -2.47200 35.95900
H  22.28000 -0.66600 31.09600
H  23.76300 -0.41800 24.91300
H  30.03700 -1.13700 26.54300
H  26.02000 -1.12800 33.93700
H  23.72000 0.34000 32.97200
H  22.64500 -0.97300 33.95400
H  23.97400 -2.12900 34.45200
H  23.09600 -2.39700 32.98100
H  25.26400 1.60900 33.96800
H  26.86100 1.44700 33.26200
H  27.89200 0.80000 35.14400
H  26.54300 -0.25600 35.55500
H  19.91900 0.70400 28.79500
H  20.61200 -0.08100 30.24700
H  19.90000 -1.13900 28.98500
H  19.23400 0.62700 25.23900
H  19.55400 1.27600 26.88100
H  19.20200 -0.51700 26.55200
H  26.05200 0.15900 24.00800
H  28.34100 -1.57400 24.25500
H  25.09700 -1.67400 22.99200
H  25.74900 -2.84600 24.22100
H  26.75000 -2.32100 22.95400
H  28.89200 0.38100 23.21000
H  29.76100 0.32700 24.64400
H  27.93000 1.79800 25.82300
H  27.51800 2.35800 24.14500
H  29.03900 2.62900 24.81300
H  31.53900 -2.18900 27.98100
H  32.34900 -1.92700 29.52200
H  32.18100 -0.61600 28.33200
H  29.07200 0.21400 33.18800
H  29.70000 -3.37400 35.58000
H  28.15500 -2.62400 36.14100
H  29.71200 -2.19700 36.89100

