158

Mg 3.06900 -0.90600 44.25200
C  6.34300 -0.27100 43.22800
C  2.05100 1.64600 42.24800
C  -0.01600 -2.25500 44.19800
C  4.26800 -3.79800 45.80700
N  4.09500 0.39300 42.75500
C  5.44100 0.53700 42.57300
C  5.76700 1.79800 41.79500
C  4.38800 2.51500 41.67300
C  3.40100 1.50100 42.32400
C  4.36200 3.88000 42.42900
C  6.41300 1.51700 40.45400
C  7.16400 2.74400 39.83400
H  6.89200 3.23500 38.44900
N  1.12600 -0.21300 43.56500
C  0.97600 0.84100 42.68400
C  -0.37400 1.00400 42.39600
C  -1.06200 -0.06900 43.06200
C  0.00900 -0.92200 43.70500
C  -0.98300 1.99200 41.46500
C  -2.51200 -0.30200 43.07900
O  -3.22300 0.30000 42.31200
C  -3.08300 -1.06500 44.26000
N  2.30300 -2.74000 44.81400
C  1.00800 -3.06600 44.69900
C  0.69700 -4.50300 45.35800
C  1.98700 -4.86100 46.01400
C  2.89900 -3.70600 45.52900
C  -0.47400 -4.64100 46.33300
C  2.50400 -6.28500 45.63600
C  2.77800 -7.28900 46.75000
N  4.93000 -1.76700 44.66800
C  5.27400 -2.97000 45.34300
C  6.75600 -3.07100 45.43600
C  7.21300 -1.97600 44.67100
C  6.03000 -1.35800 44.11900
C  7.49500 -4.03500 46.28900
C  8.33900 -1.27300 44.15600
O  9.53300 -1.44800 44.33800
C  7.86500 -0.29300 43.12600
C  8.40400 0.96000 43.46500
O  8.33700 1.49500 44.55700
O  9.00900 1.55900 42.40800
C  9.68800 2.88100 42.54700
H  1.63600 2.42800 41.60900
H  -1.02600 -2.66900 44.22600
H  4.62500 -4.69600 46.31700
H  6.50600 2.36900 42.35700
H  4.07500 2.77200 40.66100
H  5.33400 4.16600 42.83100
H  3.76900 3.84600 43.34300
H  4.09000 4.69200 41.75400
H  5.67500 1.30300 39.68100
H  7.12400 0.69300 40.51700
H  8.22600 2.50400 39.79200
H  6.98000 3.56400 40.52800
H  -1.30000 1.56000 40.51600
H  -0.37400 2.86500 41.23000
H  -1.81900 2.48400 41.96300
H  -3.21700 -2.10300 43.95600
H  -4.02100 -0.51800 44.34900
H  -2.52900 -1.10700 45.19800
H  0.41900 -5.22000 44.58600
H  1.89500 -4.66400 47.08200
H  -0.08900 -4.98000 47.29500
H  -1.23700 -5.26600 45.87000
H  -0.93800 -3.65500 46.35800
H  3.43700 -6.11200 45.10000
H  1.91800 -6.83400 44.89900
H  3.85300 -7.45000 46.83800
H  2.33600 -8.26000 46.52600
H  2.31300 -6.95700 47.67800
H  8.56400 -3.99600 46.08400
H  7.09700 -4.98700 45.93700
H  7.33400 -3.80400 47.34200
H  8.08800 -0.62400 42.11200
H  8.93800 3.65500 42.38700
H  10.39400 2.95000 41.72000
H  10.12700 3.02500 43.53400
Mg 53.53400 24.20200 44.22800
C  50.82900 26.01000 43.31000
C  52.14500 21.31700 42.97900
C  56.57500 22.54100 44.65600
C  55.17500 27.16300 45.22100
N  51.85300 23.81100 43.04600
C  50.79500 24.66700 42.82300
C  49.66000 23.97000 42.04400
C  49.91900 22.48100 42.29300
C  51.37600 22.53800 42.85100
C  48.83900 21.77100 43.05900
C  49.77600 24.22000 40.46600
C  48.41300 24.23600 39.68600
H  47.86800 22.88600 39.19000
N  54.28900 22.21100 43.83700
C  53.48700 21.17700 43.37000
C  54.32100 20.00800 43.29800
C  55.57600 20.28800 43.84800
C  55.56200 21.72300 44.21300
C  53.71400 18.74500 42.78900
C  56.72100 19.32800 44.10900
O  56.64800 18.15800 43.77600
C  57.97500 19.75900 44.88000
N  55.60500 24.75600 44.87900
C  56.58000 23.91800 44.94800
C  57.81300 24.65300 45.43200
C  57.46300 26.17500 45.31400
C  56.00400 26.03600 45.14500
C  58.37900 24.03800 46.76900
C  58.24700 26.94300 44.21600
C  57.52900 27.66700 43.09100
N  52.99900 26.19500 44.42700
C  53.79800 27.27900 44.91400
C  52.84800 28.38300 45.04100
C  51.65300 27.97600 44.45400
C  51.83700 26.67300 43.98800
C  53.24900 29.70400 45.66100
C  50.27700 28.29000 44.10600
O  49.64000 29.28200 44.29400
C  49.71800 27.06600 43.32300
C  49.16400 27.71400 42.09200
O  49.86500 28.31200 41.27300
O  47.84900 27.44500 41.94300
C  47.22500 27.76700 40.67900
H  51.53800 20.45600 42.69300
H  57.57700 22.12200 44.76300
H  55.73100 28.08300 45.41800
H  48.71300 24.31000 42.46300
H  50.07000 21.87700 41.39800
H  48.72300 20.77400 42.63500
H  47.88600 22.27000 42.88500
H  49.08400 21.58900 44.10600
H  50.32900 23.42100 39.97200
H  50.39100 25.07500 40.18800
H  48.55000 24.95900 38.88100
H  47.62300 24.72400 40.25600
H  52.73400 18.50000 43.19700
H  54.25300 17.80100 42.88000
H  53.33700 18.93800 41.78500
H  58.39500 20.53800 44.24300
H  58.71200 18.96400 45.00200
H  57.68400 20.11400 45.86800
H  58.56800 24.52000 44.65700
H  57.80800 26.53100 46.28500
H  57.66500 23.25200 47.01800
H  58.48400 24.77700 47.56200
H  59.33900 23.56800 46.55300
H  59.13500 26.44900 43.82200
H  58.60200 27.75500 44.85100
H  58.18600 27.56000 42.22800
H  57.52200 28.72200 43.36600
H  56.53000 27.28100 42.88800
H  52.41500 30.10200 46.24000
H  53.38400 30.32800 44.77800
H  54.16000 29.51600 46.22800
H  48.78800 26.80000 43.82500
H  47.84600 27.53500 39.81300
H  47.12700 28.85000 40.61300
H  46.28600 27.23000 40.54300

