158

Mg 47.43300 25.15700 28.21100
C  48.68200 27.25800 30.68900
C  46.53400 22.90400 30.63100
C  46.60600 23.16100 25.73800
C  48.88500 27.25800 25.76900
N  47.54000 25.13000 30.42100
C  48.06200 26.12400 31.19400
C  47.72500 25.79700 32.67100
C  47.10900 24.34800 32.65600
C  47.11700 24.06600 31.12400
C  47.98700 23.31800 33.37800
C  46.86200 26.89300 33.40000
C  47.42000 27.47300 34.70600
H  46.37800 27.95400 35.75200
N  46.56600 23.32300 28.23500
C  46.23200 22.56400 29.30700
C  45.45400 21.38500 28.86600
C  45.45600 21.45800 27.39500
C  46.24200 22.69600 27.03900
C  44.90200 20.35500 29.79000
C  44.86500 20.43800 26.51600
O  44.92400 20.60300 25.30300
C  44.09200 19.25700 27.01100
N  47.49600 25.28600 26.08300
C  47.19000 24.29600 25.32200
C  47.43400 24.55300 23.84500
C  47.87800 26.01500 23.80000
C  48.06800 26.26800 25.30100
C  48.39500 23.52100 23.11900
C  46.79100 27.08600 23.30700
C  47.22300 28.05400 22.29300
N  48.61000 26.90000 28.19400
C  49.14700 27.60200 27.08800
C  49.91200 28.77000 27.59000
C  49.71500 28.69100 28.99400
C  48.93700 27.53600 29.32900
C  50.63300 29.83400 26.85800
C  49.96800 29.35600 30.30800
O  50.63600 30.40000 30.48400
C  49.28900 28.46700 31.44500
C  50.28600 27.94300 32.41400
O  50.97900 26.91500 32.33100
O  50.32800 28.70300 33.54500
C  51.22900 28.35700 34.72500
H  46.29400 22.21700 31.44500
H  46.21600 22.38400 25.07800
H  49.32100 27.92500 25.02100
H  48.60800 25.81300 33.31000
H  46.11400 24.34800 33.09900
H  47.43700 23.06000 34.28200
H  48.92900 23.78200 33.67200
H  48.13900 22.42300 32.77500
H  45.86100 26.54700 33.65600
H  46.76600 27.73800 32.71900
H  48.00000 28.37600 34.51600
H  48.13700 26.73500 35.06400
H  43.83200 20.16600 29.69900
H  44.99200 20.62200 30.84300
H  45.43500 19.43200 29.56400
H  43.29300 19.56300 27.68600
H  44.84500 18.53700 27.33200
H  43.48200 18.81400 26.22400
H  46.45700 24.45000 23.37400
H  48.83800 26.10500 23.29100
H  49.45200 23.78700 23.15200
H  48.01400 23.47100 22.09900
H  48.23500 22.50900 23.49300
H  46.32100 27.65600 24.10800
H  46.02300 26.42800 22.89900
H  46.41100 28.14400 21.57100
H  48.12100 27.56700 21.91300
H  47.52400 28.95500 22.82600
H  50.36300 30.87500 27.03400
H  50.44500 29.64100 25.80100
H  51.70800 29.66600 26.91700
H  48.51100 29.00900 31.98300
H  52.21900 28.05700 34.38100
H  50.74500 27.46400 35.12000
H  51.15400 29.19900 35.41300
Mg 9.39500 47.49300 25.74400
C  7.39800 47.68100 28.55200
C  11.89200 49.03700 27.44700
C  11.22900 47.68300 22.85400
C  6.54700 47.03900 23.80500
N  9.60000 48.25100 27.78300
C  8.68900 48.08400 28.86100
C  9.30800 48.54000 30.18500
C  10.68100 49.20300 29.70400
C  10.72200 48.83600 28.22800
C  10.78000 50.78900 29.98300
C  9.54100 47.36000 31.12000
C  9.32300 47.59700 32.58800
H  8.89100 46.43600 33.41000
N  11.37800 48.11500 25.19600
C  12.29400 48.67800 26.13900
C  13.56000 48.76300 25.47700
C  13.39900 48.29700 24.13300
C  12.00900 48.02000 24.00300
C  14.82400 49.29700 26.04200
C  14.41300 48.20100 22.97500
O  14.06600 47.85700 21.82400
C  15.94000 48.26300 23.20400
N  8.94800 47.35100 23.73800
C  9.81900 47.56900 22.73200
C  9.22800 47.01800 21.30200
C  7.76700 46.77300 21.59100
C  7.76600 47.04200 23.12900
C  9.58600 47.84300 20.03800
C  7.38000 45.27800 21.33100
C  8.15100 44.26500 22.23400
N  7.31900 47.31700 26.03200
C  6.27100 47.19200 25.15800
C  5.03100 46.94100 25.91100
C  5.41400 47.18300 27.22000
C  6.80200 47.47300 27.26800
C  3.68600 46.73500 25.44000
C  4.91800 47.19600 28.58300
O  3.73700 47.04300 28.98100
C  6.21000 47.41900 29.55200
C  6.31700 46.11500 30.14500
O  6.81900 45.14500 29.67100
O  5.71600 46.18900 31.37600
C  5.44400 44.85800 31.99000
H  12.78400 49.37200 27.98000
H  11.74400 47.47400 21.91400
H  5.60100 46.79600 23.31600
H  8.54000 49.24600 30.50300
H  11.57100 48.71900 30.10600
H  9.98000 51.19500 30.60100
H  10.67300 51.30000 29.02600
H  11.75900 51.03500 30.39500
H  10.59500 47.11800 30.98300
H  9.16000 46.44100 30.67600
H  8.57300 48.38700 32.54300
H  10.18400 48.06000 33.06900
H  14.61900 49.78700 26.99400
H  15.52300 49.96800 25.54400
H  15.42200 48.39600 26.17600
H  16.20700 47.42700 23.85000
H  16.24400 49.24000 23.57900
H  16.44500 48.16100 22.24300
H  9.64600 46.01400 21.21800
H  7.12800 47.46300 21.03900
H  8.72900 48.46800 19.79000
H  10.02100 47.34800 19.16900
H  10.36400 48.49100 20.44100
H  7.66200 45.21600 20.28000
H  6.30500 45.10200 21.31300
H  8.63200 43.46700 21.67000
H  7.28600 43.84600 22.74900
H  8.81800 44.70500 22.97500
H  3.56800 46.37300 24.41900
H  3.29600 47.75000 25.36800
H  3.21100 46.03100 26.12400
H  5.84200 48.21400 30.20100
H  4.37500 44.68500 31.86800
H  5.69500 44.95100 33.04700
H  6.03100 44.04600 31.56200

