158

Mg 47.82800 34.35000 27.16800
C  46.06100 32.72500 29.82200
C  48.00800 37.17400 29.34500
C  48.57900 36.30900 24.52100
C  47.02600 31.74000 25.08100
N  46.95800 34.93600 29.38000
C  46.47100 33.97900 30.21200
C  46.63800 34.54500 31.68000
C  47.01700 36.01200 31.47800
C  47.36300 36.06900 29.92700
C  45.92600 37.02100 31.84000
C  47.58400 33.66900 32.58400
C  48.26000 34.27800 33.83600
H  47.39500 35.06400 34.82800
N  48.44600 36.30100 27.02500
C  48.44600 37.27000 28.00200
C  49.04100 38.46800 27.45200
C  49.40900 38.19000 26.08800
C  48.70900 36.90100 25.82600
C  49.39100 39.58600 28.27900
C  50.13200 39.10700 25.03000
O  50.33300 38.70000 23.91700
C  50.62200 40.39100 25.44900
N  47.71800 34.12400 25.04100
C  48.14400 35.04800 24.17500
C  48.38000 34.42700 22.79500
C  48.05200 32.90500 23.01300
C  47.62000 32.87300 24.46400
C  47.52600 35.15600 21.69400
C  49.25700 31.94900 22.75800
C  50.55200 32.31200 23.61100
N  46.95600 32.53600 27.37300
C  46.62200 31.62300 26.39100
C  45.84300 30.56500 26.95000
C  45.62500 30.98100 28.30100
C  46.25800 32.22100 28.47800
C  45.45000 29.16900 26.33300
C  45.01000 30.55400 29.51600
O  44.42100 29.53100 29.83100
C  45.06500 31.81100 30.45900
C  45.14600 31.40000 31.87500
O  45.64300 30.33100 32.28900
O  44.44500 32.21300 32.68300
C  44.51300 32.06200 34.16500
H  48.19800 37.84900 30.18200
H  48.86500 36.83600 23.60800
H  46.98800 30.81100 24.50800
H  45.62000 34.51800 32.07000
H  47.89200 36.20600 32.09800
H  45.71800 37.63400 30.96300
H  46.30400 37.69100 32.61200
H  45.00700 36.55200 32.19100
H  48.38600 33.20800 32.00800
H  46.96500 32.88800 33.02700
H  49.20600 34.74300 33.55700
H  48.54700 33.39100 34.40000
H  50.47200 39.72000 28.28100
H  48.99000 39.56700 29.29300
H  48.94400 40.46400 27.81200
H  51.43800 40.16600 26.13600
H  49.80000 41.01400 25.80300
H  51.03000 40.87800 24.56300
H  49.43000 34.56100 22.53600
H  47.21400 32.70600 22.34500
H  47.58500 34.63700 20.73800
H  47.81000 36.15900 21.37400
H  46.48400 35.12300 22.01000
H  49.46300 31.85900 21.69200
H  48.91500 30.93600 22.97200
H  51.49500 32.14300 23.09000
H  50.51000 31.72400 24.52700
H  50.55800 33.37600 23.84700
H  45.15200 28.49000 27.13200
H  46.31500 28.73900 25.82900
H  44.68600 29.25300 25.56000
H  44.12200 32.35700 30.44300
H  43.63400 31.59000 34.60400
H  44.63100 33.06500 34.57500
H  45.38900 31.48700 34.46600
Mg 7.54600 53.87400 41.60300
C  6.37700 50.61100 41.43800
C  10.60300 52.86600 40.64100
C  8.47500 57.15300 40.85700
C  4.25900 54.96500 41.73000
N  8.32800 51.97200 40.92000
C  7.74800 50.77500 41.06900
C  8.77100 49.57700 40.82200
C  10.11000 50.37200 40.67200
C  9.65500 51.82900 40.86900
C  11.17600 49.96900 41.74300
C  8.46000 48.72900 39.55900
C  8.42800 49.52400 38.19300
H  7.45800 49.14600 37.14800
N  9.31100 54.86400 41.04000
C  10.48000 54.23700 40.69600
C  11.52200 55.22700 40.47900
C  10.93800 56.51500 40.46700
C  9.55000 56.24800 40.82300
C  12.93600 54.87800 40.23500
C  11.72300 57.82400 40.03400
O  12.92000 57.81100 39.74100
C  11.02700 59.16900 40.12200
N  6.53500 55.72200 41.46900
C  7.10300 56.92600 41.24200
C  6.22800 58.08200 41.69800
C  4.82700 57.41700 41.63800
C  5.22600 55.92300 41.66400
C  6.58900 58.74900 43.05300
C  3.86200 57.80300 40.47500
C  3.94700 59.30900 40.05800
N  5.66900 53.04100 41.74100
C  4.44500 53.61400 41.86800
C  3.42400 52.61700 42.17900
C  4.14600 51.39900 41.97100
C  5.53000 51.72100 41.68700
C  1.90400 52.71500 42.26200
C  4.07200 49.94000 41.93700
O  3.14600 49.19200 42.13000
C  5.44700 49.35900 41.65700
C  5.17700 48.49800 40.45400
O  4.92800 48.86900 39.33300
O  5.23000 47.14900 40.79400
C  5.03700 46.18500 39.72900
H  11.61400 52.45600 40.59800
H  8.61500 58.22700 40.71300
H  3.19600 55.19000 41.83400
H  8.82500 48.81300 41.59800
H  10.51300 50.19700 39.67500
H  11.22900 50.72900 42.52300
H  12.17900 49.90700 41.32100
H  10.99700 49.05000 42.30000
H  7.55700 48.16600 39.79500
H  9.35700 48.11000 39.52800
H  9.43600 49.45600 37.78400
H  8.34800 50.58200 38.44500
H  13.21200 55.34000 39.28700
H  13.05400 53.79500 40.22800
H  13.53000 55.12700 41.11400
H  10.12600 59.23100 39.51200
H  11.76200 59.88800 39.76100
H  10.82600 59.39000 41.17000
H  6.38700 58.96100 41.07300
H  4.32000 57.66300 42.57000
H  7.33400 58.08000 43.48400
H  5.76000 59.02000 43.70600
H  7.10000 59.68500 42.82700
H  2.82900 57.45600 40.51000
H  4.18200 57.24100 39.59800
H  4.38400 59.86800 40.88500
H  2.97000 59.60300 39.67300
H  4.56600 59.42500 39.16900
H  1.42100 52.33100 41.36400
H  1.58700 53.73400 42.48400
H  1.56500 52.17500 43.14600
H  5.70700 48.79500 42.55300
H  5.91800 45.56800 39.55000
H  4.75900 46.50000 38.72200
H  4.30600 45.44200 40.04800

