158

Mg 43.11500 4.39100 47.07500
C  40.70400 7.09700 47.04700
C  40.34200 2.29800 47.09600
C  45.17600 1.87500 46.29900
C  45.60300 6.65500 46.55700
N  40.75300 4.64500 47.26800
C  40.03100 5.86400 47.17500
C  38.52500 5.58800 47.20600
C  38.45900 4.02900 47.44500
C  39.89400 3.57800 47.29900
C  37.79600 3.55500 48.75300
C  37.74100 6.13400 46.01000
C  38.45100 6.09400 44.61500
H  37.58000 6.12500 43.32200
N  42.79900 2.36400 46.80600
C  41.59200 1.65200 46.76000
C  41.82000 0.22800 46.70400
C  43.18600 0.12900 46.37900
C  43.83000 1.48400 46.46600
C  40.67700 -0.83100 46.70800
C  43.86400 -1.12700 45.92800
O  43.29000 -2.19700 45.90000
C  45.25500 -1.08600 45.40300
N  45.11600 4.27400 46.48200
C  45.81600 3.09900 46.33400
C  47.37100 3.30800 46.21100
C  47.43200 4.81500 46.60700
C  45.97200 5.27200 46.59700
C  48.39600 2.23100 46.80500
C  48.30300 5.67000 45.50800
C  49.14700 6.64800 46.20000
N  43.17600 6.43400 46.83400
C  44.24400 7.21600 46.65900
C  43.78300 8.59500 46.61400
C  42.45800 8.57700 46.77900
C  42.12600 7.25900 46.89000
C  44.71400 9.66300 46.24900
C  41.27700 9.41500 46.83800
O  41.16500 10.59800 46.70600
C  40.08300 8.44200 47.12400
C  39.68800 8.84100 48.39700
O  39.90900 8.30800 49.46800
O  38.77800 9.84700 48.21500
C  37.81600 10.05900 49.38100
H  39.53500 1.56300 47.07000
H  45.93800 1.09500 46.24700
H  46.44600 7.34600 46.50100
H  38.19200 6.11600 48.09900
H  37.89800 3.52000 46.66100
H  38.59200 3.19800 49.40600
H  37.06400 2.77400 48.54700
H  37.35900 4.42900 49.23700
H  37.47800 7.17700 46.18400
H  36.81000 5.56900 46.04300
H  38.95500 5.12900 44.54900
H  39.22600 6.83900 44.43500
H  39.90600 -0.48500 47.39700
H  41.01300 -1.81000 47.04900
H  40.21800 -1.01400 45.73600
H  45.94700 -0.99100 46.23900
H  45.12700 -0.15200 44.85500
H  45.55100 -1.97000 44.83700
H  47.50800 3.41800 45.13500
H  47.72000 4.89800 47.65500
H  47.81800 1.57000 47.45200
H  49.13500 2.81900 47.34900
H  48.78900 1.69000 45.94500
H  47.53900 6.18900 44.92900
H  48.91800 5.07700 44.83100
H  48.87400 7.64500 45.85300
H  50.21500 6.57700 45.99500
H  49.16600 6.63100 47.29000
H  44.21200 10.63000 46.25100
H  44.99500 9.58100 45.19900
H  45.63500 9.59400 46.82900
H  39.39000 8.63400 46.30400
H  36.83000 9.61800 49.23400
H  37.74800 11.14300 49.46200
H  38.14900 9.57800 50.30100
Mg 9.34200 48.79800 25.98900
C  7.27100 49.16300 28.85900
C  11.99000 49.85100 27.79800
C  11.06100 48.68100 23.11800
C  6.37000 48.32700 24.12100
N  9.54500 49.33900 28.11000
C  8.58600 49.33400 29.14700
C  9.31200 49.63700 30.42200
C  10.67000 50.31400 29.94000
C  10.78200 49.81600 28.48200
C  10.61300 51.84600 30.12700
C  9.60300 48.37600 31.28000
C  9.87400 48.55400 32.71800
H  9.94400 47.33600 33.61400
N  11.26500 49.14600 25.55700
C  12.26800 49.48200 26.50400
C  13.47800 49.38100 25.78400
C  13.25700 49.15900 24.40200
C  11.81100 48.96000 24.28400
C  14.83400 49.61500 26.50200
C  14.23700 49.11900 23.28100
O  13.92600 48.90900 22.09700
C  15.67200 49.44700 23.58800
N  8.80300 48.61000 23.95200
C  9.69900 48.54200 22.95900
C  9.02700 48.30000 21.53200
C  7.55500 48.44200 21.83900
C  7.57100 48.47500 23.42600
C  9.55100 49.20900 20.38800
C  6.64500 47.35400 21.27600
C  5.66700 47.77500 20.16300
N  7.28000 48.56700 26.34700
C  6.20100 48.35800 25.49000
C  4.97400 48.31500 26.20900
C  5.37500 48.66600 27.56600
C  6.77600 48.86500 27.56800
C  3.65800 48.16700 25.56600
C  4.85300 48.93500 28.87400
O  3.71800 49.09500 29.36100
C  6.11300 49.13600 29.79300
C  6.18000 47.94800 30.74800
O  6.08700 46.76400 30.41600
O  6.46000 48.46300 31.98500
C  6.53600 47.43500 33.02500
H  12.84700 50.27600 28.32500
H  11.68800 48.60300 22.22800
H  5.43600 48.24000 23.56200
H  8.60600 50.24700 30.98700
H  11.49100 49.92800 30.54500
H  9.57700 52.18100 30.08000
H  11.04500 52.34200 29.25700
H  11.06500 52.03500 31.10100
H  10.59700 48.06500 30.95700
H  8.96000 47.53300 31.02600
H  9.04900 49.10600 33.16800
H  10.76400 49.17900 32.80000
H  14.55500 49.82500 27.53500
H  15.38600 50.49500 26.17200
H  15.43800 48.70800 26.50700
H  16.11000 48.85700 24.39200
H  15.66700 50.47800 23.94300
H  16.28100 49.52800 22.68800
H  9.12300 47.26300 21.20900
H  7.07200 49.39100 21.60500
H  8.69300 49.71900 19.95200
H  10.08200 48.55200 19.69900
H  10.30100 49.89200 20.78800
H  5.97000 46.92100 22.01400
H  7.21300 46.52400 20.85400
H  4.67900 47.65200 20.60800
H  5.73000 47.02100 19.37900
H  5.78400 48.78900 19.78000
H  3.57600 47.24600 24.98900
H  3.47500 49.01600 24.90800
H  2.89000 48.22000 26.33700
H  5.92600 50.02200 30.40000
H  5.72400 46.71800 32.90300
H  6.46900 47.85000 34.03100
H  7.47900 46.89200 32.97200

