158

Mg 49.23800 46.14900 43.84300
C  46.04300 46.60600 42.55500
C  49.56400 43.26900 41.98800
C  52.47800 46.36800 44.29300
C  48.92300 49.53400 45.21600
N  47.95800 45.06400 42.35700
C  46.71200 45.46000 42.00800
C  46.10800 44.45500 40.98400
C  47.07300 43.29400 41.16000
C  48.30300 43.91900 41.78000
C  46.69400 41.97900 41.91500
C  45.87400 45.09100 39.56200
C  44.50200 44.82700 38.94300
H  44.33500 43.77700 37.82800
N  50.77100 44.95900 43.29300
C  50.69300 43.78000 42.58200
C  51.93800 43.15800 42.55900
C  52.83600 43.98800 43.21400
C  52.02800 45.15100 43.66800
C  52.19600 41.77200 41.97100
C  54.25800 43.76700 43.44200
O  54.78500 42.77300 43.00900
C  55.10700 44.61100 44.24600
N  50.59600 47.88700 44.44700
C  51.91100 47.57900 44.68800
C  52.51600 48.66300 45.55700
C  51.40300 49.75000 45.79800
C  50.24500 49.01400 45.13700
C  53.25600 48.04900 46.74700
C  51.80000 51.13800 45.19400
C  52.89900 51.81500 46.02200
N  47.75000 47.72400 44.01900
C  47.76500 48.95700 44.66100
C  46.46000 49.47100 44.64300
C  45.74500 48.57900 43.81100
C  46.55500 47.59300 43.41700
C  45.91800 50.62500 45.39400
C  44.48600 48.31300 43.11400
O  43.44700 48.95500 43.06200
C  44.64900 47.04200 42.29800
C  43.63100 46.07000 42.80000
O  43.59600 45.45800 43.86200
O  42.68900 45.87400 41.84100
C  41.55500 44.95700 42.08200
H  49.60600 42.34900 41.40100
H  53.52300 46.41700 44.60800
H  48.82600 50.49000 45.73600
H  45.15400 44.05600 41.33000
H  47.44200 43.03900 40.16700
H  46.47100 41.20200 41.18300
H  45.81600 42.21600 42.51500
H  47.45800 41.69100 42.63700
H  46.63900 44.68200 38.90200
H  46.08100 46.15300 39.69800
H  44.23200 45.73100 38.39600
H  43.68400 44.72200 39.65500
H  53.12300 41.79800 41.39800
H  51.35400 41.41800 41.37600
H  52.32200 41.13500 42.84600
H  55.96300 43.99900 44.53000
H  54.62500 44.76600 45.21100
H  55.39700 45.54600 43.76600
H  53.31600 49.11500 44.97100
H  51.16500 49.99300 46.83300
H  52.98600 47.02100 46.99100
H  53.03100 48.62400 47.64500
H  54.31100 48.30200 46.64200
H  50.89100 51.74000 45.16200
H  52.17500 51.05800 44.17400
H  52.55100 52.53000 46.76700
H  53.53400 52.36300 45.32600
H  53.41300 50.92500 46.38300
H  46.53200 50.74300 46.28700
H  44.84400 50.57200 45.56900
H  46.12800 51.48700 44.76000
H  44.28800 47.29900 41.30200
H  40.91000 45.11400 41.21800
H  40.95200 45.24100 42.94500
H  41.87600 43.91700 42.12600
Mg 0.39700 42.51800 24.96700
C  1.31500 42.61200 28.37700
C  -2.68000 41.22300 26.02800
C  -0.26100 42.07200 21.81600
C  3.76200 43.21300 24.15700
N  -0.49200 41.87400 27.02100
C  -0.00100 42.27400 28.20800
C  -0.98600 41.99900 29.36100
C  -2.19900 41.17500 28.68300
C  -1.79500 41.44500 27.14700
C  -2.45000 39.65600 28.87700
C  -1.41300 43.47900 29.83100
C  -1.56600 43.55400 31.34700
H  -2.04400 42.39600 32.16800
N  -1.21100 41.85700 24.06700
C  -2.41100 41.40100 24.60100
C  -3.36500 41.19000 23.55800
C  -2.70000 41.42300 22.36100
C  -1.37100 41.86200 22.71100
C  -4.77500 40.51300 23.84600
C  -3.32900 41.31900 20.99500
O  -2.63800 41.53300 19.96800
C  -4.76200 40.83900 20.75700
N  1.58800 42.60200 23.19000
C  1.10900 42.33100 21.99400
C  2.14600 42.48900 20.86600
C  3.31100 43.28400 21.61600
C  2.87400 43.10100 23.12200
C  2.52600 41.13000 20.20800
C  3.46300 44.77600 21.17000
C  4.07300 45.17900 19.87700
N  2.18300 42.88200 25.99400
C  3.48000 43.09700 25.54000
C  4.38500 43.22600 26.66800
C  3.56500 43.12600 27.83300
C  2.23400 42.88900 27.33500
C  5.90600 43.50600 26.63500
C  3.55600 43.12000 29.26400
O  4.46800 43.14200 30.04400
C  2.09500 42.90500 29.67900
C  1.93600 41.73800 30.66000
O  2.49100 40.67300 30.49500
O  1.23400 42.05000 31.83900
C  1.18600 40.90300 32.77700
H  -3.72100 41.00300 26.27700
H  -0.41800 41.87200 20.75400
H  4.78400 43.42400 23.83800
H  -0.60600 41.42400 30.20600
H  -3.19700 41.60200 28.78000
H  -1.73600 39.35400 29.64400
H  -2.28000 39.14900 27.92800
H  -3.45000 39.45100 29.25800
H  -2.34100 43.81800 29.37100
H  -0.68300 44.21400 29.49300
H  -2.25300 44.39600 31.42500
H  -0.66300 44.00700 31.75600
H  -4.95800 39.99600 24.78700
H  -4.77700 39.69400 23.12700
H  -5.56300 41.23900 23.64400
H  -4.87400 39.78400 21.00700
H  -5.00000 40.90600 19.69500
H  -5.49100 41.42700 21.31400
H  1.59600 43.10100 20.15100
H  4.17800 42.73400 21.25100
H  2.03400 41.04300 19.23900
H  2.10300 40.31900 20.80100
H  3.59800 40.94600 20.14600
H  3.96400 45.22700 22.02600
H  2.49300 45.25700 21.29700
H  4.80900 45.97200 20.01000
H  3.23300 45.51100 19.26700
H  4.52800 44.35700 19.32600
H  6.27600 42.87700 27.44500
H  6.13800 44.52900 26.93300
H  6.39800 43.19400 25.71400
H  1.79200 43.78000 30.25500
H  0.48800 40.14600 32.42000
H  0.97500 41.26300 33.78400
H  2.12700 40.42600 33.05000

