158

Mg 25.46600 1.08400 29.30600
C  27.48700 0.66700 32.08500
C  22.64200 1.14400 31.34800
C  23.55800 0.88700 26.44300
C  28.23700 0.49400 27.23600
N  25.16000 0.83400 31.44300
C  26.10800 0.80800 32.41700
C  25.50000 0.85800 33.82600
C  23.94600 1.05100 33.54500
C  23.86500 1.00000 32.03800
C  22.98100 -0.00100 34.21200
C  26.07600 2.10200 34.75500
C  25.92000 1.83300 36.26200
H  25.46200 2.99700 37.15500
N  23.35800 1.05500 28.99300
C  22.39000 1.23300 29.96400
C  21.13300 1.44800 29.27900
C  21.39900 1.24500 27.83600
C  22.83500 1.01700 27.71900
C  19.92800 1.78600 30.06900
C  20.36400 1.20500 26.69300
O  20.67300 0.89400 25.51900
C  18.92600 1.54500 27.09800
N  25.84200 0.66300 27.03100
C  24.86800 0.74500 26.14800
C  25.52600 0.60000 24.75300
C  27.05600 0.67200 24.94900
C  27.07400 0.63400 26.45400
C  25.00000 -0.65900 24.03300
C  27.76200 1.85700 24.28500
C  28.18000 1.61700 22.86500
N  27.40600 0.70400 29.55800
C  28.46100 0.52200 28.60400
C  29.75700 0.32100 29.32200
C  29.44600 0.41300 30.70400
C  28.05500 0.65000 30.77500
C  31.09500 0.00100 28.66000
C  29.94100 0.40400 32.08500
O  31.08600 0.38100 32.48700
C  28.66300 0.45100 33.02000
C  28.54400 -0.65200 33.92000
O  28.13900 -1.79900 33.64500
O  28.79700 -0.31800 35.18600
C  28.26800 -1.25900 36.22000
H  21.76200 1.38300 31.94800
H  22.98400 1.00700 25.52100
H  29.16000 0.29100 26.68800
H  25.73500 -0.11500 34.25900
H  23.66900 2.04800 33.88700
H  23.01000 -0.03400 35.30100
H  23.01000 -1.00600 33.78900
H  21.99500 0.40700 33.99100
H  25.51500 3.02700 34.62200
H  27.10500 2.28000 34.44200
H  26.91800 1.65500 36.66200
H  25.31400 0.95800 36.50100
H  20.22100 2.37300 30.93900
H  19.55400 0.87100 30.52800
H  19.22400 2.39800 29.50500
H  18.34500 1.29700 26.20900
H  18.81600 2.59000 27.39100
H  18.57900 0.87400 27.88300
H  25.25800 1.37700 24.03700
H  27.54200 -0.27300 24.70200
H  25.77400 -1.42600 23.99100
H  24.65800 -0.40900 23.02900
H  24.22700 -1.10700 24.65800
H  28.62300 2.11200 24.90200
H  27.27100 2.81600 24.44600
H  27.79700 2.40900 22.22200
H  27.73600 0.72300 22.42700
H  29.27000 1.64400 22.89200
H  31.67700 0.88600 28.40500
H  30.90600 -0.56200 27.74600
H  31.66600 -0.67000 29.30200
H  28.98800 1.28400 33.64300
H  29.05200 -1.28200 36.97600
H  28.04600 -2.25300 35.83200
H  27.38400 -0.79900 36.66300
Mg 46.96000 17.01700 28.39600
C  44.95300 16.69600 31.07300
C  49.18700 18.83800 30.56200
C  48.72600 17.87700 25.67400
C  44.69500 15.43100 26.40500
N  47.06100 17.62800 30.56500
C  46.09200 17.34800 31.46600
C  46.51000 17.74400 32.90500
C  47.71700 18.72500 32.66400
C  48.09200 18.29500 31.21400
C  47.49100 20.30600 32.86400
C  46.80300 16.39200 33.71500
C  46.89400 16.48400 35.27400
H  46.47100 17.74200 35.97400
N  48.73600 18.08000 28.14200
C  49.44300 18.75200 29.15700
C  50.68700 19.26500 28.53400
C  50.64300 19.01900 27.07600
C  49.33500 18.32700 26.92000
C  51.76900 19.89200 29.42500
C  51.64500 19.46600 25.98400
O  51.51500 19.06600 24.86400
C  52.69100 20.55800 26.25500
N  46.85400 16.65100 26.37900
C  47.67100 17.05700 25.37700
C  47.36400 16.42200 24.02600
C  46.07500 15.50300 24.32400
C  45.89200 15.82000 25.81500
C  47.13400 17.52600 22.87000
C  46.40600 14.04600 24.17500
C  45.67100 13.36200 23.05200
N  45.06600 16.29600 28.55000
C  44.30800 15.55400 27.71600
C  43.13600 15.12500 28.42100
C  43.33100 15.56600 29.70800
C  44.53100 16.25600 29.75200
C  42.08000 14.42400 27.80000
C  42.80300 15.53200 30.99700
O  41.77600 14.98800 31.38300
C  43.76100 16.22200 31.94100
C  43.11700 17.29700 32.62800
O  42.61400 18.28700 32.04900
O  43.05200 16.99700 33.96000
C  42.16200 17.70200 34.81900
H  49.83700 19.48200 31.15700
H  49.25900 18.23800 24.79200
H  43.91600 14.89500 25.85900
H  45.64300 18.23900 33.34100
H  48.60300 18.49700 33.25600
H  48.30000 20.88800 33.30600
H  46.64600 20.48000 33.53000
H  47.17200 20.79500 31.94300
H  47.77700 16.13600 33.29600
H  46.12300 15.55500 33.55900
H  47.94200 16.30700 35.51600
H  46.24800 15.67300 35.60900
H  51.47600 20.89000 29.75300
H  52.71800 20.11600 28.93800
H  51.87800 19.27400 30.31600
H  52.87700 21.04300 25.29600
H  53.62700 20.14400 26.62900
H  52.37600 21.33200 26.95500
H  48.13700 15.76700 23.62500
H  45.15400 15.64200 23.75700
H  47.38000 18.49900 23.29500
H  46.08900 17.61700 22.57200
H  47.80700 17.34600 22.03100
H  46.26700 13.52400 25.12200
H  47.45300 13.85700 23.93800
H  45.04900 14.02800 22.45400
H  45.14500 12.53400 23.52700
H  46.34900 12.90800 22.32900
H  41.41900 14.84800 27.04400
H  41.31900 14.02200 28.46900
H  42.57300 13.60100 27.28300
H  44.13100 15.46500 32.63200
H  42.38800 18.76800 34.81200
H  42.29600 17.44200 35.86800
H  41.12000 17.68900 34.49900

