158

Mg 24.60100 -8.14700 47.83800
C  27.22200 -5.95400 46.53400
C  22.74000 -6.95500 45.16200
C  22.41900 -10.49800 48.44700
C  27.02600 -9.56100 49.97500
N  24.93700 -6.48400 46.18300
C  26.07900 -5.83300 45.78700
C  25.83200 -4.86800 44.61200
C  24.35700 -5.16000 44.28700
C  23.94800 -6.24000 45.28700
C  23.35000 -3.88800 44.18700
C  26.86800 -5.16800 43.45900
C  27.70000 -3.92900 43.02400
H  27.57100 -3.58000 41.49300
N  22.84000 -8.68900 46.91300
C  22.17900 -8.01800 45.89200
C  20.85800 -8.62400 45.61300
C  20.77800 -9.73100 46.54700
C  22.02500 -9.66500 47.37300
C  19.95600 -8.15100 44.42100
C  19.52700 -10.70800 46.71400
O  18.51100 -10.63600 46.01400
C  19.50900 -11.76200 47.71500
N  24.77500 -9.84000 49.09400
C  23.59800 -10.56600 49.23500
C  23.83700 -11.65400 50.29500
C  25.31800 -11.36900 50.79400
C  25.77800 -10.22900 49.86000
C  22.71800 -11.83700 51.39700
C  26.26600 -12.58600 50.76500
C  27.12200 -12.78200 52.00700
N  26.65600 -7.78300 48.26300
C  27.45100 -8.41400 49.17100
C  28.77700 -7.78100 49.22100
C  28.69400 -6.79600 48.22300
C  27.40800 -6.81600 47.62700
C  29.95700 -8.12000 50.04700
C  29.34700 -5.69300 47.61600
O  30.43000 -5.22800 47.93400
C  28.42800 -5.10100 46.48700
C  28.11800 -3.66100 46.72600
O  27.19300 -3.22200 47.43500
O  28.87400 -2.92300 45.88600
C  28.64200 -1.46200 46.04100
H  22.14900 -6.58700 44.32000
H  21.70900 -11.29300 48.68700
H  27.69900 -9.73300 50.81700
H  25.85900 -3.92300 45.15500
H  24.30400 -5.75200 43.37300
H  23.95900 -3.01400 44.41500
H  22.65800 -3.98000 45.02400
H  22.81300 -3.80600 43.24100
H  26.35300 -5.59500 42.59900
H  27.61800 -5.84900 43.86100
H  28.72800 -4.12900 43.32600
H  27.63900 -3.02000 43.62300
H  19.96400 -8.85300 43.58700
H  20.13700 -7.15300 44.02200
H  18.89600 -8.10700 44.67200
H  20.31800 -12.40800 47.37500
H  18.51700 -12.19400 47.58900
H  19.56900 -11.46200 48.76200
H  23.74500 -12.59000 49.74300
H  25.31800 -10.94300 51.79700
H  23.04400 -12.06300 52.41200
H  22.03100 -12.64300 51.13900
H  22.17400 -10.89500 51.45600
H  26.93200 -12.58200 49.90200
H  25.67100 -13.49200 50.65600
H  26.85600 -13.74000 52.45400
H  27.06100 -12.03300 52.79600
H  28.15900 -12.81500 51.67500
H  30.26400 -7.23400 50.60100
H  30.79600 -8.43500 49.42600
H  29.79600 -8.80400 50.88100
H  29.00700 -5.19700 45.56800
H  29.23000 -0.74400 45.46900
H  28.84100 -1.21500 47.08400
H  27.61600 -1.16900 45.82000
Mg 0.27400 42.95500 26.36700
C  2.50600 42.60200 28.97600
C  -2.24600 41.73900 28.56800
C  -1.76100 42.34800 23.73700
C  2.98900 43.30100 24.16400
N  0.10300 42.29600 28.61900
C  1.17500 42.33800 29.48900
C  0.63800 42.27900 30.92400
C  -0.80200 41.75200 30.77100
C  -0.98700 41.83700 29.22500
C  -1.17800 40.34400 31.27500
C  0.68800 43.59900 31.66600
C  1.23700 43.57600 33.15100
H  0.91500 42.32300 34.08800
N  -1.68600 42.22900 26.14100
C  -2.58100 41.84000 27.13600
C  -3.89400 41.53300 26.56700
C  -3.71800 41.68400 25.17500
C  -2.39300 42.09000 24.93400
C  -5.16400 41.18200 27.43000
C  -4.80700 41.45200 24.13100
O  -4.65800 41.63000 22.92800
C  -6.17100 40.94900 24.51200
N  0.58800 42.63000 24.29200
C  -0.41900 42.54800 23.42900
C  0.09200 42.74500 21.97900
C  1.52200 43.25600 22.14500
C  1.73900 43.03000 23.63600
C  -0.07600 41.42300 21.13800
C  1.79700 44.79800 21.83200
C  1.38000 45.88300 22.78000
N  2.38200 43.03000 26.46500
C  3.34300 43.20800 25.50500
C  4.63300 43.36400 26.15800
C  4.32700 43.10000 27.48800
C  2.99000 42.87200 27.58000
C  5.97700 43.61300 25.58500
C  4.97100 42.92800 28.77800
O  6.18900 43.08100 29.04500
C  3.78400 42.72000 29.83600
C  4.07400 41.48900 30.54100
O  4.39000 40.38900 30.06600
O  3.98900 41.73900 31.94500
C  4.07700 40.50300 32.79200
H  -3.06000 41.44200 29.23300
H  -2.33800 42.28400 22.81200
H  3.74000 43.71300 23.48600
H  1.28100 41.51000 31.35200
H  -1.58300 42.43500 31.10400
H  -1.92700 39.94800 30.58900
H  -1.69600 40.50700 32.22000
H  -0.42600 39.56100 31.37300
H  -0.27700 44.10600 31.65100
H  1.41000 44.20000 31.11400
H  0.76200 44.44600 33.60400
H  2.32700 43.59500 33.15600
H  -5.44800 40.13600 27.31300
H  -5.97300 41.79900 27.03800
H  -5.10300 41.45200 28.48400
H  -6.66600 41.73200 25.08600
H  -6.03600 40.09900 25.18100
H  -6.71500 40.66800 23.61100
H  -0.53300 43.51800 21.53200
H  2.27900 42.59700 21.72000
H  -0.83400 40.81000 21.62600
H  0.88600 40.91200 21.12000
H  -0.39700 41.67400 20.12700
H  1.09400 45.06300 21.04300
H  2.84800 45.01000 21.63500
H  2.31200 46.09100 23.30500
H  0.62100 45.52800 23.47700
H  1.01200 46.77400 22.27000
H  6.01600 43.91400 24.53800
H  6.61900 42.73900 25.69300
H  6.48600 44.39000 26.15400
H  3.78300 43.51500 30.58200
H  3.44300 39.63300 32.62100
H  3.94600 40.91200 33.79400
H  5.07300 40.06600 32.71400

