158

Mg 47.06000 24.46900 27.48800
C  48.09800 26.71100 29.99100
C  46.29500 22.34800 30.00300
C  46.29500 22.25700 25.23800
C  48.57400 26.40600 25.21400
N  47.06700 24.54800 29.71500
C  47.46900 25.58700 30.50700
C  47.16100 25.30600 32.02800
C  46.76600 23.81300 31.95100
C  46.73600 23.55700 30.45800
C  47.78700 22.90800 32.61400
C  46.21700 26.42700 32.67600
C  45.60100 26.01300 33.94100
H  45.70600 26.90900 35.15800
N  46.35100 22.58700 27.55400
C  46.12600 21.84300 28.69000
C  45.55000 20.56500 28.33300
C  45.41900 20.57700 26.90800
C  46.04000 21.83900 26.51500
C  45.28600 19.47300 29.41900
C  44.79800 19.47400 25.99100
O  44.89600 19.51300 24.77500
C  44.11900 18.27100 26.54600
N  47.46700 24.38500 25.50300
C  46.85500 23.43900 24.74500
C  47.18500 23.64400 23.23400
C  47.82000 25.09800 23.25700
C  47.94400 25.34500 24.74800
C  48.08600 22.53200 22.59800
C  46.88400 26.17700 22.58600
C  47.10200 26.37200 21.01200
N  48.19500 26.18500 27.55200
C  48.67600 26.90500 26.50700
C  49.23600 28.14800 27.01200
C  49.04400 28.15700 28.38100
C  48.42300 26.94600 28.63800
C  49.55300 29.36800 26.09300
C  49.10900 28.91500 29.56500
O  49.49000 30.05600 29.75800
C  48.58100 27.94600 30.66800
C  49.51200 27.84900 31.76300
O  50.44400 27.09000 31.82400
O  49.02000 28.62300 32.80800
C  49.77400 28.52700 34.06700
H  45.85400 21.69000 30.75500
H  45.77900 21.74900 24.42100
H  49.02400 27.04900 24.45500
H  48.13200 25.36300 32.51900
H  45.75100 23.62200 32.29900
H  48.40700 23.40700 33.36000
H  48.48100 22.39400 31.95000
H  47.26200 22.13200 33.17100
H  45.41200 26.60700 31.96400
H  46.71900 27.34100 32.99500
H  45.86500 25.00000 34.24400
H  44.56500 26.05600 33.60400
H  44.39000 18.88300 29.23100
H  45.09700 19.86800 30.41800
H  46.16700 18.83600 29.50400
H  43.23800 18.60200 27.09600
H  44.80700 17.80000 27.24800
H  43.91400 17.54900 25.75600
H  46.26500 23.72800 22.65500
H  48.77000 25.20900 22.73500
H  48.31400 21.84500 23.41200
H  49.07900 22.89200 22.32700
H  47.54600 22.04100 21.78900
H  46.89900 27.16200 23.05500
H  45.85500 25.81900 22.60000
H  46.41200 25.59600 20.68100
H  48.17200 26.33400 20.80800
H  46.77900 27.32500 20.59400
H  49.89000 29.11000 25.08900
H  50.42100 29.85500 26.53700
H  48.59300 29.88000 26.04200
H  47.63500 28.42700 30.91600
H  49.67400 27.46000 34.27100
H  49.25800 28.97600 34.91600
H  50.77400 28.94400 33.94900
Mg 5.62300 54.59100 41.69300
C  5.41700 50.93700 41.70200
C  8.60000 54.35400 40.35300
C  5.35500 57.88500 41.28400
C  2.31600 54.60500 43.07300
N  6.80800 52.79200 40.92900
C  6.56200 51.43300 40.98700
C  7.78500 50.60700 40.48200
C  8.93600 51.75600 40.34000
C  8.09500 53.06400 40.50900
C  10.08200 51.58300 41.43300
C  7.55200 49.87000 39.11100
C  6.55100 50.58700 38.12400
H  6.98000 51.26400 36.75200
N  6.89000 55.98400 40.99400
C  8.09600 55.69300 40.49700
C  8.72400 56.85700 40.02200
C  7.82200 57.98300 40.18300
C  6.59100 57.32500 40.81700
C  9.96800 56.83100 39.16400
C  8.06500 59.44300 39.70000
O  9.14300 59.80300 39.27100
C  6.92900 60.44400 39.85700
N  4.05100 56.03700 42.09400
C  4.26700 57.38500 41.94300
C  3.10800 58.10800 42.53400
C  1.90800 57.03700 42.59800
C  2.82800 55.77600 42.63100
C  3.43200 58.78100 43.86800
C  0.88600 56.96500 41.42400
C  -0.53800 57.30900 41.75400
N  4.14900 53.12400 42.26300
C  2.93800 53.31200 42.94000
C  2.40300 52.04000 43.33500
C  3.34700 51.12300 42.83300
C  4.37900 51.79200 42.20500
C  1.16800 51.75200 44.19600
C  3.61100 49.73500 42.78700
O  2.90200 48.82600 43.16100
C  4.97800 49.54800 41.92400
C  4.62900 48.74800 40.76400
O  3.92200 49.10600 39.81600
O  5.25600 47.56000 40.88100
C  5.10400 46.69200 39.67700
H  9.67100 54.19600 40.20400
H  5.36800 58.97300 41.37500
H  1.29000 54.70800 43.43400
H  7.96000 49.83000 41.22600
H  9.31100 51.83500 39.31900
H  10.99900 51.95000 40.97300
H  10.09500 50.49800 41.54100
H  9.78200 52.06400 42.36400
H  7.14500 48.87800 39.30800
H  8.50800 49.81700 38.59000
H  5.95800 51.33700 38.64700
H  5.70700 49.94100 37.88100
H  10.08000 57.68700 38.49800
H  9.85800 55.96400 38.51200
H  10.76200 56.60200 39.87400
H  6.00300 60.06100 39.42900
H  7.22400 61.41700 39.46500
H  6.72500 60.57100 40.92000
H  2.81100 58.97700 41.94800
H  1.46300 57.17300 43.58400
H  2.53000 59.28500 44.21500
H  4.33400 59.39000 43.81200
H  3.61800 58.05100 44.65600
H  1.00600 56.00300 40.92600
H  1.23700 57.73600 40.73800
H  -1.02000 58.01300 41.07400
H  -0.63100 57.62500 42.79300
H  -1.22300 56.46800 41.64800
H  1.38200 50.94500 44.89600
H  0.36600 51.46400 43.51700
H  0.79100 52.59000 44.78200
H  5.79100 49.04900 42.45300
H  5.67600 47.08200 38.83500
H  4.04100 46.64000 39.44300
H  5.49300 45.69900 39.90400

