158

Mg 35.31100 3.07000 30.43800
C  33.11700 3.88900 33.05600
C  37.76200 2.90300 32.88400
C  37.44900 2.14500 27.97600
C  32.80000 3.27000 28.14200
N  35.42600 3.46700 32.74200
C  34.35000 3.65900 33.55300
C  34.78400 3.59400 35.03000
C  36.35200 3.47200 34.97300
C  36.51200 3.21900 33.46400
C  36.97800 4.75800 35.55500
C  34.21400 2.39800 35.78800
C  33.77500 2.63200 37.26100
H  34.75900 3.24600 38.30900
N  37.27500 2.56200 30.50500
C  38.18800 2.54500 31.57300
C  39.50000 2.15500 31.14500
C  39.35700 1.74700 29.77300
C  37.97700 2.14000 29.34400
C  40.77100 2.16700 31.99800
C  40.43200 1.14200 28.83900
O  40.21700 0.95300 27.66500
C  41.86100 0.91400 29.32500
N  35.20900 2.76800 28.33000
C  36.15700 2.33300 27.53400
C  35.71100 2.12800 26.12500
C  34.18500 2.56300 26.24100
C  34.01700 2.85700 27.68600
C  36.35500 2.99800 25.03600
C  33.14500 1.61100 25.62400
C  32.99900 0.30800 26.39600
N  33.41900 3.52100 30.52900
C  32.47400 3.61400 29.51900
C  31.20200 3.93200 30.01100
C  31.39600 3.98400 31.37700
C  32.74100 3.76200 31.67900
C  29.91200 4.09300 29.26000
C  30.74600 4.30700 32.64500
O  29.61000 4.73400 32.89500
C  31.86000 4.08700 33.80400
C  31.72300 5.21100 34.76700
O  32.11700 6.33400 34.61800
O  31.14500 4.72000 35.93700
C  30.79500 5.76900 36.90600
H  38.63100 2.92300 33.54600
H  38.06900 1.77000 27.15900
H  31.94400 3.43500 27.48400
H  34.60000 4.51900 35.57600
H  36.81400 2.66500 35.54100
H  36.29600 5.34300 36.17200
H  37.25500 5.40000 34.71800
H  37.78100 4.42800 36.21400
H  34.99500 1.65400 35.94100
H  33.39200 1.86000 35.31600
H  33.50800 1.61100 37.53100
H  32.86700 3.23500 37.27600
H  41.30400 1.22600 32.13600
H  40.52900 2.58700 32.97400
H  41.53900 2.72700 31.46500
H  42.37900 0.11700 28.79200
H  41.76500 0.36200 30.26000
H  42.52600 1.77500 29.38200
H  35.89500 1.13700 25.71200
H  34.02500 3.55000 25.80700
H  36.68100 3.93800 25.48200
H  35.62400 3.26100 24.27200
H  37.24800 2.49700 24.66100
H  33.53800 1.25200 24.67200
H  32.20500 2.13900 25.46600
H  32.57700 -0.44300 25.72900
H  32.20000 0.35500 27.13600
H  33.94100 -0.01700 26.83800
H  29.90900 5.00000 28.65600
H  29.02800 4.13700 29.89600
H  29.81300 3.30200 28.51700
H  31.70700 3.12200 34.28700
H  31.23100 5.31400 37.79500
H  29.71100 5.76600 37.01800
H  31.12900 6.80300 36.82700
Mg 49.03700 45.26100 43.11800
C  45.66000 45.63600 41.88900
C  48.87600 41.92200 42.32500
C  52.35000 45.09400 43.31500
C  49.20700 48.82500 43.07200
N  47.46300 44.02400 42.02500
C  46.13400 44.32100 41.83400
C  45.45800 42.97600 41.36700
C  46.41100 41.83300 41.80000
C  47.64600 42.64800 42.12300
C  45.86900 40.78600 42.79500
C  45.08900 42.82900 39.81900
C  46.09500 43.48200 38.89000
H  45.46900 43.93200 37.61200
N  50.45100 43.69800 43.05200
C  50.17800 42.39700 42.65600
C  51.46700 41.67800 42.63500
C  52.48400 42.56400 43.07100
C  51.80000 43.83800 43.16500
C  51.56900 40.19100 42.32800
C  53.84800 42.17500 43.29700
O  54.28900 41.06300 43.07200
C  54.88900 43.20900 43.78300
N  50.56600 46.73900 43.17000
C  51.86400 46.38800 43.31900
C  52.81600 47.63200 43.11300
C  51.72700 48.84100 43.10600
C  50.39900 48.08900 43.09600
C  53.92200 47.78100 44.24000
C  51.90600 49.72400 41.79000
C  52.10200 51.20800 42.02400
N  47.75000 46.87800 42.87200
C  47.89500 48.27600 42.87200
C  46.62800 48.94500 42.68200
C  45.74000 47.92000 42.26900
C  46.47700 46.73400 42.41400
C  46.39200 50.46600 42.54800
C  44.43200 47.68300 41.83800
O  43.44400 48.40500 41.71900
C  44.34700 46.14600 41.53000
C  43.23800 45.55800 42.32000
O  42.34900 44.91500 41.83900
O  43.22100 45.92000 43.71600
C  41.95300 45.56900 44.48800
H  48.74600 40.90700 41.94500
H  53.43800 45.18000 43.35700
H  49.34700 49.90700 43.10400
H  44.52400 42.92500 41.92800
H  46.69800 41.26100 40.91700
H  45.79200 39.82100 42.29400
H  44.89400 41.18400 43.07700
H  46.45700 40.74900 43.71200
H  44.12000 43.26800 39.58100
H  45.07400 41.77400 39.54700
H  47.00100 42.88200 38.80800
H  46.44100 44.41800 39.32900
H  51.66500 39.62200 43.25300
H  52.46200 39.88100 41.78600
H  50.74000 39.76100 41.76600
H  55.10200 43.86600 42.94000
H  55.75400 42.83200 44.32900
H  54.46700 43.76500 44.62000
H  53.38700 47.45200 42.20200
H  51.62900 49.43300 44.01600
H  54.72700 48.42500 43.88500
H  54.18500 46.79100 44.61100
H  53.55800 48.35900 45.09000
H  51.06500 49.60000 41.10800
H  52.79300 49.37400 41.26300
H  51.31200 51.79200 41.55300
H  53.02900 51.63100 41.63700
H  52.02100 51.39000 43.09600
H  47.21400 51.06100 42.15000
H  46.17200 50.76800 43.57200
H  45.49000 50.64300 41.96400
H  44.10700 45.92700 40.49000
H  41.06200 45.35200 43.89900
H  41.63100 46.44500 45.05100
H  42.05500 44.73200 45.17900

