158

Mg 42.86100 41.27700 26.14200
C  42.08400 43.47400 28.66100
C  44.44500 39.26600 28.58500
C  43.85400 39.11300 23.68900
C  42.14500 43.70100 23.74100
N  43.25600 41.40800 28.38900
C  42.63200 42.31000 29.14900
C  42.75500 41.99200 30.65400
C  43.73800 40.72600 30.61800
C  43.79100 40.39700 29.12500
C  45.07900 40.99400 31.21800
C  41.41800 41.87700 31.37000
C  41.54300 42.00500 32.85500
H  40.47500 42.68400 33.62900
N  43.73300 39.32600 26.18200
C  44.38600 38.71600 27.22600
C  44.79500 37.38600 26.79000
C  44.50700 37.30100 25.34400
C  44.06100 38.65700 24.99200
C  45.33800 36.33800 27.74200
C  44.76200 36.18600 24.42500
O  44.48400 36.21200 23.25600
C  45.36600 34.82800 24.97100
N  43.03200 41.43300 23.89700
C  43.37400 40.36800 23.11300
C  43.04400 40.64200 21.67400
C  42.63100 42.16800 21.65800
C  42.60000 42.50200 23.19300
C  44.13800 40.25600 20.64800
C  41.26900 42.49300 20.96900
C  41.35800 43.60600 19.90100
N  42.28900 43.23500 26.08300
C  42.02200 44.08000 25.06900
C  41.49400 45.30900 25.66100
C  41.53800 45.14100 27.04000
C  42.04500 43.88600 27.29200
C  41.08800 46.50600 24.81900
C  41.24100 45.76000 28.35300
O  40.82700 46.86400 28.58500
C  41.63600 44.75500 29.42400
C  42.76800 45.37400 30.28900
O  43.80200 45.95000 29.85400
O  42.29600 45.35600 31.63200
C  43.18000 45.87900 32.62300
H  45.00000 38.57500 29.22300
H  43.89100 38.30900 22.95200
H  41.89600 44.42100 22.95800
H  43.22200 42.84900 31.13900
H  43.17400 39.91100 31.07200
H  45.81800 40.94800 30.41900
H  45.18300 40.20900 31.96700
H  45.14100 41.96600 31.70700
H  41.14600 40.89400 30.98700
H  40.61900 42.56900 31.10100
H  42.50000 42.33300 33.26100
H  41.48500 40.95300 33.13800
H  45.05400 36.58700 28.76500
H  46.42600 36.31200 27.79700
H  44.91700 35.39400 27.39500
H  45.86600 34.28600 24.16800
H  44.55400 34.20600 25.34800
H  46.21500 35.11000 25.59400
H  42.09100 40.14400 21.49300
H  43.40900 42.81700 21.25600
H  44.35100 41.02400 19.90500
H  43.73500 39.51000 19.96300
H  45.02600 39.80800 21.09500
H  40.47300 42.75600 21.66500
H  40.85200 41.57900 20.54500
H  42.04300 43.39100 19.08100
H  41.63600 44.56900 20.33100
H  40.36300 43.75500 19.48400
H  41.96600 46.87800 24.29100
H  40.71100 47.20900 25.56100
H  40.27900 46.30500 24.11600
H  40.77700 44.55300 30.06400
H  44.13000 45.34800 32.68700
H  42.68200 45.78600 33.58800
H  43.53200 46.88900 32.41300
Mg -12.37100 16.26200 41.81400
C  -9.50200 14.33300 41.29600
C  -10.78200 18.96900 40.37100
C  -15.32000 17.58800 41.65800
C  -13.95400 13.10500 42.98200
N  -10.45200 16.54900 40.65400
C  -9.37900 15.61000 40.69700
C  -8.12900 16.19000 40.06000
C  -8.54700 17.64300 39.78600
C  -9.97900 17.79000 40.37400
C  -7.62600 18.76600 40.30300
C  -7.63400 15.47700 38.76500
C  -6.06100 15.30300 38.71200
H  -5.32700 16.16400 37.59300
N  -12.89200 18.07200 41.20000
C  -12.15500 19.09900 40.73100
C  -13.01200 20.28300 40.49000
C  -14.27400 19.90000 40.96300
C  -14.23400 18.48800 41.31400
C  -12.43800 21.68300 40.11100
C  -15.52400 20.84500 41.06400
O  -15.53200 21.99400 40.71100
C  -16.90900 20.35600 41.36100
N  -14.41000 15.38900 42.15500
C  -15.39300 16.25400 41.96500
C  -16.74300 15.48800 42.22900
C  -16.34200 14.14000 42.84400
C  -14.83600 14.20800 42.64800
C  -17.95500 16.16800 42.94400
C  -16.94500 12.86600 42.20100
C  -17.16500 11.61300 43.08800
N  -11.88200 14.10300 42.26000
C  -12.59100 13.01200 42.62900
C  -11.75500 11.85400 42.66400
C  -10.53900 12.35200 42.27200
C  -10.69900 13.71400 41.89300
C  -12.11800 10.51800 43.33600
C  -9.13800 11.98600 42.03700
O  -8.52100 10.92900 42.31400
C  -8.41100 13.27000 41.47000
C  -7.45500 13.81800 42.54300
O  -7.80000 14.64000 43.36000
O  -6.23300 13.32100 42.33600
C  -5.13500 14.06800 43.07600
H  -10.21700 19.86600 40.10900
H  -16.32600 17.97400 41.48400
H  -14.39100 12.12600 43.18700
H  -7.37700 16.21000 40.84900
H  -8.62800 17.82800 38.71500
H  -6.60400 18.53100 40.00700
H  -7.59300 18.85000 41.38900
H  -7.86300 19.70200 39.79700
H  -7.93900 15.96900 37.84200
H  -8.12500 14.50700 38.68700
H  -5.76900 14.28600 38.45300
H  -5.69000 15.49400 39.71900
H  -11.39400 21.61700 39.80400
H  -12.42500 22.38100 40.94800
H  -13.08800 22.07300 39.32800
H  -17.56300 21.22300 41.44800
H  -16.88500 19.81200 42.30500
H  -17.32200 19.72800 40.57200
H  -17.14700 15.28900 41.23700
H  -16.58600 14.16300 43.90600
H  -18.80100 16.24800 42.26100
H  -17.62300 17.10000 43.40300
H  -18.30500 15.48800 43.72000
H  -16.29100 12.54200 41.39200
H  -17.88600 13.23100 41.78900
H  -18.14100 11.15500 42.92300
H  -17.03000 11.74800 44.16100
H  -16.49500 10.89200 42.62100
H  -12.41800 9.79000 42.58200
H  -12.88000 10.79800 44.06200
H  -11.21400 10.15400 43.82400
H  -7.90600 13.16600 40.50900
H  -5.34800 14.07600 44.14500
H  -5.08100 15.10500 42.74400
H  -4.21600 13.49400 42.95800

