158

Mg -1.42800 7.92500 26.91400
C  -0.37100 9.59000 29.78100
C  -1.82200 5.05700 28.72500
C  -1.87400 6.26700 23.98200
C  -0.64000 10.93100 25.03900
N  -1.08800 7.40300 28.99900
C  -0.81600 8.23300 30.01000
C  -0.88400 7.58200 31.39400
C  -1.03000 6.03800 30.93700
C  -1.39300 6.18900 29.47300
C  0.31100 5.21800 31.02300
C  -2.03000 8.16900 32.21000
C  -2.07600 7.79400 33.72100
H  -0.77300 7.35500 34.41900
N  -1.94600 5.94800 26.45300
C  -2.13400 4.92900 27.37900
C  -2.70200 3.80000 26.65800
C  -2.53100 4.04700 25.23000
C  -2.12700 5.50200 25.16500
C  -3.42400 2.65400 27.41200
C  -2.65100 3.16000 24.04600
O  -2.52700 3.58900 22.91300
C  -3.07100 1.67800 24.26000
N  -1.10500 8.51100 24.83700
C  -1.34400 7.59200 23.85400
C  -1.37000 8.18800 22.47200
C  -1.26000 9.77800 22.86000
C  -1.00500 9.79500 24.29800
C  -0.13500 7.68400 21.67100
C  -2.61800 10.48200 22.55500
C  -2.96400 10.69200 21.04400
N  -0.57200 9.84500 27.25500
C  -0.37700 10.96900 26.41200
C  0.06800 12.06000 27.22500
C  0.13000 11.65000 28.55100
C  -0.31600 10.30500 28.54200
C  0.49800 13.44800 26.76600
C  0.40300 11.96600 29.93200
O  0.90500 12.95400 30.40000
C  0.01900 10.65500 30.76500
C  1.21600 10.31900 31.71500
O  2.18200 9.66500 31.41300
O  1.01900 10.89600 32.88500
C  2.03200 10.88400 33.89700
H  -2.10300 4.18200 29.31500
H  -1.97600 5.75100 23.02500
H  -0.51200 11.84800 24.46000
H  0.04100 7.82600 31.91500
H  -1.79500 5.46300 31.45900
H  1.05600 5.74100 31.62300
H  0.76500 5.04700 30.04700
H  0.15900 4.28200 31.56000
H  -2.94900 7.76700 31.78300
H  -2.07900 9.25200 32.10200
H  -2.91600 7.10500 33.81200
H  -2.28000 8.70200 34.28800
H  -4.41700 2.53700 26.97900
H  -3.61600 2.91900 28.45100
H  -2.86000 1.72800 27.30100
H  -2.38100 1.32500 25.02700
H  -3.11300 1.13800 23.31400
H  -4.10600 1.74500 24.59300
H  -2.35900 7.98300 22.06200
H  -0.43700 10.35900 22.44300
H  0.15200 6.74700 22.14800
H  0.67500 8.39300 21.84500
H  -0.38700 7.57100 20.61700
H  -2.55000 11.50700 22.92000
H  -3.47400 10.00000 23.02800
H  -2.17000 10.41000 20.35300
H  -3.09900 11.76400 20.90200
H  -3.85400 10.27500 20.57300
H  0.71200 13.30300 25.70700
H  1.32700 13.90800 27.30500
H  -0.36500 14.10000 26.90200
H  -0.74400 10.96400 31.48000
H  2.26000 11.87300 34.29600
H  2.96200 10.45500 33.52600
H  1.69400 10.27800 34.73700
Mg -6.00400 25.27300 26.58600
C  -4.53400 26.77200 29.38900
C  -8.02500 23.52500 28.56700
C  -6.93700 23.73700 23.82900
C  -3.36800 26.87200 24.62500
N  -6.12300 24.99900 28.75500
C  -5.53600 25.84500 29.67200
C  -6.09400 25.53000 31.05600
C  -7.20900 24.45500 30.82100
C  -7.12500 24.31700 29.30400
C  -6.96800 23.16700 31.53800
C  -6.64000 26.79500 31.74100
C  -6.54600 26.91900 33.25900
H  -5.89300 25.82700 34.13100
N  -7.47300 24.02300 26.19200
C  -8.21000 23.37200 27.15700
C  -9.22200 22.60300 26.52000
C  -8.87600 22.44600 25.15500
C  -7.73400 23.42000 24.94100
C  -10.47000 22.07700 27.29300
C  -9.45800 21.42300 24.18300
O  -9.02400 21.33000 23.04400
C  -10.48000 20.30500 24.63600
N  -5.19800 25.20900 24.52200
C  -5.81000 24.45700 23.60800
C  -5.19500 24.65300 22.17400
C  -4.07200 25.76200 22.42800
C  -4.24400 26.04500 23.99700
C  -4.73200 23.35100 21.51200
C  -4.16200 27.04700 21.45000
C  -3.11300 27.10200 20.35900
N  -4.25800 26.56600 26.88900
C  -3.33100 27.16400 26.01800
C  -2.43300 28.00600 26.75200
C  -2.92600 27.90800 28.07200
C  -3.97600 27.01500 28.09300
C  -1.41700 28.87900 26.20400
C  -2.65400 28.38600 29.49300
O  -1.76900 29.09900 29.99500
C  -3.71000 27.63300 30.35700
C  -2.96300 26.88300 31.36400
O  -2.24200 25.95900 31.11700
O  -3.00100 27.53400 32.55600
C  -2.11200 27.04400 33.61600
H  -8.82900 23.09200 29.16600
H  -7.46200 23.44800 22.91600
H  -2.63600 27.32500 23.95200
H  -5.29000 25.15700 31.69000
H  -8.20200 24.77500 31.13400
H  -7.83700 22.62000 31.90400
H  -6.29400 23.33600 32.37800
H  -6.38800 22.50700 30.89200
H  -7.70100 26.91900 31.52400
H  -6.22100 27.66500 31.23500
H  -7.48300 27.16500 33.75800
H  -5.87600 27.74400 33.50100
H  -11.36500 22.36400 26.74100
H  -10.61000 22.47400 28.29800
H  -10.48000 20.99200 27.40200
H  -9.93200 19.78900 25.42400
H  -10.61800 19.65100 23.77500
H  -11.48000 20.63400 24.91800
H  -5.87500 25.08800 21.44200
H  -3.12500 25.24000 22.29100
H  -3.65500 23.21200 21.59900
H  -5.07900 23.18100 20.49300
H  -5.08900 22.52600 22.12900
H  -4.16100 27.90600 22.12200
H  -5.15700 27.07500 21.00600
H  -2.31900 26.40000 20.61500
H  -2.81400 28.14000 20.21400
H  -3.63900 26.70900 19.48900
H  -1.27500 28.62100 25.15400
H  -0.51600 28.79400 26.81200
H  -1.82800 29.88800 26.20200
H  -4.31100 28.40000 30.84500
H  -1.87800 25.98700 33.49000
H  -2.52100 27.22300 34.61000
H  -1.12800 27.51300 33.58400

