158

Mg 43.64700 42.07300 26.39000
C  42.47600 44.24900 28.84100
C  44.41000 39.77200 28.73500
C  44.69500 39.97800 23.85000
C  43.35000 44.66100 24.02800
N  43.30000 42.01800 28.53400
C  42.80600 43.04100 29.32600
C  42.82500 42.53600 30.76900
C  43.61100 41.19200 30.75100
C  43.86000 41.00000 29.28500
C  44.95700 41.03600 31.62200
C  41.35000 42.43800 31.39200
C  41.26600 41.96500 32.86800
H  40.42900 42.80500 33.93500
N  44.46300 40.11800 26.33300
C  44.58400 39.32300 27.38600
C  45.38100 38.20000 26.99400
C  45.48800 38.22300 25.54100
C  44.77400 39.43400 25.13400
C  46.01500 37.26000 28.04700
C  46.13400 37.25300 24.57200
O  46.09300 37.30600 23.33800
C  46.77200 36.03700 25.07200
N  44.11900 42.29500 24.23600
C  44.38300 41.26800 23.44000
C  44.41000 41.70300 21.96400
C  43.73600 43.06700 22.00400
C  43.75800 43.40700 23.49600
C  45.83500 41.63300 21.34000
C  42.23200 43.05600 21.47600
C  41.01400 42.78900 22.46100
N  43.02900 44.07300 26.37600
C  43.02100 44.99800 25.35700
C  42.37100 46.20400 25.86200
C  42.09100 45.96700 27.23900
C  42.69400 44.70700 27.47200
C  42.10100 47.50400 25.10400
C  41.49900 46.53100 28.45900
O  40.88800 47.55200 28.64900
C  41.79900 45.41500 29.53800
C  42.62900 46.11800 30.60100
O  43.45100 47.01000 30.43600
O  42.25000 45.63300 31.78300
C  42.83300 46.31000 32.94800
H  44.55000 39.03600 29.52900
H  44.92900 39.31600 23.01300
H  43.22000 45.50900 23.35300
H  43.48900 43.29300 31.18800
H  43.05500 40.36300 31.19000
H  44.93600 40.22300 32.34800
H  45.07400 41.97700 32.15900
H  45.79800 40.83000 30.96000
H  40.79300 41.68500 30.83400
H  40.84000 43.40000 31.35900
H  42.24700 41.78100 33.30500
H  40.76600 41.01800 33.07100
H  46.72100 37.82700 28.65400
H  46.48600 36.39700 27.57600
H  45.28300 36.89300 28.76600
H  47.52800 36.32800 25.80200
H  47.27900 35.56600 24.23000
H  46.00500 35.37400 25.47100
H  43.76900 40.97700 21.46200
H  44.38300 43.81100 21.53800
H  46.47000 42.50800 21.48200
H  45.71500 41.35800 20.29200
H  46.41900 40.87300 21.86000
H  42.18900 42.26700 20.72600
H  41.99400 44.03000 21.04900
H  41.39400 42.59800 23.46400
H  40.51800 41.86900 22.15100
H  40.31900 43.62700 22.50900
H  41.16800 47.39500 24.55200
H  42.91000 47.67100 24.39300
H  42.07000 48.32400 25.82200
H  40.84600 45.11500 29.97400
H  43.83100 46.70400 32.75400
H  42.96400 45.68700 33.83300
H  42.28700 47.17900 33.31500
Mg 10.30500 46.67200 25.06200
C  7.71000 47.01300 27.61700
C  12.46000 48.21500 27.29000
C  12.54100 46.72900 22.67000
C  7.72800 46.11300 22.76800
N  10.05500 47.58900 27.18400
C  8.99700 47.42600 28.04300
C  9.34200 48.01200 29.43000
C  10.74400 48.74500 29.19300
C  11.15800 48.15100 27.86800
C  10.72000 50.31400 29.16700
C  9.42600 46.85500 30.48000
C  9.54400 47.30500 31.89100
H  8.80100 46.52100 33.05500
N  12.30100 47.04400 25.05200
C  12.98400 47.62000 26.07100
C  14.37000 47.86000 25.71400
C  14.46500 47.33300 24.34300
C  13.06000 47.01500 23.95500
C  15.38300 48.59000 26.59200
C  15.66200 47.15300 23.45100
O  15.64200 46.50200 22.40100
C  17.02900 47.63900 23.89100
N  10.11400 46.57300 22.99400
C  11.19800 46.44300 22.22000
C  10.88000 45.97000 20.82900
C  9.31100 45.91000 20.83900
C  9.03800 46.23600 22.30100
C  11.43300 46.66100 19.53800
C  8.58100 44.65300 20.18900
C  7.72000 44.98500 18.91200
N  8.14600 46.52000 25.11000
C  7.29100 46.22400 24.07100
C  5.96300 46.09400 24.65600
C  6.05500 46.41100 26.02700
C  7.43100 46.60100 26.27100
C  4.76400 45.83000 23.84200
C  5.26600 46.47200 27.23800
O  4.07600 46.33600 27.35200
C  6.32200 46.88300 28.33900
C  6.33800 45.67200 29.27300
O  7.16000 44.79500 29.21400
O  5.37900 45.82900 30.31700
C  5.33800 44.96900 31.42800
H  13.20900 48.77800 27.85000
H  13.26700 46.65100 21.85800
H  7.06500 45.88900 21.93000
H  8.66000 48.79400 29.76200
H  11.51400 48.44800 29.90600
H  11.17700 50.73200 28.27100
H  11.10100 50.82600 30.05100
H  9.69600 50.65300 29.00700
H  10.31700 46.26900 30.25300
H  8.51900 46.26100 30.37100
H  9.24200 48.35200 31.91300
H  10.60700 47.13200 32.05700
H  14.97400 49.59000 26.74000
H  16.45500 48.65000 26.40500
H  15.33000 47.97700 27.49100
H  17.67300 47.69000 23.01300
H  17.47000 47.04800 24.69400
H  16.84800 48.66200 24.22000
H  11.30500 44.97000 20.74200
H  8.97700 46.83000 20.35900
H  12.09300 47.47800 19.83000
H  10.63600 47.07700 18.92300
H  12.04400 45.95800 18.97200
H  7.83800 44.36900 20.93400
H  9.38400 43.92200 20.09400
H  8.18100 44.45900 18.07600
H  7.50600 46.04400 18.76800
H  6.79800 44.44600 19.12800
H  4.85000 44.92800 23.23600
H  4.38500 46.63100 23.20800
H  3.97900 45.61600 24.56700
H  6.27200 47.84600 28.84900
H  5.82600 44.02600 31.18200
H  4.28000 44.72400 31.52600
H  5.72500 45.48600 32.30700

