158

Mg -0.91100 34.30100 26.55500
C  -2.59600 32.52900 29.21200
C  0.54400 36.27800 28.79600
C  -0.00200 36.26800 24.04000
C  -2.76600 32.30300 24.30700
N  -1.13700 34.33400 28.71500
C  -1.75600 33.57400 29.71200
C  -1.34100 33.96700 31.07800
C  -0.42100 35.21800 30.80300
C  -0.37500 35.33900 29.30600
C  -0.94200 36.54800 31.49700
C  -0.70800 32.81800 31.98900
C  -1.47700 32.47400 33.28400
H  -0.78000 32.27500 34.63800
N  0.33300 35.93500 26.37200
C  0.76900 36.68000 27.47100
C  1.67500 37.65100 27.00200
C  1.61600 37.66400 25.59200
C  0.61300 36.59300 25.29700
C  2.51800 38.52400 28.05400
C  2.36200 38.47600 24.58500
O  2.20200 38.31900 23.38900
C  3.39900 39.41000 25.05600
N  -1.37800 34.37100 24.53800
C  -0.88300 35.27200 23.67300
C  -1.21100 34.97500 22.21500
C  -1.77000 33.55100 22.34400
C  -2.03300 33.36500 23.84600
C  -2.25100 35.97600 21.52700
C  -0.82500 32.50400 21.74700
C  0.37400 32.04900 22.59000
N  -2.37600 32.70600 26.69300
C  -3.01300 32.00400 25.67000
C  -3.98800 31.11900 26.26400
C  -3.82100 31.23200 27.66700
C  -2.84300 32.21100 27.85700
C  -4.94700 30.30400 25.57300
C  -4.18700 30.70100 28.96700
O  -5.14300 29.94500 29.23500
C  -3.36900 31.48900 30.00200
C  -4.27100 32.08100 31.06900
O  -4.93500 33.09100 30.93900
O  -4.33800 31.21800 32.14700
C  -5.29200 31.49000 33.19700
H  1.23700 36.75000 29.49500
H  0.40000 36.85800 23.21400
H  -3.21900 31.65900 23.55100
H  -2.13600 34.40000 31.68500
H  0.59500 34.96000 31.10000
H  -1.47900 37.12500 30.74400
H  -0.02800 37.11800 31.66400
H  -1.56900 36.42400 32.38000
H  0.23400 33.22500 32.35700
H  -0.45600 31.88800 31.48000
H  -1.98100 31.51500 33.16100
H  -2.34100 33.13700 33.33100
H  3.58800 38.56200 27.84700
H  2.39200 38.27800 29.10800
H  2.17200 39.55300 27.95600
H  3.39700 40.26500 24.38000
H  4.36000 38.89600 25.08200
H  3.16300 39.79800 26.04600
H  -0.24500 34.92900 21.71300
H  -2.70100 33.49200 21.78000
H  -2.60300 36.69500 22.26700
H  -3.17700 35.47800 21.24100
H  -1.77100 36.32300 20.61200
H  -0.52200 32.74900 20.72900
H  -1.50500 31.65700 21.65400
H  0.00800 31.71000 23.55800
H  1.04400 32.87800 22.82200
H  0.85100 31.28300 21.97900
H  -5.69000 31.00500 25.19300
H  -5.41300 29.50800 26.15400
H  -4.46100 29.93200 24.67100
H  -2.74200 30.71500 30.44500
H  -4.79600 31.46800 34.16700
H  -5.97000 30.63900 33.11900
H  -5.98200 32.33300 33.17100
Mg -9.96400 17.18100 42.52200
C  -6.47900 16.79600 42.28400
C  -9.51500 20.43100 41.63300
C  -13.30500 17.50800 42.39300
C  -10.17200 13.69700 42.67800
N  -8.05200 18.44800 41.97000
C  -6.78700 18.12100 41.97000
C  -5.89300 19.39800 41.62700
C  -6.90600 20.60700 41.54600
C  -8.27800 19.82300 41.78900
C  -6.62500 21.89700 42.35400
C  -5.05300 19.21500 40.38500
C  -5.56700 18.20800 39.27600
H  -4.88100 18.50100 37.85900
N  -11.29200 18.76400 42.18100
C  -10.85700 19.98800 41.82300
C  -12.05300 20.80200 41.56400
C  -13.25600 20.05800 41.86900
C  -12.69200 18.74000 42.27000
C  -11.90300 22.19000 41.00100
C  -14.72600 20.48700 41.82700
O  -15.13900 21.58900 41.37000
C  -15.86300 19.59800 42.20900
N  -11.47200 15.72200 42.29000
C  -12.81700 16.18100 42.33800
C  -13.75200 14.93800 42.63800
C  -12.72600 13.81700 42.59000
C  -11.36400 14.43500 42.56600
C  -14.47100 15.12300 44.05800
C  -12.97500 12.73700 41.45500
C  -13.04300 11.23600 41.87900
N  -8.60300 15.52900 42.65400
C  -8.86900 14.15900 42.74400
C  -7.66100 13.41800 42.82900
C  -6.68100 14.41400 42.74100
C  -7.25500 15.69300 42.54500
C  -7.46600 11.94300 42.88100
C  -5.32600 14.63600 42.71500
O  -4.30000 13.91300 42.73000
C  -5.15800 16.16800 42.49300
C  -4.31700 16.65900 43.71000
O  -3.15700 17.02900 43.60800
O  -5.09600 16.72100 44.83400
C  -4.52400 17.60600 45.86700
H  -9.26600 21.47200 41.41600
H  -14.38000 17.33200 42.47600
H  -10.30900 12.61700 42.76500
H  -5.25900 19.58500 42.49300
H  -6.90500 20.93900 40.50800
H  -5.59500 21.90300 42.71200
H  -7.28000 21.92200 43.22500
H  -6.79600 22.69800 41.63500
H  -4.00000 19.14700 40.66000
H  -4.96800 20.10300 39.75800
H  -6.65400 18.15700 39.20500
H  -5.25900 17.19900 39.54900
H  -11.16200 22.09700 40.20700
H  -11.40700 22.93900 41.61800
H  -12.89900 22.44400 40.63800
H  -15.99100 18.87400 41.40400
H  -16.74900 20.19500 42.42300
H  -15.61000 19.14300 43.16700
H  -14.47500 14.88800 41.82400
H  -12.63000 13.29400 43.54100
H  -14.45000 14.16800 44.58300
H  -15.44300 15.48100 43.71700
H  -13.93300 15.85600 44.65900
H  -12.19000 12.89600 40.71600
H  -13.90400 13.02900 40.96500
H  -13.98500 10.71700 41.69800
H  -12.76500 11.07600 42.92100
H  -12.23300 10.70700 41.37700
H  -8.34900 11.34300 42.66000
H  -6.96400 11.56200 43.77000
H  -6.66400 11.66300 42.20000
H  -4.62300 16.48300 41.59700
H  -3.85900 18.34200 45.41500
H  -4.03000 17.12900 46.71300
H  -5.24300 18.25700 46.36400

