158

Mg 47.14600 16.58000 28.47000
C  45.16300 16.32700 31.40700
C  49.37800 18.37400 30.12700
C  48.52000 17.10600 25.54400
C  44.40900 15.11300 26.77700
N  47.18600 17.24300 30.62100
C  46.38400 16.98200 31.63400
C  46.98500 17.50000 32.97500
C  48.18600 18.34800 32.42900
C  48.32100 17.91400 30.99000
C  47.76700 19.83800 32.50000
C  47.43700 16.37400 33.92400
C  46.85400 16.45800 35.33000
H  46.96000 17.84700 36.00200
N  48.77500 17.50200 27.95500
C  49.65400 18.12100 28.81400
C  50.83400 18.39800 28.09700
C  50.56300 18.20300 26.70400
C  49.21400 17.57700 26.67700
C  52.07900 18.68200 28.95600
C  51.34300 18.47600 25.45900
O  50.95600 18.17900 24.32500
C  52.69600 19.19300 25.59100
N  46.56700 16.12000 26.43900
C  47.26500 16.50600 25.41400
C  46.70300 16.07800 24.09600
C  45.46500 15.22400 24.52000
C  45.46900 15.53400 25.99600
C  46.39000 17.30200 23.08300
C  45.68900 13.71500 24.19400
C  45.08300 13.40500 22.80000
N  45.19300 15.95700 28.85200
C  44.21300 15.41000 28.09000
C  43.02700 15.07900 28.89600
C  43.42700 15.44200 30.20300
C  44.70200 15.97300 30.11100
C  41.72000 14.48200 28.37100
C  42.98100 15.45900 31.56300
O  41.89700 15.09800 32.04000
C  44.20200 15.91800 32.40400
C  43.71500 16.98400 33.37400
O  43.58200 18.19100 33.19100
O  43.32400 16.37000 34.55300
C  42.57400 17.25000 35.45900
H  50.10400 18.99700 30.65300
H  49.06500 17.03100 24.60100
H  43.47200 14.67900 26.42400
H  46.09100 17.95300 33.40300
H  49.16700 18.20500 32.88100
H  47.23000 20.08700 31.58500
H  48.71600 20.34600 32.67100
H  47.07300 19.97400 33.33000
H  48.50400 16.23900 34.10200
H  47.13800 15.42700 33.47500
H  47.29100 15.70400 35.98500
H  45.78900 16.24900 35.22800
H  52.96500 18.36600 28.40600
H  52.02400 18.01100 29.81300
H  52.16400 19.72200 29.27200
H  53.25200 19.29900 24.66000
H  53.26600 18.44500 26.14200
H  52.42100 20.16100 26.00900
H  47.32900 15.37000 23.55200
H  44.54000 15.63100 24.11400
H  47.09500 17.29000 22.25200
H  46.40900 18.23100 23.65200
H  45.39000 17.20000 22.66200
H  45.13800 13.13300 24.93300
H  46.74600 13.46700 24.28500
H  45.14300 14.25000 22.11400
H  44.03700 13.10100 22.82200
H  45.69700 12.56300 22.47900
H  41.42600 14.75900 27.35900
H  40.87500 14.75000 29.00500
H  41.91200 13.41200 28.45300
H  44.53800 14.97100 32.82800
H  41.53000 17.27600 35.14700
H  42.96400 18.23900 35.69900
H  42.52300 16.76000 36.43200
Mg -1.77900 34.27800 26.46600
C  -3.92800 32.77000 28.94300
C  -0.86200 36.48200 28.88300
C  -0.42100 36.08700 24.12800
C  -3.58800 32.49800 24.05000
N  -2.43100 34.62200 28.60700
C  -3.15300 33.81300 29.41900
C  -2.94300 34.20400 30.90600
C  -2.16700 35.56000 30.80800
C  -1.79100 35.58800 29.38100
C  -2.89600 36.83700 31.24500
C  -2.23600 33.09600 31.85600
C  -2.84500 32.66400 33.23100
H  -1.99500 32.39900 34.42600
N  -0.67400 36.07300 26.46800
C  -0.39100 36.77400 27.55800
C  0.62200 37.82400 27.16700
C  0.81200 37.65200 25.74600
C  -0.10800 36.59000 25.37900
C  1.18200 38.85500 28.06200
C  1.62200 38.46100 24.82700
O  1.57000 38.36600 23.56500
C  2.60200 39.46900 25.26900
N  -2.16000 34.44600 24.41200
C  -1.26300 35.15300 23.62600
C  -1.30700 34.77400 22.11600
C  -2.44400 33.72600 22.04500
C  -2.81900 33.58400 23.58100
C  -1.37700 35.94500 21.10400
C  -2.06300 32.40800 21.35700
C  -3.19900 31.74300 20.49200
N  -3.28500 32.76400 26.44600
C  -3.91200 32.11800 25.38500
C  -4.83800 31.17300 25.89600
C  -4.86000 31.39500 27.31600
C  -3.92900 32.39000 27.57700
C  -5.52700 30.15900 25.00700
C  -5.41900 30.85700 28.56200
O  -6.18000 29.92700 28.72000
C  -4.77200 31.75300 29.68900
C  -5.96500 32.21000 30.49000
O  -6.70000 33.14300 30.17900
O  -5.97300 31.56000 31.72000
C  -6.94600 32.15400 32.70500
H  -0.36800 37.08800 29.64500
H  0.18500 36.46300 23.30100
H  -4.02700 31.79900 23.33500
H  -3.87400 34.52800 31.37200
H  -1.30500 35.48600 31.47100
H  -3.94500 36.70900 31.51000
H  -2.86100 37.61900 30.48700
H  -2.49600 37.28900 32.15200
H  -1.24000 33.44900 32.12200
H  -2.14500 32.13600 31.35000
H  -3.50800 31.80100 33.17000
H  -3.62700 33.39000 33.45600
H  2.27000 38.78400 28.07900
H  0.75300 38.67500 29.04700
H  0.98100 39.90200 27.83700
H  3.11300 40.04400 24.49700
H  3.30700 38.73400 25.65900
H  2.09300 40.17300 25.92700
H  -0.37000 34.28100 21.85900
H  -3.27100 34.20100 21.51700
H  -1.37700 36.91700 21.59700
H  -2.28400 35.97200 20.50100
H  -0.48800 36.02700 20.47800
H  -1.88200 31.62900 22.09700
H  -1.21600 32.53000 20.68200
H  -3.83500 32.43600 19.94100
H  -3.84000 31.18400 21.17300
H  -2.65800 31.09200 19.80500
H  -6.53800 30.53400 24.84700
H  -5.52600 29.23400 25.58400
H  -5.12100 30.01900 24.00500
H  -4.17800 31.24200 30.44700
H  -6.62700 33.16700 32.95000
H  -6.88700 31.71600 33.70200
H  -7.96500 32.10200 32.32300

