158

Mg 36.98400 50.18400 25.71300
C  37.32600 47.87500 28.42200
C  35.82800 52.52100 27.70400
C  36.27400 51.91500 22.89800
C  37.87800 47.40500 23.62900
N  36.53900 50.15900 27.81900
C  36.81500 49.13900 28.77200
C  36.79600 49.73400 30.15900
C  36.05900 51.09500 29.90400
C  36.15200 51.29600 28.35100
C  34.58400 51.15000 30.41800
C  38.12800 49.89800 30.96400
C  38.21400 50.29300 32.41400
H  36.83000 50.27500 33.19300
N  36.20100 52.01300 25.34500
C  35.72200 52.87100 26.32800
C  35.37400 54.13000 25.65700
C  35.48500 53.89600 24.23900
C  36.07600 52.59200 24.08200
C  35.00000 55.36000 26.39600
C  35.15900 54.83900 23.06800
O  35.27400 54.46100 21.90500
C  34.48800 56.22900 23.27500
N  37.03900 49.69500 23.60500
C  36.67600 50.60200 22.62700
C  36.74600 50.03400 21.18400
C  37.43200 48.65500 21.40900
C  37.55700 48.60700 22.94600
C  35.31200 49.86600 20.73300
C  38.71500 48.27500 20.63000
C  40.09200 48.42600 21.37600
N  37.56100 48.09300 25.91100
C  37.90100 47.11700 25.00800
C  38.29000 45.88000 25.73000
C  38.11100 46.15300 27.01100
C  37.56500 47.44700 27.07700
C  38.94700 44.66200 25.02200
C  38.12800 45.52900 28.35700
O  38.38500 44.46300 28.81400
C  37.74700 46.71600 29.35500
C  36.61300 46.26700 30.23500
O  35.46900 46.02500 29.86000
O  36.97400 46.37400 31.54200
C  35.93300 46.08000 32.53000
H  35.65200 53.30500 28.44400
H  36.19900 52.42000 21.93300
H  38.33900 46.65800 22.98000
H  36.17900 49.06000 30.75400
H  36.48000 51.89200 30.51800
H  34.59600 51.63400 31.39500
H  34.08000 50.19000 30.53300
H  33.94600 51.80300 29.82400
H  38.71800 50.59200 30.36500
H  38.56300 48.91100 30.80900
H  38.71400 51.25300 32.54700
H  38.76500 49.47500 32.87800
H  35.57500 56.14300 25.90300
H  35.24500 55.15100 27.43800
H  33.95000 55.64600 26.33200
H  34.89500 56.70300 24.16900
H  33.40900 56.09000 23.34900
H  34.75800 56.90000 22.45900
H  37.36500 50.63900 20.52200
H  36.72000 47.86900 21.15700
H  35.08600 50.58400 19.94500
H  34.58500 50.02000 21.53100
H  35.18400 48.89800 20.24900
H  38.74300 48.93900 19.76600
H  38.70000 47.26000 20.23400
H  40.54700 47.43800 21.45200
H  40.26900 48.85900 22.36000
H  40.59300 49.13700 20.71900
H  39.38400 44.99600 24.08100
H  38.18900 43.88800 24.90800
H  39.71800 44.26500 25.68200
H  38.61000 47.04500 29.93400
H  34.90400 46.19900 32.18900
H  36.02700 46.69500 33.42600
H  35.96900 45.05100 32.88900
Mg -12.27900 16.00600 41.69000
C  -9.46000 14.04700 40.96000
C  -10.48200 18.74600 40.39900
C  -15.12600 17.55200 41.20500
C  -13.93000 13.07900 42.69300
N  -10.19000 16.30000 40.69900
C  -9.20100 15.39000 40.57200
C  -7.89900 15.99300 39.89000
C  -8.24500 17.45900 39.82600
C  -9.71800 17.53100 40.33400
C  -7.29900 18.38500 40.69000
C  -7.66100 15.34700 38.51000
C  -6.23000 14.93300 38.13900
H  -5.51800 15.67100 37.04900
N  -12.77000 17.95000 41.10600
C  -11.88800 18.86400 40.59100
C  -12.66300 20.05500 40.38200
C  -14.00900 19.70300 40.45900
C  -14.05300 18.35700 40.93800
C  -12.00300 21.33100 40.03200
C  -15.26500 20.62700 40.12400
O  -15.05800 21.77900 39.72300
C  -16.74600 20.08200 40.16300
N  -14.19500 15.43300 42.04500
C  -15.23500 16.24800 41.74400
C  -16.59800 15.53100 41.80600
C  -16.25400 14.07300 42.39400
C  -14.71500 14.18500 42.41600
C  -17.84700 16.26800 42.61000
C  -16.87600 12.99600 41.59600
C  -17.57500 11.91500 42.54800
N  -11.80500 13.97600 41.92700
C  -12.59000 12.93800 42.43300
C  -11.75800 11.73200 42.52900
C  -10.55400 12.10500 41.88900
C  -10.65100 13.48100 41.47100
C  -12.11000 10.35300 43.00200
C  -9.28500 11.61700 41.51600
O  -8.87500 10.50600 41.61100
C  -8.55700 12.83100 40.84100
C  -7.27900 13.05800 41.50200
O  -7.11300 13.13600 42.72100
O  -6.25500 13.05800 40.64000
C  -4.86300 13.33300 41.06500
H  -9.99500 19.66900 40.07700
H  -16.14400 17.94000 41.13200
H  -14.52500 12.27800 43.13600
H  -7.05300 15.90800 40.57200
H  -8.05600 17.81600 38.81400
H  -6.69600 18.89700 39.94000
H  -6.75000 17.91700 41.50700
H  -7.96200 19.15200 41.09100
H  -7.96500 16.00300 37.69500
H  -8.22200 14.42300 38.37100
H  -6.27900 13.87300 37.89000
H  -5.61100 15.10500 39.01900
H  -11.71000 21.38000 38.98300
H  -11.11000 21.43700 40.64800
H  -12.62300 22.20000 40.24900
H  -17.53700 20.66300 39.68800
H  -16.96600 19.98700 41.22600
H  -16.75900 19.13000 39.63400
H  -17.01900 15.41700 40.80700
H  -16.43600 13.96500 43.46400
H  -17.83000 15.87100 43.62500
H  -18.70100 15.94900 42.01300
H  -17.70800 17.34600 42.52600
H  -16.04200 12.57900 41.03300
H  -17.54300 13.33000 40.80100
H  -16.90400 11.45500 43.27300
H  -17.96300 11.15700 41.86700
H  -18.42800 12.37900 43.04400
H  -12.74100 10.44200 43.88600
H  -11.24400 9.77300 43.32300
H  -12.69400 9.99200 42.15500
H  -8.44100 12.66500 39.77100
H  -4.52600 12.52000 41.70800
H  -4.81000 14.25700 41.64100
H  -4.24600 13.50300 40.18200

