158

Mg 46.77800 23.79800 29.11800
C  47.40400 26.22900 31.72400
C  46.05100 21.50000 31.58200
C  46.44200 21.60000 26.66200
C  48.30100 26.02400 26.81500
N  46.73600 23.91300 31.42400
C  46.90100 25.02500 32.22000
C  46.36800 24.71200 33.64400
C  46.05200 23.08700 33.61100
C  46.38300 22.75500 32.10000
C  46.87900 22.28000 34.60200
C  45.06800 25.50500 33.96800
C  45.29100 26.50400 35.15100
H  45.88800 26.04200 36.56500
N  46.37600 21.83000 29.15300
C  46.05400 21.05600 30.24500
C  45.73400 19.71600 29.79100
C  45.88600 19.70100 28.35800
C  46.23100 21.08400 27.98900
C  45.17800 18.62200 30.79900
C  45.74100 18.58300 27.42300
O  45.94900 18.69100 26.19100
C  45.37300 17.19700 27.93700
N  47.37500 23.79300 27.12100
C  46.94700 22.82100 26.27600
C  47.26600 23.09200 24.82400
C  47.65900 24.65500 24.83600
C  47.73300 24.85900 26.33200
C  48.21700 22.05100 24.13100
C  46.75000 25.69800 24.08200
C  45.27500 25.86600 24.58000
N  47.68600 25.69600 29.21900
C  48.24500 26.45700 28.19900
C  48.60400 27.77200 28.70800
C  48.26000 27.74500 30.06500
C  47.71000 26.46300 30.32300
C  49.26900 28.89000 27.95200
C  48.24300 28.55200 31.29100
O  48.61900 29.70400 31.54700
C  47.65500 27.53400 32.39400
C  48.68500 27.43000 33.59900
O  49.74800 26.80900 33.61400
O  48.33800 28.29000 34.58000
C  49.32800 28.55700 35.63600
H  45.81500 20.74100 32.33100
H  46.18500 20.95300 25.82100
H  48.62300 26.73900 26.05600
H  47.17100 24.88100 34.36200
H  44.99600 22.94200 33.83800
H  47.43700 22.98100 35.22300
H  47.43600 21.52400 34.04800
H  46.16300 21.87700 35.31700
H  44.25900 24.84900 34.28800
H  44.78500 26.01500 33.04700
H  44.37200 27.06900 35.30900
H  46.09100 27.19300 34.87900
H  44.93500 19.00300 31.79100
H  45.91100 17.81600 30.79200
H  44.24200 18.24300 30.39000
H  45.31700 16.60100 27.02600
H  44.37600 17.28100 28.37000
H  45.99300 16.71600 28.69400
H  46.32900 22.95600 24.28400
H  48.68500 24.70300 24.47200
H  47.67900 21.57900 23.30800
H  48.44900 21.20100 24.77200
H  49.09600 22.57100 23.75100
H  46.64200 25.36400 23.05000
H  47.17000 26.70200 24.03300
H  45.03500 26.91400 24.76200
H  45.17100 25.22500 25.45400
H  44.53100 25.49300 23.87600
H  48.72300 29.82400 28.08400
H  49.33100 28.60100 26.90300
H  50.28300 29.06100 28.31300
H  46.68800 27.79000 32.82600
H  50.35200 28.21800 35.47700
H  48.93400 28.16300 36.57300
H  49.40500 29.64000 35.72800
Mg 30.47000 59.62100 39.13700
C  27.27800 58.23100 38.26400
C  31.92600 56.62500 38.13000
C  33.34200 61.22000 39.17700
C  28.69000 62.52200 39.88200
N  29.71600 57.72500 38.21500
C  28.43000 57.37800 37.98700
C  28.36500 55.98800 37.34600
C  29.79900 55.42100 37.58600
C  30.55300 56.65900 37.95300
C  29.92000 54.29900 38.66100
C  27.94300 56.13400 35.90800
C  27.88400 54.83900 35.10700
H  27.25100 54.85300 33.67500
N  32.42700 59.01600 38.83900
C  32.77700 57.72800 38.48800
C  34.19500 57.64100 38.42300
C  34.71900 58.97400 38.68300
C  33.53400 59.81700 38.91000
C  34.89300 56.35200 38.01600
C  36.22100 59.28300 38.84900
O  37.09900 58.48400 38.56300
C  36.56500 60.59600 39.35100
N  30.98800 61.55500 39.51100
C  32.25300 62.01300 39.49700
C  32.34200 63.46200 39.77800
C  30.85000 63.86600 40.00100
C  30.12800 62.52500 39.81000
C  33.34000 63.81800 40.94500
C  30.29800 64.97900 39.04300
C  29.56800 66.06800 39.77600
N  28.29000 60.29900 39.20900
C  27.82200 61.50700 39.53400
C  26.39300 61.44000 39.53400
C  26.07300 60.13600 39.08300
C  27.28900 59.53000 38.86500
C  25.32000 62.46000 39.89300
C  25.03500 59.18700 38.78600
O  23.80500 59.30400 38.78900
C  25.75000 57.89000 38.19100
C  25.34300 56.82900 39.07500
O  25.46100 56.88400 40.26700
O  24.75800 55.84400 38.28900
C  24.15300 54.71500 39.02100
H  32.39600 55.64700 38.00500
H  34.27500 61.77700 39.28000
H  28.11100 63.38100 40.22700
H  27.66800 55.37700 37.92000
H  30.17100 55.01700 36.64400
H  28.94700 54.03300 39.07400
H  30.62000 54.61400 39.43400
H  30.28100 53.41900 38.12700
H  28.55100 56.87500 35.38900
H  26.90900 56.47600 35.93900
H  27.32200 54.09400 35.67000
H  28.88100 54.40900 35.00700
H  34.51000 55.47800 38.54400
H  35.96300 56.55300 38.06100
H  34.64600 56.10400 36.98400
H  37.61700 60.51900 39.62500
H  35.92700 60.65400 40.23300
H  36.27400 61.31900 38.58900
H  32.78900 63.92100 38.89600
H  30.62000 63.94900 41.06300
H  33.70800 62.83200 41.22500
H  32.93800 64.20400 41.88200
H  34.19700 64.43400 40.67200
H  29.59000 64.63700 38.28800
H  31.14100 65.39600 38.49100
H  29.93600 66.14500 40.79900
H  28.53700 65.71800 39.74400
H  29.82200 67.09800 39.52400
H  24.97700 62.29700 40.91500
H  24.48700 62.26900 39.21700
H  25.77900 63.44700 39.84100
H  25.34500 57.78800 37.18400
H  24.83600 54.37500 39.80000
H  23.72400 53.87000 38.48200
H  23.22600 55.13900 39.40600

