158

Mg 15.80500 -2.29300 27.88800
C  15.06900 -0.20100 30.56900
C  17.85500 -4.09800 30.11400
C  17.27100 -3.92000 25.33600
C  14.77400 0.17800 25.64600
N  16.53900 -1.99200 30.08200
C  15.97300 -1.21500 30.97700
C  16.36700 -1.56400 32.37300
C  17.54200 -2.55600 32.18600
C  17.24400 -3.01100 30.76700
C  19.05200 -2.02300 32.27100
C  15.13500 -2.11200 33.21800
C  14.81300 -1.27000 34.50100
H  15.89600 -0.87700 35.48500
N  17.09200 -3.99200 27.74200
C  17.90100 -4.53400 28.78100
C  18.62300 -5.67200 28.24500
C  18.41900 -5.67000 26.83800
C  17.55300 -4.50000 26.57400
C  19.47200 -6.53300 29.07200
C  18.95200 -6.57700 25.77400
O  18.75300 -6.37100 24.60600
C  19.80600 -7.75200 26.16300
N  15.82600 -1.97700 25.82800
C  16.56200 -2.78100 24.98400
C  16.48300 -2.31000 23.53200
C  15.58900 -1.06900 23.58500
C  15.35000 -0.96200 25.09200
C  17.80700 -2.13000 22.82300
C  14.41500 -0.94000 22.62100
C  13.27100 -1.84000 23.08800
N  14.97200 -0.40500 27.95100
C  14.48800 0.42200 27.00700
C  13.66900 1.44200 27.68900
C  13.89200 1.27800 29.10000
C  14.74600 0.17300 29.19300
C  12.68800 2.36300 27.00300
C  13.56300 1.78200 30.38900
O  12.75200 2.63500 30.64700
C  14.35400 0.90700 31.37900
C  15.22100 1.92100 32.14900
O  16.15200 2.51600 31.67400
O  14.62000 2.33200 33.33500
C  15.30200 3.43800 34.06600
H  18.46300 -4.72000 30.77500
H  17.73500 -4.41100 24.47800
H  14.30100 0.76900 24.85800
H  16.65700 -0.61600 32.82600
H  17.41200 -3.28800 32.98300
H  19.66900 -2.58300 32.97500
H  19.04300 -0.99200 32.62500
H  19.56300 -2.00200 31.30800
H  15.25400 -3.09900 33.66600
H  14.17100 -1.99000 32.72400
H  13.97500 -1.78300 34.97200
H  14.26200 -0.39400 34.15900
H  19.49100 -7.56500 28.72000
H  19.02400 -6.54500 30.06600
H  20.45300 -6.11400 29.29600
H  20.83000 -7.52200 26.45900
H  20.01400 -8.27500 25.23000
H  19.34900 -8.44200 26.87200
H  15.92500 -3.14100 23.10000
H  16.12500 -0.13200 23.43200
H  17.99700 -1.09900 22.52500
H  17.64600 -2.56900 21.83800
H  18.67200 -2.58300 23.30600
H  14.64100 -1.22600 21.59400
H  14.13100 0.10700 22.51600
H  12.34700 -1.32200 23.34600
H  13.49300 -2.48600 23.93700
H  13.11300 -2.48200 22.22100
H  12.32500 3.09700 27.72300
H  11.81000 1.80500 26.67700
H  13.18800 2.92700 26.21500
H  13.57400 0.48000 32.00900
H  14.52700 3.99400 34.59300
H  15.88800 4.15800 33.49400
H  15.96400 3.10800 34.86700
Mg 47.32600 16.59900 28.07700
C  45.19900 16.29500 30.97000
C  49.55100 18.37700 30.09900
C  49.04700 17.31000 25.24800
C  44.75400 15.25800 26.27300
N  47.37900 17.15500 30.31600
C  46.45900 16.83900 31.28200
C  46.90300 17.36100 32.61400
C  48.16600 18.26300 32.29200
C  48.44600 17.97800 30.80400
C  48.06200 19.82300 32.54400
C  47.22700 16.14200 33.56600
C  47.13400 16.37700 35.06100
H  47.31700 17.78000 35.58100
N  49.13300 17.59200 27.71000
C  49.86900 18.24100 28.71900
C  50.96900 18.89400 28.04800
C  50.99500 18.43000 26.66300
C  49.67400 17.73900 26.44500
C  51.94800 19.70200 28.87200
C  52.00600 18.73000 25.62700
O  51.90400 18.43200 24.43700
C  53.20800 19.58800 25.92500
N  46.91400 16.52900 26.12200
C  47.76600 16.83000 25.11400
C  47.21800 16.59000 23.77500
C  45.85500 15.80100 24.03000
C  45.81400 15.82000 25.62600
C  46.98500 17.93300 22.99400
C  45.98600 14.24600 23.69100
C  45.05300 13.71200 22.59000
N  45.34000 15.95900 28.50100
C  44.41700 15.39100 27.66900
C  43.18100 15.05300 28.40500
C  43.48400 15.46500 29.68600
C  44.79000 15.95100 29.71300
C  41.92000 14.47700 27.88300
C  42.87800 15.54700 31.02700
O  41.84000 15.09700 31.48200
C  44.02100 16.07800 31.90500
C  43.50200 17.27700 32.63200
O  43.47500 18.39400 32.12200
O  42.98000 16.93200 33.82600
C  42.53500 17.95600 34.76800
H  50.28100 18.95500 30.67000
H  49.52500 17.55900 24.29800
H  43.91500 14.90000 25.67200
H  46.17600 18.03900 33.06100
H  49.01300 17.85100 32.84100
H  47.07300 19.97900 32.97500
H  47.97100 20.40600 31.62800
H  48.86700 20.12700 33.21300
H  48.23700 15.78800 33.36200
H  46.54600 15.32300 33.33600
H  47.91800 15.76300 35.50300
H  46.20800 15.97000 35.46700
H  52.44600 18.89400 29.40700
H  51.38100 20.34900 29.54200
H  52.61800 20.23200 28.19500
H  53.79900 19.76300 25.02700
H  53.76700 19.28500 26.81000
H  52.92800 20.57800 26.28400
H  48.04400 15.95300 23.45700
H  44.99600 16.39100 23.70900
H  45.96100 18.10700 22.66400
H  47.72700 17.96600 22.19600
H  47.21500 18.78300 23.63600
H  45.80200 13.63900 24.57800
H  46.97900 14.04600 23.28800
H  45.50500 13.98400 21.63600
H  44.02700 14.08100 22.61700
H  44.95900 12.62700 22.63900
H  41.90800 13.43900 28.21400
H  41.80400 14.62300 26.80900
H  41.10000 14.94200 28.43000
H  44.29200 15.26700 32.58100
H  41.45700 18.03400 34.62300
H  43.00500 18.91000 34.53000
H  42.55900 17.64500 35.81200

