158

Mg 35.70800 0.34600 30.20900
C  33.49300 1.78100 32.39800
C  38.10800 0.57100 32.82700
C  38.25700 -0.63500 28.08000
C  33.69700 0.86300 27.42600
N  35.74000 1.06100 32.31000
C  34.64500 1.49700 33.03800
C  34.92600 1.61000 34.49900
C  36.59800 1.67400 34.48900
C  36.87000 1.01000 33.13500
C  37.32000 3.09900 34.69000
C  34.36700 0.45500 35.32300
C  33.38500 0.83700 36.41400
H  33.59200 2.13800 37.22400
N  37.85800 -0.16000 30.47800
C  38.58100 0.00500 31.59800
C  39.97500 -0.42500 31.34800
C  39.94200 -0.98400 30.02200
C  38.66000 -0.53900 29.44100
C  41.06700 -0.45100 32.37300
C  40.98900 -1.72800 29.17700
O  40.79900 -2.13800 28.00600
C  42.26400 -2.09200 29.87300
N  36.08300 0.51100 27.97100
C  37.12400 -0.11400 27.41100
C  36.95800 -0.28700 25.89100
C  35.40300 0.10000 25.63600
C  35.03200 0.48400 27.11500
C  37.87200 0.52100 25.06000
C  34.47000 -0.97600 25.15700
C  33.43800 -0.52500 24.06500
N  33.95800 1.14000 29.87100
C  33.19200 1.20100 28.74700
C  31.85500 1.71800 29.06300
C  31.93600 1.93900 30.48200
C  33.23200 1.58600 30.94400
C  30.77200 1.87200 28.12100
C  31.26000 2.46400 31.61900
O  30.16600 2.95100 31.71500
C  32.20300 2.35000 32.88000
C  32.30400 3.61800 33.58000
O  33.05800 4.54400 33.27400
O  31.39400 3.76400 34.47800
C  31.35500 5.02800 35.29200
H  38.89600 0.56100 33.58200
H  38.81800 -1.23700 27.36100
H  32.97000 0.76700 26.61700
H  34.39900 2.49500 34.85600
H  36.99000 1.02900 35.27600
H  37.93500 3.51000 33.89000
H  37.85300 3.03000 35.63800
H  36.52500 3.81500 34.90100
H  35.13100 -0.09100 35.87600
H  33.63900 -0.09300 34.72400
H  33.47400 0.07600 37.19000
H  32.35900 0.81700 36.04800
H  41.26900 -1.52100 32.41000
H  40.66400 -0.21400 33.35800
H  41.96100 0.14200 32.18000
H  42.71100 -1.12200 30.08800
H  42.84900 -2.49200 29.04400
H  42.02600 -2.65600 30.77400
H  37.04600 -1.31100 25.52900
H  35.36600 0.98400 24.99900
H  38.82600 -0.00800 25.05300
H  37.92900 1.55500 25.40000
H  37.47400 0.49300 24.04600
H  34.04000 -1.41300 26.05700
H  35.02100 -1.82700 24.75800
H  32.46800 -0.74200 24.51200
H  33.52700 -1.17500 23.19400
H  33.29700 0.54300 23.90000
H  30.73500 0.88000 27.67200
H  31.06600 2.67500 27.44500
H  29.83400 2.06900 28.64100
H  31.74600 1.72500 33.64800
H  30.66300 5.85400 35.12900
H  32.34100 5.48300 35.38900
H  31.04600 4.66400 36.27100
Mg 26.54100 50.64400 26.40600
C  24.15900 51.45600 28.95600
C  28.77900 50.11500 28.80900
C  28.76300 50.27800 23.88700
C  24.07200 51.60100 24.10300
N  26.42300 50.77100 28.59300
C  25.37900 51.00700 29.44000
C  25.72900 50.87600 30.88200
C  27.32200 50.56400 30.79300
C  27.57100 50.50600 29.31200
C  28.23500 51.51600 31.59700
C  24.85500 49.76100 31.57600
C  25.34900 49.26300 32.88100
H  24.60400 49.72400 34.14300
N  28.46500 50.06800 26.33600
C  29.23900 49.88800 27.47200
C  30.49700 49.37200 27.03000
C  30.56900 49.51200 25.58900
C  29.25200 49.98300 25.19500
C  31.54100 48.98600 28.14200
C  31.75800 49.23100 24.72200
O  31.61600 49.46500 23.52600
C  33.03900 48.60900 25.21500
N  26.35100 50.92200 24.27300
C  27.42300 50.74300 23.49900
C  27.02200 50.74200 22.05800
C  25.61200 51.33200 22.10500
C  25.27700 51.27800 23.55000
C  27.98500 51.64300 21.18900
C  24.54900 50.44100 21.29400
C  23.58700 51.10000 20.27600
N  24.57700 51.40700 26.43100
C  23.73900 51.71800 25.41500
C  22.35300 52.09400 25.91200
C  22.51200 52.06100 27.30500
C  23.85700 51.58400 27.55300
C  21.24600 52.67700 25.17600
C  21.86400 52.42900 28.55300
O  20.75000 52.88700 28.79500
C  22.87500 51.85900 29.67300
C  23.14800 53.08600 30.51200
O  23.92100 53.97900 30.16500
O  22.48400 53.13900 31.67800
C  22.72400 54.26100 32.58100
H  29.45200 49.83600 29.62200
H  29.45200 50.01400 23.08200
H  23.26400 51.83400 23.40600
H  25.54400 51.87000 31.28900
H  27.60100 49.60600 31.23100
H  29.07500 51.82900 30.97700
H  28.62500 51.09100 32.52200
H  27.69600 52.42900 31.84700
H  24.57200 48.96200 30.89200
H  23.90700 50.27500 31.73200
H  26.35500 49.59500 33.13800
H  25.28700 48.17500 32.85800
H  31.20000 49.04700 29.17600
H  32.43500 49.60800 28.17000
H  31.89000 47.99200 27.86200
H  32.80100 47.62100 25.60900
H  33.40300 49.29500 25.98000
H  33.65300 48.59400 24.31400
H  26.92700 49.75000 21.61600
H  25.70200 52.36700 21.77700
H  28.90000 51.09500 20.96200
H  28.15100 52.56000 21.75500
H  27.43000 52.02900 20.33300
H  23.87000 49.96800 22.00300
H  25.11500 49.64700 20.80600
H  23.43200 50.54700 19.34900
H  23.99900 52.06400 19.97700
H  22.60800 51.33200 20.69500
H  21.18400 52.16700 24.21500
H  21.47000 53.71700 24.93500
H  20.29500 52.50000 25.67700
H  22.47400 51.07600 30.31600
H  23.61600 54.11400 33.19100
H  22.05300 54.48600 33.41000
H  22.81200 55.21700 32.06400

