158

Mg -0.83300 17.74300 27.19500
C  -1.37400 15.62400 29.65100
C  -1.74100 20.38200 29.24900
C  -0.77700 20.13600 24.51600
C  -0.72200 15.26600 24.86700
N  -1.36100 17.99500 29.22300
C  -1.44800 16.95900 30.08100
C  -1.67100 17.35800 31.57600
C  -1.95100 18.86900 31.39100
C  -1.66300 19.13200 29.87000
C  -3.40800 19.25800 31.86700
C  -0.42000 17.22300 32.53900
C  -0.88400 17.00100 33.98600
H  0.14800 17.21200 35.14100
N  -1.12700 19.91500 26.98400
C  -1.42600 20.78500 27.97100
C  -1.49200 22.17300 27.48000
C  -1.19400 22.14600 26.09800
C  -0.98700 20.68600 25.78700
C  -1.82100 23.39800 28.30400
C  -1.08700 23.29300 25.05700
O  -0.87100 23.13100 23.88300
C  -1.08100 24.75400 25.57400
N  -0.74000 17.80500 25.02300
C  -0.64900 18.82100 24.14100
C  -0.43400 18.30600 22.70500
C  -0.11000 16.75000 22.94300
C  -0.57000 16.56200 24.35900
C  -1.59900 18.47900 21.71700
C  1.32200 16.26700 22.80800
C  2.38800 16.76500 23.90000
N  -0.92200 15.83400 27.17600
C  -0.89200 14.85200 26.20500
C  -1.10500 13.52500 26.81200
C  -1.27000 13.82400 28.14700
C  -1.12100 15.22700 28.31900
C  -1.22100 12.12700 26.10400
C  -1.45400 13.16400 29.41000
O  -1.49000 12.00100 29.74500
C  -1.57200 14.33900 30.40800
C  -0.35600 14.23500 31.33600
O  0.79200 14.30300 31.00300
O  -0.77600 13.88400 32.59500
C  0.25400 13.70400 33.63200
H  -1.95800 21.19400 29.94500
H  -0.60900 20.77600 23.64800
H  -0.60300 14.52600 24.07300
H  -2.54400 16.78100 31.88100
H  -1.23200 19.36900 32.03900
H  -3.94000 19.84300 31.11700
H  -3.18700 19.70900 32.83400
H  -4.04300 18.38400 32.01600
H  0.32400 18.01700 32.59600
H  0.20900 16.36500 32.30300
H  -1.18900 15.95600 34.04100
H  -1.74600 17.60300 34.27500
H  -2.17800 23.11700 29.29400
H  -2.60200 23.99300 27.82900
H  -0.93100 24.00700 28.46200
H  -1.93600 25.11700 26.14500
H  -0.93000 25.32200 24.65600
H  -0.19200 24.80800 26.20300
H  0.43300 18.83100 22.30500
H  -0.70800 16.06800 22.33900
H  -2.48200 18.70900 22.31300
H  -1.89700 17.58200 21.17300
H  -1.37500 19.31000 21.04800
H  1.59600 16.73100 21.86000
H  1.22000 15.19100 22.66700
H  2.77100 15.89800 24.43900
H  1.97000 17.45600 24.63200
H  3.14000 17.26500 23.28900
H  -0.78800 11.91600 25.12600
H  -2.29200 11.94300 26.01300
H  -0.84000 11.38800 26.80900
H  -2.44300 14.38700 31.06300
H  0.82500 12.79700 33.43000
H  -0.28300 13.62800 34.57700
H  0.88900 14.59000 33.65500
Mg 9.34100 48.31200 26.04200
C  6.75200 48.66100 28.56000
C  11.62900 49.62900 28.17000
C  11.54300 48.26900 23.46100
C  6.71200 47.62900 23.74800
N  9.21100 48.87300 28.16100
C  8.06900 48.98100 28.98900
C  8.49100 49.42300 30.45800
C  9.99400 49.98900 30.21600
C  10.33200 49.43100 28.77400
C  10.16000 51.54100 30.29100
C  8.42800 48.38000 31.57700
C  8.91300 48.82000 32.94800
H  8.23800 48.28600 34.21100
N  11.36100 48.76600 25.85900
C  12.08900 49.31800 26.86400
C  13.40600 49.50000 26.33300
C  13.47500 48.89400 25.07700
C  12.08700 48.61600 24.74100
C  14.51200 50.14800 27.10500
C  14.72200 48.61700 24.16200
O  14.57300 47.89300 23.16600
C  16.11100 49.14000 24.56200
N  9.15400 48.07400 23.91000
C  10.20900 48.00000 23.15100
C  9.87000 47.61700 21.62500
C  8.36800 47.30800 21.74000
C  8.03800 47.63500 23.23700
C  10.23300 48.58300 20.47500
C  8.00000 45.87000 21.32800
C  8.27900 44.82400 22.42600
N  7.14600 48.15400 26.06300
C  6.25200 47.93000 25.02100
C  4.95300 47.98300 25.62100
C  5.04600 48.26700 26.99900
C  6.43000 48.29100 27.25400
C  3.59600 47.77100 24.84500
C  4.35000 48.44700 28.31700
O  3.14100 48.38600 28.63100
C  5.47400 48.75600 29.34800
C  5.24900 47.86000 30.47600
O  5.88000 46.82600 30.64900
O  4.42100 48.46900 31.35000
C  4.20200 47.66800 32.52500
H  12.44800 49.95400 28.81500
H  12.28500 48.23100 22.66000
H  5.90100 47.40500 23.05200
H  7.86600 50.30200 30.61800
H  10.71200 49.57800 30.92600
H  10.09400 51.94300 29.28000
H  11.11100 51.77800 30.76700
H  9.33000 51.93100 30.88000
H  8.76800 47.39500 31.25600
H  7.35800 48.24500 31.72900
H  8.81700 49.90000 33.05100
H  9.90900 48.41400 33.12500
H  14.09000 50.90900 27.76100
H  15.28900 50.67600 26.55300
H  14.98600 49.35000 27.67800
H  16.90200 48.70900 23.94800
H  16.25700 48.88000 25.61000
H  16.14400 50.22600 24.47300
H  10.45400 46.70000 21.54200
H  7.84000 48.06700 21.16300
H  11.09600 49.16600 20.79600
H  9.43700 49.24800 20.14300
H  10.64600 47.96000 19.68100
H  8.59100 45.61000 20.45000
H  6.96800 45.91300 20.97900
H  7.34900 44.31100 22.66900
H  8.74200 45.21800 23.33100
H  8.93700 44.15600 21.87000
H  3.40800 46.70100 24.76000
H  3.78600 48.24200 23.88100
H  2.79200 48.34900 25.30000
H  5.33300 49.78900 29.66600
H  3.60700 48.25300 33.22700
H  5.14400 47.48900 33.04200
H  3.80500 46.71000 32.19100

