158

Mg -1.81400 17.17400 26.21400
C  -1.93500 14.82000 28.65900
C  -1.96500 19.80000 28.45700
C  -1.79700 19.39800 23.66100
C  -2.10900 14.57800 23.85500
N  -2.06000 17.27500 28.27500
C  -1.98900 16.16200 29.10300
C  -1.98100 16.68800 30.61500
C  -2.18600 18.25200 30.47800
C  -2.03300 18.49400 28.97400
C  -3.45900 18.74200 31.14600
C  -0.76500 16.24700 31.61500
C  -0.43100 17.15300 32.75800
H  -0.28800 16.62800 34.19000
N  -1.88600 19.33600 26.08900
C  -1.96900 20.21900 27.09400
C  -2.06200 21.52200 26.59500
C  -2.03100 21.45100 25.11700
C  -1.86600 20.02300 24.88900
C  -2.29500 22.70700 27.59300
C  -2.18600 22.47400 24.05100
O  -2.28400 22.25100 22.88100
C  -2.25600 23.84100 24.52200
N  -2.08100 17.07000 24.05000
C  -1.89100 18.12900 23.23200
C  -1.83600 17.76300 21.71800
C  -1.79000 16.16100 21.87900
C  -2.00700 15.88600 23.34600
C  -3.04100 18.24800 20.96400
C  -0.49100 15.54500 21.34000
C  -0.56400 14.77000 20.05700
N  -1.97500 15.16000 26.25600
C  -2.07300 14.21600 25.22700
C  -2.18100 12.87500 25.78200
C  -2.03300 13.05400 27.17700
C  -1.88500 14.42300 27.37100
C  -2.53600 11.74300 24.94900
C  -2.10400 12.32600 28.38700
O  -2.00000 11.13700 28.66500
C  -2.10700 13.54800 29.50700
C  -0.99500 13.32000 30.46000
O  0.19900 13.47200 30.17000
O  -1.51900 12.73600 31.60000
C  -0.55100 12.24000 32.54000
H  -1.98500 20.56200 29.23900
H  -1.62500 20.00700 22.77200
H  -2.06400 13.77600 23.11600
H  -2.90600 16.30300 31.04400
H  -1.38400 18.80800 30.96300
H  -4.19600 17.98500 31.41400
H  -3.92400 19.37400 30.39000
H  -3.19400 19.33700 32.02000
H  0.20200 16.13100 31.12400
H  -1.17700 15.35200 32.08100
H  -1.31900 17.77400 32.88200
H  0.44900 17.77900 32.60900
H  -2.74900 22.48400 28.55800
H  -2.83800 23.59000 27.25800
H  -1.33000 23.13900 27.85800
H  -3.13600 23.98500 25.14900
H  -2.43500 24.36700 23.58400
H  -1.34200 24.11800 25.04800
H  -0.98800 18.22500 21.21200
H  -2.55400 15.65900 21.28500
H  -3.80200 18.68900 21.60700
H  -3.51100 17.37600 20.50900
H  -2.83500 18.98700 20.18900
H  0.10100 14.99300 22.07100
H  0.26400 16.32200 21.22000
H  -0.08600 15.48000 19.38200
H  -1.59600 14.55900 19.77900
H  0.02000 13.86100 20.19900
H  -1.75200 11.04100 24.66600
H  -3.07400 12.02700 24.04500
H  -3.16900 11.16800 25.62400
H  -3.07800 13.60500 30.00000
H  -0.28600 11.23000 32.22800
H  -1.03400 12.35600 33.51000
H  0.36000 12.83400 32.61600
Mg -11.03600 17.14000 42.07500
C  -7.58000 18.05000 41.99200
C  -11.87200 20.38100 41.89100
C  -14.24100 16.06400 42.04100
C  -9.97300 13.79100 42.04500
N  -9.80900 18.99200 41.82200
C  -8.46800 19.17600 41.88900
C  -8.06900 20.64400 41.98800
C  -9.42800 21.30000 42.30600
C  -10.42100 20.16600 42.06600
C  -9.53300 21.86700 43.80200
C  -7.37200 21.14300 40.70300
C  -5.83600 21.45400 40.82600
H  -4.98800 20.81200 39.72200
N  -12.82000 18.05500 41.80400
C  -12.99300 19.43000 41.74600
C  -14.39600 19.73000 41.47900
C  -15.15000 18.48500 41.52700
C  -14.09500 17.45900 41.85200
C  -14.94800 21.11500 41.35200
C  -16.62600 18.33000 41.27400
O  -17.39700 19.26600 40.91800
C  -17.22900 17.03600 41.22200
N  -11.98300 15.21100 42.07500
C  -13.29500 15.05700 42.25300
C  -13.72800 13.57800 42.40700
C  -12.28800 12.89200 42.41800
C  -11.36500 13.98900 42.06300
C  -14.68600 13.20900 43.59800
C  -12.16800 11.63700 41.56900
C  -12.13100 10.35000 42.29500
N  -9.19500 16.08600 42.02500
C  -8.94000 14.73900 41.98600
C  -7.51400 14.44000 42.08800
C  -6.99800 15.74400 42.03500
C  -8.01500 16.73700 41.99600
C  -6.67800 13.18300 42.02500
C  -5.76200 16.43600 42.06800
O  -4.65000 15.96000 42.07600
C  -6.09000 17.93000 42.13400
C  -5.57700 18.46400 43.40000
O  -5.95400 18.20200 44.50600
O  -4.36000 19.14400 43.12100
C  -3.45900 19.54300 44.25500
H  -12.10200 21.43600 42.04900
H  -15.30800 15.83100 42.06800
H  -9.62600 12.77400 42.23800
H  -7.33700 20.77000 42.78600
H  -9.74300 22.14100 41.68800
H  -10.27500 21.29400 44.35800
H  -9.80800 22.92000 43.75000
H  -8.55600 21.88000 44.28600
H  -7.94300 21.97200 40.28400
H  -7.45600 20.36600 39.94200
H  -5.46700 21.17800 41.81300
H  -5.64700 22.52800 40.81500
H  -15.28500 21.43000 40.36400
H  -14.28400 21.83800 41.82700
H  -15.90000 21.14500 41.88100
H  -18.21500 17.10600 40.76200
H  -17.35000 16.59800 42.21300
H  -16.68100 16.51600 40.43500
H  -14.29200 13.34700 41.50300
H  -11.95900 12.65300 43.43000
H  -15.66000 13.11100 43.12000
H  -14.69200 14.11500 44.20300
H  -14.39700 12.26200 44.05500
H  -11.38800 11.73700 40.81400
H  -13.06300 11.66800 40.94800
H  -11.48400 9.60600 41.83000
H  -13.10000 9.85900 42.19600
H  -11.79100 10.31800 43.33000
H  -6.15800 12.91700 42.94500
H  -5.98800 13.18600 41.18000
H  -7.33600 12.35900 41.74900
H  -5.63300 18.47000 41.30400
H  -3.01000 20.50700 44.01200
H  -2.57500 18.90600 44.26800
H  -3.93100 19.52600 45.23800

