158

Mg -1.91000 16.89300 25.11600
C  -2.16100 14.85500 27.90600
C  -2.92300 19.48900 26.96400
C  -1.78300 18.78600 22.27600
C  -1.20400 13.98500 23.21900
N  -2.59000 17.16800 27.25800
C  -2.59800 16.22000 28.18200
C  -2.96300 16.86800 29.60100
C  -3.52300 18.26300 29.13400
C  -3.05900 18.27700 27.67400
C  -5.07300 18.52200 29.21300
C  -1.80600 16.94600 30.59900
C  -1.78000 16.04600 31.84200
H  -2.47600 16.61200 33.00900
N  -2.20700 18.92100 24.71500
C  -2.56200 19.81500 25.64600
C  -2.56200 21.15200 25.05800
C  -2.26800 21.00000 23.68300
C  -2.13900 19.48300 23.47200
C  -2.70900 22.41400 25.86700
C  -2.21400 21.93200 22.57200
O  -1.94100 21.57400 21.47700
C  -2.43300 23.35500 22.87400
N  -1.63700 16.39300 22.96300
C  -1.42100 17.40000 22.10600
C  -1.04500 16.88100 20.72300
C  -0.68400 15.39300 21.15000
C  -1.20400 15.22300 22.54300
C  -2.05900 17.06300 19.47500
C  0.79400 15.07300 21.07600
C  1.64400 16.01300 21.90700
N  -1.82600 14.78400 25.43200
C  -1.55800 13.75500 24.54800
C  -1.69700 12.50300 25.24300
C  -1.86800 12.89800 26.61800
C  -1.97900 14.30800 26.63400
C  -1.56300 11.07000 24.67200
C  -1.95700 12.49700 27.97800
O  -1.91700 11.35200 28.46300
C  -1.95900 13.78100 28.84200
C  -0.74600 14.01900 29.54900
O  0.20200 14.68500 29.22000
O  -0.69100 13.28900 30.67500
C  0.61800 13.23300 31.29500
H  -3.23100 20.36500 27.54000
H  -1.63200 19.29000 21.31900
H  -1.01100 13.08800 22.62600
H  -3.76800 16.33100 30.10100
H  -3.09400 19.09800 29.68700
H  -5.64000 17.74600 29.72600
H  -5.52900 18.87800 28.28900
H  -5.10300 19.40200 29.85500
H  -1.55400 17.96000 30.90700
H  -0.93300 16.83800 29.95600
H  -0.77200 15.77000 32.15200
H  -2.14000 15.06900 31.52000
H  -1.87700 23.11800 25.84400
H  -2.81200 22.13300 26.91500
H  -3.59500 23.00900 25.64500
H  -2.84500 23.78400 21.96000
H  -1.48400 23.85600 23.06600
H  -3.21500 23.50600 23.61800
H  -0.13100 17.38900 20.41600
H  -1.21600 14.68000 20.52100
H  -1.62000 17.51600 18.58600
H  -2.92600 17.64600 19.78400
H  -2.33500 16.03800 19.22600
H  1.00400 15.08800 20.00600
H  0.87600 14.02100 21.34900
H  2.14700 15.42600 22.67600
H  1.26700 16.99000 22.21100
H  2.43900 16.40800 21.27500
H  -1.70700 11.01800 23.59200
H  -2.39300 10.67300 25.25700
H  -0.60200 10.61600 24.91200
H  -2.83700 13.81500 29.48700
H  1.50600 13.48100 30.71200
H  0.74800 12.23600 31.71500
H  0.64800 14.00000 32.06900
Mg 30.00500 59.56100 39.29100
C  27.11200 57.99600 38.11400
C  31.81500 56.74500 38.35800
C  32.78200 61.46600 39.13500
C  27.99900 62.56900 39.87200
N  29.57900 57.75900 38.23200
C  28.33400 57.32400 37.84000
C  28.41700 55.95700 37.05500
C  29.79400 55.47300 37.54100
C  30.47200 56.74000 38.02200
C  29.73600 54.46200 38.72900
C  28.45000 56.09200 35.50800
C  27.17700 55.42600 34.83400
H  26.18100 56.23200 34.02800
N  32.04200 59.08700 39.18200
C  32.54500 57.89600 38.75700
C  33.95500 57.97200 38.76200
C  34.30900 59.35000 39.08200
C  33.01800 60.04400 39.16900
C  34.91900 56.87000 38.45400
C  35.69000 59.82800 39.31600
O  36.65800 59.06300 39.16900
C  35.98600 61.20300 39.77400
N  30.29100 61.71200 39.66200
C  31.55700 62.17700 39.40500
C  31.59900 63.70500 39.54500
C  30.12800 64.06500 40.00800
C  29.41000 62.68500 39.83200
C  32.64600 64.24600 40.47800
C  29.55600 65.28300 39.18300
C  28.41500 66.06100 39.71500
N  27.93500 60.18500 39.23200
C  27.25300 61.35900 39.51200
C  25.83400 61.22600 39.18000
C  25.75100 59.86500 38.72400
C  27.02000 59.28100 38.75800
C  24.81300 62.33100 39.31000
C  24.83700 58.89100 38.23300
O  23.64400 58.92400 38.24400
C  25.65300 57.60800 37.89400
C  25.21900 56.53100 38.81300
O  25.30500 56.48800 40.00600
O  24.57100 55.65600 38.03400
C  23.89400 54.52800 38.77600
H  32.40100 55.90200 37.98500
H  33.62000 62.10900 38.85700
H  27.35600 63.42300 40.09800
H  27.66100 55.24000 37.37400
H  30.40800 54.94700 36.81000
H  30.59300 54.65300 39.37500
H  29.72000 53.41000 38.44500
H  28.85400 54.63100 39.34800
H  29.29400 55.59800 35.02600
H  28.59400 57.15800 35.33500
H  26.61300 54.89100 35.59800
H  27.40100 54.65800 34.09400
H  35.57300 57.14700 37.62700
H  34.55000 55.87400 38.21200
H  35.52700 56.85200 39.35800
H  36.69700 61.20700 40.60100
H  35.13000 61.77700 40.12800
H  36.50900 61.68900 38.95000
H  31.70400 64.09800 38.53300
H  30.09800 64.22700 41.08600
H  33.55900 64.41800 39.90800
H  32.95600 63.60300 41.30200
H  32.28600 65.17700 40.91700
H  29.29800 64.95700 38.17500
H  30.36600 66.01300 39.18100
H  28.80300 67.06100 39.90800
H  27.94400 65.62600 40.59700
H  27.76700 66.15200 38.84400
H  24.00400 61.93300 39.92200
H  24.41100 62.42400 38.30100
H  25.17700 63.30200 39.64700
H  25.34700 57.34700 36.88100
H  23.48400 53.80500 38.07100
H  23.02000 54.87900 39.32400
H  24.61200 54.09400 39.47300

