158

Mg 9.26700 3.79600 26.72400
C  10.49500 2.32300 29.58400
C  7.14100 5.68200 28.61800
C  7.99900 5.07300 23.85000
C  10.82500 1.26000 24.80300
N  8.76700 3.82100 28.82600
C  9.50600 3.26600 29.86900
C  9.05800 3.75000 31.28500
C  7.96400 4.82500 30.95800
C  7.90400 4.71500 29.38800
C  6.65200 4.61300 31.71300
C  10.31100 4.14800 32.14900
C  10.24700 5.16700 33.24800
H  11.02400 4.77600 34.54000
N  7.87400 5.22400 26.30500
C  7.14700 5.94600 27.21300
C  6.38000 6.95900 26.57800
C  6.60400 6.76100 25.13900
C  7.54500 5.64600 25.07700
C  5.39800 7.88300 27.22600
C  5.88800 7.43100 23.94000
O  6.06100 7.12600 22.81100
C  4.88400 8.52500 24.10700
N  9.32000 3.16500 24.66500
C  8.81200 3.94800 23.67300
C  9.19900 3.43800 22.26300
C  10.06000 2.20400 22.59700
C  10.07700 2.20000 24.10000
C  8.00600 3.27400 21.31100
C  11.48300 2.04700 22.03800
C  11.91700 3.05100 20.92700
N  10.52100 2.13400 27.07900
C  11.03200 1.14800 26.15700
C  11.77100 0.13000 26.96300
C  11.72500 0.63400 28.30600
C  10.90600 1.74300 28.33700
C  12.41200 -1.12900 26.45700
C  12.16600 0.57900 29.72000
O  13.04300 -0.11400 30.18500
C  11.28400 1.56400 30.56400
C  10.40400 0.75000 31.49000
O  9.25200 0.48200 31.23700
O  11.06600 0.49800 32.68400
C  10.20100 -0.17500 33.67000
H  6.63900 6.43500 29.22800
H  7.63200 5.35000 22.86000
H  11.35800 0.46500 24.27800
H  8.73200 2.86100 31.82500
H  8.29400 5.85000 31.13000
H  5.87100 4.11900 31.13600
H  6.29000 5.61400 31.94600
H  6.86000 4.10900 32.65600
H  11.23600 4.32300 31.60100
H  10.51700 3.18100 32.60800
H  9.20000 5.27700 33.53000
H  10.63300 6.11700 32.88000
H  5.62200 8.12900 28.26400
H  4.41200 7.43000 27.33000
H  5.16500 8.81300 26.70600
H  4.72500 9.07500 23.18000
H  5.10600 9.38000 24.74700
H  3.96800 8.00900 24.39300
H  9.87400 4.20500 21.88400
H  9.49000 1.30400 22.36800
H  7.92200 2.21200 21.07800
H  8.21100 3.97200 20.49900
H  7.10600 3.41000 21.91000
H  11.65000 0.99000 21.83100
H  12.26300 2.22800 22.77800
H  11.13600 3.08900 20.16800
H  12.81500 2.73000 20.39900
H  12.11500 4.06100 21.28400
H  12.22500 -1.99700 27.08900
H  13.49700 -1.03100 26.41500
H  12.13200 -1.32900 25.42200
H  11.95700 2.18200 31.15800
H  9.35600 0.35900 34.10400
H  10.72700 -0.52100 34.56000
H  9.72500 -1.07800 33.28700
Mg 40.36700 8.89900 29.86800
C  42.12500 10.26600 32.70900
C  38.00100 7.75700 32.05500
C  38.94900 7.40600 27.31000
C  43.12900 9.92200 27.83500
N  40.11400 8.98300 32.05100
C  40.87600 9.68400 33.00300
C  40.32800 9.45800 34.37200
C  39.00700 8.64200 34.21300
C  39.05000 8.44100 32.68700
C  38.87200 7.30400 34.99700
C  40.14400 10.76500 35.24000
C  39.43600 10.52200 36.64100
H  40.34200 10.42200 37.95000
N  38.59500 7.84500 29.69200
C  37.75900 7.51900 30.68200
C  36.69200 6.80600 30.13600
C  36.92400 6.64000 28.73500
C  38.18100 7.27300 28.50400
C  35.48500 6.35000 30.96200
C  36.16700 5.87100 27.71700
O  36.64000 5.60500 26.62900
C  34.74000 5.48200 28.02500
N  41.10000 8.57900 27.92900
C  40.25700 8.00800 27.01900
C  40.90400 7.98700 25.59500
C  42.20400 8.80300 25.79100
C  42.14200 9.16700 27.28400
C  41.16500 6.46800 25.07800
C  42.20700 10.01300 24.76700
C  41.21800 11.14800 24.95500
N  42.23300 9.93900 30.16100
C  43.21300 10.29200 29.22700
C  44.21800 11.08100 29.99600
C  43.86100 11.05400 31.33200
C  42.64200 10.36200 31.42800
C  45.36600 11.73600 29.29700
C  44.30000 11.41000 32.67100
O  45.25900 12.07500 32.95800
C  43.19200 10.93500 33.69700
C  43.71400 9.95000 34.64300
O  43.90700 8.76500 34.40700
O  43.88400 10.56300 35.88100
C  44.46700 9.65700 36.92900
H  37.19600 7.46500 32.73400
H  38.52200 7.07600 26.36100
H  43.97800 10.26300 27.23900
H  41.02900 8.75400 34.82300
H  38.20500 9.36900 34.34400
H  39.67900 7.28000 35.73000
H  39.21300 6.45100 34.41200
H  37.88400 7.15300 35.43100
H  39.57200 11.55200 34.74900
H  41.12500 11.16800 35.49300
H  38.85400 9.60400 36.54800
H  38.75200 11.37100 36.66400
H  34.67000 6.77700 30.37900
H  35.39000 6.73000 31.97900
H  35.43000 5.26100 30.94700
H  34.63000 4.98700 28.99000
H  34.49100 4.70400 27.30400
H  34.11700 6.34400 27.78600
H  40.40200 8.55300 24.81100
H  43.09200 8.17800 25.70500
H  42.16700 6.24500 24.71200
H  40.48600 6.22100 24.26200
H  41.01700 5.70200 25.83800
H  42.07200 9.61100 23.76300
H  43.18900 10.48500 24.72900
H  40.37400 10.91100 25.60300
H  40.88700 11.58800 24.01500
H  41.72000 12.00100 25.41200
H  45.85400 12.50900 29.89100
H  45.07400 12.18400 28.34800
H  46.08000 10.97700 28.97600
H  42.85500 11.89900 34.07900
H  45.41000 10.07800 37.27700
H  44.76800 8.68300 36.54200
H  43.76100 9.47400 37.74000

