158

Mg -2.45100 17.20600 25.66100
C  -3.00500 15.01600 28.30000
C  -2.58300 19.81700 27.69200
C  -2.57100 19.18200 22.90400
C  -3.06600 14.51000 23.48800
N  -2.76100 17.34200 27.81400
C  -2.78700 16.34400 28.73900
C  -2.80100 16.89800 30.15900
C  -2.93300 18.42400 29.87600
C  -2.75900 18.54700 28.33700
C  -4.25400 19.03500 30.33600
C  -1.64800 16.43300 31.07100
C  -1.53400 17.26700 32.32100
H  -1.22700 16.61200 33.69100
N  -2.48800 19.25000 25.33700
C  -2.44000 20.15700 26.32300
C  -2.30600 21.47900 25.77500
C  -2.34500 21.32300 24.46200
C  -2.43700 19.83700 24.18100
C  -2.14500 22.73200 26.70300
C  -2.11600 22.47500 23.40000
O  -2.07900 22.26000 22.22900
C  -2.10200 23.93800 23.85100
N  -2.82200 16.89100 23.45800
C  -2.75300 17.87700 22.51900
C  -2.70900 17.39100 21.04000
C  -2.94800 15.89900 21.31500
C  -2.88600 15.70300 22.84200
C  -3.73200 18.08900 20.02700
C  -1.99900 14.92300 20.49900
C  -2.71100 13.73900 19.85500
N  -2.95200 15.07200 25.79000
C  -3.13400 14.14100 24.83400
C  -3.18700 12.82900 25.46800
C  -3.19600 13.14200 26.80700
C  -3.04300 14.53500 26.95500
C  -3.27600 11.38500 24.75400
C  -3.25400 12.52000 28.08500
O  -3.47000 11.40700 28.36700
C  -3.09700 13.68800 29.06800
C  -1.94500 13.32700 29.96100
O  -0.74300 13.35100 29.63200
O  -2.52100 13.05900 31.20700
C  -1.48900 12.81000 32.25900
H  -2.51000 20.68000 28.35800
H  -2.58900 19.92400 22.10400
H  -3.34400 13.74500 22.76000
H  -3.72900 16.53400 30.60000
H  -2.11500 18.99800 30.31100
H  -4.85300 18.34000 30.92400
H  -4.83400 19.35500 29.47000
H  -4.06900 19.94000 30.91400
H  -0.65800 16.45600 30.61400
H  -1.88600 15.43300 31.43300
H  -2.45500 17.84300 32.41200
H  -0.74600 17.99400 32.12600
H  -3.11300 23.22900 26.63400
H  -1.32800 23.40500 26.44100
H  -1.97400 22.43900 27.73800
H  -2.84800 24.19100 24.60400
H  -2.13200 24.67600 23.04900
H  -1.07800 23.99700 24.22100
H  -1.69500 17.65000 20.73600
H  -3.98800 15.67600 21.07600
H  -3.93000 19.07100 20.45800
H  -4.65400 17.51100 19.96400
H  -3.33000 18.23600 19.02400
H  -1.33800 14.55800 21.28500
H  -1.44700 15.41800 19.69900
H  -2.14700 13.51700 18.94900
H  -3.75900 13.94400 19.63400
H  -2.67600 12.87500 20.51800
H  -2.36000 11.22400 24.18700
H  -4.15500 11.53400 24.12700
H  -3.40200 10.62300 25.52300
H  -4.04700 13.63800 29.59900
H  -0.57200 13.36700 32.06400
H  -1.38900 11.77300 32.58100
H  -1.85600 13.15900 33.22500
Mg 23.80000 -6.15900 46.92400
C  25.95400 -3.61600 45.84700
C  21.38500 -4.78700 44.86400
C  21.92000 -8.76100 47.69800
C  26.49400 -7.68800 48.54500
N  23.77100 -4.52500 45.38900
C  24.70300 -3.57400 45.31700
C  24.27500 -2.38700 44.40600
C  22.72000 -2.65300 44.37600
C  22.59800 -4.07600 44.91000
C  21.83400 -1.70500 45.18900
C  24.97500 -2.55300 43.03600
C  25.74000 -1.23200 42.50200
H  25.01400 -0.59700 41.16500
N  21.90800 -6.73800 46.28200
C  21.09600 -6.05400 45.43200
C  19.84300 -6.76600 45.29800
C  19.98700 -7.88700 46.15800
C  21.34200 -7.83400 46.76200
C  18.82600 -6.37600 44.31600
C  18.94300 -8.91600 46.38000
O  17.80700 -8.79500 45.90600
C  19.14900 -10.14700 47.22100
N  24.19700 -7.97800 47.93100
C  23.20400 -8.86300 48.12000
C  23.67400 -10.10800 48.93900
C  25.19100 -9.78200 49.19000
C  25.32200 -8.40900 48.53300
C  22.86400 -10.48400 50.20700
C  26.16000 -10.83800 48.46900
C  26.92300 -11.84200 49.49000
N  25.75300 -5.72300 47.27400
C  26.72400 -6.42700 47.95900
C  27.98400 -5.67800 47.94900
C  27.66300 -4.53000 47.13600
C  26.35200 -4.67800 46.72700
C  29.14500 -6.02900 48.74000
C  28.19600 -3.31400 46.58800
O  29.29100 -2.74600 46.76600
C  27.12900 -2.68900 45.73700
C  26.87400 -1.35700 46.13600
O  26.11500 -1.03900 47.06200
O  27.75400 -0.46100 45.52800
C  27.42300 0.96000 45.86400
H  20.53000 -4.22600 44.48000
H  21.22600 -9.47200 48.15100
H  27.34100 -8.13000 49.07400
H  24.41500 -1.42800 44.90600
H  22.40900 -2.59800 43.33300
H  21.37900 -2.28300 45.99500
H  21.00700 -1.33600 44.58200
H  22.38000 -0.93200 45.72900
H  24.25900 -2.80400 42.25300
H  25.71800 -3.35000 43.01300
H  26.75500 -1.52900 42.23800
H  25.73100 -0.53400 43.33900
H  18.50800 -7.13600 43.60200
H  19.29300 -5.58700 43.72600
H  17.96700 -5.88900 44.77800
H  18.34800 -10.87000 47.06500
H  19.22100 -9.91400 48.28400
H  20.06800 -10.58400 46.82900
H  23.52900 -10.97200 48.29000
H  25.46700 -9.57100 50.22300
H  21.95800 -9.87700 50.23800
H  23.37000 -10.23100 51.13900
H  22.70900 -11.56100 50.25800
H  26.97000 -10.36600 47.91500
H  25.56300 -11.32700 47.69900
H  26.34600 -11.76500 50.41100
H  27.98400 -11.61200 49.57900
H  26.84300 -12.89000 49.20000
H  28.75300 -6.53800 49.62100
H  29.75200 -5.15600 48.97700
H  29.81200 -6.62000 48.11300
H  27.42100 -2.61700 44.68900
H  28.22000 1.30800 46.52200
H  26.43500 1.15900 46.27700
H  27.53500 1.45200 44.89700

