158

Mg 46.62400 45.68800 44.15000
C  43.29500 44.46900 43.77800
C  47.68700 42.37300 43.83400
C  49.71000 46.87100 43.90300
C  45.35700 48.87400 44.00900
N  45.60500 43.68400 43.69200
C  44.25600 43.43300 43.68100
C  43.97000 41.88800 43.61600
C  45.28800 41.31400 44.04800
C  46.27200 42.50500 43.83700
C  45.37500 40.76400 45.51600
C  43.32000 41.36600 42.24000
C  43.39100 42.32900 40.99500
H  43.04000 41.82900 39.55200
N  48.43800 44.74600 43.79500
C  48.63000 43.41100 43.75700
C  50.04600 43.19500 43.55700
C  50.72200 44.47800 43.66300
C  49.60600 45.43400 43.79300
C  50.55700 41.78700 43.27400
C  52.24300 44.71700 43.53200
O  53.02600 43.74000 43.58900
C  52.82400 46.06700 43.29200
N  47.38800 47.63100 43.65800
C  48.69500 47.80800 43.99700
C  49.04700 49.29500 44.35500
C  47.65500 49.97600 44.10500
C  46.74700 48.72500 43.92900
C  49.54800 49.49400 45.82600
C  47.59500 50.79300 42.74300
C  48.63200 51.90200 42.53800
N  44.71300 46.56600 43.96500
C  44.35600 47.85000 43.98500
C  42.89000 47.97800 43.83400
C  42.47800 46.67600 43.79800
C  43.59200 45.82000 43.90700
C  41.99300 49.27600 43.57200
C  41.29800 45.89100 43.75400
O  40.10200 46.11700 43.71000
C  41.79500 44.40200 43.71900
C  41.27700 43.66300 44.88400
O  40.89200 42.48300 44.86200
O  41.21900 44.46600 46.00900
C  40.48300 43.85000 47.21400
H  48.02200 41.34800 44.00400
H  50.69600 47.33700 43.95900
H  44.96300 49.88800 44.10600
H  43.23300 41.64700 44.38100
H  45.59700 40.46800 43.43300
H  45.50800 39.68300 45.47900
H  44.50000 41.14400 46.04400
H  46.31200 41.08600 45.97100
H  42.30100 41.02100 42.41400
H  43.99700 40.55400 41.97500
H  44.37300 42.80300 40.98900
H  42.82800 43.24300 41.18400
H  51.27800 41.54800 44.05600
H  51.10900 41.62800 42.34700
H  49.84100 40.96600 43.30500
H  52.91900 46.54400 44.26800
H  52.13000 46.57100 42.61900
H  53.76100 45.97600 42.74300
H  49.74900 49.71700 43.63600
H  47.31100 50.57200 44.95000
H  48.70200 49.37400 46.50200
H  50.19300 50.36500 45.94600
H  50.16200 48.64700 46.13300
H  46.64200 51.22700 42.43800
H  47.87000 50.07600 41.97000
H  49.35600 51.72100 41.74300
H  49.26300 52.14600 43.39200
H  48.04500 52.80600 42.38000
H  41.51100 49.31600 42.59500
H  42.62500 50.16300 43.62000
H  41.20700 49.33100 44.32500
H  41.43000 43.81200 42.87800
H  39.48300 44.27300 47.12200
H  40.79300 44.33000 48.14200
H  40.38200 42.77100 47.33100
Mg 9.04300 47.84300 24.85500
C  6.90200 47.70200 27.76200
C  11.38800 49.11600 26.88700
C  11.01000 47.80100 22.31800
C  6.20200 47.72200 22.90700
N  9.15900 48.36800 27.05400
C  8.20000 48.18600 28.05400
C  8.74400 48.83100 29.37100
C  9.90100 49.67200 28.86900
C  10.22200 49.11500 27.52900
C  9.57800 51.16600 28.76900
C  9.06600 47.79100 30.46200
C  9.17900 48.44200 31.88100
H  8.35100 47.74900 33.06100
N  10.95400 48.29300 24.65600
C  11.81700 48.69500 25.64900
C  13.17000 48.66600 25.16000
C  13.05200 48.14300 23.84300
C  11.62900 48.10700 23.55700
C  14.43600 49.04300 25.96700
C  14.14400 47.65900 22.82100
O  13.91500 47.15600 21.76000
C  15.53500 47.74000 23.20900
N  8.57100 47.97700 22.80100
C  9.63000 47.68200 21.99800
C  9.13000 47.56000 20.51300
C  7.61500 47.93300 20.70300
C  7.39500 47.76300 22.19600
C  9.96000 48.37600 19.42200
C  6.77100 47.06400 19.68200
C  6.44700 47.76900 18.33600
N  6.98900 47.73000 25.13500
C  5.99500 47.65000 24.27900
C  4.72000 47.34400 24.95800
C  5.03700 47.27500 26.32400
C  6.44500 47.57200 26.41700
C  3.35200 47.41700 24.30600
C  4.41000 47.12800 27.65700
O  3.29200 46.89300 28.08900
C  5.67100 47.54500 28.59900
C  5.83300 46.44500 29.55500
O  6.33100 45.39000 29.35100
O  5.11400 46.78600 30.65700
C  4.75900 45.73900 31.59900
H  12.20800 49.60700 27.41600
H  11.70000 47.71700 21.47600
H  5.36800 47.80300 22.20600
H  7.95100 49.50500 29.69400
H  10.77100 49.61000 29.52400
H  9.67600 51.52400 27.74400
H  10.17800 51.71900 29.49200
H  8.59900 51.46700 29.14300
H  9.99900 47.30400 30.18000
H  8.33900 46.98400 30.55700
H  9.05900 49.52400 31.83200
H  10.23900 48.31200 32.10100
H  14.12300 49.44800 26.92900
H  14.97800 49.86500 25.49800
H  15.16300 48.23600 26.05300
H  15.83700 46.84100 23.74700
H  15.84100 48.66700 23.69500
H  16.16700 47.70900 22.32200
H  9.26300 46.48900 20.35600
H  7.52200 49.00500 20.52900
H  10.65800 49.01600 19.96300
H  9.27700 48.94200 18.78800
H  10.60300 47.77800 18.77600
H  5.80800 46.81300 20.12800
H  7.15500 46.08100 19.41200
H  5.37000 47.93900 18.33000
H  6.60900 47.08400 17.50400
H  7.01900 48.69500 18.29400
H  2.57100 47.01500 24.95100
H  3.35000 46.89900 23.34700
H  3.10500 48.47100 24.17500
H  5.46600 48.45400 29.16300
H  5.63800 45.42300 32.16000
H  4.23600 44.88000 31.17800
H  4.05200 46.17200 32.30700

