158

Mg 45.84000 5.07400 49.01800
C  43.78500 7.86800 48.03800
C  43.12600 3.04500 48.06900
C  47.78900 2.48400 49.33300
C  48.61400 7.32500 49.30800
N  43.60300 5.44100 48.32800
C  43.08900 6.64700 47.86400
C  41.77400 6.42700 47.09900
C  41.44300 4.85800 47.39200
C  42.81600 4.39200 47.99700
C  40.26900 4.76100 48.39300
C  41.87200 6.76800 45.57500
C  40.93600 7.92800 45.13500
H  39.95000 7.64900 43.93000
N  45.51200 3.02100 48.83500
C  44.29900 2.39500 48.46500
C  44.56400 0.96600 48.40300
C  45.86700 0.77100 48.79600
C  46.46200 2.14800 48.97900
C  43.39600 0.00600 48.00100
C  46.58700 -0.63700 48.91900
O  45.92800 -1.67600 48.86700
C  48.08600 -0.74400 49.10500
N  47.92300 4.91700 49.14300
C  48.42700 3.68600 49.49800
C  49.88700 3.84500 49.87500
C  50.15500 5.40400 49.94600
C  48.84200 5.91800 49.34700
C  50.34100 3.13100 51.23500
C  51.40900 5.91700 49.10400
C  52.38400 6.84100 49.93100
N  46.18900 7.12800 48.84400
C  47.35900 7.85900 49.01000
C  46.99400 9.30900 48.85200
C  45.71200 9.29500 48.46100
C  45.21800 7.97400 48.47500
C  47.91800 10.44100 48.98200
C  44.59700 10.13300 48.07400
O  44.62600 11.38200 47.95800
C  43.32100 9.31500 47.83900
C  42.34400 9.70700 48.77600
O  42.15400 9.22000 49.90200
O  41.53200 10.66000 48.20600
C  40.33000 10.88300 48.98800
H  42.36000 2.33400 47.75100
H  48.36700 1.65900 49.75600
H  49.46300 7.94900 49.59200
H  40.99500 7.05800 47.52600
H  41.22900 4.30500 46.47700
H  39.80300 3.77600 48.37100
H  39.47800 5.47700 48.16900
H  40.59100 5.03000 49.39900
H  41.57200 5.88500 45.01100
H  42.90300 6.94900 45.27200
H  41.60700 8.69900 44.75600
H  40.45100 8.35800 46.01200
H  43.80200 -0.77500 47.35900
H  42.64400 0.44400 47.34400
H  43.03800 -0.40100 48.94600
H  48.41600 -1.73700 48.80200
H  48.31700 -0.49100 50.13900
H  48.50900 -0.09300 48.34000
H  50.35900 3.38900 49.00500
H  50.09600 5.83000 50.94700
H  49.53300 2.67600 51.80800
H  50.95900 3.76600 51.87000
H  50.91400 2.24400 50.96400
H  50.93000 6.48800 48.30900
H  52.00800 5.10100 48.69800
H  53.44800 6.62500 49.84000
H  52.11700 6.71600 50.98000
H  52.27200 7.90200 49.70700
H  48.31400 10.55800 49.99000
H  47.36800 11.31000 48.62100
H  48.67300 10.38300 48.19800
H  42.94900 9.42400 46.82100
H  40.61000 11.43900 49.88300
H  39.75000 9.97200 49.13900
H  39.66900 11.61200 48.52000
Mg 6.64500 53.57700 40.76500
C  6.24900 50.03200 40.53600
C  9.95700 53.13300 39.98600
C  6.83800 56.79500 40.38800
C  3.06900 53.78000 40.85500
N  7.89900 51.86700 40.26800
C  7.56100 50.53500 40.21000
C  8.70000 49.64100 39.82200
C  9.90100 50.57100 40.19000
C  9.24800 52.00000 40.13200
C  10.59400 50.32100 41.57900
C  8.76500 49.00800 38.39800
C  8.41200 49.88600 37.12700
H  7.65000 51.20700 37.24900
N  8.26900 54.85300 40.33800
C  9.54500 54.44700 40.10600
C  10.26900 55.61500 40.13500
C  9.47300 56.72200 40.19700
C  8.11900 56.18900 40.23600
C  11.77900 55.62900 39.92600
C  9.80900 58.23400 40.06400
O  11.00000 58.50400 40.02400
C  8.82600 59.35600 40.03800
N  5.23700 54.95700 40.53500
C  5.61200 56.24300 40.58400
C  4.37500 57.17400 40.47400
C  3.21900 56.21200 40.23900
C  3.83900 54.91700 40.65400
C  4.16100 58.08600 41.69600
C  2.68000 56.14000 38.87100
C  1.13400 56.23400 38.65300
N  4.98300 52.19200 40.85000
C  3.60700 52.40300 40.97600
C  2.94800 51.07500 41.15000
C  4.00500 50.13700 41.01300
C  5.17500 50.86000 40.77000
C  1.49900 50.88700 41.32400
C  4.27400 48.71700 41.12000
O  3.55400 47.69300 41.21900
C  5.76300 48.64600 40.67800
C  5.73300 47.81800 39.54700
O  5.52200 48.14600 38.40600
O  6.22500 46.54800 39.92100
C  6.04100 45.45400 39.04800
H  11.04600 53.10400 39.91300
H  6.80700 57.88600 40.41400
H  1.98400 53.75900 40.97600
H  8.70800 48.75300 40.45500
H  10.67600 50.50000 39.42700
H  11.59900 49.94400 41.38700
H  10.03500 49.49400 42.01700
H  10.55500 51.18500 42.24200
H  8.05300 48.18800 38.49500
H  9.72900 48.50200 38.34500
H  7.73400 49.14600 36.70100
H  9.26000 50.06100 36.46600
H  12.02700 56.44100 39.24200
H  12.16500 54.71900 39.46700
H  12.21300 55.62200 40.92500
H  9.36100 60.30600 40.00500
H  8.29200 59.23600 40.98000
H  8.06900 59.24200 39.26200
H  4.44500 57.81200 39.59300
H  2.38700 56.40300 40.91700
H  4.59800 59.05400 41.45200
H  4.38300 57.64700 42.66800
H  3.13100 58.44200 41.73700
H  2.93000 55.16300 38.45800
H  3.08600 56.89900 38.20200
H  0.85900 56.62500 37.67300
H  0.86000 57.01100 39.36700
H  0.76200 55.23100 38.86100
H  1.37400 50.24300 42.19500
H  1.14100 50.22400 40.53700
H  0.91500 51.80600 41.37100
H  6.40800 48.10900 41.37300
H  6.88100 45.51800 38.35600
H  5.10700 45.68900 38.53700
H  5.88000 44.49000 39.53000

