158

Mg 45.67000 3.85100 47.33900
C  43.67100 6.56500 46.89400
C  42.70500 1.78800 47.35500
C  47.55900 0.98800 46.98600
C  48.48100 5.72600 46.88400
N  43.48800 4.13100 47.01900
C  42.90600 5.36600 46.86400
C  41.44300 5.23700 46.63500
C  41.11300 3.80300 47.21400
C  42.49000 3.19400 47.26200
C  40.42400 3.72100 48.55800
C  40.96600 5.52800 45.13100
C  40.00100 6.64000 44.84700
H  40.26200 7.45500 43.54300
N  45.19700 1.69800 47.10900
C  43.91500 1.08400 47.19300
C  44.13100 -0.31900 46.96800
C  45.50100 -0.57400 46.79900
C  46.16800 0.75800 46.93600
C  42.96200 -1.29200 46.89800
C  46.06800 -1.84600 46.52900
O  45.33800 -2.81700 46.53000
C  47.53100 -2.04100 46.16800
N  47.62900 3.37000 47.12100
C  48.19700 2.22700 47.04500
C  49.75900 2.35300 47.04800
C  49.99700 3.79800 46.81800
C  48.59000 4.36300 46.93900
C  50.52200 1.76800 48.26500
C  50.65700 3.99300 45.40400
C  49.71400 3.84200 44.14800
N  46.08800 5.78600 47.06400
C  47.26700 6.45900 46.91600
C  47.02100 7.87200 47.07600
C  45.62800 7.96100 47.07600
C  45.06700 6.69700 47.04000
C  48.01800 9.00000 47.10500
C  44.54500 8.90800 47.02800
O  44.57900 10.10300 47.04900
C  43.18700 8.05400 46.86300
C  42.23900 8.32600 47.90300
O  42.04700 7.62100 48.90800
O  41.48500 9.37800 47.45800
C  40.29500 9.68400 48.31200
H  41.83500 1.12800 47.33900
H  48.30700 0.19200 46.96300
H  49.41700 6.28000 46.78500
H  41.00400 5.99600 47.28200
H  40.55500 3.23200 46.47200
H  39.95200 4.65400 48.86800
H  41.02900 3.20100 49.30100
H  39.53600 3.09400 48.49000
H  40.52800 4.64000 44.67700
H  41.81300 5.65500 44.45700
H  40.05200 7.33500 45.68600
H  38.98100 6.25800 44.88300
H  43.10200 -1.86200 45.97900
H  41.96700 -0.84600 46.90600
H  42.94500 -1.89900 47.80300
H  48.21900 -1.88600 47.00000
H  47.79000 -1.23300 45.48400
H  47.73100 -3.03200 45.76000
H  50.15900 1.78200 46.21000
H  50.61800 4.20300 47.61700
H  51.22800 2.43200 48.76500
H  51.02700 0.86700 47.91700
H  49.75600 1.41300 48.95400
H  51.41300 3.26600 45.10600
H  51.10100 4.98900 45.40800
H  49.77100 4.66900 43.44000
H  48.69300 3.57700 44.42000
H  50.06000 2.94700 43.63000
H  48.82800 8.66700 46.45700
H  48.40900 9.14700 48.11200
H  47.50600 9.88000 46.71500
H  42.62500 8.14400 45.93400
H  40.20200 10.77000 48.30800
H  40.21600 9.37500 49.35500
H  39.44300 9.42500 47.68400
Mg -10.70400 17.20600 40.95400
C  -7.16900 17.16300 41.04600
C  -10.57800 20.56500 40.48500
C  -14.04500 17.14500 40.29600
C  -10.56000 13.71300 41.11800
N  -9.03800 18.65000 40.59000
C  -7.68900 18.42900 40.71000
C  -6.85600 19.65600 40.48900
C  -7.99300 20.75600 40.70900
C  -9.30900 19.96600 40.61700
C  -7.93000 21.63400 42.03600
C  -6.34300 19.67100 39.01700
C  -4.84100 19.46900 38.88000
H  -4.35000 18.48500 37.80900
N  -12.11400 18.66000 40.53800
C  -11.83800 19.93700 40.32300
C  -12.97000 20.66200 39.99800
C  -14.11200 19.80500 39.93300
C  -13.49700 18.46300 40.30700
C  -12.92000 22.21800 39.58200
C  -15.58500 20.16800 39.67600
O  -15.90600 21.32300 39.53500
C  -16.63600 19.20400 39.62800
N  -12.08500 15.66300 40.62700
C  -13.36500 15.87200 40.44800
C  -14.17300 14.55500 40.47600
C  -13.07200 13.49200 40.64800
C  -11.79200 14.34300 40.74100
C  -15.35700 14.53000 41.48400
C  -13.06000 12.33500 39.55700
C  -12.78900 12.74200 38.09000
N  -9.17400 15.67500 41.02300
C  -9.30400 14.32900 41.23700
C  -8.06900 13.75500 41.60400
C  -7.20200 14.86900 41.50800
C  -7.96400 15.98900 41.12700
C  -7.73100 12.30700 41.88400
C  -5.79800 15.27500 41.68400
O  -4.78000 14.67000 41.93800
C  -5.75400 16.78400 41.38100
C  -5.06100 17.50900 42.53400
O  -3.88000 17.83600 42.53600
O  -5.97100 17.74100 43.49900
C  -5.33300 18.05900 44.79400
H  -10.51600 21.65200 40.56800
H  -15.07400 17.05000 39.94200
H  -10.63200 12.64600 41.33800
H  -6.14600 19.79900 41.30400
H  -8.06300 21.47900 39.89600
H  -7.98800 22.68200 41.74100
H  -6.97400 21.49700 42.54200
H  -8.75400 21.44400 42.72400
H  -6.61500 20.64100 38.60000
H  -6.77800 18.97100 38.30400
H  -4.44000 19.21300 39.86000
H  -4.46400 20.42900 38.52800
H  -12.65600 22.23200 38.52400
H  -12.19200 22.71700 40.22100
H  -13.88700 22.70900 39.69400
H  -16.48000 18.43200 38.87500
H  -17.57800 19.71300 39.42100
H  -16.69600 18.72200 40.60400
H  -14.64200 14.33400 39.51700
H  -13.16900 13.19200 41.69200
H  -15.26700 15.25200 42.29600
H  -15.58800 13.47300 41.61700
H  -16.13000 14.81500 40.76900
H  -14.07600 11.95800 39.43600
H  -12.34900 11.65000 40.01800
H  -11.76100 12.45200 37.87000
H  -12.86700 13.82700 38.02700
H  -13.43600 12.27700 37.34700
H  -8.38100 11.89600 42.65600
H  -6.65800 12.31200 42.07500
H  -7.99400 11.74300 40.98900
H  -5.10200 16.89300 40.51300
H  -6.03100 18.48900 45.51300
H  -4.53900 18.80500 44.73600
H  -4.93900 17.15400 45.25600

