158

Mg 47.18700 16.66100 28.55100
C  45.09100 16.24700 31.27800
C  49.34700 18.39300 30.61900
C  48.74600 18.08100 25.96500
C  44.76100 15.17800 26.56500
N  47.07000 17.30700 30.70000
C  46.24800 16.88900 31.63900
C  46.74000 17.26400 33.07700
C  47.98700 18.18500 32.78200
C  48.17400 17.99600 31.28800
C  47.78200 19.67000 33.03600
C  47.10900 16.05000 33.95800
C  46.65300 16.13400 35.48100
H  46.27600 17.54500 35.98600
N  48.93100 17.82100 28.29400
C  49.71300 18.27100 29.29000
C  50.90600 18.90200 28.76700
C  50.70000 18.95400 27.38400
C  49.41800 18.30800 27.10900
C  52.11000 19.36600 29.65900
C  51.56400 19.44500 26.20500
O  51.29700 19.36000 25.06300
C  52.93800 19.95700 26.59700
N  46.89300 16.53600 26.56600
C  47.56000 17.33900 25.68500
C  46.89300 17.22700 24.27400
C  45.83600 16.10800 24.53900
C  45.82000 15.94600 25.98800
C  46.27600 18.51300 23.85300
C  46.06500 14.74300 23.82600
C  46.95400 13.71300 24.63500
N  45.35900 15.65700 28.88500
C  44.48800 15.21100 27.94900
C  43.31400 14.69700 28.58400
C  43.48300 15.02900 29.95500
C  44.68700 15.71000 30.01800
C  42.11700 14.07100 27.90500
C  42.91300 15.06800 31.29800
O  41.82700 14.71200 31.75700
C  43.97200 15.79900 32.26200
C  43.25600 16.94400 32.95400
O  42.84200 17.99100 32.47400
O  43.05600 16.59600 34.30900
C  42.24300 17.55600 35.11200
H  50.13100 18.82100 31.24700
H  49.06400 18.66100 25.09600
H  43.91300 14.75700 26.02200
H  45.99900 17.87500 33.59400
H  48.84900 17.78600 33.31500
H  46.69800 19.59800 32.94800
H  48.15000 20.27300 32.20500
H  48.14700 19.98900 34.01200
H  48.19400 15.94600 33.95900
H  46.79800 15.13400 33.45600
H  47.48200 15.72800 36.06100
H  45.79500 15.46600 35.55800
H  52.26300 20.43000 29.47900
H  53.04000 18.93500 29.28800
H  51.99900 19.28500 30.74000
H  53.52400 19.12600 26.99000
H  52.80500 20.65100 27.42700
H  53.38100 20.46500 25.74000
H  47.69500 16.99300 23.57400
H  44.85100 16.46000 24.23300
H  46.60100 19.31400 24.51700
H  45.18600 18.53500 23.88000
H  46.68500 18.73400 22.86700
H  46.51200 14.95800 22.85500
H  45.09300 14.25200 23.87600
H  47.59000 14.11100 25.42600
H  47.69700 13.35600 23.92300
H  46.33700 12.97200 25.14300
H  41.23300 14.70400 27.97300
H  41.91400 13.19100 28.51400
H  42.25200 13.77300 26.86500
H  44.15400 14.99500 32.97500
H  41.16700 17.49100 34.95100
H  42.56400 18.55500 34.81600
H  42.41700 17.34300 36.16700
Mg -12.08600 15.41400 42.67900
C  -8.98500 13.82000 41.99400
C  -10.72500 18.07200 40.87700
C  -15.13100 16.63200 42.30800
C  -13.33200 12.34900 43.71800
N  -10.03200 15.92800 41.66300
C  -9.03700 15.05900 41.43200
C  -7.89300 15.66100 40.66700
C  -8.27400 17.09400 40.48200
C  -9.74200 17.09600 41.08800
C  -7.43400 18.14800 41.21800
C  -7.53100 14.87600 39.31200
C  -6.02500 14.72400 39.01000
H  -5.33400 15.45300 37.74500
N  -12.77000 17.15800 41.78100
C  -12.08200 18.18900 41.26700
C  -13.05500 19.24700 40.90300
C  -14.33100 18.81900 41.33000
C  -14.13800 17.47000 41.86300
C  -12.70700 20.49500 40.13400
C  -15.55400 19.72700 41.38300
O  -15.51100 20.91200 40.98200
C  -16.86000 19.26600 41.93600
N  -13.90300 14.71900 43.21100
C  -15.07800 15.41800 42.98800
C  -16.27100 14.60600 43.36400
C  -15.72000 13.28000 43.83500
C  -14.18400 13.40900 43.50200
C  -17.17800 15.30400 44.48100
C  -16.36700 11.99500 43.42500
C  -16.63300 10.90300 44.50900
N  -11.27800 13.60400 43.16400
C  -11.92300 12.43100 43.54000
C  -10.89500 11.45100 43.78000
C  -9.71600 11.97200 43.15800
C  -10.07300 13.23400 42.68200
C  -11.04200 10.05200 44.35100
C  -8.35200 11.65400 42.83100
O  -7.70800 10.68700 43.12300
C  -7.79200 12.84600 42.09600
C  -6.66900 13.47600 42.89500
O  -6.76500 13.94500 44.02600
O  -5.53200 13.48600 42.11700
C  -4.62100 14.38900 42.78100
H  -10.30500 18.90900 40.31700
H  -16.16600 16.86000 42.04300
H  -13.74900 11.36900 43.96100
H  -7.12800 15.73400 41.44000
H  -8.33800 17.26300 39.40700
H  -6.40200 17.87400 40.99600
H  -7.51800 18.05300 42.30000
H  -7.75000 19.14800 40.92200
H  -8.06300 15.32600 38.47500
H  -7.95200 13.87400 39.22300
H  -5.84400 13.65000 39.04700
H  -5.38800 15.15300 39.78400
H  -12.03400 20.15100 39.34800
H  -12.18700 21.20300 40.77900
H  -13.51800 20.96200 39.57500
H  -17.52000 20.08800 42.21200
H  -16.56900 18.79900 42.87700
H  -17.29600 18.56100 41.22800
H  -16.87200 14.41700 42.47500
H  -15.77000 13.32300 44.92300
H  -16.81500 16.30000 44.73600
H  -17.43200 14.69800 45.35000
H  -18.01700 15.59900 43.84900
H  -15.73900 11.68500 42.59000
H  -17.27700 12.26900 42.89100
H  -15.74000 10.30400 44.69100
H  -17.42200 10.23000 44.17500
H  -16.97300 11.30100 45.46400
H  -10.31900 9.83300 45.13600
H  -10.74400 9.39600 43.53300
H  -12.09700 10.05100 44.62400
H  -7.46200 12.69800 41.06800
H  -5.17700 15.32600 42.74400
H  -3.80100 14.56700 42.08500
H  -4.32000 14.01200 43.75800

