158

Mg 0.49800 43.00600 25.56700
C  2.61500 42.72900 28.42800
C  -2.00400 41.84600 27.36400
C  -1.10900 42.59000 22.63100
C  3.45900 43.51600 23.59100
N  0.39200 42.36900 27.62000
C  1.26500 42.53700 28.66900
C  0.61200 42.59400 29.99300
C  -0.84200 42.06000 29.68400
C  -0.84300 42.01400 28.13200
C  -1.12400 40.66000 30.40900
C  0.74700 44.05100 30.65700
C  1.25700 44.00300 32.13900
H  1.16600 42.70500 32.97500
N  -1.31700 42.45500 25.06000
C  -2.26300 41.92900 25.97400
C  -3.44200 41.49800 25.28600
C  -3.22700 41.91100 23.95200
C  -1.81900 42.31200 23.81800
C  -4.58600 40.92100 26.00200
C  -4.23000 41.98100 22.73400
O  -4.00100 42.38300 21.60600
C  -5.66300 41.54800 22.97400
N  1.02200 43.24200 23.34800
C  0.21800 42.97700 22.31000
C  0.86000 43.21300 20.95600
C  2.29200 43.72800 21.30400
C  2.25600 43.47700 22.84100
C  0.89500 41.87600 20.13400
C  2.49900 45.22400 21.03000
C  3.63500 45.50700 20.05800
N  2.62600 43.13400 25.83200
C  3.62900 43.33400 24.99100
C  4.91000 43.19400 25.68100
C  4.54300 43.09500 27.01700
C  3.14400 42.97800 27.10200
C  6.31200 43.24100 25.07200
C  5.06000 43.00400 28.41200
O  6.17300 43.15900 28.81100
C  3.78200 42.87100 29.35700
C  3.92700 41.72100 30.31500
O  3.39100 40.57000 30.19100
O  4.84500 42.03400 31.21600
C  5.12300 41.23700 32.46900
H  -2.92200 41.71400 27.94000
H  -1.69800 42.33000 21.74900
H  4.40500 43.70700 23.07900
H  1.25400 41.96000 30.60500
H  -1.65600 42.74500 29.92200
H  -0.21200 40.06600 30.46300
H  -1.78500 40.04300 29.80000
H  -1.58700 40.79100 31.38800
H  -0.17200 44.63500 30.69500
H  1.44600 44.66900 30.09400
H  0.73800 44.82200 32.63600
H  2.32800 44.20200 32.18500
H  -4.26900 40.33000 26.86200
H  -5.17300 40.25900 25.36500
H  -5.23100 41.73900 26.32200
H  -5.73200 40.47000 22.83400
H  -6.34800 42.09400 22.32500
H  -5.96100 41.80800 23.99000
H  0.28900 44.01900 20.49600
H  3.08700 43.13300 20.85300
H  1.79300 41.37400 20.49400
H  1.08300 42.06500 19.07700
H  0.07300 41.19500 20.35400
H  2.74000 45.83100 21.90200
H  1.60000 45.72400 20.66900
H  4.18600 44.70300 19.57100
H  4.36100 46.09200 20.62300
H  3.27200 46.15100 19.25700
H  6.35500 42.87800 24.04500
H  7.00600 42.63800 25.65700
H  6.69100 44.26000 24.99000
H  3.60700 43.76600 29.95500
H  4.45000 40.38000 32.50300
H  5.05900 41.77700 33.41400
H  6.14600 40.86300 32.46400
Mg -11.97400 16.21700 42.20900
C  -8.97300 14.66700 41.65600
C  -10.75200 19.08400 40.72500
C  -15.18600 17.36700 41.76000
C  -13.32500 13.19300 43.20500
N  -10.12800 16.77500 41.17300
C  -9.00400 15.98400 41.10500
C  -7.82700 16.67100 40.32500
C  -8.36800 18.13000 40.25900
C  -9.83600 17.99000 40.74700
C  -7.63100 19.22900 41.15200
C  -7.60900 15.92300 38.97200
C  -6.15400 15.73800 38.66800
H  -5.60300 16.36600 37.35200
N  -12.79900 18.03100 41.56900
C  -12.04200 19.08500 41.11100
C  -12.87100 20.22400 40.98800
C  -14.26500 19.83700 41.19400
C  -14.16700 18.35300 41.54000
C  -12.34200 21.61600 40.76000
C  -15.50400 20.68300 41.12400
O  -15.42400 21.86300 40.91100
C  -16.86200 20.08700 41.28400
N  -13.92500 15.33300 42.19900
C  -15.08300 16.00700 42.07000
C  -16.35000 15.19400 42.44200
C  -15.78600 13.96100 43.12100
C  -14.25000 14.14900 42.85400
C  -17.44900 15.92600 43.28900
C  -16.50900 12.64700 42.69200
C  -17.29500 11.79700 43.73200
N  -11.27800 14.26300 42.49000
C  -11.92500 13.12700 42.88100
C  -10.92700 12.11700 43.10400
C  -9.76400 12.65600 42.61400
C  -10.01100 13.97300 42.23400
C  -11.05600 10.75200 43.76200
C  -8.41600 12.34800 42.30400
O  -7.82800 11.28200 42.34900
C  -7.84900 13.61500 41.66600
C  -6.77800 14.15400 42.44200
O  -6.85600 14.45500 43.62700
O  -5.65100 14.33300 41.73500
C  -4.53700 14.98900 42.48600
H  -10.25900 19.96500 40.30900
H  -16.19200 17.75000 41.94400
H  -13.76900 12.37500 43.77800
H  -7.01500 16.71500 41.05100
H  -8.37900 18.36000 39.19300
H  -8.37300 19.66500 41.82100
H  -7.10700 19.89200 40.46300
H  -6.91200 18.83400 41.87000
H  -8.07000 16.44300 38.13200
H  -8.09500 14.95200 39.07500
H  -5.85800 14.68900 38.66900
H  -5.48900 16.06200 39.47000
H  -13.18000 22.27800 40.54000
H  -11.62400 21.61500 39.94000
H  -11.94900 22.11700 41.64500
H  -17.63800 20.71000 40.84000
H  -16.92200 19.93500 42.36200
H  -16.98300 19.18800 40.68000
H  -16.79400 15.00300 41.46500
H  -15.86600 14.11300 44.19700
H  -18.15800 16.36300 42.58700
H  -16.96400 16.63900 43.95700
H  -17.96700 15.20700 43.92400
H  -15.86100 11.94100 42.17400
H  -17.23400 12.91400 41.92400
H  -17.56300 12.36900 44.62100
H  -16.70600 10.97700 44.14300
H  -18.25900 11.40000 43.41400
H  -11.39100 10.00800 43.04000
H  -11.86800 10.73500 44.48900
H  -10.12800 10.41700 44.22500
H  -7.48500 13.27900 40.69500
H  -4.49300 14.68700 43.53300
H  -4.80100 16.04600 42.46500
H  -3.61700 14.68400 41.98600

