158

Mg 26.50400 1.04600 29.70300
C  28.44600 0.84700 32.44800
C  23.73900 1.77000 31.79600
C  24.42800 0.93500 27.09600
C  29.06800 -0.02600 27.73300
N  26.18700 1.41800 31.89000
C  27.14200 1.24700 32.83600
C  26.62600 1.56700 34.25100
C  25.11200 1.64500 34.01500
C  24.95100 1.55600 32.46000
C  24.26800 0.61800 34.83300
C  27.30300 2.90800 34.73400
C  28.08800 2.98900 36.08800
H  27.44100 3.85300 37.12800
N  24.43600 1.33400 29.45300
C  23.54300 1.80400 30.40800
C  22.21700 1.88100 29.74500
C  22.41900 1.65700 28.38900
C  23.84400 1.28800 28.25900
C  20.96200 2.12600 30.50200
C  21.41200 1.75700 27.29100
O  21.63100 1.73600 26.06700
C  19.89700 1.89600 27.61600
N  26.69800 0.50600 27.70900
C  25.74000 0.56100 26.81200
C  26.18600 0.16700 25.38700
C  27.69300 0.02500 25.57200
C  27.82100 0.15700 27.10400
C  25.40100 -1.04900 24.85800
C  28.44200 1.07200 24.92400
C  28.71300 2.45700 25.63500
N  28.43100 0.68900 29.96600
C  29.43900 0.23500 29.06500
C  30.68900 0.06700 29.73700
C  30.35200 0.18300 31.14100
C  28.97800 0.63100 31.16800
C  32.00200 -0.36600 29.06800
C  30.79300 0.06300 32.50300
O  31.90800 -0.15200 32.87300
C  29.56700 0.51200 33.39400
C  29.33900 -0.56800 34.39600
O  28.56400 -1.46700 34.31000
O  30.19400 -0.39200 35.44900
C  30.03800 -1.19400 36.73400
H  22.97000 2.12000 32.48700
H  23.95600 1.00400 26.11400
H  29.95200 -0.29600 27.15200
H  26.91200 0.66200 34.78600
H  24.75200 2.62600 34.32400
H  23.49100 1.20300 35.32500
H  24.79900 0.01100 35.56700
H  23.70300 -0.00500 34.14000
H  26.61800 3.74900 34.62000
H  28.05100 3.21900 34.00400
H  29.09800 3.32200 35.85100
H  27.97600 1.97300 36.46800
H  20.40900 3.01200 30.19100
H  21.18300 2.19000 31.56700
H  20.42000 1.19800 30.32300
H  19.32200 1.81100 26.69400
H  19.85300 2.86900 28.10500
H  19.63700 1.23500 28.44300
H  25.85900 1.05900 24.85300
H  28.07600 -0.94300 25.24900
H  26.08600 -1.74900 24.38000
H  24.65400 -0.80200 24.10300
H  25.08400 -1.58300 25.75400
H  28.16000 1.21100 23.88000
H  29.46300 0.71900 24.77900
H  28.17700 2.61200 26.57100
H  28.43600 3.26000 24.95200
H  29.78200 2.57400 25.81400
H  32.04200 0.03400 28.05500
H  32.03500 -1.45500 29.02800
H  32.85000 0.05400 29.60900
H  29.84300 1.40200 33.95900
H  30.42600 -2.20500 36.61500
H  29.00400 -1.11200 37.06900
H  30.68400 -0.82800 37.53200
Mg 35.50100 48.65100 25.54400
C  35.64800 47.00800 28.53700
C  33.99700 51.37100 27.15400
C  35.16200 50.30200 22.58100
C  36.50100 45.81700 24.00700
N  34.81300 49.07400 27.53600
C  35.21400 48.34400 28.66400
C  35.04500 49.05400 30.00400
C  34.17800 50.29600 29.54500
C  34.31700 50.26800 27.98100
C  32.71000 50.20700 29.95700
C  36.45000 49.26100 30.72900
C  36.44500 49.26800 32.29200
H  35.05900 48.98600 33.00300
N  34.75100 50.55700 24.94600
C  34.23400 51.53300 25.78200
C  33.98300 52.72400 25.04500
C  34.31200 52.47400 23.72400
C  34.70500 51.02500 23.65600
C  33.39100 54.01400 25.54300
C  34.27700 53.38600 22.49200
O  34.39100 52.96300 21.35600
C  33.91900 54.89000 22.56400
N  35.71700 48.04600 23.57100
C  35.65200 48.94900 22.55700
C  36.20500 48.35300 21.32100
C  36.77700 46.96300 21.83200
C  36.33500 46.95700 23.20500
C  35.27100 48.34900 20.04100
C  38.33600 46.80600 21.73900
C  39.03900 46.71200 20.42100
N  35.96000 46.74300 26.08200
C  36.31400 45.64400 25.32200
C  36.59500 44.52100 26.17900
C  36.30600 44.99300 27.46100
C  35.93400 46.34000 27.34300
C  36.98800 43.11600 25.69900
C  36.27900 44.64800 28.81900
O  36.47600 43.56700 29.36400
C  35.91300 45.99500 29.63000
C  34.78500 45.64800 30.57500
O  33.60100 45.99300 30.49000
O  35.31500 44.90200 31.53200
C  34.38900 44.42300 32.54200
H  33.54100 52.25800 27.60000
H  35.36200 50.89400 21.68500
H  36.78800 44.91200 23.46800
H  34.51500 48.35900 30.65500
H  34.68800 51.23200 29.77300
H  31.96600 50.37400 29.17800
H  32.51100 51.00200 30.67600
H  32.44900 49.27100 30.45200
H  36.95600 50.17200 30.40900
H  37.12800 48.52600 30.29600
H  36.69900 50.30600 32.50600
H  37.19100 48.56700 32.66500
H  32.48400 54.10300 24.94500
H  34.07600 54.78100 25.18300
H  33.17000 54.14600 26.60200
H  32.85700 55.13200 22.60500
H  34.35500 55.17100 21.60500
H  34.55100 55.47700 23.23100
H  37.09400 48.96000 21.14900
H  36.32300 46.20700 21.19200
H  35.85000 48.64700 19.16700
H  34.34700 48.92300 20.11500
H  34.87400 47.35100 19.85900
H  38.66700 45.95100 22.32900
H  38.78300 47.68200 22.21000
H  40.03300 47.14700 20.52500
H  38.33000 47.04300 19.66200
H  39.19300 45.64200 20.28300
H  36.22700 42.90200 24.94800
H  36.98300 42.42900 26.54500
H  37.94300 43.14600 25.17400
H  36.67100 46.26500 30.36500
H  33.70500 43.69400 32.10700
H  33.88200 45.24700 33.04300
H  35.01800 43.89900 33.26100

