158

Mg 41.14200 8.72000 29.23500
C  43.16400 9.67100 31.91400
C  38.83200 7.61500 31.47800
C  39.31900 7.56000 26.63600
C  43.73300 9.63700 27.09100
N  40.93000 8.90100 31.49700
C  41.88100 9.32400 32.38800
C  41.45900 9.01500 33.86900
C  40.10400 8.27900 33.64600
C  39.87300 8.28400 32.08500
C  40.05200 6.92600 34.27200
C  41.41900 10.28000 34.75400
C  41.62100 10.08200 36.28500
H  42.29600 11.25400 37.03100
N  39.35000 7.72700 29.03900
C  38.49500 7.33100 30.12200
C  37.33000 6.75100 29.62700
C  37.49600 6.69000 28.19500
C  38.75200 7.34500 27.88800
C  36.30900 6.16300 30.56700
C  36.53100 5.98800 27.15000
O  36.79400 5.92700 25.89200
C  35.27800 5.34900 27.59300
N  41.51200 8.52100 27.15300
C  40.53900 8.18000 26.26500
C  41.04900 8.31700 24.75600
C  42.37200 9.16600 25.03000
C  42.58900 9.09200 26.52400
C  41.22300 6.93900 24.23200
C  42.04100 10.64800 24.58000
C  40.94300 11.45200 25.30300
N  43.01600 9.50400 29.41200
C  43.94700 9.79300 28.43900
C  45.12100 10.37800 28.99700
C  44.86200 10.32500 30.39700
C  43.59100 9.75100 30.57800
C  46.35200 10.89100 28.28100
C  45.45000 10.60000 31.71700
O  46.54900 11.03900 32.06000
C  44.33100 10.23200 32.67600
C  44.85500 9.33400 33.69700
O  44.94400 8.11400 33.61400
O  45.26200 10.11400 34.79100
C  45.73700 9.34800 35.93300
H  38.10000 7.46000 32.27400
H  38.73600 7.20100 25.78500
H  44.24600 10.26500 26.35900
H  42.17600 8.34100 34.33600
H  39.25300 8.85000 34.01700
H  40.92100 6.66900 34.87600
H  39.91300 6.09200 33.58400
H  39.18900 6.95200 34.93800
H  40.44700 10.77000 34.80700
H  42.17700 11.00000 34.44500
H  42.29000 9.24500 36.48200
H  40.69400 9.84900 36.81000
H  35.31100 6.34500 30.16700
H  36.40400 6.69900 31.51200
H  36.40400 5.09000 30.72900
H  35.49000 4.53800 28.29000
H  34.74200 4.82500 26.80200
H  34.49000 6.00000 27.97100
H  40.32300 8.91700 24.20600
H  43.23700 8.80700 24.47300
H  40.85200 6.18500 24.92600
H  42.28300 6.76800 24.04700
H  40.62700 6.85400 23.32400
H  41.74200 10.80000 23.54300
H  42.94900 11.22800 24.74500
H  41.24500 11.66400 26.32900
H  39.94700 11.01000 25.32900
H  40.89300 12.39100 24.75100
H  46.59300 10.03000 27.65700
H  47.06100 11.35800 28.96400
H  45.88000 11.63600 27.64000
H  44.00700 11.18500 33.09300
H  46.41400 8.54400 35.64300
H  44.89500 8.89800 36.45800
H  46.24600 10.08300 36.55700
Mg 55.33800 24.24500 44.98700
C  52.62100 26.11000 44.05100
C  53.84900 21.44500 43.59800
C  58.19100 22.56300 45.55000
C  56.81400 27.23900 46.27300
N  53.51500 23.83300 43.95700
C  52.58900 24.79100 43.60600
C  51.50900 24.11300 42.73000
C  51.57300 22.62800 43.28300
C  53.07300 22.62000 43.58100
C  50.66800 22.38200 44.48800
C  51.83300 24.18600 41.26300
C  50.68200 24.45000 40.21400
H  50.54600 23.46700 39.05000
N  55.87200 22.26700 44.63700
C  55.15400 21.26200 44.13000
C  55.85700 19.99400 44.20900
C  57.12400 20.30100 44.71300
C  57.10500 21.76000 45.03500
C  55.23800 18.65800 43.80400
C  58.20200 19.18300 44.94800
O  57.87500 17.99300 44.87900
C  59.71000 19.46900 45.38400
N  57.26800 24.87400 45.71100
C  58.29400 23.98900 45.77500
C  59.51100 24.73800 46.23500
C  59.15800 26.25900 46.49300
C  57.69500 26.19600 46.03200
C  60.31500 24.06700 47.37100
C  59.99500 27.33200 45.68400
C  60.40500 28.63000 46.49500
N  54.78400 26.23300 45.35200
C  55.48800 27.32500 45.88800
C  54.57500 28.45000 46.00100
C  53.43400 28.09100 45.24300
C  53.59300 26.71300 44.87600
C  54.87000 29.68300 46.74700
C  52.16400 28.49100 44.65500
O  51.64300 29.59100 44.71600
C  51.59300 27.22600 43.86800
C  51.48900 27.69500 42.45200
O  52.26200 28.44600 41.87900
O  50.25600 27.31900 41.96700
C  49.65200 27.92800 40.80100
H  53.30600 20.53700 43.33000
H  59.08900 21.95600 45.68200
H  57.11300 28.13700 46.81600
H  50.57500 24.57700 43.04600
H  51.26100 21.97700 42.46700
H  50.00100 23.19500 44.77300
H  51.24200 22.14100 45.38300
H  50.10000 21.47400 44.28700
H  52.36400 23.26400 41.02700
H  52.57000 24.98900 41.23000
H  51.06300 25.40200 39.84400
H  49.75500 24.62200 40.76000
H  55.76300 18.20300 42.96400
H  54.16900 18.56200 43.61300
H  55.43200 17.96700 44.62400
H  60.27800 20.18500 44.78900
H  60.22000 18.50900 45.46800
H  59.71700 19.85900 46.40100
H  60.14600 24.75400 45.35000
H  59.26700 26.36700 47.57300
H  59.70900 23.20800 47.66000
H  60.37700 24.77000 48.20100
H  61.27500 23.81800 46.91900
H  59.28400 27.62500 44.91200
H  60.82200 26.81800 45.19500
H  61.30700 29.13700 46.15500
H  60.42100 28.40700 47.56200
H  59.66900 29.43300 46.47200
H  54.11000 30.42100 46.49100
H  55.88400 29.94700 46.44800
H  54.94900 29.38100 47.79100
H  50.66100 26.91600 44.34000
H  50.43000 28.12200 40.06200
H  49.17900 28.87100 41.07600
H  48.89100 27.24400 40.42600

