158

Mg -1.74200 17.39400 26.06200
C  -1.81700 15.27200 28.84300
C  -2.34500 20.12100 28.08200
C  -1.42800 19.35000 23.28300
C  -0.91700 14.60200 24.06100
N  -2.30200 17.62200 28.21600
C  -2.16700 16.64100 29.20900
C  -2.45100 17.24100 30.56900
C  -2.87000 18.70200 30.20300
C  -2.47100 18.87200 28.73200
C  -4.40100 18.95700 30.43400
C  -1.26300 17.21300 31.63400
C  -1.62100 16.63600 32.99300
H  -2.30200 17.58600 34.07700
N  -1.93100 19.45600 25.74800
C  -2.15000 20.42300 26.69300
C  -2.17800 21.69000 26.01400
C  -1.87500 21.49500 24.59200
C  -1.72000 20.04200 24.46500
C  -2.38800 23.01700 26.81500
C  -1.77700 22.44200 23.44300
O  -1.42400 22.08200 22.27600
C  -1.88400 23.97700 23.68400
N  -1.34600 16.96000 23.97300
C  -1.37100 17.96100 23.01900
C  -0.97200 17.44800 21.57800
C  -0.47500 15.91700 21.95100
C  -0.92100 15.84100 23.43000
C  -2.17100 17.43800 20.58700
C  1.00100 15.62000 21.68100
C  2.09300 16.60900 22.18100
N  -1.75200 15.38500 26.26200
C  -1.40700 14.36200 25.38500
C  -1.45000 13.10400 26.10000
C  -1.60700 13.42600 27.43300
C  -1.70900 14.78700 27.51300
C  -1.23800 11.76600 25.47300
C  -1.67400 12.80300 28.71500
O  -1.57900 11.61900 29.05800
C  -1.94200 13.99800 29.68100
C  -0.94000 13.83400 30.76500
O  0.21200 14.19200 30.70900
O  -1.54900 13.22900 31.88900
C  -0.66000 13.01600 33.07100
H  -2.55000 21.02900 28.65400
H  -1.21000 19.90800 22.37100
H  -0.56200 13.73900 23.49400
H  -3.32100 16.82800 31.08100
H  -2.38600 19.45800 30.82100
H  -4.84400 19.42100 29.55300
H  -4.51100 19.62900 31.28500
H  -4.92200 18.01000 30.57300
H  -0.94300 18.23600 31.82800
H  -0.37400 16.70600 31.25900
H  -0.69400 16.16000 33.31400
H  -2.35400 15.84100 32.85600
H  -2.38300 22.89400 27.89800
H  -3.39400 23.29600 26.50100
H  -1.72700 23.83600 26.53300
H  -2.11200 24.45600 22.73200
H  -0.98800 24.39800 24.13900
H  -2.73900 24.06800 24.35400
H  -0.16400 18.04700 21.15600
H  -0.98200 15.10200 21.43600
H  -2.91100 18.11600 21.01200
H  -2.72000 16.49800 20.53900
H  -1.78200 17.70800 19.60600
H  1.01800 15.66500 20.59200
H  1.14300 14.58800 22.00100
H  1.57000 17.47100 22.59600
H  2.68400 16.76100 21.27700
H  2.73200 16.17900 22.95200
H  -1.14300 11.01500 26.25700
H  -0.41500 11.80500 24.75900
H  -2.18500 11.47500 25.01800
H  -2.84800 13.89000 30.27700
H  0.41100 12.97700 32.87100
H  -1.04700 12.13000 33.57300
H  -0.82300 13.85200 33.75200
Mg 47.09300 16.20200 28.62200
C  44.87200 15.55000 31.29500
C  48.66900 18.48900 30.59200
C  48.75600 17.19900 25.84000
C  44.79100 14.47000 26.41800
N  46.71300 16.99800 30.79300
C  45.83600 16.45800 31.69000
C  46.16700 17.09800 33.07900
C  47.34900 18.04100 32.77500
C  47.57900 17.87100 31.29800
C  47.20700 19.60300 33.11200
C  46.43100 16.09500 34.20300
C  46.44000 16.56500 35.59600
H  47.66900 16.35000 36.56100
N  48.63600 17.49900 28.28200
C  49.14100 18.33400 29.24500
C  50.19000 19.13100 28.65300
C  50.23900 18.89100 27.23900
C  49.13300 17.82900 27.00000
C  51.11300 20.03300 29.44200
C  51.05000 19.53200 26.12200
O  50.88300 19.23900 24.91200
C  52.08300 20.56900 26.29200
N  46.86900 15.77300 26.52500
C  47.71400 16.31300 25.61000
C  47.24600 15.90600 24.18100
C  46.07900 14.94700 24.39900
C  45.85100 15.12700 25.85900
C  47.01400 17.08800 23.24000
C  46.26200 13.49200 23.93000
C  47.16800 12.46900 24.78600
N  45.21000 15.17700 28.77900
C  44.42600 14.52100 27.80700
C  43.26300 13.87800 28.47000
C  43.39300 14.19700 29.84600
C  44.57200 15.02100 29.95700
C  42.22400 13.11800 27.74500
C  42.86700 13.92800 31.16000
O  41.88700 13.25900 31.56300
C  43.84400 14.77000 32.12800
C  42.96000 15.68000 32.94500
O  42.23100 16.56700 32.51500
O  43.11200 15.32600 34.25700
C  42.23000 15.92600 35.29800
H  49.24900 19.18300 31.20400
H  49.36000 17.49100 24.97900
H  44.18400 13.90600 25.70700
H  45.40700 17.77700 33.46800
H  48.24600 17.81200 33.34900
H  48.15200 19.96200 33.52100
H  46.42600 19.73000 33.86200
H  46.94800 20.20100 32.23800
H  47.44800 15.75500 34.00600
H  45.83300 15.18500 34.14800
H  45.59400 16.19600 36.17600
H  46.38100 17.65100 35.67800
H  51.15100 19.79800 30.50600
H  50.86000 21.09100 29.37600
H  52.11000 19.72800 29.12600
H  51.54700 21.51100 26.40800
H  52.77400 20.61200 25.45000
H  52.66500 20.40700 27.19900
H  48.08900 15.33700 23.78900
H  45.17500 15.18100 23.83500
H  47.64300 17.94000 23.50000
H  46.02200 17.53800 23.20000
H  47.25500 16.85700 22.20300
H  46.77000 13.47100 22.96600
H  45.30200 13.02800 23.70600
H  47.52500 12.83900 25.74700
H  47.99400 12.12600 24.16300
H  46.59900 11.54900 24.92000
H  42.44600 12.05100 27.76500
H  42.19200 13.47600 26.71600
H  41.35100 13.51700 28.26000
H  44.41300 14.03000 32.69100
H  41.69000 15.15200 35.84200
H  41.50100 16.66100 34.95900
H  42.91400 16.34400 36.03700

