158

Mg 24.87200 1.19700 30.05100
C  26.97500 1.45400 32.78300
C  22.28500 1.97600 31.94400
C  23.12500 1.36700 27.18600
C  27.73400 0.28800 28.10100
N  24.72100 1.89300 32.12000
C  25.63400 1.71800 33.09000
C  25.07000 2.09100 34.49000
C  23.49900 1.98600 34.24200
C  23.49300 2.03800 32.64900
C  22.94200 0.65700 34.84000
C  25.67100 3.39900 35.03400
C  26.61700 3.31700 36.21700
H  26.27600 4.23400 37.40100
N  22.94800 1.65700 29.60300
C  21.96900 1.90300 30.54700
C  20.70400 1.88000 29.90700
C  20.97600 1.81900 28.54900
C  22.41500 1.63200 28.34400
C  19.38900 2.04400 30.69600
C  19.94500 1.83500 27.38600
O  20.29500 1.79200 26.22200
C  18.51500 1.86500 27.68900
N  25.32400 0.74500 27.89600
C  24.44000 0.93700 26.90300
C  25.08700 0.77000 25.49800
C  26.59500 0.41500 25.86100
C  26.55500 0.39200 27.36400
C  24.38100 -0.24900 24.55400
C  27.61200 1.45500 25.32300
C  27.61600 2.90800 25.77800
N  26.92600 0.84700 30.32900
C  27.99100 0.51400 29.44500
C  29.25300 0.42400 30.14000
C  28.79600 0.77700 31.48700
C  27.46000 1.05600 31.52400
C  30.67000 0.14600 29.74300
C  29.37300 1.02200 32.88800
O  30.50300 0.98200 33.29600
C  28.19100 1.42000 33.75000
C  28.11400 0.30300 34.66400
O  27.54900 -0.78600 34.44300
O  28.78700 0.56900 35.83000
C  28.72300 -0.42800 36.93200
H  21.45500 1.95300 32.65300
H  22.57400 1.48200 26.25000
H  28.65000 0.15900 27.52000
H  25.35900 1.26800 35.14300
H  22.99700 2.86500 34.64700
H  22.47700 0.98000 35.77200
H  23.67800 -0.14600 34.87200
H  22.10800 0.24300 34.27400
H  24.94000 4.04700 35.51800
H  26.22400 3.88800 34.23200
H  27.64800 3.59300 35.99700
H  26.68400 2.32800 36.67300
H  18.79900 1.14800 30.50800
H  18.78900 2.91600 30.43600
H  19.57900 2.09500 31.76800
H  18.40300 1.10600 28.46300
H  17.95000 1.77900 26.76100
H  18.23500 2.83200 28.10800
H  24.88900 1.75100 25.06600
H  26.83800 -0.61600 25.60200
H  23.33300 -0.46700 24.75800
H  25.01000 -1.14000 24.53700
H  24.51100 0.13400 23.54200
H  27.21500 1.46100 24.30800
H  28.61400 1.02700 25.28400
H  27.01300 3.04800 26.67500
H  27.19500 3.49900 24.96500
H  28.58000 3.33200 26.05900
H  30.78600 0.26000 28.66500
H  30.86600 -0.90500 29.95500
H  31.43700 0.73100 30.25000
H  28.36300 2.37400 34.24900
H  28.04200 -1.23800 36.67100
H  28.47500 0.15900 37.81600
H  29.73100 -0.79900 37.11500
Mg 10.02000 47.99600 25.64500
C  8.02500 48.23900 28.53000
C  12.49000 49.39700 27.29300
C  11.64400 48.23000 22.69100
C  7.14400 46.86800 23.86000
N  10.17100 48.70000 27.70400
C  9.33600 48.61500 28.74500
C  10.04100 49.15100 30.04700
C  11.32100 49.89400 29.45400
C  11.31600 49.33100 28.06000
C  10.99800 51.40200 29.22800
C  10.37600 48.13100 31.08100
C  10.00700 48.50900 32.54300
H  10.19600 47.40600 33.49600
N  11.82800 48.63400 25.07400
C  12.77300 49.11000 25.93300
C  14.04600 49.22000 25.24500
C  13.82200 48.92500 23.89700
C  12.33600 48.61800 23.82500
C  15.34100 49.59900 25.97300
C  14.77100 48.83300 22.65200
O  14.43300 48.83400 21.45100
C  16.19700 48.91400 22.95000
N  9.41100 47.75800 23.49100
C  10.31500 47.87700 22.51400
C  9.72100 47.37100 21.17900
C  8.38100 46.65000 21.66300
C  8.30700 47.06900 23.11800
C  9.56100 48.52900 20.18700
C  8.21600 45.13100 21.36400
C  8.90300 44.02300 22.27000
N  7.92600 47.76300 25.98000
C  6.87300 47.31000 25.14800
C  5.68900 47.19200 25.97500
C  6.10200 47.58800 27.29100
C  7.48400 47.85600 27.21100
C  4.39400 46.58200 25.47900
C  5.61200 47.77700 28.71100
O  4.46400 47.75600 29.20200
C  6.90700 47.96500 29.60000
C  7.14500 46.65100 30.35400
O  7.80700 45.71200 29.93300
O  6.48500 46.74800 31.54600
C  6.65300 45.60600 32.45900
H  13.32100 49.91200 27.78000
H  12.23400 48.12700 21.77800
H  6.28200 46.41100 23.37000
H  9.40400 49.83600 30.60600
H  12.29100 49.67600 29.90000
H  10.01000 51.68100 29.59400
H  10.95100 51.74500 28.19400
H  11.75500 51.98000 29.75800
H  11.45400 47.97100 31.05900
H  9.96500 47.12200 31.03700
H  8.91900 48.56700 32.51400
H  10.57000 49.40100 32.81700
H  15.22200 49.71100 27.05100
H  15.74400 50.57300 25.69400
H  16.11100 48.84200 25.82500
H  16.67000 49.04600 21.97700
H  16.52300 47.98000 23.40600
H  16.33500 49.84100 23.50700
H  10.36800 46.61100 20.74300
H  7.49500 47.13900 21.25900
H  10.20200 49.36200 20.47600
H  8.50000 48.78000 20.22200
H  9.72200 48.32000 19.12900
H  8.47500 45.03700 20.30900
H  7.15000 44.96100 21.51600
H  8.21400 43.19700 22.44400
H  9.32300 44.43100 23.18900
H  9.70300 43.65700 21.62700
H  3.82900 47.32100 24.91100
H  3.71600 46.40300 26.31400
H  4.43000 45.66600 24.89000
H  6.98900 48.85500 30.22500
H  7.59800 45.78000 32.97300
H  6.70100 44.64000 31.95800
H  5.92400 45.52700 33.26500

