158

Mg 1.56900 -1.62400 44.33300
C  4.93400 -0.86000 43.48100
C  0.57700 1.20000 42.53500
C  -1.63000 -2.75900 44.35600
C  2.73700 -4.83500 45.50100
N  2.51300 -0.10700 43.28400
C  3.94200 0.04000 43.00900
C  4.22200 1.22300 42.11400
C  2.85400 2.06500 42.27000
C  1.88700 0.98700 42.73500
C  2.88900 3.18900 43.38100
C  4.46800 0.84700 40.60400
C  5.75600 1.24000 40.03100
H  5.69200 2.00300 38.65700
N  -0.32800 -0.86700 43.59000
C  -0.47900 0.32900 42.79600
C  -1.82600 0.43000 42.37300
C  -2.47400 -0.76900 42.81500
C  -1.55200 -1.53700 43.63000
C  -2.43100 1.59800 41.66500
C  -3.82000 -1.21700 42.36400
O  -4.48200 -0.47400 41.72900
C  -4.37500 -2.48900 42.78100
N  0.70700 -3.52300 44.77300
C  -0.68800 -3.71700 44.83300
C  -0.95900 -5.13300 45.23400
C  0.40800 -5.72000 45.77700
C  1.35300 -4.62100 45.28600
C  -2.19500 -5.37000 46.10000
C  0.72500 -7.16200 45.16600
C  1.38000 -8.13200 46.13800
N  3.45600 -2.66500 44.69600
C  3.78000 -3.92700 45.19600
C  5.22300 -4.07100 45.16500
C  5.69200 -2.87100 44.53400
C  4.61200 -2.09300 44.21400
C  6.04400 -5.27100 45.70600
C  6.88800 -2.14600 44.12600
O  8.09100 -2.33700 44.29200
C  6.37800 -0.84500 43.38900
C  6.88100 0.33200 44.09800
O  6.76900 0.52200 45.28200
O  7.69300 1.03500 43.23300
C  8.48900 2.17100 43.84900
H  0.29200 2.09900 41.98400
H  -2.65400 -3.06600 44.57700
H  3.12000 -5.80700 45.81900
H  5.12800 1.62900 42.56400
H  2.43400 2.56200 41.39600
H  3.87700 3.51900 43.70200
H  2.47300 2.74500 44.28500
H  2.26100 3.99800 43.00800
H  3.72700 1.29100 39.94000
H  4.39900 -0.23600 40.49600
H  6.32400 0.32300 39.87800
H  6.33700 1.86400 40.71000
H  -2.64000 1.41400 40.61100
H  -1.82100 2.49900 41.72900
H  -3.34900 1.87100 42.18500
H  -5.07700 -2.75000 41.98900
H  -4.77300 -2.33500 43.78400
H  -3.58500 -3.23900 42.74500
H  -1.11500 -5.61300 44.26800
H  0.44400 -5.86300 46.85700
H  -2.73600 -4.43000 46.21200
H  -1.85700 -5.64600 47.09800
H  -2.91000 -6.03700 45.61800
H  1.50000 -6.88800 44.44900
H  -0.17800 -7.53000 44.67900
H  1.71700 -7.58300 47.01800
H  2.26900 -8.53200 45.64900
H  0.63200 -8.90500 46.31300
H  6.84000 -5.00600 46.40100
H  6.45000 -5.65000 44.76800
H  5.35100 -5.98800 46.14700
H  6.75000 -0.83300 42.36400
H  9.01200 1.77300 44.71900
H  7.89600 2.99400 44.24800
H  9.26900 2.56800 43.19900
Mg -9.84800 38.70900 40.12700
C  -8.94100 35.26800 39.20100
C  -6.58000 39.58100 39.21900
C  -10.80800 41.76600 40.27200
C  -12.96000 37.38000 40.89200
N  -7.98700 37.59800 39.19000
C  -7.90600 36.20100 38.91200
C  -6.49700 35.83400 38.54700
C  -5.69800 37.15900 38.74900
C  -6.75600 38.20700 39.15600
C  -4.51600 37.06500 39.86000
C  -6.31200 35.24700 37.05200
C  -6.78000 36.29000 36.00000
H  -7.71700 35.88200 34.82800
N  -8.80800 40.48100 39.88800
C  -7.47900 40.61700 39.50200
C  -7.23500 42.11100 39.30300
C  -8.50900 42.70100 39.58800
C  -9.41200 41.68700 40.04700
C  -5.93000 42.71900 38.78000
C  -8.79100 44.15000 39.42600
O  -7.99900 44.86000 38.83300
C  -10.09300 44.70400 39.84100
N  -11.70300 39.45200 40.30800
C  -11.87700 40.81100 40.44500
C  -13.36300 41.12200 40.55000
C  -13.92500 39.80000 41.17300
C  -12.85000 38.76900 40.75400
C  -13.74300 42.35900 41.46300
C  -15.31000 39.49400 40.64300
C  -16.32600 39.30200 41.75900
N  -10.84800 36.73200 40.00500
C  -12.08500 36.40200 40.46400
C  -12.28800 35.01300 40.47900
C  -11.10900 34.51700 39.79800
C  -10.27900 35.57200 39.64100
C  -13.51200 34.18100 40.91700
C  -10.44800 33.35300 39.33900
O  -10.82300 32.19200 39.34000
C  -9.01100 33.78500 38.78000
C  -7.95400 32.95600 39.40200
O  -7.84900 32.76600 40.63900
O  -7.06200 32.44300 38.51200
C  -6.01700 31.49700 38.99000
H  -5.58000 39.82000 38.85100
H  -11.25200 42.74100 40.48500
H  -13.89800 37.05100 41.34500
H  -6.05200 35.23000 39.33700
H  -5.23500 37.44300 37.80400
H  -3.57900 36.94000 39.31700
H  -4.65900 36.10700 40.35900
H  -4.50900 37.87100 40.59400
H  -6.80200 34.29100 36.87000
H  -5.25500 35.07000 36.85100
H  -5.90400 36.66100 35.46900
H  -7.24500 37.12300 36.52700
H  -5.12500 42.08600 39.15200
H  -5.73400 43.72800 39.14400
H  -5.91000 42.80200 37.69300
H  -10.28900 44.49100 40.89100
H  -10.81400 44.16000 39.23100
H  -10.15500 45.77200 39.63500
H  -13.79300 41.24800 39.55600
H  -13.91100 39.92700 42.25500
H  -14.13800 43.20900 40.90700
H  -12.88300 42.76700 41.99300
H  -14.48700 42.13300 42.22700
H  -15.24600 38.61900 39.99500
H  -15.63000 40.27000 39.94700
H  -17.18000 39.92200 41.48700
H  -16.10000 39.68000 42.75600
H  -16.73400 38.29200 41.76800
H  -13.53500 34.10600 42.00500
H  -13.54100 33.21400 40.41400
H  -14.33100 34.81200 40.57400
H  -8.99700 33.64200 37.70000
H  -6.24500 30.46100 38.74000
H  -5.82100 31.58600 40.05800
H  -5.11900 31.77400 38.43800

