158

Mg 17.65800 0.03500 27.88700
C  16.27700 1.93900 30.37100
C  19.43700 -1.78400 30.07100
C  19.10500 -1.69500 25.30400
C  15.89100 2.00300 25.55000
N  17.99800 0.13300 29.89800
C  17.19600 0.90100 30.74300
C  17.62200 0.67800 32.21600
C  18.81000 -0.32900 32.14500
C  18.77800 -0.72800 30.65500
C  20.22600 0.23500 32.67000
C  16.39600 0.18000 33.06800
C  16.61000 0.14500 34.55400
H  17.85000 0.73100 35.23600
N  19.00200 -1.49100 27.71800
C  19.51200 -2.24900 28.80500
C  20.28000 -3.37200 28.40700
C  20.22700 -3.35100 26.95000
C  19.45900 -2.12100 26.57100
C  20.97600 -4.43900 29.35400
C  20.89100 -4.27500 25.95500
O  20.79900 -4.24900 24.68800
C  21.72500 -5.39900 26.54200
N  17.51100 0.14800 25.76500
C  18.29800 -0.61200 24.91500
C  18.07600 -0.21100 23.46400
C  16.89500 0.81400 23.58700
C  16.74100 0.96700 25.05100
C  19.47000 0.29700 22.88900
C  15.60500 0.55900 22.74900
C  14.32300 0.07400 23.40000
N  16.38200 1.65100 27.94000
C  15.80800 2.38400 26.91200
C  14.88000 3.32900 27.46000
C  15.06400 3.28600 28.83700
C  15.97200 2.19700 28.99900
C  14.11000 4.21200 26.70500
C  14.83300 3.84900 30.11500
O  14.13300 4.80000 30.48900
C  15.46900 2.96800 31.14600
C  16.23800 3.81800 32.05500
O  17.22600 4.37700 31.73400
O  15.72700 3.81400 33.37300
C  16.36800 4.77000 34.35400
H  20.06000 -2.38500 30.73600
H  19.48400 -2.20100 24.41400
H  15.25100 2.52900 24.83800
H  17.93500 1.62900 32.64600
H  18.54700 -1.15500 32.80600
H  20.73400 -0.49500 33.30100
H  20.09600 1.22900 33.09900
H  20.77300 0.47800 31.75900
H  16.27500 -0.84900 32.72800
H  15.51700 0.75100 32.76800
H  16.52200 -0.87800 34.92000
H  15.74400 0.62500 35.01100
H  20.85600 -4.24700 30.42000
H  22.06000 -4.51000 29.26500
H  20.64100 -5.47600 29.37000
H  22.09100 -5.96200 25.68400
H  21.04600 -5.96800 27.17700
H  22.54100 -5.13400 27.21400
H  17.88600 -1.13800 22.92300
H  17.17400 1.82400 23.28400
H  20.11400 0.55900 23.72800
H  19.39700 1.09700 22.15200
H  19.98800 -0.49100 22.34300
H  15.85200 -0.07200 21.89600
H  15.36600 1.53400 22.32300
H  13.67000 -0.38000 22.65400
H  13.85600 0.94100 23.86800
H  14.55700 -0.63400 24.19400
H  13.52100 3.47100 26.16400
H  14.76100 4.81200 26.06900
H  13.55600 4.93500 27.30400
H  14.71300 2.56600 31.82100
H  16.64900 5.68400 33.83200
H  17.18400 4.24000 34.84500
H  15.65300 4.98700 35.14800
Mg 41.61200 40.64700 26.49300
C  40.97800 43.12100 28.93000
C  42.94800 38.55800 28.77200
C  42.52200 38.57300 23.89100
C  40.71300 43.04500 24.02600
N  42.15900 40.95900 28.63600
C  41.59900 41.96100 29.44700
C  41.73400 41.44600 30.93900
C  42.68200 40.18600 30.79200
C  42.55500 39.83200 29.34600
C  44.14300 40.36200 31.21600
C  40.34300 41.14600 31.52800
C  39.76600 42.06700 32.62800
H  39.32900 41.33000 33.88700
N  42.53500 38.76900 26.35600
C  42.92600 38.09900 27.41000
C  43.33200 36.74900 26.98900
C  43.35000 36.79800 25.52200
C  42.73800 38.07800 25.17300
C  43.77300 35.73600 27.91700
C  43.96000 35.80200 24.53800
O  43.95600 35.94500 23.30500
C  44.69200 34.59700 25.03900
N  41.57600 40.78000 24.28400
C  42.01600 39.77000 23.45200
C  41.74600 40.15200 21.98100
C  40.89200 41.41200 22.06400
C  41.06100 41.78700 23.55600
C  43.09500 40.30300 21.13200
C  39.40500 41.25500 21.63500
C  38.45700 40.29400 22.41800
N  41.08400 42.63800 26.39600
C  40.76300 43.43500 25.32100
C  40.25000 44.77000 25.75300
C  40.34600 44.66100 27.19500
C  40.83700 43.36900 27.50400
C  39.81100 45.88200 25.01400
C  40.04700 45.38400 28.43400
O  39.55700 46.48800 28.53400
C  40.27800 44.31900 29.61000
C  41.09500 45.00800 30.68600
O  42.21800 44.68900 31.06800
O  40.26200 45.64100 31.51400
C  40.80000 45.90400 32.81200
H  43.37400 37.84500 29.48100
H  42.68900 37.86200 23.07900
H  40.37200 43.77600 23.29100
H  42.23900 42.12600 31.62400
H  42.37500 39.39400 31.47500
H  44.12800 40.68100 32.25900
H  44.70000 41.01800 30.54700
H  44.44500 39.31500 31.18300
H  40.33400 40.10800 31.86300
H  39.59900 41.29800 30.74500
H  38.84900 42.51900 32.25000
H  40.62200 42.66100 32.94700
H  44.79500 35.83500 28.28300
H  43.54100 34.74100 27.53700
H  43.06200 35.82500 28.73800
H  45.49700 34.84200 25.73100
H  45.14200 34.15300 24.15200
H  43.90400 33.95700 25.43700
H  41.15100 39.33000 21.58100
H  41.31700 42.15000 21.38400
H  43.40600 41.33700 20.97900
H  43.01200 39.86500 20.13700
H  43.95000 39.87900 21.65700
H  39.42700 40.65900 20.72300
H  38.94500 42.20400 21.35900
H  39.08300 40.03500 23.27200
H  38.24100 39.37000 21.88100
H  37.53500 40.78400 22.73000
H  40.63800 46.40200 24.53000
H  39.36500 46.66400 25.62900
H  39.07000 45.53200 24.29600
H  39.32500 44.05800 30.07000
H  41.74700 46.44300 32.77600
H  40.83100 44.92800 33.29700
H  40.06600 46.48600 33.36900

