158

Mg 36.79600 49.16400 25.30900
C  36.65700 47.19800 28.18100
C  35.05500 51.60600 27.18300
C  36.05600 51.05900 22.40100
C  38.08900 46.63600 23.50300
N  35.81100 49.24800 27.37300
C  36.18800 48.45100 28.40100
C  35.96400 49.11400 29.80300
C  35.43500 50.50300 29.38900
C  35.37700 50.45900 27.91300
C  34.12100 50.86000 30.07600
C  37.17500 49.17700 30.75600
C  36.92900 48.52400 32.16100
H  36.97100 49.51900 33.32500
N  35.85300 51.12400 24.91100
C  35.22100 51.92800 25.83800
C  34.88300 53.18600 25.21000
C  35.17400 53.01000 23.81900
C  35.67000 51.65700 23.65900
C  34.39100 54.42000 26.03800
C  34.90700 54.07500 22.72000
O  35.27600 53.92700 21.54600
C  34.08400 55.34700 23.03500
N  36.95600 48.90600 23.29000
C  36.68900 49.80500 22.27000
C  36.78000 49.05600 20.89900
C  37.69600 47.82600 21.25800
C  37.58700 47.75900 22.81900
C  35.35200 48.75600 20.38100
C  39.15500 48.00900 20.85300
C  39.68800 46.91400 19.86500
N  37.33700 47.33200 25.71400
C  37.92300 46.39000 24.87700
C  38.05200 45.11200 25.53800
C  37.63900 45.41500 26.85000
C  37.11700 46.73800 26.88200
C  38.52800 43.75600 25.03500
C  37.47200 44.86900 28.25500
O  37.76400 43.76600 28.69700
C  36.78300 45.99400 29.05300
C  35.62400 45.42900 29.66000
O  34.69000 44.92900 29.03100
O  35.76600 45.41800 31.06400
C  34.71100 44.76900 31.84700
H  34.54900 52.39800 27.73800
H  35.82700 51.68500 21.53700
H  38.63900 45.89700 22.91600
H  35.16500 48.49000 30.20300
H  36.12100 51.29700 29.68200
H  33.24900 50.67000 29.45000
H  34.08000 51.94400 30.17300
H  34.03300 50.40500 31.06300
H  37.43100 50.23100 30.86200
H  38.00300 48.76000 30.18400
H  37.84400 47.95400 32.32600
H  35.99000 47.97300 32.21100
H  34.29900 54.23200 27.10800
H  33.40600 54.78200 25.74400
H  35.21500 55.12600 25.94200
H  33.13900 55.29400 23.57500
H  33.76700 55.72500 22.06300
H  34.70800 55.95900 23.68500
H  37.12200 49.73000 20.11300
H  37.21500 46.92800 20.87200
H  34.60500 49.10200 21.09600
H  35.31200 47.71400 20.06400
H  35.21700 49.32100 19.45800
H  39.77900 48.08800 21.74400
H  39.27400 48.96400 20.34200
H  39.89900 47.41800 18.92200
H  39.00500 46.06600 19.83400
H  40.67400 46.69700 20.27800
H  39.61700 43.70300 25.05100
H  38.29400 43.71700 23.97100
H  37.96600 42.97800 25.55200
H  37.48200 46.27300 29.84200
H  35.14600 43.96000 32.43400
H  33.80200 44.40700 31.36700
H  34.41500 45.37500 32.70400
Mg -1.46400 33.78300 26.98000
C  -3.48200 32.65800 29.59100
C  0.03000 35.91700 29.16700
C  -0.02100 35.39000 24.43600
C  -3.50500 32.03700 24.78200
N  -1.64200 34.16800 29.13400
C  -2.59500 33.60900 29.97600
C  -2.31300 33.93900 31.40300
C  -1.24900 35.13800 31.23100
C  -1.01500 35.19600 29.71600
C  -1.60700 36.47800 31.86100
C  -1.76000 32.71800 32.26100
C  -1.19800 33.15300 33.62500
H  -1.73900 32.59800 34.84000
N  -0.01000 35.28500 26.82300
C  0.54100 36.00700 27.83800
C  1.48800 36.89300 27.38500
C  1.47000 36.90600 25.96700
C  0.44600 35.87100 25.65600
C  2.34600 37.75800 28.36400
C  2.29500 37.60400 24.91700
O  2.20400 37.44700 23.75400
C  3.42100 38.48900 25.29700
N  -1.74800 33.70000 24.88400
C  -0.99500 34.45100 24.07300
C  -1.12800 34.05300 22.60100
C  -2.18000 32.89200 22.74200
C  -2.52300 32.85000 24.16100
C  -1.53700 35.20100 21.62300
C  -1.87200 31.51700 21.99700
C  -0.43700 31.08500 21.58900
N  -3.02200 32.52600 27.14800
C  -3.77700 31.92600 26.17500
C  -4.80500 31.07400 26.75200
C  -4.69400 31.36300 28.09400
C  -3.66900 32.26500 28.25900
C  -5.62800 30.05600 26.00000
C  -5.30800 30.93100 29.31600
O  -6.27200 30.18300 29.53500
C  -4.60000 31.85000 30.36200
C  -5.58700 32.69700 31.03900
O  -6.13000 33.70400 30.58900
O  -5.83500 32.20000 32.28800
C  -7.07300 32.68900 32.91000
H  0.48000 36.63900 29.85200
H  0.57600 35.75000 23.59500
H  -4.13900 31.49200 24.08000
H  -3.21500 34.40400 31.80100
H  -0.34000 34.85500 31.76200
H  -2.56100 36.50200 32.38700
H  -1.83200 37.20800 31.08400
H  -0.77500 36.84200 32.46400
H  -0.97100 32.28900 31.64400
H  -2.48200 31.93400 32.49000
H  -1.23000 34.24200 33.60200
H  -0.12200 32.97800 33.60200
H  2.33200 37.22700 29.31600
H  1.86700 38.72600 28.50800
H  3.37200 37.88700 28.02100
H  4.18400 37.89400 25.79900
H  3.01100 39.19600 26.01800
H  3.84400 39.04800 24.46200
H  -0.15200 33.78300 22.19800
H  -3.12000 33.26600 22.33800
H  -0.71100 35.37400 20.93300
H  -1.71300 36.11700 22.18700
H  -2.44100 35.01200 21.04400
H  -2.48300 31.59200 21.09800
H  -2.29800 30.72600 22.61300
H  0.33500 31.78700 21.90300
H  -0.36700 31.13100 20.50200
H  -0.23700 30.06000 21.90200
H  -6.54700 30.32900 25.48100
H  -5.68900 29.25200 26.73400
H  -5.05300 29.68700 25.15100
H  -4.14600 31.14400 31.05600
H  -7.63700 33.46200 32.38800
H  -6.70700 33.16100 33.82200
H  -7.57700 31.78800 33.26200

