158

Mg 48.80700 34.03000 26.83400
C  47.07000 32.89100 29.60600
C  49.14300 37.14000 28.61000
C  50.02800 35.48800 24.07600
C  47.80700 31.29500 25.03300
N  48.23400 34.90900 28.93400
C  47.57400 34.14700 29.88800
C  47.61500 34.89100 31.18400
C  47.90400 36.40300 30.80300
C  48.53900 36.17100 29.40900
C  46.69400 37.41500 30.73400
C  48.88200 34.32400 31.89600
C  49.19400 34.59500 33.41500
H  48.12100 35.34000 34.17100
N  49.80000 35.87400 26.49800
C  49.76400 37.01500 27.31300
C  50.32200 38.14000 26.57000
C  50.68800 37.69000 25.31500
C  50.09600 36.33400 25.21100
C  50.37400 39.58400 27.05100
C  51.41800 38.39400 24.17000
O  51.82300 37.79900 23.17600
C  51.71200 39.82800 24.09400
N  48.92800 33.48100 24.89800
C  49.61300 34.19600 23.91500
C  49.75300 33.35400 22.56300
C  49.20800 31.94100 23.02700
C  48.54500 32.25400 24.35500
C  49.03800 33.99500 21.33400
C  50.13500 30.75600 22.91500
C  50.69900 30.16100 24.23100
N  47.70400 32.41000 27.16600
C  47.35400 31.29900 26.36900
C  46.55000 30.38100 27.03200
C  46.36200 30.99800 28.29500
C  47.16000 32.16900 28.33400
C  45.92600 29.02600 26.64900
C  45.71900 30.79600 29.53400
O  45.02200 29.87100 29.99000
C  46.02900 32.07400 30.36600
C  46.45800 31.62200 31.78700
O  47.52500 31.12000 32.15800
O  45.33900 31.74500 32.60400
C  45.49100 31.51800 34.01700
H  49.25700 38.13400 29.04700
H  50.37300 35.92300 23.13500
H  47.50000 30.35600 24.56700
H  46.72700 34.76900 31.80500
H  48.72400 36.86500 31.35300
H  46.64400 38.04000 31.62500
H  45.76500 36.89700 30.49500
H  46.73900 38.16600 29.94600
H  49.79400 34.69100 31.42700
H  48.84200 33.24200 31.76500
H  50.16300 35.09400 33.43500
H  49.23700 33.63000 33.91800
H  51.34800 39.98000 26.76400
H  50.35500 39.68900 28.13600
H  49.55900 40.17000 26.62600
H  50.92500 40.43500 24.54300
H  51.81100 40.21400 23.07900
H  52.67900 39.83000 24.59700
H  50.81100 33.27600 22.31200
H  48.38700 31.77500 22.33000
H  48.91900 35.07800 21.31800
H  48.03400 33.59900 21.18300
H  49.67600 33.73500 20.48900
H  50.98600 30.88300 22.24700
H  49.58700 29.90600 22.50800
H  50.04000 29.30700 24.39000
H  50.60600 30.82400 25.09100
H  51.75400 29.91900 24.10300
H  46.30500 28.71500 25.67500
H  44.84000 29.11800 26.64400
H  46.31500 28.36200 27.42100
H  45.23200 32.81500 30.43500
H  44.77400 32.19300 34.48500
H  46.49500 31.73800 34.37800
H  45.33400 30.47900 34.31000
Mg 8.97100 48.19900 26.45400
C  6.46600 48.88400 28.85200
C  11.34500 49.10100 28.72100
C  11.29700 47.58100 24.11700
C  6.47600 47.56000 24.09600
N  8.86500 49.03600 28.51800
C  7.71600 49.13000 29.29200
C  8.12600 49.34300 30.77500
C  9.64900 49.60900 30.64600
C  9.96800 49.20000 29.21100
C  9.97100 51.07300 30.97600
C  7.84700 48.15600 31.71500
C  8.67900 47.99600 32.98700
H  8.13800 47.10900 34.18800
N  11.04800 48.23600 26.41900
C  11.79600 48.72400 27.43600
C  13.19800 48.70700 26.98900
C  13.24100 48.21100 25.69100
C  11.83100 48.00400 25.33900
C  14.36500 49.08500 27.94800
C  14.40200 47.92000 24.69900
O  14.24700 47.51000 23.54800
C  15.79300 48.10500 25.16500
N  8.89500 47.73900 24.39300
C  10.01200 47.40000 23.69700
C  9.66600 46.93400 22.28400
C  8.17200 46.97200 22.23100
C  7.76600 47.39300 23.68500
C  10.31800 47.63300 21.09600
C  7.56200 45.54800 21.79800
C  7.27500 45.56000 20.22500
N  6.82100 48.39500 26.37200
C  5.92300 48.02100 25.34800
C  4.56200 48.26300 25.89500
C  4.74900 48.48200 27.23700
C  6.09700 48.62900 27.44100
C  3.30400 47.97500 25.26800
C  4.10200 48.71500 28.45100
O  2.89900 48.74400 28.69500
C  5.12800 48.89300 29.63600
C  5.09200 47.74400 30.50000
O  5.50100 46.60600 30.21900
O  4.62800 48.13900 31.68300
C  4.10400 47.16800 32.57900
H  12.10700 49.30300 29.47600
H  12.01800 47.19300 23.39500
H  5.79100 47.34500 23.27400
H  7.55400 50.21900 31.08000
H  10.32700 49.03600 31.27700
H  9.12300 51.70300 31.24300
H  10.22700 51.47500 29.99600
H  10.79900 51.12900 31.68300
H  7.65900 47.22800 31.17500
H  6.89800 48.45100 32.16300
H  9.03700 48.93900 33.40000
H  9.63200 47.54400 32.71200
H  15.05500 49.73100 27.40500
H  15.03600 48.26600 28.20800
H  13.96700 49.62100 28.81000
H  16.52300 47.75800 24.43400
H  15.97900 47.58700 26.10600
H  15.90300 49.18900 25.19800
H  10.03500 45.91200 22.20000
H  7.65400 47.64200 21.54400
H  9.54000 48.01400 20.43400
H  10.96600 47.02500 20.46400
H  10.93300 48.48600 21.38300
H  6.69800 45.38800 22.44300
H  8.19400 44.66200 21.85300
H  7.76800 46.36200 19.67500
H  6.20600 45.73400 20.09600
H  7.49200 44.57700 19.80800
H  3.53400 47.40700 24.36700
H  2.71800 48.85700 25.01000
H  2.69000 47.33000 25.89700
H  5.05500 49.83700 30.17500
H  3.89400 47.61400 33.55100
H  4.79400 46.32700 32.52400
H  3.14000 46.98700 32.10200

