158

Mg 40.83200 10.34200 29.52100
C  42.70300 11.54700 32.23300
C  38.84400 8.80200 32.05900
C  39.04500 8.94800 27.00500
C  43.18400 11.38300 27.25900
N  40.89700 10.03000 31.93800
C  41.59900 10.86500 32.77900
C  41.04500 10.90900 34.25300
C  40.06000 9.71400 34.15200
C  39.88800 9.51400 32.68500
C  40.60600 8.46600 34.79700
C  40.49700 12.31600 34.66200
C  39.91700 12.37000 36.11300
H  40.59700 13.21800 37.16300
N  39.21200 9.10200 29.52400
C  38.51500 8.60000 30.68400
C  37.43300 7.71100 30.21400
C  37.41400 7.84100 28.77300
C  38.62100 8.66800 28.32700
C  36.60200 6.85100 31.08500
C  36.58500 6.96100 27.82400
O  36.77600 6.86300 26.60500
C  35.42600 6.19200 28.36500
N  41.07300 10.24800 27.43300
C  40.17000 9.68800 26.59900
C  40.56100 9.83800 25.12000
C  41.77100 10.83100 25.21900
C  42.07500 10.69600 26.69800
C  40.86400 8.52700 24.42700
C  41.44300 12.29000 24.75200
C  41.05100 13.34200 25.80500
N  42.60900 11.16700 29.68500
C  43.45100 11.51100 28.66900
C  44.60000 12.21200 29.25100
C  44.34700 12.20100 30.64000
C  43.13800 11.51800 30.86700
C  45.76200 12.73700 28.59800
C  44.91200 12.64900 31.84200
O  45.91400 13.29800 32.12400
C  43.82100 12.29200 32.95800
C  44.46500 11.63500 34.13300
O  44.83300 10.48900 34.21300
O  44.51200 12.50600 35.22000
C  44.95200 12.02300 36.57000
H  38.16900 8.31400 32.76400
H  38.63000 8.42000 26.14400
H  43.94300 11.72800 26.55400
H  41.85800 10.61500 34.91700
H  39.12400 10.01500 34.62300
H  40.34900 7.61600 34.16600
H  40.18000 8.44200 35.80000
H  41.67000 8.57000 35.01100
H  39.79700 12.64700 33.89500
H  41.29200 13.05400 34.55100
H  40.01900 11.34300 36.46300
H  38.87000 12.67200 36.12100
H  35.57000 7.19300 31.00900
H  36.87100 6.85400 32.14100
H  36.64000 5.81000 30.76200
H  34.75000 6.00900 27.53000
H  34.86300 6.80600 29.06800
H  35.74300 5.32000 28.93900
H  39.76600 10.44800 24.69200
H  42.68200 10.40400 24.80000
H  41.70500 8.60900 23.73800
H  39.98600 8.26100 23.83800
H  41.07300 7.77300 25.18600
H  40.58800 12.24500 24.07800
H  42.26300 12.57100 24.09200
H  41.10100 12.91000 26.80500
H  40.01700 13.65700 25.66600
H  41.79900 14.11400 25.62300
H  45.54000 12.75600 27.53200
H  46.65600 12.12800 28.73600
H  46.09300 13.69800 28.99100
H  43.63200 13.25400 33.43600
H  45.72200 11.25600 36.48000
H  44.12700 11.67100 37.19000
H  45.42600 12.87400 37.05800
Mg 49.69600 47.09400 43.49100
C  46.45600 47.60200 42.30700
C  49.78400 44.07200 41.78000
C  52.99300 46.80500 44.09100
C  49.82500 50.49000 44.13800
N  48.26900 45.96600 42.29100
C  47.03500 46.36200 41.87600
C  46.35300 45.25600 41.04800
C  47.29200 44.05100 41.27300
C  48.57600 44.71900 41.71600
C  46.97500 42.86900 42.20300
C  45.96100 45.59200 39.54000
C  44.46500 45.25800 39.09800
H  44.21200 44.69100 37.65300
N  51.15600 45.53200 43.26400
C  50.98200 44.38500 42.53700
C  52.17900 43.64700 42.51100
C  53.21400 44.35900 43.22700
C  52.51500 45.60600 43.67500
C  52.31800 42.35200 41.77800
C  54.58500 43.91700 43.39300
O  54.93400 42.81700 42.97100
C  55.66600 44.69300 44.08900
N  51.17800 48.42700 44.18600
C  52.47700 48.09400 44.36800
C  53.36600 49.25900 44.74800
C  52.44400 50.48600 44.47200
C  51.05400 49.77200 44.27800
C  53.95500 49.29900 46.20000
C  53.00000 51.38200 43.35900
C  53.27100 52.87500 43.73300
N  48.38100 48.74900 43.39300
C  48.54200 50.00800 43.82400
C  47.34200 50.67300 43.78900
C  46.35900 49.76100 43.40400
C  47.15000 48.61700 43.01900
C  47.07200 52.09000 44.18900
C  44.96800 49.63300 43.01600
O  43.99400 50.37400 43.06200
C  45.02100 48.15700 42.24400
C  44.02100 47.33500 42.96100
O  44.06800 46.91300 44.14100
O  42.98700 47.00800 42.12100
C  42.03600 46.00900 42.59400
H  49.73800 43.13200 41.22600
H  54.06700 46.63600 44.19100
H  49.82700 51.54600 44.41300
H  45.40700 45.05600 41.55100
H  47.44300 43.55100 40.31700
H  46.50900 42.12600 41.55600
H  46.33100 43.04400 43.06500
H  47.82700 42.35000 42.64200
H  46.74100 45.05000 39.00500
H  46.05500 46.66800 39.38800
H  44.01800 46.25100 39.11400
H  44.07000 44.54000 39.81800
H  52.94900 42.32300 40.88900
H  51.37200 41.87500 41.52400
H  52.86400 41.70500 42.46500
H  56.53500 44.05200 44.23900
H  55.19000 44.90800 45.04600
H  55.91500 45.62600 43.58300
H  54.11900 49.21400 43.96200
H  52.27600 51.14800 45.32100
H  55.02400 49.47800 46.08600
H  53.75800 48.29800 46.58400
H  53.41200 49.97800 46.85800
H  52.28300 51.33100 42.53900
H  53.96900 51.04400 42.99000
H  54.31400 53.01400 44.01700
H  52.55900 53.13500 44.51600
H  53.06800 53.52800 42.88500
H  47.83200 52.64300 43.63600
H  47.03700 52.30000 45.25800
H  46.17800 52.42300 43.66200
H  44.65200 48.05100 41.22300
H  41.34300 46.07300 41.75500
H  41.51000 46.33300 43.49300
H  42.45600 45.00400 42.55800

