158

Mg 36.40800 2.00200 30.07800
C  33.89900 2.72400 32.29400
C  38.62600 2.09900 32.60300
C  38.89000 1.39600 27.82600
C  34.10400 2.29100 27.47900
N  36.26400 2.45800 32.21400
C  35.11500 2.62800 32.94200
C  35.42200 2.65700 34.41900
C  36.96500 2.70700 34.48300
C  37.28300 2.46300 32.97600
C  37.54600 4.01900 34.95600
C  34.77200 1.48200 35.13000
C  34.62200 1.51900 36.67400
H  35.43400 2.56200 37.50900
N  38.51500 1.80400 30.22000
C  39.23600 1.80700 31.35700
C  40.57000 1.61900 31.09300
C  40.70100 1.32900 29.64900
C  39.33100 1.47400 29.18700
C  41.70500 1.79800 32.08000
C  41.89900 0.90500 28.69100
O  41.72900 0.54500 27.54500
C  43.29600 0.84600 29.32200
N  36.43900 1.69800 27.96000
C  37.59200 1.60300 27.27300
C  37.30600 1.58500 25.78100
C  35.77100 1.65500 25.64700
C  35.41000 1.92100 27.13700
C  38.04700 2.66100 25.02900
C  35.11400 0.33000 25.13700
C  33.89000 0.48100 24.18700
N  34.38100 2.35200 29.85900
C  33.59500 2.41900 28.80400
C  32.21300 2.73100 29.14700
C  32.26900 2.88500 30.59800
C  33.60000 2.63800 30.92500
C  31.20400 2.79100 28.17600
C  31.52200 3.11000 31.83100
O  30.31400 3.30700 32.02600
C  32.59400 3.08900 32.92300
C  32.59400 4.39800 33.60500
O  33.30100 5.31600 33.22600
O  31.74700 4.49000 34.68000
C  31.85800 5.75000 35.52800
H  39.30700 2.17500 33.45400
H  39.58400 1.32000 26.98700
H  33.41500 2.26200 26.63300
H  34.91800 3.50200 34.88800
H  37.23400 1.84100 35.08900
H  36.91600 4.50500 35.70000
H  37.63200 4.77400 34.17500
H  38.56800 4.01200 35.33200
H  35.45900 0.63900 35.05200
H  33.87800 1.13800 34.61100
H  34.80100 0.52600 37.08600
H  33.58300 1.65800 36.97100
H  42.00100 0.83100 32.48600
H  41.50600 2.48200 32.90500
H  42.59700 2.16800 31.57400
H  43.39500 0.18600 30.18400
H  43.60600 1.86600 29.55200
H  44.01100 0.58000 28.54300
H  37.70800 0.63600 25.42500
H  35.47500 2.48300 25.00200
H  38.60600 2.26200 24.18300
H  38.56900 3.37100 25.67100
H  37.30200 3.31600 24.57700
H  34.75700 -0.21600 26.01100
H  35.84200 -0.36800 24.72400
H  34.13200 0.12000 23.18700
H  33.69300 1.53400 23.98400
H  33.01700 -0.06000 24.55000
H  31.08200 1.86700 27.61200
H  31.43400 3.55800 27.43600
H  30.27800 3.08500 28.67200
H  32.40700 2.32000 33.67200
H  31.12900 6.46800 35.15000
H  32.85000 6.20000 35.48700
H  31.65300 5.66700 36.59500
Mg 0.93800 44.30300 24.75100
C  2.91200 43.92200 27.63300
C  -1.87800 43.78700 26.92200
C  -0.95100 43.80100 22.15800
C  3.73600 44.33100 22.77600
N  0.59800 43.88300 26.98200
C  1.52400 43.88800 27.92500
C  0.93800 43.89200 29.35000
C  -0.58100 43.59800 29.07100
C  -0.66200 43.75200 27.55000
C  -1.10300 42.15500 29.49500
C  1.19500 45.14300 30.22200
C  1.21800 44.94600 31.74900
H  1.09700 43.54000 32.35000
N  -1.14400 44.00800 24.55000
C  -2.12400 43.83300 25.52600
C  -3.47200 43.75900 24.86400
C  -3.22600 43.93800 23.41800
C  -1.69300 43.90600 23.35300
C  -4.78800 43.63900 25.65100
C  -4.12700 44.12700 22.20100
O  -3.67400 44.47100 21.12200
C  -5.61900 44.03800 22.40000
N  1.28700 44.16000 22.70200
C  0.39800 43.86800 21.83500
C  0.93800 43.79900 20.38100
C  2.38300 44.29100 20.54600
C  2.48900 44.38500 22.10000
C  0.64300 42.42500 19.72400
C  2.78700 45.54500 19.88200
C  4.18300 45.56200 19.13400
N  2.98800 44.30200 25.09400
C  4.05500 44.41300 24.19600
C  5.35500 44.40400 25.00600
C  4.89300 44.20900 26.33100
C  3.47800 44.10500 26.34500
C  6.70000 44.55800 24.35000
C  5.34200 44.05500 27.65900
O  6.51800 44.07000 28.08100
C  4.15100 43.89300 28.54700
C  4.34500 42.65200 29.29600
O  4.06400 41.49900 28.94300
O  4.74500 43.00400 30.52000
C  4.74300 41.90500 31.55500
H  -2.73700 43.80400 27.59600
H  -1.49200 43.67800 21.21800
H  4.59400 44.33100 22.10100
H  1.44900 43.06300 29.84000
H  -1.20200 44.40000 29.47000
H  -1.21800 41.53900 28.60300
H  -2.04700 42.29800 30.02100
H  -0.41400 41.66400 30.18200
H  0.39000 45.87000 30.11600
H  2.18200 45.53800 29.97900
H  0.43600 45.61600 32.10600
H  2.15800 45.38800 32.07900
H  -5.44600 44.50000 25.53600
H  -4.74800 43.63700 26.74100
H  -5.35200 42.74900 25.37500
H  -5.77500 43.01800 22.75100
H  -6.01800 44.13600 21.39100
H  -6.03100 44.77300 23.09200
H  0.31600 44.39500 19.71300
H  3.09200 43.52100 20.24200
H  0.22100 41.85400 20.55100
H  1.64100 42.05300 19.49200
H  -0.06000 42.38600 18.89200
H  2.93300 46.29800 20.65700
H  2.02100 45.91500 19.20100
H  4.01400 45.62300 18.05900
H  4.85700 44.73800 19.37000
H  4.85500 46.38000 19.39400
H  6.87800 44.24300 23.32200
H  7.25200 43.85300 24.97200
H  7.10000 45.57200 24.35300
H  4.26000 44.72500 29.24200
H  5.76900 41.55400 31.65800
H  3.96800 41.15100 31.41800
H  4.48300 42.44400 32.46600

