158

Mg 49.21500 44.80100 43.06800
C  45.86300 45.41000 42.02000
C  48.92800 41.62100 41.79400
C  52.50600 44.66900 43.04000
C  49.43000 48.37500 43.69000
N  47.52900 43.62100 42.10300
C  46.30100 44.08800 41.75300
C  45.55100 43.03500 40.95300
C  46.32100 41.76900 41.29500
C  47.68800 42.35300 41.74200
C  45.66100 40.83100 42.30200
C  45.56800 43.38800 39.46200
C  44.39400 42.76000 38.59700
H  44.77200 41.91900 37.32900
N  50.53200 43.32100 42.65100
C  50.21300 42.06400 42.14700
C  51.35800 41.23800 42.24100
C  52.45500 42.09400 42.51800
C  51.87000 43.44600 42.75900
C  51.34500 39.70700 41.91100
C  53.86900 41.67400 42.81100
O  54.15700 40.45800 42.76400
C  55.03000 42.63100 43.12800
N  50.79100 46.36600 43.20900
C  52.08800 45.95600 43.33700
C  52.95100 47.14100 43.84600
C  52.00200 48.38600 44.09000
C  50.63500 47.67200 43.67900
C  53.87700 46.83300 45.03600
C  52.39100 49.66500 43.21700
C  52.63100 50.95000 43.97700
N  47.89600 46.53600 42.95500
C  48.15500 47.84100 43.30500
C  46.93000 48.59500 43.23500
C  46.03300 47.68700 42.73100
C  46.60700 46.43100 42.62400
C  46.77400 50.08400 43.43500
C  44.68100 47.65700 42.20600
O  43.84600 48.55100 41.94500
C  44.51100 46.03600 41.80100
C  43.31200 45.38900 42.36400
O  42.69300 44.38900 41.88400
O  42.92600 46.08500 43.46900
C  41.60200 45.82500 43.98200
H  48.70500 40.60600 41.46000
H  53.59700 44.63000 43.07300
H  49.48000 49.42200 43.99500
H  44.54300 42.83400 41.31400
H  46.48400 41.19200 40.38500
H  45.49800 39.86300 41.82900
H  44.67000 41.18700 42.58500
H  46.23700 40.67400 43.21300
H  46.49000 43.00000 39.03100
H  45.55300 44.47700 39.42400
H  43.71800 43.57400 38.33500
H  43.85400 42.12400 39.29700
H  51.59200 39.08000 42.76800
H  51.88700 39.50300 40.98800
H  50.37100 39.30100 41.63700
H  56.00600 42.19600 43.34300
H  54.80300 43.26400 43.98600
H  55.19400 43.24400 42.24200
H  53.56800 47.40900 42.98900
H  51.96500 48.62800 45.15200
H  53.99300 47.74600 45.62100
H  54.89400 46.78500 44.64600
H  53.61900 45.86300 45.46200
H  51.50200 49.91200 42.63700
H  53.09500 49.45700 42.41100
H  53.07700 50.64400 44.92300
H  51.65800 51.39900 44.17800
H  53.27600 51.66600 43.46700
H  45.79700 50.16600 43.91200
H  46.76700 50.46000 42.41200
H  47.56800 50.58500 43.98800
H  44.32600 46.02400 40.72700
H  41.54600 44.79900 44.34600
H  40.97400 46.31300 43.23600
H  41.49700 46.36000 44.92500
Mg -6.07400 24.97200 24.90700
C  -4.42900 26.22300 27.78700
C  -7.94000 22.81700 26.84600
C  -7.43400 23.55000 22.01600
C  -4.15200 27.09000 23.00000
N  -6.07800 24.46900 27.05400
C  -5.37900 25.14000 28.04100
C  -5.98900 24.81000 29.37500
C  -6.89000 23.53300 29.07400
C  -6.92000 23.52700 27.53300
C  -6.46500 22.13400 29.69100
C  -6.84100 25.96500 29.98600
C  -6.85400 26.03600 31.51100
H  -6.17600 24.91200 32.26400
N  -7.54200 23.41300 24.49700
C  -8.18800 22.68500 25.41700
C  -9.09900 21.74000 24.83300
C  -9.04100 22.01800 23.36800
C  -7.97600 23.01500 23.23300
C  -9.97000 20.80000 25.64300
C  -9.71800 21.23100 22.26600
O  -9.49600 21.35300 21.10100
C  -10.83500 20.20700 22.60600
N  -5.66800 25.12000 22.86300
C  -6.40200 24.52000 21.84600
C  -6.01900 25.02900 20.52800
C  -5.11400 26.25300 20.84600
C  -5.01500 26.18400 22.31700
C  -5.33300 23.97500 19.63500
C  -5.63400 27.67100 20.30400
C  -6.70000 28.29100 21.24200
N  -4.68900 26.39600 25.23000
C  -3.98200 27.15400 24.37200
C  -3.14800 28.11700 25.14900
C  -3.24600 27.74800 26.51700
C  -4.17700 26.72500 26.49100
C  -2.30300 29.21600 24.50700
C  -2.79800 27.98500 27.85800
O  -1.99700 28.76600 28.29700
C  -3.64900 27.07000 28.77000
C  -2.81500 26.28600 29.70500
O  -2.49100 25.13100 29.57000
O  -2.67500 27.04700 30.87100
C  -1.83400 26.59000 32.05000
H  -8.63500 22.23800 27.45700
H  -7.97300 23.29300 21.10100
H  -3.42100 27.69800 22.46200
H  -5.20200 24.46300 30.04400
H  -7.85600 23.71500 29.54700
H  -5.37700 22.17800 29.73600
H  -6.72100 21.30900 29.02600
H  -6.95700 22.02000 30.65700
H  -7.90500 25.76200 29.86200
H  -6.68700 26.95400 29.55500
H  -7.89700 25.99500 31.82700
H  -6.34500 26.98700 31.66500
H  -9.69900 19.78300 25.35800
H  -10.97200 21.08100 25.31800
H  -9.95200 20.91100 26.72700
H  -10.41100 19.33800 23.10800
H  -11.25500 19.99400 21.62300
H  -11.57700 20.73200 23.20800
H  -6.83800 25.38600 19.90400
H  -4.15700 26.03600 20.37400
H  -4.33300 23.73500 19.99500
H  -5.20900 24.31900 18.60900
H  -6.02400 23.13600 19.72000
H  -6.08800 27.58900 19.31600
H  -4.83300 28.40500 20.21600
H  -7.48900 28.78300 20.67400
H  -6.27900 29.05600 21.89600
H  -7.17000 27.55500 21.89400
H  -2.91300 29.76100 23.78700
H  -1.42000 28.71400 24.11200
H  -2.05500 29.87900 25.33600
H  -4.24500 27.75900 29.36900
H  -2.36400 26.34200 32.96900
H  -1.21300 27.44700 32.31000
H  -1.25800 25.71100 31.76200

