158

Mg 0.56500 8.67200 27.23400
C  1.33800 10.63700 29.93000
C  0.14400 5.97500 29.43400
C  0.04000 6.63200 24.59000
C  1.37800 11.33700 25.07100
N  0.92600 8.34500 29.43900
C  0.95900 9.38500 30.37600
C  0.85000 8.81700 31.82200
C  0.69800 7.26500 31.56400
C  0.54100 7.11100 30.02000
C  1.79300 6.34600 32.09700
C  -0.25100 9.44600 32.70200
C  0.09200 9.90500 34.12000
H  1.17800 9.20400 34.87800
N  0.04700 6.61300 27.06000
C  -0.12600 5.65500 28.03300
C  -0.57400 4.41600 27.51700
C  -0.73700 4.60400 26.10900
C  -0.26500 6.00500 25.80500
C  -0.52600 3.27300 28.50300
C  -1.23100 3.62500 25.12800
O  -1.58000 3.90900 23.98300
C  -1.30400 2.23500 25.55700
N  0.81100 8.89000 25.14700
C  0.51300 7.90300 24.29100
C  0.74800 8.43000 22.85900
C  0.74000 10.00200 23.03300
C  1.00800 10.05100 24.50100
C  2.08500 7.99600 22.15200
C  -0.68500 10.63400 22.79100
C  -1.24900 10.99200 21.37200
N  1.27300 10.66000 27.34400
C  1.48700 11.63800 26.43900
C  1.85200 12.83900 27.10300
C  1.79900 12.50700 28.45600
C  1.49800 11.11800 28.57500
C  2.23500 14.13800 26.41900
C  1.90900 13.08600 29.77600
O  2.07700 14.22100 30.12900
C  1.43400 11.90900 30.75400
C  2.59300 11.73800 31.75200
O  3.61300 11.11200 31.56500
O  2.26200 12.48900 32.85200
C  3.14900 12.55900 33.94400
H  0.16700 5.24200 30.24400
H  -0.14400 5.95800 23.75100
H  1.47200 12.09200 24.28700
H  1.78000 8.94700 32.37500
H  -0.26700 6.96400 31.97200
H  2.67300 6.86900 32.47100
H  2.04200 5.48800 31.47100
H  1.22800 5.92100 32.92700
H  -1.01800 8.71200 32.94900
H  -0.81200 10.29300 32.30800
H  -0.86100 9.75300 34.62700
H  0.25800 10.98200 34.09900
H  -0.54300 2.25800 28.10700
H  -1.42600 3.43900 29.09500
H  0.22600 3.27300 29.29100
H  -1.62200 1.56400 24.75800
H  -1.94000 2.03400 26.41900
H  -0.25200 2.06800 25.78900
H  -0.11400 8.13300 22.26100
H  1.50300 10.43400 22.38600
H  2.70000 8.74100 21.64800
H  1.75800 7.18100 21.50700
H  2.76700 7.58100 22.89400
H  -0.71100 11.58900 23.31400
H  -1.41100 10.01300 23.31500
H  -0.56300 10.59300 20.62500
H  -1.27700 12.08100 21.36900
H  -2.24100 10.55300 21.26700
H  1.32300 14.51900 25.96000
H  2.90200 13.84300 25.60800
H  2.80700 14.73100 27.13200
H  0.50600 12.25200 31.21200
H  3.06000 13.57400 34.33400
H  4.17700 12.26600 33.73000
H  2.67100 11.90300 34.67200
Mg 26.05400 1.21600 28.88400
C  27.95100 0.94000 31.77000
C  23.24300 1.50500 30.87200
C  24.12700 1.54500 26.05800
C  28.83800 0.63400 26.91200
N  25.67100 1.33300 31.10500
C  26.65200 1.19400 32.08600
C  26.07200 1.38300 33.48500
C  24.48000 1.32300 33.14400
C  24.44400 1.33300 31.60800
C  23.68300 0.13600 33.76800
C  26.63500 2.64100 34.17500
C  26.94700 2.41300 35.71900
H  26.47700 3.38500 36.82300
N  23.91200 1.38200 28.51600
C  22.98000 1.64300 29.50400
C  21.71000 1.83700 28.83800
C  21.95100 1.83600 27.41300
C  23.37900 1.62800 27.23100
C  20.38300 2.05600 29.64200
C  20.92200 2.04400 26.28500
O  21.21000 1.98700 25.10100
C  19.44600 2.16100 26.61700
N  26.39300 0.72100 26.71700
C  25.45000 1.14500 25.80500
C  26.06600 1.35900 24.41100
C  27.69400 1.14400 24.67500
C  27.65900 0.82000 26.15400
C  25.47200 0.37600 23.35300
C  28.58000 2.34200 24.35000
C  29.88300 2.07600 23.67500
N  28.05400 0.98000 29.22300
C  29.02600 0.62600 28.29800
C  30.28300 0.43900 29.07400
C  29.87500 0.57500 30.40200
C  28.55900 0.83900 30.43300
C  31.62200 0.20700 28.58000
C  30.36500 0.63200 31.77600
O  31.52100 0.58100 32.16900
C  29.12800 0.60900 32.69300
C  28.96000 -0.75400 33.31200
O  28.52300 -1.71900 32.81400
O  29.45800 -0.78600 34.58300
C  28.99300 -1.90900 35.44800
H  22.40400 1.46700 31.57000
H  23.49800 1.83800 25.21500
H  29.76100 0.39800 26.37800
H  26.33300 0.55500 34.14400
H  24.00800 2.28100 33.36100
H  23.44300 -0.56400 32.96800
H  22.81000 0.49900 34.31100
H  24.16800 -0.33500 34.62300
H  25.88500 3.42200 34.04900
H  27.50300 3.00800 33.62700
H  28.03500 2.36900 35.77800
H  26.58500 1.43000 36.02100
H  20.26500 3.13800 29.57400
H  20.35700 1.64900 30.65200
H  19.62100 1.46400 29.13400
H  18.85200 2.17500 25.70400
H  19.34700 3.13600 27.09400
H  19.00800 1.38900 27.25100
H  25.81400 2.37900 24.11700
H  28.00100 0.24500 24.14200
H  25.01400 -0.53500 23.73900
H  26.33500 0.15500 22.72600
H  24.69600 0.86900 22.76600
H  28.83200 2.78300 25.31400
H  27.88300 3.01700 23.85400
H  29.63600 2.21400 22.62300
H  30.19400 1.07100 23.96100
H  30.65800 2.76200 24.01800
H  31.57200 0.04400 27.50300
H  32.01400 -0.68700 29.06600
H  32.28700 1.04200 28.79900
H  29.35000 1.36100 33.45100
H  29.78000 -2.62400 35.21000
H  28.00700 -2.25100 35.13000
H  29.02400 -1.80300 36.53200

