158

Mg 26.78800 49.86600 26.38500
C  24.81600 50.83800 28.93700
C  29.31400 49.08200 28.69300
C  29.00700 49.31600 23.79700
C  24.56100 51.12500 24.07000
N  26.99900 49.80400 28.61700
C  25.98200 50.25900 29.38900
C  26.38300 50.10400 30.90900
C  27.99200 49.83100 30.88400
C  28.10700 49.50000 29.33700
C  28.85400 51.08300 31.16300
C  25.64500 48.85700 31.56000
C  25.10200 49.01600 33.03000
H  26.07000 49.50000 34.12700
N  28.81300 49.15600 26.26100
C  29.64000 48.82500 27.34600
C  30.86000 48.32700 26.86400
C  30.82000 48.44000 25.42500
C  29.51200 49.01000 25.10900
C  31.99700 47.79500 27.71300
C  31.91200 48.16100 24.37400
O  31.82800 48.30000 23.13900
C  33.19600 47.67700 24.89400
N  26.77800 50.21000 24.18000
C  27.78200 49.77400 23.34000
C  27.34900 49.75700 21.85200
C  25.85800 50.27500 21.99700
C  25.65000 50.49800 23.50900
C  28.14500 50.69100 20.89000
C  24.75100 49.28800 21.49300
C  23.63200 49.88300 20.56100
N  25.05300 50.79800 26.46200
C  24.26600 51.38800 25.45200
C  23.08600 52.01600 25.99500
C  23.28400 51.80800 27.40200
C  24.41900 51.05900 27.61100
C  21.91600 52.50400 25.24700
C  22.64400 51.93600 28.62100
O  21.54900 52.41300 28.88600
C  23.66100 51.42300 29.73000
C  24.02100 52.46900 30.72700
O  24.85300 53.37100 30.57500
O  23.30700 52.31900 31.89400
C  23.76000 53.12400 33.10800
H  30.07600 48.83700 29.43600
H  29.59400 49.02700 22.92300
H  23.83100 51.44000 23.32200
H  26.24200 51.04300 31.44400
H  28.27300 49.00400 31.53700
H  28.29300 51.88000 31.65100
H  29.34800 51.50200 30.28700
H  29.58200 50.92700 31.95900
H  26.25500 47.95500 31.60200
H  24.74000 48.64100 30.99200
H  24.71600 48.06400 33.39400
H  24.20100 49.62800 32.98700
H  32.86200 48.45500 27.64600
H  32.28700 46.78000 27.43900
H  31.81200 47.76800 28.78700
H  33.63600 48.50600 25.44900
H  34.01500 47.66200 24.17500
H  33.04700 46.72200 25.39700
H  27.47800 48.75200 21.45000
H  25.70100 51.21300 21.46500
H  29.16900 50.83600 21.23600
H  27.73000 51.68900 21.03200
H  27.99000 50.41900 19.84600
H  24.42400 48.63500 22.30300
H  25.33700 48.64200 20.83900
H  23.80800 50.95700 20.50300
H  22.68900 49.64300 21.05300
H  23.73600 49.39200 19.59400
H  21.94500 52.39400 24.16300
H  21.77500 53.56000 25.47700
H  21.05400 51.94100 25.60400
H  23.16000 50.58400 30.21500
H  24.83100 52.95300 33.21500
H  23.18300 52.74900 33.95300
H  23.59800 54.17500 32.87100
Mg 9.67800 47.66200 26.09200
C  7.76300 48.06700 28.91400
C  12.50300 48.42500 27.79900
C  11.45500 47.21400 23.20800
C  6.72600 47.52100 24.23500
N  10.13800 48.22500 28.13700
C  9.18400 48.25300 29.17300
C  9.90700 48.30000 30.50100
C  11.27200 48.78100 30.03800
C  11.35100 48.47900 28.57000
C  11.69100 50.24900 30.24600
C  9.83300 47.01700 31.38100
C  9.67500 47.35200 32.89400
H  9.46400 46.22500 33.94800
N  11.69100 47.70600 25.58800
C  12.71600 48.06700 26.48000
C  13.95600 48.15500 25.79300
C  13.64600 47.87300 24.43600
C  12.23200 47.53200 24.37900
C  15.37500 48.52000 26.42400
C  14.60600 47.84200 23.17700
O  14.16600 47.73800 22.05100
C  16.14500 47.84500 23.44800
N  9.19700 47.34000 24.08300
C  10.09800 47.15600 23.13100
C  9.41400 46.72700 21.81000
C  7.88500 46.75600 22.17200
C  7.92400 47.21300 23.60300
C  9.83000 47.42000 20.45800
C  7.27700 45.35900 22.07100
C  7.49700 44.36200 23.20900
N  7.61300 48.00200 26.39900
C  6.52900 47.92300 25.55300
C  5.26000 47.98800 26.30100
C  5.70000 47.98300 27.63700
C  7.12900 48.01100 27.64100
C  3.90200 47.91900 25.69600
C  5.27500 47.93000 28.99800
O  4.12700 47.83900 29.41900
C  6.54200 47.95800 29.91300
C  6.49100 46.66500 30.68200
O  6.90200 45.55900 30.37600
O  5.86300 46.85900 31.92200
C  5.80800 45.68200 32.82200
H  13.45100 48.55500 28.32400
H  12.08200 46.94700 22.35500
H  5.88800 47.32000 23.56400
H  9.33800 49.07000 31.02300
H  11.96300 48.18300 30.63300
H  10.79200 50.80800 30.50700
H  12.24900 50.77700 29.47200
H  12.37300 50.36500 31.08700
H  10.69600 46.35800 31.27700
H  9.02100 46.42600 30.95800
H  8.73700 47.90600 32.89800
H  10.46000 48.02600 33.23800
H  15.46900 48.46900 27.50900
H  15.78000 49.47100 26.07900
H  16.07600 47.74500 26.11500
H  16.30800 46.97700 24.08600
H  16.47200 48.74900 23.96200
H  16.83200 47.83600 22.60100
H  9.74000 45.68900 21.73900
H  7.24200 47.43100 21.60700
H  10.17900 48.38900 20.81600
H  9.09200 47.68900 19.70200
H  10.76000 46.95300 20.13200
H  7.72600 44.90000 21.19000
H  6.20000 45.34200 21.90400
H  6.98000 43.41400 23.06400
H  6.99300 44.74100 24.09900
H  8.48900 44.11800 23.58900
H  3.76600 46.84800 25.84500
H  3.79400 48.05400 24.62000
H  3.19100 48.50100 26.28300
H  6.46400 48.73900 30.66800
H  6.73100 45.10400 32.77700
H  4.91600 45.07900 32.65400
H  5.68000 46.00500 33.85500

