158

Mg 25.08600 1.85900 29.26500
C  27.32700 1.38100 32.01600
C  22.54000 1.75300 31.46000
C  23.02100 1.74100 26.61400
C  27.92200 1.34100 27.18600
N  25.02300 1.67500 31.54500
C  26.04100 1.51700 32.46200
C  25.54000 1.69800 33.88500
C  23.98900 1.68300 33.56600
C  23.79100 1.65300 32.07500
C  23.23100 0.64100 34.36300
C  26.02500 2.95900 34.62300
C  25.15900 3.44100 35.78700
H  25.90500 4.22100 36.92700
N  23.03100 1.88400 29.10100
C  22.16200 1.84500 30.07700
C  20.88100 2.08500 29.55400
C  20.92100 1.95500 28.11400
C  22.31500 1.80000 27.89500
C  19.65400 2.05300 30.49900
C  19.84300 1.81700 27.01700
O  20.10100 1.69400 25.80400
C  18.39600 1.74400 27.47400
N  25.43500 1.40300 27.25900
C  24.41600 1.60000 26.33900
C  24.91300 1.55200 24.88300
C  26.51600 1.72000 25.14600
C  26.65900 1.41200 26.59200
C  24.45400 0.40000 24.01500
C  27.08000 3.14600 24.76700
C  26.82600 4.33100 25.65500
N  27.21400 1.48000 29.47000
C  28.16200 1.34900 28.54100
C  29.43100 1.07600 29.18900
C  29.15500 1.11400 30.55300
C  27.77200 1.37300 30.63700
C  30.82800 0.83300 28.64100
C  29.68200 1.02400 31.91100
O  30.81300 0.90900 32.32700
C  28.54600 1.21900 32.89000
C  28.47700 0.23700 34.03100
O  27.67500 -0.73200 34.05400
O  29.37800 0.51000 35.05500
C  29.59200 -0.61300 35.90100
H  21.76400 1.75500 32.22800
H  22.37100 1.90500 25.75200
H  28.73900 1.46200 26.47100
H  25.63600 0.86600 34.58400
H  23.64400 2.66000 33.90400
H  23.64600 -0.33700 34.11900
H  22.15100 0.65200 34.21400
H  23.34400 0.78400 35.43800
H  26.12500 3.73400 33.86400
H  27.05900 2.85200 34.94900
H  24.77800 2.51600 36.21900
H  24.33900 4.10200 35.50600
H  19.20600 3.02000 30.73100
H  19.96500 1.65900 31.46700
H  18.88300 1.36500 30.15300
H  17.93300 0.76200 27.57000
H  17.91300 2.29000 26.66300
H  18.18600 2.32700 28.37100
H  24.59600 2.48100 24.40900
H  27.15200 0.99800 24.63400
H  25.15600 0.18200 23.21000
H  23.45900 0.62100 23.63000
H  24.39500 -0.44900 24.69500
H  26.46900 3.46200 23.92100
H  28.11200 3.02800 24.43700
H  26.82300 3.91900 26.66400
H  25.89500 4.89000 25.56400
H  27.60300 5.08900 25.55400
H  31.02000 -0.16700 29.03200
H  31.57900 1.58300 28.89000
H  30.83300 0.73000 27.55600
H  28.70300 2.16900 33.40100
H  28.79900 -0.65200 36.64800
H  30.51600 -0.54300 36.47400
H  29.64300 -1.50800 35.28000
Mg -12.80600 16.78500 42.64300
C  -9.64400 15.39700 41.76400
C  -11.65600 19.67300 41.07000
C  -15.89900 17.89600 42.56100
C  -13.84300 13.38600 43.12200
N  -10.91400 17.38600 41.40000
C  -9.73800 16.77400 41.50100
C  -8.63200 17.66800 40.90000
C  -9.14600 19.03800 41.05700
C  -10.63700 18.75500 41.24800
C  -8.52000 19.86300 42.23800
C  -8.12900 17.37900 39.49500
C  -6.59100 16.99200 39.29800
H  -6.43000 15.91900 38.24400
N  -13.63600 18.56900 42.08700
C  -13.01300 19.59300 41.38900
C  -13.94700 20.66400 41.15600
C  -15.23600 20.24200 41.64300
C  -14.98600 18.87900 42.15500
C  -13.47100 21.98500 40.67100
C  -16.57500 21.05400 41.49800
O  -16.63300 22.19000 40.99600
C  -17.87400 20.48400 41.85400
N  -14.62000 15.72500 42.64500
C  -15.80200 16.47600 42.72600
C  -17.00400 15.62000 42.95200
C  -16.36400 14.20500 43.18400
C  -14.86400 14.39500 42.96600
C  -17.92700 16.12600 44.12500
C  -16.95100 13.11100 42.22000
C  -16.25800 12.69900 40.86900
N  -11.86800 14.78400 42.80400
C  -12.47400 13.53300 43.03700
C  -11.49100 12.53500 43.00700
C  -10.34400 13.22000 42.57800
C  -10.63600 14.55600 42.33800
C  -11.60700 11.11200 43.29100
C  -8.92000 13.08400 42.23400
O  -8.15600 12.14800 42.32800
C  -8.47200 14.42000 41.56200
C  -7.27300 14.82800 42.25300
O  -7.24100 15.30800 43.39900
O  -6.13100 14.46400 41.61000
C  -4.98600 14.21200 42.51300
H  -11.36100 20.64000 40.65700
H  -16.92700 18.20600 42.76100
H  -14.18600 12.41400 43.48300
H  -7.84700 17.48300 41.63400
H  -9.07700 19.73100 40.21800
H  -8.11500 20.77800 41.80700
H  -7.72400 19.34400 42.77300
H  -9.21700 20.09400 43.04300
H  -8.13800 18.33000 38.96300
H  -8.77500 16.68600 38.95500
H  -6.20000 16.56600 40.22200
H  -6.16000 17.93400 38.95800
H  -13.28700 22.09400 39.60200
H  -12.58800 22.30200 41.22400
H  -14.13600 22.82700 40.86400
H  -18.60500 21.22900 41.54100
H  -18.10400 20.31900 42.90700
H  -18.01600 19.61100 41.21800
H  -17.56300 15.77500 42.02900
H  -16.59000 13.82400 44.18000
H  -18.16800 15.21300 44.67000
H  -18.82600 16.55400 43.68300
H  -17.50200 16.86900 44.80000
H  -18.01700 13.29900 42.09200
H  -16.88400 12.26400 42.90200
H  -15.60200 11.85700 41.09000
H  -15.49400 13.45400 40.68500
H  -16.96000 12.51500 40.05600
H  -11.72100 10.60500 42.33300
H  -12.46500 10.95600 43.94500
H  -10.71700 10.77000 43.81900
H  -8.31700 14.30300 40.49000
H  -5.06300 13.45300 43.29200
H  -4.62800 15.13800 42.96300
H  -4.13200 13.79900 41.97700

