158

Mg 47.24600 16.47400 29.49200
C  45.39800 15.97800 32.48100
C  49.37800 18.41500 31.40500
C  48.88000 17.30800 26.72500
C  44.50200 15.13600 27.64900
N  47.50100 16.97000 31.77000
C  46.63300 16.65000 32.72100
C  47.11500 17.11700 34.15500
C  48.34900 18.03200 33.71800
C  48.41800 17.82800 32.16400
C  48.14200 19.54200 34.11500
C  47.62800 15.97800 34.97700
C  47.03700 15.77600 36.36100
H  47.27200 16.95400 37.32400
N  49.00300 17.43900 29.16900
C  49.66800 18.25400 30.07900
C  50.85500 18.68200 29.47000
C  50.84900 18.32900 28.05800
C  49.53300 17.65600 27.89800
C  51.90400 19.43800 30.22600
C  51.90000 18.56300 26.91900
O  51.68200 18.15300 25.75500
C  53.18300 19.26400 27.16400
N  46.60900 16.48100 27.50200
C  47.59000 16.75200 26.51000
C  47.06600 16.48400 25.07500
C  45.75900 15.66200 25.45900
C  45.62800 15.66700 26.94200
C  46.81900 17.74700 24.24500
C  45.68400 14.22200 24.87100
C  46.35200 13.11400 25.72500
N  45.29800 15.68200 29.91700
C  44.35200 15.09700 29.06600
C  43.33400 14.59800 29.88400
C  43.65400 14.90200 31.18400
C  44.89500 15.55100 31.13800
C  42.07900 13.96200 29.40100
C  43.23600 14.74800 32.54800
O  42.23000 14.29100 33.06200
C  44.35900 15.44300 33.41700
C  43.66200 16.53600 34.18800
O  43.37100 17.65900 33.71900
O  43.63900 16.16100 35.51700
C  43.25500 17.21400 36.51200
H  49.93100 19.13700 32.01000
H  49.43700 17.35400 25.78600
H  43.73900 14.58900 27.09100
H  46.32400 17.53400 34.77800
H  49.30500 17.73600 34.15000
H  49.04300 19.94900 34.57300
H  47.32400 19.72200 34.81300
H  47.90300 19.97000 33.14200
H  48.71600 15.90900 34.99800
H  47.41000 15.01500 34.51600
H  47.23400 14.76700 36.72300
H  45.95200 15.67900 36.32400
H  52.80300 18.82300 30.26700
H  51.64200 19.63200 31.26600
H  52.17800 20.34900 29.69500
H  53.81500 19.22500 26.27600
H  53.57800 18.86800 28.09900
H  52.88400 20.31000 27.23100
H  47.75700 15.82400 24.55000
H  44.92600 16.19600 25.00100
H  45.93600 18.26200 24.62400
H  46.68700 17.55000 23.18100
H  47.69300 18.35600 24.47600
H  46.14100 14.19400 23.88200
H  44.64600 13.95100 24.67800
H  46.70600 13.44900 26.70100
H  47.28900 12.76800 25.28800
H  45.70100 12.24600 25.81900
H  41.88400 14.32800 28.39300
H  41.22800 14.24800 30.01800
H  42.22600 12.88300 29.43200
H  44.68500 14.71300 34.15700
H  43.86400 18.09500 36.30700
H  43.48900 16.86500 37.51700
H  42.18200 17.37100 36.39800
Mg -12.07400 37.67800 41.71300
C  -9.71300 35.24900 40.93100
C  -10.12700 40.08000 40.19600
C  -14.83900 39.76400 41.76200
C  -14.13400 35.11700 43.10200
N  -10.26800 37.59900 40.49400
C  -9.38900 36.52000 40.36400
C  -8.06300 36.95100 39.70500
C  -8.19400 38.52500 39.61300
C  -9.62100 38.71500 40.08300
C  -7.13700 39.16000 40.72500
C  -7.90800 36.36900 38.25400
C  -6.50200 35.82300 37.94100
H  -5.77100 36.39100 36.73800
N  -12.44400 39.66300 41.03600
C  -11.46300 40.51000 40.46500
C  -12.07700 41.78600 40.24600
C  -13.41800 41.77900 40.79100
C  -13.63700 40.39600 41.22100
C  -11.19900 42.88400 39.64400
C  -14.37900 42.92900 40.85900
O  -13.99400 44.05700 40.42400
C  -15.81300 42.85500 41.17600
N  -14.23900 37.39700 42.20000
C  -15.08900 38.45100 42.19500
C  -16.41800 38.01000 42.69300
C  -16.24400 36.48700 43.11900
C  -14.77700 36.30900 42.77600
C  -16.89800 38.89100 43.86700
C  -17.15400 35.51800 42.29700
C  -17.96400 34.61000 43.21400
N  -11.92100 35.63600 42.04100
C  -12.80700 34.76200 42.70100
C  -12.16800 33.49200 42.77000
C  -10.95800 33.56600 42.08700
C  -10.85600 34.92200 41.69400
C  -12.81500 32.34500 43.42200
C  -9.77100 32.86800 41.59600
O  -9.38400 31.72400 41.74000
C  -8.97100 33.93100 40.78800
C  -7.52900 34.05000 41.25100
O  -6.56900 33.88300 40.52700
O  -7.46400 34.37900 42.54800
C  -6.19900 34.74200 43.17300
H  -9.47900 40.93700 40.00500
H  -15.71000 40.41800 41.83600
H  -14.78500 34.38300 43.58200
H  -7.16000 36.70700 40.26400
H  -8.12500 38.86700 38.58000
H  -7.57200 40.12100 41.00000
H  -6.20600 39.26100 40.16700
H  -6.97100 38.52800 41.59800
H  -8.30800 36.89600 37.38700
H  -8.47300 35.43800 38.21300
H  -6.68100 34.75900 37.79000
H  -5.81000 35.77000 38.78100
H  -11.79500 43.62100 39.10700
H  -10.38900 42.46300 39.04900
H  -10.58000 43.40300 40.37700
H  -16.28500 43.79000 40.87300
H  -15.83400 42.61200 42.23800
H  -16.33400 42.06800 40.63000
H  -17.11500 38.14500 41.86600
H  -16.33500 36.31200 44.19100
H  -17.38600 39.76000 43.42500
H  -15.98200 39.26600 44.32500
H  -17.60200 38.36900 44.51500
H  -16.56600 34.91500 41.60600
H  -17.80300 36.09000 41.63300
H  -17.27700 33.98100 43.77900
H  -18.56100 33.96100 42.57300
H  -18.61800 35.26300 43.79100
H  -12.10400 31.53800 43.59800
H  -13.60100 31.91500 42.80100
H  -13.28300 32.59800 44.37300
H  -8.85300 33.71200 39.72700
H  -5.51100 35.30300 42.54000
H  -5.76800 33.78900 43.48000
H  -6.47500 35.35500 44.03100

