158

Mg 2.08700 -1.87300 45.25100
C  5.38800 -0.69200 44.96200
C  0.98900 0.99600 43.43000
C  -0.86000 -3.41100 44.65000
C  3.26000 -4.83900 46.69400
N  3.08100 -0.03300 44.32000
C  4.51000 0.24200 44.35900
C  4.77700 1.70800 43.90700
C  3.30700 2.16500 43.38500
C  2.38000 0.93500 43.75700
C  2.74500 3.51900 43.92300
C  5.92500 1.74900 42.82900
C  6.06600 0.59400 41.88900
H  7.01500 0.73800 40.68600
N  0.29100 -1.25200 44.17300
C  -0.02400 -0.05000 43.62200
C  -1.36700 -0.14500 43.11200
C  -1.98500 -1.27700 43.66200
C  -0.83200 -2.06300 44.17800
C  -2.07100 0.96800 42.40300
C  -3.48200 -1.71900 43.67900
O  -4.32900 -0.97500 43.23400
C  -4.11500 -2.91300 44.43200
N  1.27500 -3.93400 45.51300
C  -0.01500 -4.24500 45.25700
C  -0.31900 -5.60700 46.00800
C  0.97500 -6.08400 46.54600
C  1.94500 -4.91200 46.25900
C  -1.39700 -5.38200 47.11000
C  1.53200 -7.40100 45.95300
C  2.18000 -8.42500 46.95500
N  3.94000 -2.63500 45.74200
C  4.31200 -3.88800 46.33400
C  5.70300 -3.92900 46.53100
C  6.13600 -2.68600 46.07900
C  5.01100 -1.94800 45.56900
C  6.54400 -5.00500 47.23300
C  7.29700 -1.83200 46.03500
O  8.46800 -2.02300 46.41000
C  6.86900 -0.54000 45.30800
C  7.16900 0.62400 46.16400
O  6.80700 0.77500 47.32400
O  7.90600 1.54900 45.46100
C  7.94700 2.84200 46.18200
H  0.62000 1.88100 42.90700
H  -1.81900 -3.93200 44.60300
H  3.65800 -5.68700 47.25500
H  5.10100 2.32800 44.74300
H  3.35300 2.27400 42.30200
H  3.60200 3.96200 44.43100
H  2.01200 3.32400 44.70600
H  2.30400 4.18500 43.18100
H  6.83600 1.96200 43.38800
H  5.90600 2.63000 42.18700
H  5.06600 0.45400 41.47900
H  6.31100 -0.37100 42.33300
H  -2.37800 0.55200 41.44300
H  -1.35800 1.75800 42.16700
H  -2.87000 1.51300 42.90700
H  -3.74200 -3.79700 43.91500
H  -5.19300 -2.87100 44.27500
H  -3.85400 -2.97800 45.48800
H  -0.79100 -6.24900 45.26400
H  0.99600 -6.16900 47.63200
H  -1.07000 -5.74400 48.08400
H  -2.33900 -5.86100 46.84300
H  -1.65300 -4.32900 47.22500
H  2.40600 -7.13100 45.36100
H  0.77500 -7.89900 45.34600
H  3.22900 -8.55200 46.68600
H  1.71800 -9.39700 47.12600
H  2.23200 -8.00300 47.95900
H  6.30200 -4.98200 48.29500
H  7.54700 -4.67000 46.97000
H  6.31700 -5.99700 46.84100
H  7.53500 -0.58100 44.44600
H  8.29300 3.54000 45.42000
H  8.67200 2.73000 46.98800
H  6.94900 3.08700 46.54600
Mg 24.62900 1.80400 30.07700
C  26.94700 1.38500 32.72500
C  22.08200 1.94300 32.45000
C  22.52800 1.92500 27.51900
C  27.38400 1.16700 27.89400
N  24.58900 1.53200 32.34800
C  25.70300 1.53600 33.24300
C  25.24100 1.87500 34.67000
C  23.64600 1.85800 34.58500
C  23.41700 1.89000 33.02900
C  23.01300 0.58800 35.20200
C  25.88100 3.23100 35.15100
C  26.66100 3.24900 36.44800
H  26.14200 4.09600 37.60500
N  22.60400 1.81500 30.00200
C  21.73500 1.88000 31.06300
C  20.37600 1.97900 30.57100
C  20.46900 1.98100 29.13900
C  21.93600 1.95000 28.78100
C  19.08100 2.18600 31.44100
C  19.36600 1.98600 28.09500
O  19.54600 2.08100 26.84400
C  17.95200 1.75500 28.58000
N  24.89600 1.67800 28.03600
C  23.89700 1.76200 27.14700
C  24.30000 1.81400 25.76600
C  25.80800 1.68400 25.93900
C  26.03200 1.36100 27.38400
C  23.65500 0.84200 24.68700
C  26.69200 2.90800 25.41000
C  26.98500 4.02100 26.36600
N  26.71900 1.32400 30.19600
C  27.70900 1.18400 29.23400
C  28.93500 0.92700 29.83700
C  28.70300 1.06000 31.23200
C  27.31500 1.23700 31.39000
C  30.24700 0.56600 29.12200
C  29.40100 1.13800 32.48900
O  30.56400 1.14600 32.75200
C  28.21600 1.28400 33.54700
C  28.25700 0.10900 34.52600
O  27.84300 -1.04200 34.31100
O  28.58800 0.53700 35.76600
C  28.39500 -0.44500 36.87100
H  21.36400 2.14700 33.24700
H  21.88700 2.00100 26.63700
H  28.22300 1.12100 27.19700
H  25.51300 1.07500 35.35900
H  23.26600 2.71200 35.14600
H  22.10300 0.26300 34.69800
H  22.62700 0.75700 36.20700
H  23.74200 -0.21400 35.32000
H  25.17300 4.04700 35.00500
H  26.62200 3.51400 34.40300
H  27.64200 3.64600 36.18800
H  26.91900 2.24400 36.78200
H  18.41000 2.97700 31.10700
H  19.38800 2.62200 32.39100
H  18.47300 1.29400 31.59000
H  17.33500 1.41600 27.74800
H  17.51000 2.68100 28.94800
H  17.95900 0.96000 29.32600
H  24.06400 2.83200 25.45600
H  26.04000 0.73600 25.45300
H  23.17500 -0.10100 24.94900
H  24.42300 0.59600 23.95300
H  22.79900 1.38000 24.28000
H  26.15700 3.34200 24.56500
H  27.66800 2.59300 25.04100
H  26.47300 3.91600 27.32300
H  26.82500 4.94200 25.80600
H  28.02800 4.03800 26.68300
H  31.04700 1.02000 29.70800
H  30.29600 1.04000 28.14200
H  30.34900 -0.51200 28.99200
H  28.45300 2.23500 34.02400
H  27.33000 -0.67400 36.87800
H  28.65200 0.10300 37.77700
H  29.00200 -1.34100 36.73900

