158

Mg -1.74200 17.39400 26.06200
C  -1.81700 15.27200 28.84300
C  -2.34500 20.12100 28.08200
C  -1.42800 19.35000 23.28300
C  -0.91700 14.60200 24.06100
N  -2.30200 17.62200 28.21600
C  -2.16700 16.64100 29.20900
C  -2.45100 17.24100 30.56900
C  -2.87000 18.70200 30.20300
C  -2.47100 18.87200 28.73200
C  -4.40100 18.95700 30.43400
C  -1.26300 17.21300 31.63400
C  -1.62100 16.63600 32.99300
H  -2.30200 17.58600 34.07700
N  -1.93100 19.45600 25.74800
C  -2.15000 20.42300 26.69300
C  -2.17800 21.69000 26.01400
C  -1.87500 21.49500 24.59200
C  -1.72000 20.04200 24.46500
C  -2.38800 23.01700 26.81500
C  -1.77700 22.44200 23.44300
O  -1.42400 22.08200 22.27600
C  -1.88400 23.97700 23.68400
N  -1.34600 16.96000 23.97300
C  -1.37100 17.96100 23.01900
C  -0.97200 17.44800 21.57800
C  -0.47500 15.91700 21.95100
C  -0.92100 15.84100 23.43000
C  -2.17100 17.43800 20.58700
C  1.00100 15.62000 21.68100
C  2.09300 16.60900 22.18100
N  -1.75200 15.38500 26.26200
C  -1.40700 14.36200 25.38500
C  -1.45000 13.10400 26.10000
C  -1.60700 13.42600 27.43300
C  -1.70900 14.78700 27.51300
C  -1.23800 11.76600 25.47300
C  -1.67400 12.80300 28.71500
O  -1.57900 11.61900 29.05800
C  -1.94200 13.99800 29.68100
C  -0.94000 13.83400 30.76500
O  0.21200 14.19200 30.70900
O  -1.54900 13.22900 31.88900
C  -0.66000 13.01600 33.07100
H  -2.55000 21.02900 28.65400
H  -1.21000 19.90800 22.37100
H  -0.56200 13.73900 23.49400
H  -3.32100 16.82800 31.08100
H  -2.38600 19.45800 30.82100
H  -4.84400 19.42100 29.55300
H  -4.51100 19.62900 31.28500
H  -4.92200 18.01000 30.57300
H  -0.94300 18.23600 31.82800
H  -0.37400 16.70600 31.25900
H  -0.69400 16.16000 33.31400
H  -2.35400 15.84100 32.85600
H  -2.38300 22.89400 27.89800
H  -3.39400 23.29600 26.50100
H  -1.72700 23.83600 26.53300
H  -2.11200 24.45600 22.73200
H  -0.98800 24.39800 24.13900
H  -2.73900 24.06800 24.35400
H  -0.16400 18.04700 21.15600
H  -0.98200 15.10200 21.43600
H  -2.91100 18.11600 21.01200
H  -2.72000 16.49800 20.53900
H  -1.78200 17.70800 19.60600
H  1.01800 15.66500 20.59200
H  1.14300 14.58800 22.00100
H  1.57000 17.47100 22.59600
H  2.68400 16.76100 21.27700
H  2.73200 16.17900 22.95200
H  -1.14300 11.01500 26.25700
H  -0.41500 11.80500 24.75900
H  -2.18500 11.47500 25.01800
H  -2.84800 13.89000 30.27700
H  0.41100 12.97700 32.87100
H  -1.04700 12.13000 33.57300
H  -0.82300 13.85200 33.75200
Mg 47.63000 46.71800 44.50700
C  44.26500 46.29100 43.17800
C  48.49500 43.77500 43.09000
C  50.76300 47.65900 44.95100
C  46.47600 50.16300 45.15700
N  46.45900 45.25900 43.13500
C  45.15500 45.30100 42.74100
C  44.89400 43.95200 41.95600
C  46.13100 43.07300 42.19700
C  47.14500 44.10400 42.82700
C  45.90500 41.84900 43.09400
C  44.47800 44.19700 40.46400
C  43.07500 43.62800 39.95400
H  42.96900 42.31600 39.16000
N  49.40600 45.77300 44.24700
C  49.57600 44.51900 43.73000
C  50.99900 44.14600 43.90200
C  51.69800 45.31100 44.43600
C  50.65900 46.32600 44.53500
C  51.51000 42.81000 43.58300
C  53.21600 45.32000 44.74000
O  53.87200 44.28700 44.66600
C  53.85500 46.68600 44.95700
N  48.47100 48.64500 44.85800
C  49.84300 48.73800 44.95600
C  50.23000 50.14200 45.59800
C  48.85300 50.88200 45.72100
C  47.86400 49.83200 45.19700
C  50.91700 50.08100 46.97900
C  48.73900 52.24500 44.97900
C  48.45500 53.49600 45.82600
N  45.76500 47.90900 44.33000
C  45.52800 49.27300 44.61400
C  44.11700 49.48100 44.58400
C  43.52100 48.39600 43.95000
C  44.59100 47.49100 43.82300
C  43.43800 50.63500 45.16200
C  42.27800 47.69200 43.53500
O  41.11100 48.06000 43.56000
C  42.74900 46.26300 43.10000
C  42.18200 45.19700 43.94300
O  41.67800 44.18900 43.45900
O  42.23200 45.29500 45.27700
C  41.99000 44.11300 46.16700
H  48.79300 42.75100 42.85600
H  51.75300 48.02900 45.22400
H  46.15900 51.09400 45.63100
H  44.07600 43.43100 42.45200
H  46.59700 42.68300 41.29200
H  45.10700 41.15100 42.84100
H  45.65100 42.29700 44.05500
H  46.76000 41.18700 43.23200
H  45.25500 43.84900 39.78500
H  44.35700 45.28000 40.43200
H  42.88400 44.42800 39.24000
H  42.28500 43.68200 40.70400
H  51.80800 42.44000 44.56400
H  52.40400 42.91600 42.96800
H  50.81900 42.17400 43.03000
H  53.73800 47.43300 44.17200
H  54.91200 46.48800 45.13500
H  53.55300 47.05000 45.93900
H  50.83500 50.72900 44.90700
H  48.56500 50.94100 46.77000
H  51.93800 50.46100 46.93300
H  50.80700 49.05800 47.33700
H  50.45000 50.73000 47.72000
H  47.94800 52.24300 44.22900
H  49.66500 52.50600 44.46700
H  48.15700 53.22300 46.83800
H  47.74800 54.12600 45.28600
H  49.38100 54.04800 45.98800
H  43.89800 50.93400 46.10400
H  42.40600 50.31900 45.31100
H  43.29900 51.50200 44.51600
H  42.38300 46.03200 42.10000
H  40.99400 44.31000 46.56500
H  42.75800 43.93200 46.91900
H  41.80600 43.16800 45.65800

