158

Mg 9.11100 48.41800 25.61800
C  7.21200 48.39900 28.54700
C  11.83200 49.42500 27.39200
C  10.74300 48.68200 22.78500
C  6.28700 47.56300 23.94000
N  9.45100 48.80900 27.74600
C  8.50700 48.75400 28.78800
C  9.27000 49.12200 30.03600
C  10.55500 49.83600 29.52200
C  10.68300 49.21800 28.14600
C  10.43900 51.39100 29.44900
C  9.50300 47.99100 31.11700
C  8.99300 48.28700 32.57500
H  8.58300 47.14700 33.52800
N  11.12700 48.93400 25.14300
C  12.06500 49.26600 26.03200
C  13.33800 49.33600 25.35200
C  13.07300 49.10100 23.97900
C  11.60800 49.02000 23.88200
C  14.58300 49.59900 26.06600
C  14.08800 48.99700 22.81100
O  13.63300 48.92800 21.67600
C  15.56900 48.86700 23.01300
N  8.51300 48.44800 23.58000
C  9.44500 48.32800 22.57900
C  8.77000 48.07800 21.19600
C  7.37900 47.42800 21.68500
C  7.43800 47.82000 23.20200
C  8.43100 49.25200 20.19800
C  7.31100 45.88900 21.45400
C  6.19400 45.47100 20.39600
N  7.13600 47.99300 26.07400
C  6.10800 47.68700 25.28200
C  4.87700 47.44300 26.06500
C  5.27800 47.69600 27.35400
C  6.60700 48.06600 27.27000
C  3.49300 47.03000 25.55800
C  4.79400 47.72100 28.69500
O  3.77300 47.41500 29.24200
C  6.03500 48.28400 29.55000
C  6.17200 47.31700 30.69000
O  6.60800 46.21300 30.67100
O  5.50300 47.87400 31.76500
C  4.90000 46.92500 32.76700
H  12.67600 49.94700 27.84800
H  11.27100 48.65000 21.83000
H  5.41300 47.15300 23.43000
H  8.61900 49.89100 30.45100
H  11.42100 49.46400 30.06900
H  10.79200 51.75700 28.48500
H  11.01800 51.83600 30.25800
H  9.39700 51.70800 29.49600
H  10.57600 47.84900 31.24100
H  9.07100 47.03800 30.81000
H  8.16900 48.99300 32.46600
H  9.84000 48.81200 33.01700
H  14.56200 49.77000 27.14300
H  15.00900 50.46400 25.55800
H  15.19300 48.72200 25.84900
H  15.83400 47.81000 22.98000
H  16.01600 49.23900 23.93500
H  16.07300 49.31300 22.15500
H  9.42700 47.32800 20.75500
H  6.48000 47.94500 21.34800
H  8.83500 49.02900 19.21100
H  8.69300 50.21100 20.64500
H  7.37700 49.30900 19.92400
H  7.11100 45.37800 22.39500
H  8.21000 45.38100 21.10400
H  5.49600 46.30600 20.34200
H  5.83000 44.59700 20.93700
H  6.63100 45.27000 19.41800
H  3.58900 45.95000 25.43800
H  3.10600 47.60300 24.71500
H  2.79700 47.35100 26.33300
H  5.70900 49.22000 30.00400
H  5.77600 46.57700 33.31500
H  4.29700 46.21000 32.20800
H  4.27700 47.44800 33.49200
Mg -8.63800 40.59300 42.52300
C  -7.65700 37.20000 41.82300
C  -5.83300 41.60900 40.66500
C  -9.85100 43.75500 42.70800
C  -11.77600 39.34900 43.53800
N  -7.03200 39.49400 41.40100
C  -6.73100 38.12800 41.32500
C  -5.36000 37.86800 40.67000
C  -4.73400 39.29400 40.60200
C  -5.91400 40.21200 40.89500
C  -3.59100 39.48700 41.58200
C  -5.45200 37.21700 39.29700
C  -4.69700 35.89000 38.93900
H  -4.05800 35.95500 37.56900
N  -7.92100 42.51400 41.83400
C  -6.74600 42.68200 41.14000
C  -6.53100 44.14800 41.11600
C  -7.64100 44.74400 41.76000
C  -8.51800 43.72000 42.07500
C  -5.31500 44.75300 40.50000
C  -7.76000 46.28700 41.95900
O  -6.93100 47.01800 41.48800
C  -8.89000 46.90500 42.77700
N  -10.54300 41.46100 43.09900
C  -10.76400 42.80100 43.13800
C  -12.22500 43.10100 43.50800
C  -12.81000 41.71400 43.77500
C  -11.65500 40.76800 43.41400
C  -12.37900 44.13000 44.67600
C  -14.08900 41.36300 42.85800
C  -15.24400 40.64600 43.65700
N  -9.50200 38.72700 42.88100
C  -10.78900 38.34900 43.21100
C  -10.82900 36.95200 43.28600
C  -9.64400 36.46000 42.71500
C  -8.82100 37.56900 42.51600
C  -11.93900 36.14700 43.82400
C  -8.98800 35.22300 42.46000
O  -9.38600 34.10200 42.67400
C  -7.64300 35.69300 41.77700
C  -6.43400 35.19800 42.47300
O  -6.05300 35.51000 43.60200
O  -5.80400 34.23000 41.68600
C  -4.55100 33.59700 42.20800
H  -4.93200 41.84300 40.09400
H  -10.19300 44.78000 42.86700
H  -12.75800 38.96300 43.81800
H  -4.91900 37.19300 41.40400
H  -4.25300 39.60200 39.67400
H  -3.69300 40.34000 42.25300
H  -2.72500 39.82700 41.01300
H  -3.22000 38.56600 42.03100
H  -5.21600 38.03700 38.61900
H  -6.49900 36.92900 39.19400
H  -5.50000 35.15700 39.02400
H  -3.90100 35.69700 39.65800
H  -5.52100 45.08800 39.48300
H  -4.55700 43.97200 40.45300
H  -4.97400 45.58800 41.11200
H  -8.89500 47.98600 42.92100
H  -8.90200 46.38800 43.73700
H  -9.81600 46.55700 42.32000
H  -12.81800 43.54000 42.70500
H  -12.98200 41.58800 44.84400
H  -12.89000 45.00700 44.27900
H  -11.40100 44.52600 44.94700
H  -13.05200 43.64000 45.38000
H  -13.88000 40.66300 42.04900
H  -14.48500 42.29100 42.44500
H  -15.41800 39.61800 43.33900
H  -16.20300 41.16200 43.62400
H  -14.82500 40.63600 44.66300
H  -11.54800 35.21400 44.22800
H  -12.67000 35.94300 43.04200
H  -12.61300 36.65500 44.51500
H  -7.60500 35.35600 40.74100
H  -4.00600 33.13200 41.38600
H  -4.90300 32.94400 43.00700
H  -3.91500 34.35200 42.67000

