158

Mg 48.64500 14.93300 28.02100
C  46.91000 15.24200 31.13900
C  51.12900 16.75200 29.41100
C  50.01500 15.20300 25.08000
C  45.60400 13.80900 26.60300
N  48.92300 15.96100 30.10500
C  48.12500 15.93100 31.18700
C  48.78800 16.51600 32.41800
C  50.16800 17.06200 31.80200
C  50.06300 16.59100 30.39000
C  50.35000 18.60300 32.00000
C  48.95400 15.45300 33.56700
C  48.42400 15.85200 34.97500
H  48.36700 17.37200 35.39200
N  50.43900 15.75100 27.34300
C  51.36000 16.41600 28.06700
C  52.51500 16.82400 27.24700
C  52.23000 16.31400 25.95300
C  50.86300 15.70300 26.10900
C  53.70300 17.52800 27.87300
C  53.08900 16.36900 24.64500
O  52.70400 15.99500 23.56500
C  54.40000 17.11600 24.72200
N  47.89800 14.61200 26.11000
C  48.72000 14.72500 25.03500
C  47.93600 14.46800 23.76900
C  46.54700 14.02200 24.22700
C  46.66500 14.11500 25.74800
C  48.02100 15.68200 22.87200
C  46.04100 12.72000 23.65800
C  46.63800 11.47500 24.31500
N  46.66400 14.62800 28.63200
C  45.63200 14.13500 27.93700
C  44.45000 13.97100 28.81500
C  44.96500 14.30500 30.04900
C  46.27000 14.76500 29.92300
C  43.07200 13.63900 28.45900
C  44.56400 14.36600 31.41700
O  43.50600 14.05800 31.94600
C  45.81700 14.96400 32.24500
C  45.38400 16.21000 32.90500
O  45.42200 17.33200 32.38700
O  44.71400 15.91900 34.01100
C  44.05300 17.02900 34.68900
H  51.91300 17.39600 29.81400
H  50.57800 15.16500 24.14600
H  44.58200 13.63000 26.26500
H  48.11100 17.29800 32.76200
H  50.94700 16.51000 32.32800
H  49.38000 19.08000 32.14200
H  50.94300 19.04500 31.19900
H  50.93000 18.69400 32.91900
H  49.95200 15.22200 33.94100
H  48.51500 14.50600 33.25200
H  49.02100 15.33900 35.72900
H  47.43400 15.40000 34.91600
H  54.12100 18.24700 27.16800
H  54.43000 16.76600 28.15200
H  53.46900 17.96400 28.84400
H  54.27700 18.16700 24.98200
H  54.88500 16.90600 23.76800
H  54.96400 16.56400 25.47400
H  48.48700 13.70300 23.22300
H  45.73600 14.69900 23.96000
H  49.05900 15.81400 22.56800
H  47.65500 16.57900 23.37300
H  47.44000 15.48200 21.97100
H  46.22700 12.67400 22.58500
H  44.96200 12.82000 23.78000
H  47.59500 11.73400 24.76700
H  46.72900 10.69400 23.55900
H  46.03900 11.10400 25.14700
H  43.08800 12.62800 28.05300
H  42.76700 14.25600 27.61400
H  42.38000 13.88300 29.26600
H  46.10500 14.29800 33.05800
H  44.79000 17.56400 35.28800
H  43.20400 16.63800 35.25100
H  43.47500 17.73300 34.09100
Mg 50.15400 45.32100 40.57000
C  46.74200 45.34400 39.43200
C  50.34500 42.08800 40.07200
C  53.38600 45.58000 41.24700
C  49.82300 48.95800 40.51600
N  48.67500 43.94800 39.77300
C  47.33500 44.09800 39.45900
C  46.81200 42.74300 38.99800
C  47.80800 41.70200 39.69800
C  49.03200 42.61100 39.82600
C  47.35700 41.17700 41.08600
C  46.75500 42.68200 37.43300
C  45.40600 42.29100 36.80700
H  45.09800 42.86000 35.42000
N  51.63600 43.97800 40.79500
C  51.48800 42.66200 40.62800
C  52.76100 41.94900 40.82600
C  53.63400 42.91800 41.37400
C  52.94000 44.27100 41.17200
C  52.99100 40.45700 40.65000
C  55.01100 42.67000 41.96700
O  55.52200 41.56300 41.99400
C  55.76900 43.86800 42.67600
N  51.39000 47.00300 40.90400
C  52.75100 46.83400 41.26100
C  53.37800 48.31100 41.45400
C  52.27100 49.31400 41.03700
C  51.09300 48.39400 40.72900
C  53.96900 48.46700 42.86200
C  52.56400 50.23300 39.80200
C  52.47800 51.75200 40.11500
N  48.61900 46.88500 40.20500
C  48.65700 48.28800 40.19300
C  47.33100 48.77900 39.74400
C  46.45700 47.72500 39.62900
C  47.37300 46.56100 39.79900
C  46.98000 50.18400 39.74000
C  45.08500 47.23600 39.43900
O  44.01900 47.83900 39.47200
C  45.24600 45.65400 39.33800
C  44.45500 44.99900 40.40300
O  44.84900 44.68200 41.54600
O  43.12600 45.05400 40.01600
C  42.14700 44.95400 41.11700
H  50.44000 41.01200 39.91100
H  54.46100 45.70300 41.39100
H  49.72400 50.03900 40.40400
H  45.84200 42.47100 39.41300
H  48.05700 40.86300 39.04900
H  46.26800 41.20400 41.12800
H  47.77300 41.79000 41.88500
H  47.67100 40.13500 41.14700
H  47.49700 42.07500 36.91500
H  46.95300 43.71000 37.13100
H  44.61100 42.41100 37.54300
H  45.50900 41.21600 36.66000
H  53.96400 40.04500 40.91400
H  52.72400 40.18300 39.62900
H  52.30800 39.93600 41.32100
H  55.14000 44.38300 43.40200
H  56.11700 44.48900 41.85000
H  56.65400 43.43400 43.14000
H  54.21400 48.42100 40.76300
H  52.02000 49.93100 41.90000
H  54.08300 47.48200 43.31400
H  53.30200 49.08300 43.46600
H  54.88600 49.04500 42.75000
H  51.90700 49.95800 38.97600
H  53.61700 50.06700 39.57300
H  52.03900 52.19200 39.22000
H  53.46700 52.10100 40.41000
H  51.84200 52.09500 40.93200
H  46.94100 50.58400 40.75300
H  46.02500 50.30600 39.22700
H  47.72700 50.69100 39.13000
H  44.82800 45.37800 38.37000
H  41.10600 45.06500 40.81200
H  42.37400 45.74500 41.83100
H  42.23700 43.99900 41.63400

