158

Mg 6.23600 53.43700 40.79100
C  5.45100 49.90300 40.62500
C  9.46400 52.63500 40.04600
C  6.81800 56.70000 40.63300
C  2.82000 53.91700 41.39500
N  7.25700 51.42700 40.09600
C  6.77700 50.13900 40.28100
C  7.91800 49.16300 40.34900
C  9.25700 50.05900 40.47600
C  8.63900 51.44500 40.15700
C  10.04300 49.94900 41.80600
C  8.14500 48.20900 39.16400
C  8.06800 48.91400 37.80000
H  6.93600 48.38900 36.91000
N  7.97200 54.57900 40.43900
C  9.20200 54.03500 40.16800
C  10.11900 55.12900 39.93600
C  9.34600 56.31000 40.01200
C  7.99800 55.92800 40.38800
C  11.56200 54.80000 39.81600
C  9.96000 57.66200 39.83900
O  11.20000 57.73000 39.70300
C  9.14900 59.01900 39.90300
N  4.98700 55.00600 40.85600
C  5.46900 56.29500 40.89800
C  4.36600 57.32800 41.25800
C  3.04000 56.47400 41.13500
C  3.59800 55.02000 41.05200
C  4.58700 57.97900 42.66900
C  2.11900 56.87800 39.98700
C  1.87900 56.07600 38.68100
N  4.43900 52.19200 41.02900
C  3.15100 52.57800 41.31200
C  2.31900 51.42500 41.43800
C  3.18900 50.29200 41.24700
C  4.42500 50.89400 40.93600
C  0.87600 51.45900 41.90600
C  3.28100 48.82700 41.18400
O  2.47600 47.93800 41.27800
C  4.73600 48.64300 40.73900
C  4.74200 47.71600 39.50500
O  4.31800 48.04200 38.36500
O  5.01200 46.45000 39.92500
C  4.59400 45.36500 39.03500
H  10.53600 52.45800 39.94400
H  6.92900 57.78200 40.53500
H  1.74800 54.09900 41.49700
H  7.82000 48.53300 41.23300
H  9.93900 49.99800 39.62800
H  11.08000 49.77100 41.51900
H  9.70200 49.11200 42.41600
H  9.99300 50.95000 42.23500
H  7.42200 47.41100 39.33200
H  9.09700 47.68000 39.12100
H  9.03600 48.71100 37.34200
H  7.91500 49.98400 37.94000
H  12.25900 55.61600 39.62700
H  11.73500 54.28300 38.87200
H  11.99300 54.22000 40.63200
H  9.82100 59.82800 39.61500
H  8.79900 59.09000 40.93300
H  8.20800 58.99400 39.35400
H  4.35500 58.06000 40.45000
H  2.43800 56.54200 42.04100
H  4.93800 58.99000 42.46200
H  5.35000 57.45300 43.24300
H  3.76700 57.92400 43.38500
H  2.46500 57.83100 39.58400
H  1.09900 57.06700 40.32100
H  0.88700 55.63600 38.78400
H  2.61900 55.28700 38.54300
H  2.11900 56.73600 37.84700
H  0.27000 50.55800 41.80700
H  0.33200 52.28000 41.44000
H  0.78100 51.49400 42.99100
H  5.34000 48.13100 41.48700
H  5.35600 44.58700 39.07700
H  4.41200 45.63400 37.99400
H  3.59900 45.06300 39.36000
Mg 0.66200 42.34200 25.46400
C  1.57600 42.44100 28.91800
C  -2.28200 40.92600 26.45700
C  -0.03300 41.67500 22.27200
C  3.93300 43.19200 24.70200
N  -0.13800 41.70500 27.50400
C  0.30700 41.99300 28.73200
C  -0.82800 41.70000 29.80600
C  -1.88100 40.91500 29.03200
C  -1.41200 41.12700 27.60800
C  -1.89300 39.43700 29.44300
C  -1.37900 42.97400 30.51000
C  -1.16400 43.04800 32.06800
H  -1.65700 41.97700 32.99500
N  -1.04800 41.64600 24.47900
C  -2.16900 41.03100 25.06600
C  -3.10600 40.78800 24.00500
C  -2.42000 40.99000 22.73900
C  -1.10400 41.47900 23.10000
C  -4.45600 40.41900 24.32000
C  -2.98600 40.86400 21.31500
O  -2.32100 41.22000 20.37300
C  -4.20400 39.93900 21.05700
N  1.82300 42.38200 23.83400
C  1.28300 42.02900 22.61500
C  2.33000 42.27900 21.46500
C  3.45000 43.08000 22.20000
C  3.05500 42.92700 23.63500
C  2.59900 40.95300 20.66100
C  3.51400 44.62200 21.75600
C  4.66600 44.95700 20.79700
N  2.39800 42.78400 26.56800
C  3.68600 43.14700 26.09300
C  4.53200 43.48000 27.22300
C  3.77600 43.21900 28.33500
C  2.47300 42.76900 27.87300
C  5.98500 43.92600 27.29500
C  3.73100 43.16200 29.79500
O  4.60200 43.42800 30.59100
C  2.29900 42.72800 30.21200
C  2.42500 41.48900 31.08400
O  3.02000 40.40800 30.85100
O  1.84500 41.73800 32.30100
C  2.19100 40.80700 33.28900
H  -3.21200 40.38700 26.65000
H  -0.18700 41.44200 21.21600
H  4.94600 43.42600 24.36900
H  -0.30900 41.11500 30.56500
H  -2.88500 41.33300 29.10200
H  -2.93400 39.11700 29.48800
H  -1.40900 39.24300 30.40000
H  -1.52600 38.79500 28.64300
H  -2.44700 43.04200 30.30700
H  -0.98100 43.87100 30.03600
H  -1.65900 43.97100 32.36900
H  -0.15400 43.28900 32.39900
H  -4.83800 41.18200 24.99900
H  -4.56800 39.46600 24.83500
H  -5.19500 40.44800 23.51900
H  -4.29200 39.10400 21.75200
H  -4.02500 39.48200 20.08400
H  -5.20800 40.35000 20.95500
H  1.89400 42.93500 20.71200
H  4.46100 42.69800 22.05800
H  1.99400 40.90100 19.75700
H  2.42500 40.03500 21.22200
H  3.66900 40.96000 20.45000
H  3.43500 45.25200 22.64200
H  2.55800 44.80600 21.26600
H  5.13400 44.08200 20.34600
H  5.43100 45.58900 21.24900
H  4.42600 45.65100 19.99100
H  6.54900 43.05000 27.61600
H  6.27000 44.72700 27.97700
H  6.45200 44.15700 26.33800
H  1.84300 43.64500 30.58800
H  1.56800 41.02700 34.15500
H  3.24500 40.95800 33.52000
H  1.92700 39.77600 33.05100

