158

Mg 6.82900 56.60700 42.61800
C  6.32900 53.08900 42.11500
C  9.97200 56.22500 41.29900
C  7.06900 60.01900 42.36300
C  3.46500 56.89100 43.57400
N  8.01800 54.81400 41.94300
C  7.64000 53.51000 41.74800
C  8.74700 52.61500 41.11800
C  9.95200 53.60900 41.21000
C  9.33700 54.97100 41.56900
C  11.09300 53.05800 42.04300
C  8.31100 52.15100 39.69900
C  8.77600 50.80600 39.26300
H  9.05300 50.53600 37.74300
N  8.31800 57.95200 41.90600
C  9.51600 57.56300 41.40700
C  10.35000 58.72600 41.14500
C  9.57200 59.84700 41.53100
C  8.28300 59.32000 41.94700
C  11.88500 58.57800 40.83400
C  10.04000 61.24000 41.47300
O  11.19100 61.52800 41.22200
C  9.06000 62.38300 41.71500
N  5.38300 58.25700 42.84400
C  5.80700 59.54500 42.89200
C  4.55600 60.48200 43.17400
C  3.37900 59.47800 43.52200
C  4.11800 58.16100 43.36700
C  4.77200 61.61000 44.20500
C  2.12100 59.60500 42.64800
C  0.88000 59.92800 43.51400
N  5.28600 55.31200 42.88700
C  4.04500 55.56900 43.40500
C  3.32600 54.32200 43.58100
C  4.22300 53.39900 43.12900
C  5.32300 53.98800 42.62500
C  1.92500 54.08700 44.19200
C  4.34700 51.95300 42.82000
O  3.49500 51.05100 42.79700
C  5.76200 51.71800 42.19800
C  5.33900 51.16300 40.84800
O  4.67100 51.77900 40.01800
O  5.74500 49.82000 40.73200
C  5.39000 48.98900 39.53100
H  10.96900 56.03100 40.89700
H  7.11100 61.10400 42.47500
H  2.48100 56.86900 44.04600
H  8.89800 51.72900 41.73600
H  10.38500 53.69600 40.21300
H  11.85100 52.73500 41.32900
H  10.85500 52.14100 42.58200
H  11.58100 53.72200 42.75700
H  8.85900 52.81600 39.03200
H  7.27300 52.34700 39.42700
H  8.05400 50.02500 39.50400
H  9.69500 50.54900 39.78900
H  12.08400 57.96300 39.95700
H  12.49300 58.11800 41.61300
H  12.22600 59.58200 40.58200
H  8.77000 62.43300 42.76500
H  8.18900 62.44000 41.06300
H  9.56400 63.34100 41.58300
H  4.24300 61.05700 42.30300
H  3.09600 59.45600 44.57400
H  4.64600 62.62900 43.83700
H  5.79400 61.58800 44.58300
H  4.03900 61.43400 44.99300
H  2.03400 58.69900 42.04800
H  2.23000 60.44500 41.96200
H  0.41200 58.94600 43.58500
H  0.32000 60.68300 42.96200
H  1.17900 60.36800 44.46600
H  1.28500 54.96900 44.18000
H  2.02300 53.81300 45.24300
H  1.37900 53.23200 43.79300
H  6.19100 50.94400 42.83400
H  5.15000 49.67900 38.72100
H  4.39100 48.63600 39.78900
H  6.04200 48.18100 39.19900
Mg -5.20800 24.65000 26.20700
C  -3.16800 26.24000 28.59100
C  -6.25400 22.50400 28.57200
C  -7.14800 23.25200 23.88700
C  -3.84100 26.75500 23.83400
N  -4.58000 24.31700 28.30200
C  -3.88700 25.16900 29.13300
C  -4.15500 24.86400 30.62700
C  -4.72400 23.41000 30.47600
C  -5.29500 23.40900 28.99400
C  -3.57300 22.35500 30.52700
C  -5.22300 25.84300 31.20300
C  -5.14000 26.20400 32.69000
H  -4.61200 25.14300 33.61700
N  -6.57100 23.03500 26.20700
C  -6.85700 22.33300 27.31900
C  -7.87900 21.44900 26.96900
C  -8.24800 21.59000 25.56900
C  -7.30200 22.63200 25.14300
C  -8.62700 20.59700 28.03100
C  -9.33800 20.86900 24.71400
O  -9.36100 21.09300 23.47600
C  -10.24800 19.72900 25.28600
N  -5.41700 24.91400 24.17600
C  -6.35100 24.30200 23.47100
C  -6.27700 24.77200 21.97700
C  -5.45900 26.08500 22.08500
C  -4.79100 25.88200 23.41700
C  -5.63300 23.69900 21.05500
C  -6.32800 27.37900 22.14600
C  -6.19600 28.18000 20.83900
N  -3.65600 26.09500 26.12700
C  -3.30400 26.89500 25.10600
C  -2.36300 27.82600 25.55400
C  -2.33900 27.60800 26.97300
C  -3.05400 26.52200 27.22700
C  -1.57800 28.83800 24.79400
C  -1.85300 28.19100 28.25200
O  -1.08200 29.11800 28.54300
C  -2.36300 27.23600 29.34000
C  -1.25200 26.70600 30.16500
O  -0.27700 26.06300 29.78200
O  -1.54800 26.95200 31.51600
C  -0.65800 26.39000 32.52700
H  -6.60700 21.77200 29.30100
H  -7.69300 22.82100 23.04400
H  -3.31800 27.47200 23.19700
H  -3.29100 24.92900 31.28800
H  -5.55100 23.13600 31.13100
H  -3.35000 22.08200 29.49500
H  -3.66900 21.39300 31.02900
H  -2.63000 22.83700 30.78600
H  -6.19000 25.37100 31.03200
H  -5.19100 26.81300 30.70600
H  -6.14100 26.30900 33.10900
H  -4.54700 27.09800 32.87900
H  -9.65000 20.95800 28.13700
H  -8.18000 20.46500 29.01600
H  -8.73500 19.57800 27.65900
H  -10.76100 20.19900 26.12600
H  -9.68100 18.82000 25.48500
H  -10.99500 19.53200 24.51700
H  -7.27500 24.90500 21.55900
H  -4.67500 26.14200 21.33100
H  -4.86400 24.18600 20.45600
H  -6.45500 23.34900 20.43000
H  -5.22100 22.88000 21.64300
H  -5.99700 27.99400 22.98200
H  -7.38800 27.13700 22.21800
H  -5.79300 27.71100 19.94200
H  -5.62000 29.08200 21.04600
H  -7.22100 28.47900 20.62300
H  -2.27900 29.28200 24.08700
H  -0.86000 28.27600 24.19700
H  -0.99000 29.51400 25.41400
H  -3.02900 27.83700 29.96000
H  0.25000 26.99200 32.49300
H  -0.19000 25.42800 32.31600
H  -1.08500 26.37400 33.53000

