158

Mg 43.17700 42.46300 25.75700
C  42.39400 44.85500 28.26600
C  44.46500 40.49600 28.24900
C  44.35600 40.39300 23.48800
C  42.21400 44.81100 23.37000
N  43.48000 42.76500 27.94700
C  42.94200 43.72700 28.80600
C  43.19000 43.43900 30.36800
C  44.11400 42.10100 30.27900
C  44.03500 41.76500 28.67500
C  45.50700 42.35100 30.90100
C  41.86800 43.39900 31.16600
C  41.49200 42.32900 32.26100
H  40.86000 42.89300 33.46400
N  44.09500 40.59800 25.83800
C  44.47600 39.93800 27.00500
C  44.86800 38.56900 26.63200
C  44.70600 38.53900 25.20900
C  44.42800 39.85900 24.80500
C  45.30800 37.50400 27.67300
C  44.95400 37.38100 24.22800
O  44.86000 37.46100 22.99900
C  45.18100 36.05000 24.80900
N  43.27700 42.59500 23.74800
C  43.84400 41.57300 23.00700
C  43.76100 41.91000 21.51400
C  42.73000 43.11900 21.49500
C  42.75100 43.56200 22.95000
C  45.09600 42.31500 20.88000
C  41.34000 42.74100 20.91800
C  40.36400 42.08200 21.89200
N  42.48400 44.42600 25.78300
C  42.14500 45.26500 24.74100
C  41.69700 46.52400 25.29400
C  41.78500 46.39800 26.65800
C  42.23600 45.08800 26.88600
C  41.25700 47.68700 24.47300
C  41.54300 47.10000 27.87000
O  41.31800 48.26300 28.10400
C  41.84700 46.12600 28.95100
C  42.88200 46.67800 29.90400
O  44.10800 46.59100 29.69300
O  42.38000 47.16600 31.08900
C  43.36400 47.33000 32.15400
H  44.89500 39.90000 29.05600
H  44.74300 39.72900 22.71200
H  41.91000 45.58400 22.66100
H  43.80200 44.24500 30.77300
H  43.73300 41.21600 30.78800
H  45.71800 43.40900 31.05700
H  46.23500 41.82300 30.28600
H  45.72600 41.89600 31.86700
H  41.00800 43.38300 30.49700
H  41.79200 44.42100 31.53600
H  42.37300 41.74400 32.52600
H  40.85800 41.55700 31.82500
H  45.26800 37.89500 28.69000
H  46.31500 37.17700 27.41500
H  44.66000 36.64700 27.86000
H  45.55400 35.37700 24.03800
H  44.28800 35.69500 25.32500
H  46.04800 36.17600 25.45800
H  43.42100 40.98800 21.04200
H  43.11600 43.99600 20.97500
H  45.73600 42.58700 21.71900
H  44.88800 43.25400 20.36600
H  45.52500 41.51700 20.27300
H  41.54700 42.13000 20.04000
H  41.02100 43.73300 20.60100
H  40.22000 41.10400 21.43200
H  39.42200 42.62800 21.84600
H  40.60100 42.05600 22.95600
H  40.16900 47.67400 24.40800
H  41.60900 47.51500 23.45600
H  41.66300 48.65800 24.75900
H  40.87300 46.03300 29.43000
H  44.04300 46.47800 32.18100
H  42.82800 47.43700 33.09700
H  43.79000 48.33100 32.08300
Mg 30.79700 58.39100 40.10900
C  27.98300 56.36300 39.46300
C  32.83800 55.91900 38.60200
C  33.43200 60.59100 40.06100
C  28.65500 60.96900 40.97800
N  30.39100 56.46200 38.96700
C  29.20800 55.77200 38.98400
C  29.37200 54.30600 38.43600
C  30.96200 54.11900 38.39100
C  31.46200 55.60400 38.69100
C  31.49400 53.04200 39.41600
C  28.64100 53.91900 37.10700
C  29.13700 54.95700 36.03000
H  28.11700 55.52900 34.96600
N  32.88300 58.26100 39.45100
C  33.53400 57.13300 38.96700
C  34.98300 57.40500 38.95000
C  35.14800 58.80700 39.38900
C  33.78100 59.32100 39.58900
C  36.04400 56.36700 38.61300
C  36.51700 59.53900 39.50800
O  37.52800 58.88700 39.36900
C  36.61400 61.00300 39.78300
N  31.00500 60.64400 40.31300
C  32.23000 61.21400 40.50300
C  32.09800 62.67500 40.96700
C  30.57700 62.72400 41.38500
C  30.01100 61.34400 40.93900
C  33.16700 63.29200 41.99100
C  29.73300 63.94000 40.94700
C  29.01600 64.64800 42.07500
N  28.77700 58.65000 40.26500
C  27.99900 59.74700 40.58600
C  26.62700 59.35500 40.75800
C  26.57900 58.04600 40.35600
C  27.87900 57.69700 39.98600
C  25.44200 60.19200 41.20500
C  25.68900 56.88100 40.09400
O  24.50900 56.74100 40.38700
C  26.49800 55.82700 39.33900
C  26.32600 54.54900 39.96200
O  26.76100 54.15800 40.98000
O  25.44300 53.76800 39.19500
C  25.45100 52.31700 39.48800
H  33.51400 55.08700 38.39600
H  34.27400 61.28500 40.10700
H  28.11300 61.63600 41.65200
H  28.88900 53.72100 39.21900
H  31.23500 53.80700 37.38300
H  32.10400 52.35900 38.82500
H  30.70100 52.48600 39.91700
H  32.03900 53.56900 40.19900
H  27.57100 53.79800 37.27500
H  29.05700 52.98000 36.74100
H  29.89300 54.46500 35.41800
H  29.46000 55.89600 36.47800
H  36.84400 56.87100 38.06900
H  35.64400 55.60900 37.94000
H  36.45200 55.92800 39.52300
H  36.25600 61.48700 38.87500
H  37.64600 61.31300 39.95000
H  36.06000 61.34000 40.65900
H  32.19700 63.38800 40.14900
H  30.48200 62.65700 42.46900
H  32.70200 63.82500 42.82000
H  33.84900 63.92800 41.42800
H  33.69900 62.41300 42.35600
H  29.02600 63.65100 40.17000
H  30.50300 64.55200 40.47800
H  29.13500 65.72900 42.00900
H  29.23300 64.30000 43.08500
H  27.97400 64.37700 41.90300
H  25.69300 60.83100 42.05100
H  24.57400 59.54900 41.35200
H  25.29000 60.95900 40.44500
H  25.88800 55.81400 38.43600
H  25.56500 51.89300 38.49000
H  24.46500 52.04800 39.86700
H  26.19900 52.00900 40.21900

