158

Mg -0.33600 7.99100 26.53800
C  0.46500 9.80100 29.35700
C  -0.33000 5.19700 28.51600
C  -0.80100 6.13700 23.72100
C  0.22000 10.80100 24.54600
N  0.33200 7.55500 28.69300
C  0.30600 8.47000 29.69400
C  0.17400 7.88100 31.08500
C  0.33600 6.38500 30.72600
C  0.12700 6.33200 29.20800
C  1.70200 5.70000 31.14600
C  -1.15000 8.34900 31.73800
C  -1.25900 8.80700 33.19600
H  0.04400 8.71200 34.01900
N  -0.51900 5.96600 26.17100
C  -0.63000 4.95300 27.12900
C  -1.07100 3.78500 26.58300
C  -1.25500 3.96900 25.19100
C  -0.83000 5.40400 24.95300
C  -1.21900 2.48600 27.45900
C  -1.77400 2.87900 24.12500
O  -1.81500 3.11800 22.95200
C  -2.20600 1.52200 24.62600
N  -0.16600 8.39600 24.36900
C  -0.50200 7.50000 23.42200
C  -0.42700 8.16200 21.99600
C  -0.28200 9.65100 22.30200
C  -0.04900 9.66700 23.85200
C  0.73700 7.59400 21.21800
C  -1.39200 10.44100 21.73800
C  -2.67600 10.69300 22.50500
N  0.28200 9.92300 26.82400
C  0.48200 10.95300 25.93900
C  0.85400 12.13200 26.68100
C  0.77700 11.75000 27.99200
C  0.48300 10.35200 28.10700
C  1.19300 13.45000 26.08000
C  1.02400 12.27300 29.26700
O  1.45900 13.36000 29.57200
C  0.76800 11.07400 30.23700
C  1.95100 10.90900 31.24500
O  2.80200 10.00100 31.32200
O  1.89700 11.92500 32.18700
C  3.08600 11.97200 33.08600
H  -0.27100 4.33500 29.18400
H  -0.96400 5.71200 22.72900
H  0.25500 11.60700 23.81100
H  1.01300 8.11500 31.74000
H  -0.42100 5.71500 31.13300
H  2.47400 6.36300 31.53600
H  2.11700 5.22700 30.25600
H  1.59200 4.93400 31.91400
H  -1.84500 7.52000 31.61000
H  -1.44900 9.20200 31.12800
H  -2.00600 8.10500 33.56600
H  -1.59500 9.83700 33.31000
H  -0.55400 2.49800 28.32300
H  -0.89800 1.63200 26.86200
H  -2.25000 2.31600 27.76700
H  -2.99900 1.50100 25.37300
H  -1.37000 0.91800 24.97900
H  -2.67500 1.07300 23.75000
H  -1.34900 7.90000 21.47800
H  0.57600 10.17400 21.88100
H  0.70600 6.56300 21.57000
H  1.67500 8.10400 21.43700
H  0.39900 7.74900 20.19300
H  -1.65700 10.10600 20.73500
H  -0.99100 11.44800 21.62600
H  -3.58300 10.59700 21.90900
H  -2.70500 11.69700 22.92800
H  -2.71500 9.98600 23.33300
H  1.62000 13.96700 26.94000
H  0.25700 13.93700 25.80800
H  1.92300 13.34600 25.27700
H  -0.01500 11.27300 30.97000
H  4.00300 12.00400 32.49700
H  3.12500 11.11800 33.76200
H  3.08700 12.92200 33.62100
Mg 45.51400 5.04000 47.01000
C  43.71200 7.89600 46.65400
C  42.75400 3.13000 46.48100
C  47.62400 2.35000 46.88200
C  48.47900 7.08800 46.97400
N  43.50400 5.45500 46.56800
C  42.96700 6.66000 46.44400
C  41.52100 6.58700 45.88100
C  41.09400 5.09300 46.14100
C  42.50700 4.50600 46.56600
C  40.09400 5.01700 47.33700
C  41.30700 7.05200 44.41300
C  39.93100 7.83300 44.17600
H  39.26200 7.43200 42.83600
N  45.18800 2.95900 46.77400
C  43.94900 2.35000 46.60100
C  44.17600 0.96000 46.39500
C  45.59800 0.68800 46.56900
C  46.24800 2.03000 46.77700
C  43.02000 0.03200 46.14500
C  46.22000 -0.70800 46.53300
O  45.68000 -1.70700 46.10400
C  47.67700 -0.93000 46.88000
N  47.79100 4.75000 46.98000
C  48.38600 3.48400 46.89000
C  49.92000 3.66200 47.02600
C  50.18600 5.17200 46.94700
C  48.74800 5.71700 46.95400
C  50.57500 2.96300 48.28800
C  50.77400 5.72100 45.66300
C  52.31800 5.95200 45.57100
N  46.03500 7.12000 46.87100
C  47.26500 7.77300 46.91800
C  46.95600 9.20900 46.89400
C  45.54100 9.29400 46.80900
C  45.05800 8.01800 46.87100
C  47.95500 10.30100 47.02200
C  44.44500 10.20300 46.68800
O  44.45100 11.40800 46.59200
C  43.15700 9.32000 46.57100
C  42.21100 9.66100 47.66000
O  42.16500 9.17300 48.72200
O  41.28500 10.48100 47.13400
C  40.21900 10.90600 48.06400
H  41.79900 2.60500 46.41000
H  48.33100 1.51900 46.92100
H  49.35900 7.73100 47.03600
H  40.86500 7.20100 46.49900
H  40.68500 4.61500 45.25100
H  39.77700 6.01500 47.64200
H  40.55100 4.44400 48.14500
H  39.22000 4.38800 47.17300
H  41.36500 6.21000 43.72400
H  42.19700 7.62800 44.15600
H  40.16800 8.88300 44.35100
H  39.28500 7.66000 45.03600
H  42.69300 -0.21700 47.15400
H  43.42700 -0.79100 45.55800
H  42.14600 0.45400 45.64800
H  47.94500 -0.28000 47.71300
H  48.35300 -0.72000 46.05100
H  47.83900 -1.90400 47.34000
H  50.50900 3.25500 46.20300
H  50.73100 5.53100 47.82000
H  51.48700 3.50400 48.54000
H  50.96000 1.97100 48.05200
H  49.91700 2.95100 49.15800
H  50.36200 6.70500 45.43700
H  50.40800 5.08900 44.85400
H  52.74600 5.89500 46.57200
H  52.59900 6.91700 45.14700
H  52.76800 5.10100 45.05900
H  48.80500 9.74100 47.41000
H  47.48600 10.89700 47.80500
H  48.04100 10.93400 46.14000
H  42.78700 9.55000 45.57200
H  39.30400 11.02200 47.48200
H  40.54700 11.76100 48.65500
H  39.97200 10.03500 48.67100

