158

Mg 47.84800 24.86700 28.14800
C  48.60200 27.02100 30.89800
C  47.62700 22.24200 30.49100
C  47.31700 22.82200 25.65200
C  49.03600 27.31400 25.87900
N  48.01100 24.62800 30.42600
C  48.30500 25.68400 31.30600
C  48.28500 25.17400 32.76400
C  48.26200 23.67700 32.56900
C  47.91200 23.50800 31.10500
C  49.62200 22.94600 33.00500
C  47.06100 25.71000 33.57400
C  47.42500 26.67100 34.74600
H  46.42500 26.62300 35.83400
N  47.41300 22.78700 28.12800
C  47.25100 21.92500 29.13900
C  46.68300 20.69700 28.62300
C  46.45900 20.96900 27.27200
C  47.10100 22.21400 26.96100
C  46.46500 19.46700 29.48400
C  45.65300 20.10100 26.27900
O  45.38600 20.41500 25.12200
C  44.88200 18.97500 26.87000
N  48.28700 25.00200 26.06600
C  47.78400 24.04900 25.28400
C  47.81300 24.47400 23.76200
C  48.19400 26.03500 23.93300
C  48.52300 26.10400 25.38600
C  48.61300 23.60000 22.79500
C  46.99000 26.91400 23.50600
C  47.18200 27.87000 22.31900
N  48.65500 26.80700 28.33600
C  49.16300 27.62900 27.27500
C  49.64200 28.84300 27.97200
C  49.37400 28.70500 29.38200
C  48.82800 27.38200 29.56000
C  50.23600 30.02400 27.28900
C  49.46600 29.35000 30.66100
O  49.91400 30.43900 30.96400
C  48.91100 28.24500 31.68800
C  50.05700 28.01000 32.54900
O  50.92100 27.17600 32.49300
O  49.97800 28.96600 33.61100
C  50.99500 28.87700 34.64500
H  47.54100 21.45800 31.24600
H  46.95100 22.19100 24.83900
H  49.36500 28.06300 25.15600
H  49.16700 25.50100 33.31400
H  47.43200 23.22900 33.11500
H  50.09300 22.31600 32.25100
H  49.39900 22.22900 33.79500
H  50.31000 23.69300 33.40200
H  46.64100 24.86500 34.11900
H  46.33200 26.01100 32.82200
H  47.53400 27.68100 34.34900
H  48.37600 26.30600 35.13200
H  45.42800 19.13400 29.52600
H  46.74900 19.62400 30.52400
H  47.07400 18.67700 29.04400
H  45.61500 18.26000 27.24200
H  44.33500 18.57800 26.01500
H  44.22400 19.35500 27.65100
H  46.76500 24.45100 23.46500
H  49.11900 26.24000 23.39400
H  48.92400 22.71300 23.34600
H  49.51900 24.15300 22.54500
H  48.06200 23.36300 21.88500
H  46.74900 27.59800 24.32000
H  46.17600 26.24600 23.22400
H  46.29400 27.81000 21.69000
H  48.06800 27.52600 21.78400
H  47.28800 28.92000 22.59300
H  50.88400 30.41500 28.07300
H  49.50100 30.78800 27.03800
H  50.78200 29.57000 26.46100
H  48.07500 28.68500 32.23000
H  50.83500 28.10000 35.39200
H  50.96300 29.85400 35.12900
H  51.96700 28.82300 34.15400
Mg -1.32800 34.91500 27.53900
C  -3.35500 33.18600 29.83600
C  -0.50300 37.13400 30.14600
C  0.31600 36.75400 25.21600
C  -2.67400 32.94000 24.95800
N  -1.83900 35.03700 29.77100
C  -2.58100 34.20000 30.43700
C  -2.47800 34.46500 31.91500
C  -1.95200 35.94200 31.90700
C  -1.23600 36.01900 30.60000
C  -3.02200 37.08200 32.04400
C  -1.64400 33.32400 32.60900
C  -2.47700 32.67500 33.70600
H  -1.82700 32.25100 35.02700
N  -0.34700 36.76500 27.64500
C  -0.11800 37.50800 28.78500
C  0.72000 38.63700 28.46100
C  1.05900 38.56100 27.04700
C  0.34800 37.31000 26.57000
C  1.12100 39.72900 29.41100
C  1.85100 39.42000 26.12200
O  2.12400 39.16800 24.91100
C  2.47600 40.56000 26.66700
N  -1.05300 34.74100 25.49200
C  -0.31000 35.60600 24.67000
C  -0.19800 35.18100 23.22800
C  -1.03000 33.82600 23.18900
C  -1.66700 33.84700 24.64900
C  -0.61100 36.23300 22.12000
C  -0.30200 32.50900 22.98700
C  -1.01400 31.35900 22.18800
N  -2.64800 33.34700 27.36400
C  -3.11900 32.69100 26.27200
C  -4.05100 31.59100 26.66000
C  -4.15800 31.77000 28.06100
C  -3.32100 32.84100 28.45000
C  -4.76100 30.55100 25.77300
C  -4.78200 31.25100 29.24700
O  -5.60400 30.30700 29.32500
C  -4.28300 32.12500 30.48200
C  -5.56900 32.74100 31.04400
O  -6.11800 33.77900 30.76000
O  -5.83700 32.03800 32.21800
C  -6.57400 32.59100 33.33200
H  -0.36300 37.87800 30.93400
H  0.83300 37.25200 24.39300
H  -3.07800 32.30400 24.16900
H  -3.53000 34.55400 32.18600
H  -1.15100 36.02700 32.64100
H  -3.91300 36.49300 32.26100
H  -3.00300 37.82300 31.24500
H  -2.74200 37.65400 32.92900
H  -0.78000 33.78600 33.08700
H  -1.27500 32.54700 31.94000
H  -2.67900 31.68500 33.29800
H  -3.42800 33.11300 34.00700
H  0.44300 39.81200 30.26000
H  1.24300 40.72200 28.97800
H  2.15400 39.48600 29.66000
H  3.22700 41.01300 26.02000
H  3.12900 40.18600 27.45600
H  1.71200 41.30400 26.89300
H  0.85700 34.99900 23.02300
H  -1.82300 33.91500 22.44600
H  -1.38400 35.85300 21.45100
H  0.26800 36.35600 21.48800
H  -1.05400 37.13700 22.53800
H  -0.06400 32.02400 23.93400
H  0.58800 32.63500 22.37000
H  -2.00500 31.72600 21.92000
H  -1.03100 30.40200 22.70900
H  -0.56200 31.23800 21.20300
H  -4.67000 29.71700 26.46900
H  -4.23600 30.40400 24.83000
H  -5.82700 30.75500 25.66400
H  -3.83400 31.39000 31.14900
H  -5.89600 32.81500 34.15500
H  -7.28700 31.88800 33.76200
H  -7.07800 33.50300 33.01200

