158

Mg 0.57100 6.69900 24.17100
C  1.52500 8.82800 26.78000
C  0.46100 4.00200 26.40100
C  -0.21000 4.68200 21.68200
C  0.88700 9.41900 21.96500
N  1.16600 6.41000 26.19900
C  1.33700 7.40900 27.10100
C  1.57200 6.86600 28.48200
C  1.42000 5.32700 28.28100
C  0.97800 5.18500 26.87000
C  2.72300 4.54400 28.54100
C  0.52500 7.41300 29.48400
C  1.05800 7.73600 30.93300
H  2.22800 6.84400 31.47400
N  0.13500 4.65700 24.08900
C  0.13900 3.75400 25.09000
C  -0.29600 2.45900 24.57600
C  -0.44000 2.60400 23.18300
C  -0.17800 4.05500 22.92000
C  -0.44300 1.24300 25.43800
C  -0.73300 1.55500 22.16800
O  -0.70100 1.73900 21.00700
C  -0.89600 0.07000 22.63600
N  0.29600 7.03300 22.06100
C  -0.04600 6.02200 21.25700
C  -0.03600 6.45300 19.73100
C  0.22600 8.01800 19.87200
C  0.53000 8.16800 21.38000
C  1.08100 5.76500 19.08700
C  -0.96500 8.92300 19.36800
C  -0.59900 9.67700 18.14500
N  1.11900 8.68200 24.26000
C  1.10900 9.70200 23.35100
C  1.50500 10.92400 23.98900
C  1.65000 10.63000 25.33700
C  1.41000 9.29500 25.46800
C  1.80300 12.23300 23.27700
C  1.93800 11.19400 26.60400
O  2.13100 12.33400 26.95400
C  1.73400 10.04700 27.68900
C  2.95800 9.96500 28.39700
O  4.03500 9.56800 28.01600
O  2.77900 10.36100 29.71500
C  3.91900 10.28200 30.63700
H  0.36300 3.13200 27.05400
H  -0.48200 3.99500 20.87800
H  0.90200 10.30400 21.32500
H  2.53600 7.06600 28.95000
H  0.59700 4.78400 28.74600
H  3.05300 4.16400 27.57500
H  2.46500 3.71600 29.20100
H  3.45900 4.98600 29.21400
H  -0.17800 6.62800 29.76300
H  0.08400 8.29200 29.01500
H  0.23800 7.58400 31.63500
H  1.42400 8.74900 30.76400
H  -1.41500 0.77100 25.29300
H  -0.46700 1.37100 26.52000
H  0.37500 0.59300 25.12800
H  -1.77900 -0.01000 23.27000
H  0.04400 -0.35400 22.98800
H  -1.16400 -0.47800 21.73300
H  -1.00100 6.16000 19.31600
H  1.18100 8.22100 19.38700
H  2.00100 5.80600 19.67000
H  1.14500 6.19100 18.08600
H  0.74500 4.73000 19.02700
H  -1.38100 9.59300 20.12000
H  -1.78800 8.27900 19.05700
H  -1.17500 10.59000 18.29700
H  -0.81300 9.17700 17.20000
H  0.41700 10.06900 18.17800
H  1.50000 12.20300 22.23000
H  2.87000 12.44900 23.33100
H  1.29200 13.04200 23.79900
H  0.91300 10.23700 28.38100
H  4.47400 9.37000 30.41900
H  3.52700 10.22000 31.65200
H  4.55200 11.17000 30.65000
Mg 35.25700 1.74300 30.82500
C  32.66100 3.09600 32.78800
C  37.03000 1.39000 33.61400
C  37.77900 0.75700 28.84500
C  33.18100 1.99200 27.96600
N  34.80000 2.07900 33.03100
C  33.69700 2.67200 33.57200
C  33.88100 2.77500 35.14100
C  35.40700 2.37100 35.31400
C  35.75200 1.91100 33.89500
C  36.28100 3.44800 35.92800
C  32.99900 1.76100 35.85500
C  32.11100 2.34700 36.98500
H  32.62100 3.48500 37.89500
N  37.16200 1.11700 31.18800
C  37.75400 1.05700 32.39200
C  39.15700 0.64400 32.25600
C  39.41700 0.55600 30.83500
C  38.06100 0.76100 30.22600
C  40.05700 0.38500 33.45300
C  40.69900 0.19300 30.07700
O  40.71000 -0.06200 28.90700
C  41.98900 0.18900 30.84400
N  35.40500 1.27500 28.68600
C  36.59500 0.94800 28.13000
C  36.49900 1.03100 26.56300
C  34.98000 0.98300 26.38300
C  34.44300 1.46100 27.75600
C  37.18300 2.26900 25.91100
C  34.42300 -0.40000 25.96100
C  32.98900 -0.93500 26.34700
N  33.36300 2.45700 30.42600
C  32.68200 2.50400 29.23300
C  31.36800 3.11600 29.45500
C  31.33200 3.46300 30.81500
C  32.53500 2.93000 31.38600
C  30.27000 3.22700 28.40900
C  30.56400 4.04500 31.85700
O  29.50900 4.62800 31.79900
C  31.41600 3.90700 33.21600
C  31.78000 5.22300 33.69100
O  32.72800 5.87100 33.33700
O  30.86700 5.61800 34.68200
C  31.22000 6.97400 35.25400
H  37.67200 1.28700 34.49200
H  38.57300 0.55300 28.12300
H  32.69700 2.02800 26.98700
H  33.59600 3.81600 35.29400
H  35.60200 1.44700 35.86000
H  35.71700 4.17900 36.50700
H  36.77700 3.91400 35.07700
H  36.92400 2.86600 36.58800
H  33.59300 0.99800 36.35900
H  32.30800 1.30500 35.14600
H  31.91300 1.55700 37.71000
H  31.20000 2.57400 36.43200
H  39.56700 0.29300 34.42200
H  40.87100 1.10800 33.51400
H  40.43600 -0.61000 33.22100
H  41.94900 -0.40500 31.75700
H  42.23700 1.18600 31.20900
H  42.87100 -0.09900 30.27300
H  37.02800 0.16700 26.16200
H  34.63800 1.65200 25.59300
H  38.09900 1.92200 25.43300
H  37.39200 2.99000 26.70100
H  36.54700 2.74600 25.16500
H  35.10400 -1.09900 26.44700
H  34.65200 -0.63500 24.92200
H  32.24100 -0.18400 26.59700
H  33.10200 -1.65900 27.15400
H  32.69000 -1.56000 25.50600
H  29.58100 4.02400 28.68900
H  29.74400 2.28500 28.26000
H  30.68900 3.52000 27.44600
H  30.72800 3.44100 33.92100
H  30.33600 7.25000 35.83000
H  31.55000 7.69400 34.50500
H  32.09300 6.83300 35.89100

