158

Mg 25.85800 0.83600 29.15700
C  27.92500 0.01100 31.85900
C  23.36600 1.20600 31.46000
C  23.84600 1.67000 26.63900
C  28.41300 0.13700 26.91300
N  25.67500 0.63600 31.54800
C  26.69000 0.43300 32.39300
C  26.13300 0.53200 33.81200
C  24.63300 0.94000 33.69700
C  24.50900 0.85500 32.18900
C  23.67000 0.09200 34.47000
C  26.99800 1.49300 34.67600
C  26.41000 2.39000 35.80700
H  27.18600 2.41600 37.11300
N  23.86500 1.28800 29.04300
C  23.00300 1.38600 30.10100
C  21.71500 1.72100 29.54800
C  21.77900 1.96700 28.11800
C  23.20200 1.64500 27.87800
C  20.45600 1.73500 30.46200
C  20.66800 2.32300 27.06800
O  20.87300 2.21300 25.88300
C  19.27900 2.78400 27.45600
N  26.15000 1.08200 26.98200
C  25.10900 1.35800 26.20600
C  25.54000 1.31500 24.71500
C  27.00500 0.85900 24.85900
C  27.20900 0.65900 26.32500
C  24.63300 0.53800 23.76300
C  28.06700 1.80800 24.23300
C  28.14000 3.19200 24.86100
N  27.74400 0.19700 29.30500
C  28.61900 -0.10400 28.29300
C  29.85300 -0.43800 28.95200
C  29.67700 -0.44700 30.29700
C  28.30300 -0.02300 30.49700
C  31.15400 -0.85600 28.20900
C  30.27300 -0.62300 31.62500
O  31.40500 -0.72600 31.97300
C  29.13900 -0.38900 32.62600
C  28.92000 -1.63100 33.35000
O  28.45400 -2.62300 32.88700
O  29.14400 -1.36400 34.71900
C  28.55500 -2.37400 35.61500
H  22.51100 1.41400 32.10800
H  23.12400 1.94900 25.86900
H  29.23900 -0.05300 26.22500
H  26.21900 -0.45300 34.26900
H  24.42700 1.99200 33.89800
H  23.52800 -0.82300 33.89500
H  22.71800 0.53000 34.77000
H  24.13300 -0.21200 35.40900
H  27.31000 2.31400 34.03100
H  27.71800 0.94000 35.27900
H  25.38200 2.06300 35.96500
H  26.33300 3.42500 35.47200
H  20.60900 1.18600 31.39100
H  19.64000 1.22600 29.95000
H  20.17500 2.76800 30.67000
H  19.32900 3.24800 28.44100
H  18.64700 1.90000 27.54100
H  18.97800 3.50800 26.69900
H  25.65600 2.36900 24.46500
H  27.06000 -0.14300 24.43400
H  25.01700 -0.43400 23.45500
H  24.61800 1.16400 22.87100
H  23.68700 0.20000 24.18500
H  27.75000 1.86900 23.19200
H  28.99600 1.27500 24.03500
H  27.51700 3.76500 24.17500
H  29.16200 3.56900 24.89500
H  27.71600 3.28800 25.86100
H  31.42900 -0.12500 27.44900
H  30.93500 -1.78800 27.68700
H  31.89600 -1.15700 28.94900
H  29.40400 0.45500 33.26200
H  29.21000 -2.68200 36.43000
H  28.39800 -3.33600 35.12600
H  27.55000 -2.03900 35.86900
Mg 26.53100 51.15700 25.79200
C  24.29500 52.41000 28.09800
C  28.76100 50.45900 28.30300
C  28.92100 50.67300 23.54100
C  24.40000 52.30500 23.18100
N  26.49000 51.46000 27.86400
C  25.52200 51.97200 28.61200
C  25.71800 51.96200 30.11600
C  27.25600 51.57700 30.09200
C  27.54400 51.16100 28.67000
C  28.25500 52.68400 30.51600
C  24.84100 51.01700 30.88000
C  23.93000 51.54800 32.05600
H  24.12700 50.93500 33.49300
N  28.42700 50.41800 25.93500
C  29.18900 50.22300 27.01700
C  30.49300 49.54100 26.63700
C  30.51300 49.54100 25.21300
C  29.27000 50.29400 24.77900
C  31.50200 49.10600 27.68300
C  31.59100 48.92200 24.25800
O  31.52400 49.11500 23.05300
C  32.81600 48.29100 24.91600
N  26.57100 51.40900 23.70000
C  27.67500 51.09100 23.00000
C  27.46100 51.24500 21.45000
C  26.00400 51.72300 21.32900
C  25.61000 51.73800 22.81300
C  28.48800 52.16400 20.73100
C  25.03800 50.88600 20.50500
C  24.56800 51.58200 19.19000
N  24.69700 52.10700 25.65700
C  23.93400 52.48500 24.53400
C  22.69300 53.14700 25.00000
C  22.84300 53.11700 26.43900
C  24.05100 52.48900 26.68900
C  21.60400 53.69300 24.15100
C  22.10500 53.45700 27.64400
O  20.98100 53.95400 27.87100
C  23.07400 53.04900 28.83300
C  23.62300 54.31100 29.51800
O  24.60000 54.99200 29.16200
O  22.78600 54.55200 30.52800
C  23.15100 55.67000 31.43600
H  29.45200 50.21100 29.11200
H  29.68700 50.59300 22.76600
H  23.70500 52.69200 22.43300
H  25.61900 52.95600 30.55400
H  27.38100 50.70400 30.73300
H  28.94400 53.04100 29.75000
H  28.87300 52.44700 31.38200
H  27.65500 53.57300 30.71200
H  25.46400 50.23600 31.31600
H  24.15900 50.45200 30.24400
H  22.88500 51.47200 31.75600
H  24.12000 52.60900 32.21600
H  31.38100 49.56400 28.66500
H  32.42600 49.61400 27.40900
H  31.49300 48.04500 27.93300
H  33.28400 49.13600 25.42100
H  33.51200 48.03500 24.11700
H  32.39100 47.37400 25.32300
H  27.51800 50.20900 21.11700
H  25.82100 52.70800 20.89800
H  28.86400 51.60100 19.87700
H  29.26600 52.41900 21.45100
H  28.00600 53.07200 20.37100
H  24.22400 50.58800 21.16600
H  25.44200 49.91900 20.20700
H  24.57200 50.83400 18.39700
H  25.16700 52.46600 18.97300
H  23.50400 51.81600 19.19300
H  21.26700 52.97200 23.40700
H  21.90800 54.60600 23.64000
H  20.78100 53.97600 24.80800
H  22.49900 52.38700 29.48000
H  23.66400 56.49000 30.93400
H  23.91700 55.35800 32.14600
H  22.19000 55.92000 31.88700

