158

Mg 47.30800 44.16800 42.37800
C  43.81000 43.77700 41.86800
C  47.58800 40.72800 42.07000
C  50.69000 44.45100 41.95600
C  46.85400 47.51100 42.36100
N  45.81700 42.39700 41.90300
C  44.47900 42.52700 41.86400
C  43.83600 41.12100 41.81800
C  45.01700 40.23200 42.38100
C  46.22400 41.13100 42.06200
C  44.93800 39.74500 43.84100
C  43.28200 40.74400 40.42900
C  43.95700 39.74300 39.46000
H  43.76500 39.90500 37.95300
N  48.89700 42.80700 41.94700
C  48.77100 41.43900 41.91500
C  50.10600 40.87800 41.82600
C  51.04300 41.93100 41.69800
C  50.19700 43.11700 41.80800
C  50.34800 39.45400 41.58900
C  52.54400 41.78200 41.51400
O  53.02600 40.66100 41.43500
C  53.46800 42.91800 41.67100
N  48.56400 45.72400 42.11200
C  49.92300 45.60800 42.06800
C  50.60700 47.04100 42.17900
C  49.31000 48.02800 42.25700
C  48.21500 47.05800 42.22500
C  51.66700 47.26000 43.36100
C  49.11600 48.96400 40.99100
C  49.05400 50.47800 41.27300
N  45.70100 45.45200 42.29300
C  45.65100 46.82100 42.30900
C  44.29500 47.26200 42.23700
C  43.52100 46.10000 42.12100
C  44.42800 45.02600 42.11500
C  43.73200 48.62600 42.25900
C  42.18600 45.53100 41.98400
O  41.08500 46.03700 42.00500
C  42.32900 44.00400 41.88800
C  41.65400 43.43100 43.16100
O  40.57800 42.88900 43.13000
O  42.31400 43.71500 44.33400
C  41.68100 43.62200 45.60300
H  47.74100 39.66000 42.23700
H  51.73800 44.73500 41.83700
H  46.71800 48.58200 42.53000
H  43.00700 41.09000 42.52600
H  45.07400 39.31500 41.79400
H  44.04200 40.12000 44.33700
H  45.74600 40.27100 44.35000
H  45.01200 38.65800 43.82500
H  43.22900 41.59300 39.74800
H  42.28500 40.47000 40.77400
H  43.67500 38.71900 39.70600
H  45.04500 39.73900 39.53400
H  50.90800 39.44400 40.65400
H  49.43100 38.88600 41.43000
H  50.97800 38.99800 42.35300
H  53.31400 43.67600 40.90200
H  54.42400 42.44300 41.45300
H  53.31500 43.28100 42.68700
H  51.16000 47.30000 41.27600
H  49.27300 48.59600 43.18600
H  51.45300 48.17400 43.91500
H  52.68100 47.38600 42.97900
H  51.71300 46.33400 43.93400
H  48.27500 48.77700 40.32400
H  49.98200 48.82200 40.34500
H  48.04200 50.85200 41.12200
H  49.60800 51.07900 40.55300
H  49.42800 50.67700 42.27800
H  42.98500 48.79700 41.48400
H  44.43600 49.36900 41.88400
H  43.27300 48.73500 43.24200
H  41.84300 43.51200 41.04500
H  41.68700 42.53800 45.71100
H  40.70000 44.09600 45.57200
H  42.36500 43.89100 46.40800
Mg 36.86100 49.10000 24.60900
C  36.96100 47.42300 27.64300
C  34.89700 51.57600 26.17100
C  36.31600 50.54900 21.69400
C  38.34000 46.37300 23.11700
N  36.14000 49.54000 26.69900
C  36.30300 48.67000 27.72300
C  35.79800 49.24300 29.03000
C  35.08400 50.54500 28.56800
C  35.39400 50.60800 27.08100
C  33.60100 50.77700 29.02600
C  37.00200 49.41300 30.01500
C  36.76800 49.19200 31.59400
H  35.28300 49.07800 32.03200
N  35.84300 50.85400 24.09000
C  35.11600 51.70700 24.79400
C  34.64100 52.81700 23.98200
C  35.17400 52.60300 22.65600
C  35.84200 51.30000 22.76500
C  33.70600 53.91100 24.53100
C  34.86300 53.37900 21.38300
O  35.22500 53.02000 20.28600
C  34.20800 54.74500 21.50500
N  37.30800 48.52600 22.69300
C  36.95100 49.25600 21.66200
C  37.32500 48.61900 20.32300
C  38.23700 47.40300 20.71900
C  37.94100 47.35000 22.29000
C  36.08000 48.14300 19.47700
C  39.78500 47.71100 20.30400
C  40.84000 48.06500 21.38800
N  37.62500 47.25700 25.22800
C  38.06900 46.19100 24.48000
C  38.29000 44.98600 25.27700
C  37.83800 45.47100 26.57200
C  37.51500 46.81900 26.45200
C  38.91100 43.70000 24.71300
C  37.69400 45.15800 27.90800
O  37.71100 44.04000 28.43600
C  37.19400 46.34200 28.75600
C  36.00600 45.84400 29.52300
O  34.82000 45.78600 29.13200
O  36.48300 45.41200 30.77400
C  35.44200 44.75000 31.68400
H  34.28600 52.30700 26.70300
H  36.11400 50.91100 20.68400
H  38.78900 45.54200 22.57000
H  35.08900 48.51000 29.41500
H  35.58200 51.38900 29.04600
H  33.47900 51.78700 29.41800
H  33.36000 50.07300 29.82200
H  32.85600 50.64100 28.24200
H  37.46400 50.39000 29.86900
H  37.78800 48.73800 29.67600
H  37.28700 49.96000 32.16700
H  37.27100 48.25300 31.82500
H  34.18800 54.78000 24.08300
H  33.76100 53.99800 25.61600
H  32.67500 53.81100 24.19300
H  33.23800 54.66400 21.99600
H  34.24500 55.26800 20.55000
H  34.88600 55.26500 22.18100
H  37.89300 49.27700 19.66500
H  37.79200 46.48500 20.33400
H  35.25300 48.37100 20.15000
H  36.01800 47.09100 19.19900
H  36.03300 48.85000 18.64900
H  39.81200 48.55200 19.61200
H  40.06600 46.84900 19.69900
H  41.72500 47.45000 21.22200
H  40.45300 48.04300 22.40600
H  41.16200 49.10400 21.31400
H  39.53100 43.78500 23.82100
H  38.02600 43.21600 24.30100
H  39.39300 43.10800 25.49100
H  37.95300 46.53900 29.51200
H  34.77000 45.52800 32.04700
H  35.80800 44.28000 32.59700
H  34.96300 44.02300 31.02900

