158

Mg 53.88400 23.42400 44.35300
C  51.21400 25.82400 43.18700
C  51.89600 21.07500 42.78000
C  56.46300 21.44000 44.24400
C  55.61600 26.15100 45.33100
N  51.81500 23.50400 43.11000
C  51.00400 24.53100 42.72900
C  49.95500 24.02600 41.76100
C  49.86200 22.57600 42.29400
C  51.22900 22.33300 42.83600
C  48.74100 22.28100 43.30500
C  50.52900 24.09500 40.25000
C  49.72100 24.99200 39.20200
H  50.51800 25.56800 37.94600
N  54.08600 21.49900 43.78500
C  53.17400 20.68900 43.21600
C  53.79700 19.34800 42.94100
C  55.12900 19.48200 43.41900
C  55.29200 20.83200 43.81500
C  53.14700 18.15900 42.37900
C  56.05000 18.24900 43.45100
O  55.69700 17.18300 43.02400
C  57.36700 18.29700 44.18900
N  55.90300 23.89600 44.33400
C  56.73000 22.80100 44.52500
C  58.12600 23.32000 45.04400
C  57.77100 24.76800 45.44500
C  56.37900 25.06300 44.93100
C  58.77500 22.48200 46.23800
C  58.65900 25.83100 44.76000
C  58.90300 27.13900 45.56800
N  53.50300 25.56600 44.41500
C  54.33300 26.49400 44.99000
C  53.63200 27.71500 45.08600
C  52.46700 27.49100 44.30400
C  52.39400 26.16100 43.96600
C  54.03400 28.99700 45.77400
C  51.32800 28.11500 43.74400
O  51.01700 29.29000 43.79800
C  50.41200 27.06500 43.03200
C  50.07300 27.53100 41.67600
O  50.88200 27.80800 40.80100
O  48.73000 27.78600 41.66600
C  48.22400 28.38600 40.38100
H  51.40100 20.17400 42.41100
H  57.34100 20.79800 44.34400
H  56.08900 26.94900 45.90700
H  49.00400 24.54700 41.87500
H  49.59200 21.98500 41.41900
H  49.37200 22.03500 44.15900
H  48.12500 21.44600 42.97100
H  48.12100 23.16700 43.44300
H  50.45700 23.09300 39.82700
H  51.57700 24.38300 40.33600
H  49.28500 25.81300 39.77200
H  48.86900 24.38600 38.89400
H  53.19800 17.33000 43.08500
H  53.78300 17.80600 41.56700
H  52.14200 18.32300 41.98800
H  57.08500 18.60500 45.19600
H  58.09500 18.96400 43.72900
H  57.71000 17.27200 44.32900
H  58.77600 23.25200 44.17200
H  57.79200 24.86200 46.53100
H  58.07400 21.65000 46.30300
H  58.89600 23.03400 47.17100
H  59.72100 22.03400 45.93300
H  58.20700 26.08000 43.80000
H  59.62200 25.34800 44.59700
H  58.37800 27.32600 46.50500
H  58.61700 27.93200 44.87800
H  59.92900 27.43000 45.79100
H  55.11300 29.08100 45.91100
H  53.71000 28.85900 46.80600
H  53.45400 29.76300 45.26000
H  49.49700 26.99300 43.61900
H  49.03900 28.90500 39.87800
H  47.42300 29.07600 40.64600
H  47.62300 27.69500 39.79000
Mg 16.83300 51.84700 26.45600
C  18.70400 50.68200 29.13200
C  14.51600 52.89500 28.94200
C  14.93200 52.83500 24.08100
C  19.13200 50.55300 24.23000
N  16.72100 51.94700 28.75500
C  17.58800 51.37100 29.60900
C  17.28700 51.71500 31.10300
C  15.75800 52.17000 31.01600
C  15.62500 52.31700 29.49600
C  14.68600 51.07900 31.47300
C  18.27200 52.80100 31.69900
C  18.65300 52.62000 33.24800
H  17.69800 51.77500 34.13200
N  15.05000 52.81900 26.45100
C  14.28900 53.23200 27.56400
C  13.11900 53.99600 26.99700
C  13.14600 53.90300 25.56600
C  14.40600 53.18100 25.29000
C  12.10000 54.61000 27.96400
C  12.09600 54.23600 24.54200
O  12.19200 53.91400 23.37000
C  10.89000 54.97300 25.01000
N  16.97000 51.67000 24.38400
C  16.11100 52.32300 23.58400
C  16.48000 52.10600 22.12100
C  17.94900 51.62500 22.24900
C  18.07700 51.36100 23.69700
C  15.63700 50.98300 21.43700
C  18.97500 52.64100 21.72500
C  20.25600 52.06300 21.13400
N  18.54800 50.87500 26.64300
C  19.38200 50.38900 25.64300
C  20.56100 49.82400 26.24400
C  20.25300 49.88500 27.61200
C  19.07700 50.57100 27.78200
C  21.79200 49.35900 25.56800
C  20.89800 49.51700 28.86100
O  21.98700 49.00900 29.09400
C  19.74800 50.05400 29.89200
C  19.20200 48.96900 30.77900
O  18.17100 48.31600 30.53400
O  19.90600 48.95400 32.01400
C  19.36100 48.02900 33.01700
H  13.76000 53.23300 29.65400
H  14.31000 53.26500 23.29300
H  19.95800 50.32100 23.55400
H  17.51800 50.83600 31.70500
H  15.46700 53.13600 31.42800
H  14.07300 51.48900 32.27600
H  15.12500 50.18300 31.91100
H  13.98500 50.90600 30.65700
H  17.83200 53.79400 31.60900
H  19.11800 52.95400 31.02900
H  18.50200 53.63600 33.61200
H  19.71100 52.37900 33.35000
H  11.73500 55.62000 27.77400
H  12.62900 54.70600 28.91200
H  11.25200 53.94800 28.14200
H  11.12700 55.89000 25.54900
H  10.36800 54.32400 25.71400
H  10.20800 55.18900 24.18700
H  16.43100 53.08700 21.64800
H  18.05600 50.62700 21.82500
H  15.18700 50.42500 22.25800
H  16.14900 50.31400 20.74600
H  14.83500 51.41300 20.83800
H  19.29400 53.27600 22.55200
H  18.35600 53.22800 21.04700
H  21.12400 52.32300 21.74000
H  20.39700 52.47500 20.13500
H  20.17500 50.97600 21.15200
H  22.05800 50.17500 24.89600
H  21.42400 48.64000 24.83600
H  22.63800 49.13500 26.21800
H  20.30200 50.72800 30.54600
H  18.30900 47.90000 32.76100
H  19.36000 48.32600 34.06600
H  19.84600 47.05900 32.90700

