158

Mg -2.73800 17.68800 26.99700
C  -3.23200 15.50700 29.58700
C  -3.35500 20.25200 29.20700
C  -2.25700 19.85100 24.51700
C  -2.39700 15.00600 24.78800
N  -3.08400 17.86800 29.15900
C  -3.25700 16.78600 30.01000
C  -3.63900 17.30300 31.44500
C  -4.05100 18.77000 31.23800
C  -3.48700 18.98800 29.79000
C  -5.57600 19.06800 31.39600
C  -2.67300 16.92700 32.52800
C  -2.35700 17.79000 33.69500
H  -1.89600 17.19700 34.94000
N  -2.69300 19.77600 26.94500
C  -2.97600 20.70000 27.91700
C  -2.57600 22.05000 27.43000
C  -2.19200 21.91000 26.07400
C  -2.37600 20.46100 25.76900
C  -2.58100 23.26700 28.36000
C  -1.64300 22.95000 25.15300
O  -1.39600 22.77000 23.96000
C  -1.48200 24.29200 25.65100
N  -2.61200 17.46700 24.86800
C  -2.23900 18.53000 24.13400
C  -1.97300 18.17000 22.66400
C  -1.89000 16.62100 22.83600
C  -2.37800 16.32800 24.22600
C  -3.11900 18.64100 21.66000
C  -0.44800 16.06800 22.64000
C  0.54200 16.27400 23.80000
N  -2.98700 15.68700 27.03100
C  -2.79400 14.70900 26.09500
C  -3.01600 13.42800 26.69300
C  -3.18700 13.70600 28.00500
C  -3.11200 15.06700 28.19800
C  -3.11100 12.08700 26.03100
C  -3.46100 13.03400 29.25500
O  -3.66500 11.87600 29.50900
C  -3.46800 14.18000 30.35900
C  -2.35300 13.85800 31.31500
O  -1.23900 14.30200 31.15300
O  -2.88400 13.16100 32.39200
C  -2.00900 13.09700 33.55100
H  -3.51000 21.09000 29.89000
H  -2.02900 20.55200 23.71100
H  -2.35700 14.11400 24.16000
H  -4.45100 16.63200 31.72400
H  -3.45700 19.41900 31.88100
H  -5.79000 19.39400 32.41400
H  -6.03500 18.09100 31.24700
H  -5.96600 19.70600 30.60400
H  -1.66500 16.80900 32.12900
H  -3.10800 16.07200 33.04400
H  -3.25800 18.38800 33.83300
H  -1.59200 18.53100 33.46700
H  -3.21300 24.09800 28.04600
H  -1.57900 23.68700 28.26400
H  -2.91900 23.00100 29.36100
H  -0.68800 24.18400 26.39000
H  -2.42900 24.64400 26.06000
H  -1.03000 24.92800 24.89000
H  -0.99100 18.62200 22.52100
H  -2.45700 16.16000 22.02800
H  -2.80900 19.49200 21.05400
H  -3.97100 19.05500 22.20000
H  -3.54000 17.83000 21.06600
H  0.01300 16.72100 21.89900
H  -0.44400 15.05500 22.23800
H  0.07800 16.29200 24.78600
H  0.87100 17.29200 23.59300
H  1.30300 15.51100 23.63400
H  -2.40700 12.04400 25.19900
H  -4.06800 11.91700 25.53900
H  -3.06300 11.24500 26.72100
H  -4.35000 14.16200 30.99900
H  -1.03200 12.68500 33.29700
H  -2.49000 12.38500 34.22200
H  -1.73100 14.08500 33.91800
Mg 16.83500 52.27900 25.49800
C  18.53700 50.72200 28.32100
C  14.18000 52.85500 27.71800
C  14.94200 52.99300 22.79800
C  19.39700 51.05100 23.50500
N  16.51700 51.95800 27.81000
C  17.34400 51.35900 28.71600
C  16.79500 51.57500 30.16400
C  15.33400 51.88100 29.77900
C  15.36100 52.29100 28.38000
C  14.25700 50.76600 30.08600
C  17.51000 52.76200 30.82700
C  17.37600 52.88500 32.35000
H  16.61900 51.85900 33.10100
N  14.91400 52.92800 25.36800
C  13.94000 53.09800 26.31700
C  12.68300 53.68500 25.66900
C  12.95700 53.66500 24.26700
C  14.30600 53.19000 24.05000
C  11.37700 54.00700 26.37600
C  12.00200 54.17400 23.09600
O  12.41500 54.23100 21.98700
C  10.62500 54.70400 23.41500
N  17.19600 52.24700 23.49200
C  16.28300 52.60000 22.50700
C  16.78700 52.29700 21.07200
C  18.29600 51.91900 21.29400
C  18.37500 51.80300 22.88100
C  15.99500 51.28800 20.23700
C  19.36000 52.80100 20.66400
C  20.31900 53.62400 21.50700
N  18.68200 51.27700 25.78400
C  19.57100 50.83000 24.83000
C  20.62900 49.94500 25.48000
C  20.29500 50.01300 26.79900
C  19.07700 50.75800 26.95300
C  21.87500 49.30600 24.80100
C  20.68200 49.54900 28.12800
O  21.65500 48.84800 28.42700
C  19.64200 50.07700 29.12000
C  19.40900 48.98100 30.07500
O  18.85600 47.89900 29.81300
O  20.10400 49.24100 31.31600
C  19.88700 48.35000 32.49900
H  13.35200 53.16200 28.36100
H  14.32400 53.05400 21.90100
H  20.12100 50.69100 22.77100
H  16.76500 50.64700 30.73500
H  14.97100 52.79400 30.25100
H  14.17000 50.10900 29.22100
H  13.28100 51.16700 30.35700
H  14.59800 50.10000 30.87800
H  17.13500 53.60700 30.25000
H  18.58700 52.74200 30.65800
H  16.96600 53.81700 32.73900
H  18.40500 52.90400 32.70800
H  10.72300 53.16800 26.13900
H  11.04400 54.95000 25.94400
H  11.42800 54.12100 27.45900
H  10.68200 55.56600 24.08000
H  10.06000 53.84700 23.78200
H  10.20900 54.96900 22.44300
H  16.76600 53.26800 20.57700
H  18.45700 50.89100 20.97000
H  16.60400 50.57100 19.68600
H  15.53300 51.88600 19.45100
H  15.25200 50.79000 20.86000
H  18.87100 53.41800 19.91000
H  20.04000 52.14700 20.11800
H  19.92600 53.77200 22.51300
H  20.50300 54.62400 21.11600
H  21.28800 53.12600 21.46600
H  22.75000 49.76000 25.26700
H  21.92000 49.52000 23.73300
H  21.88900 48.21900 24.88500
H  20.30300 50.82700 29.55400
H  19.20500 48.84100 33.19300
H  20.87800 48.29000 32.94700
H  19.57600 47.33200 32.26200

