158

Mg 17.39000 -0.96200 27.81000
C  16.77400 1.13300 30.64100
C  19.40900 -2.96200 29.83700
C  18.39000 -2.62300 25.09500
C  15.73800 1.46800 25.76900
N  17.89600 -0.96500 29.93600
C  17.54500 -0.06500 30.94100
C  18.06800 -0.35400 32.33000
C  19.12000 -1.53300 31.96600
C  18.81600 -1.84500 30.44900
C  20.66400 -1.16900 32.11900
C  16.94500 -0.63400 33.31500
C  17.10700 -0.12400 34.76700
H  18.49500 0.20200 35.24200
N  18.63700 -2.67200 27.55100
C  19.34300 -3.38600 28.44000
C  19.94400 -4.61500 27.89400
C  19.61600 -4.48600 26.50000
C  18.85800 -3.22700 26.29800
C  20.60100 -5.65400 28.69400
C  19.96100 -5.49300 25.43400
O  19.74400 -5.28400 24.26100
C  20.67500 -6.75900 25.64900
N  17.23800 -0.50900 25.66300
C  17.64700 -1.49900 24.77000
C  17.34000 -1.03700 23.31300
C  16.37300 0.20200 23.63700
C  16.43200 0.39600 25.10400
C  18.53700 -0.62600 22.43500
C  14.97800 0.07400 23.02800
C  13.88900 -0.93600 23.44100
N  16.33900 0.87200 28.12100
C  15.73000 1.72800 27.17900
C  15.05800 2.75500 28.01700
C  15.53000 2.60000 29.31200
C  16.26400 1.40400 29.31400
C  14.21700 3.95400 27.45700
C  15.42600 3.19300 30.66100
O  14.84200 4.17100 31.09200
C  16.11200 2.18100 31.60200
C  17.02300 2.88400 32.55400
O  18.10400 3.39600 32.40400
O  16.24600 3.09500 33.70400
C  16.79300 4.32500 34.39800
H  19.93600 -3.59600 30.55400
H  18.73300 -3.09100 24.17000
H  15.01300 1.94600 25.10700
H  18.69700 0.46700 32.67400
H  18.86500 -2.40900 32.56200
H  21.20300 -2.03600 32.50000
H  20.70000 -0.38300 32.87400
H  21.06100 -0.93100 31.13200
H  16.85100 -1.72000 33.33400
H  15.95400 -0.32400 32.98200
H  16.74600 -0.92400 35.41300
H  16.46800 0.75800 34.80900
H  21.61000 -5.34700 28.96800
H  20.55300 -6.70000 28.39100
H  20.03400 -5.66700 29.62400
H  21.65700 -6.66300 26.11100
H  20.76600 -7.27000 24.69000
H  20.14600 -7.41600 26.33900
H  16.77200 -1.74200 22.70600
H  16.92100 1.04800 23.22100
H  18.51400 -1.16000 21.48500
H  19.42700 -0.94800 22.97400
H  18.63100 0.45800 22.37000
H  15.22300 -0.14200 21.98800
H  14.44300 1.02100 23.09600
H  12.92200 -0.43600 23.39500
H  14.10300 -1.35600 24.42400
H  13.91500 -1.69300 22.65700
H  14.39200 4.17400 26.40400
H  14.52500 4.81600 28.04900
H  13.15700 3.75300 27.61300
H  15.31400 1.71700 32.18200
H  17.67900 3.90200 34.87200
H  16.09400 4.58600 35.19300
H  17.07600 5.16200 33.76100
Mg 26.18100 1.03300 29.73100
C  28.31200 0.61800 32.55500
C  23.66900 1.60400 32.01400
C  24.09700 0.90800 27.20300
C  28.82800 -0.01100 27.76300
N  26.02700 1.08000 32.05400
C  27.02900 0.90200 32.95700
C  26.54900 1.30500 34.41700
C  25.02000 1.22700 34.17600
C  24.87200 1.38300 32.70100
C  24.28400 0.01200 34.71100
C  27.13800 2.69400 34.91100
C  27.99400 2.76400 36.20500
H  27.40200 3.42500 37.45200
N  24.21500 1.43500 29.57600
C  23.34500 1.59900 30.59200
C  21.97800 1.68000 30.06800
C  22.07500 1.50700 28.69800
C  23.53400 1.30800 28.46900
C  20.73800 1.83800 30.85600
C  20.98500 1.40000 27.70900
O  21.20200 1.28200 26.52400
C  19.59800 1.46400 28.05700
N  26.50900 0.64200 27.77600
C  25.46800 0.67600 26.84700
C  26.05400 0.68900 25.39000
C  27.56600 0.61800 25.62900
C  27.64800 0.45700 27.15400
C  25.38800 -0.37900 24.44500
C  28.40500 1.78600 25.08300
C  29.25100 1.41100 23.94300
N  28.14900 0.33000 30.05300
C  29.06700 -0.05900 29.11800
C  30.34300 -0.32600 29.82200
C  30.09200 -0.08800 31.19400
C  28.74100 0.32100 31.26400
C  31.59800 -0.79000 29.15700
C  30.60300 0.01200 32.57200
O  31.71900 -0.22600 33.05100
C  29.44400 0.46900 33.48000
C  29.33100 -0.69600 34.37500
O  28.63700 -1.68600 34.19800
O  29.99500 -0.48200 35.52200
C  29.79800 -1.31800 36.68900
H  22.83200 1.93500 32.63200
H  23.44300 0.92300 26.33000
H  29.65500 -0.36500 27.14400
H  26.99100 0.60500 35.12600
H  24.50700 2.08100 34.61800
H  25.02000 -0.66400 35.14800
H  23.81800 -0.52400 33.88400
H  23.54300 0.32000 35.44900
H  26.37800 3.45000 35.10900
H  27.66200 3.11700 34.05400
H  28.93800 3.19900 35.87900
H  28.20000 1.75400 36.55900
H  20.17600 2.70400 30.50500
H  20.94400 2.14800 31.88100
H  20.14800 0.92200 30.84800
H  19.43100 0.62600 28.73300
H  19.01300 1.41000 27.13900
H  19.30900 2.42100 28.49100
H  25.87300 1.61600 24.84500
H  27.90000 -0.29100 25.13000
H  24.53300 -0.78600 24.98400
H  25.93400 -1.30700 24.27800
H  24.92500 0.07600 23.56900
H  29.03600 2.18400 25.87800
H  27.87800 2.64900 24.67400
H  29.15300 2.15800 23.15500
H  28.93100 0.46500 23.50600
H  30.26100 1.29100 24.33400
H  32.39800 -1.06300 29.84600
H  31.89600 0.09800 28.60100
H  31.46100 -1.60900 28.45100
H  29.68400 1.37300 34.04000
H  29.88500 -2.29500 36.21300
H  28.81900 -1.07700 37.10300
H  30.56900 -1.15000 37.44100

