158

Mg 45.80800 17.51700 28.16400
C  44.09800 16.75400 31.18700
C  47.92900 19.47000 30.08100
C  47.39600 18.23500 25.52700
C  43.34800 15.77400 26.40900
N  46.01000 17.98800 30.36100
C  45.29800 17.44600 31.36000
C  45.86400 17.83100 32.75300
C  46.78500 18.99600 32.37700
C  46.94200 18.82700 30.83400
C  46.22300 20.40500 32.85300
C  46.49200 16.59100 33.37300
C  46.22300 16.36600 34.85900
H  45.89300 17.67800 35.67500
N  47.47800 18.73600 27.81700
C  48.26800 19.36700 28.71600
C  49.40500 19.93100 27.99000
C  49.23400 19.66600 26.59700
C  48.05900 18.82100 26.64800
C  50.52900 20.50700 28.81000
C  50.02100 20.02600 25.32300
O  49.72900 19.79300 24.14200
C  51.29800 20.83600 25.47500
N  45.18700 17.34700 26.22000
C  46.11100 17.65200 25.32800
C  45.66500 17.22900 23.88600
C  44.59900 16.09500 24.20400
C  44.20800 16.51900 25.68400
C  45.26200 18.32700 22.86600
C  45.17900 14.61900 24.12800
C  44.62600 13.82400 22.94600
N  44.06900 16.47600 28.61300
C  43.19500 15.75700 27.83100
C  42.05300 15.25400 28.62300
C  42.46800 15.59500 29.94500
C  43.62100 16.34500 29.89800
C  40.79800 14.59500 28.17300
C  42.06700 15.43100 31.42300
O  41.22600 14.74100 31.95600
C  43.19000 16.21100 32.22700
C  42.57000 17.28200 32.94600
O  42.13400 18.26900 32.38100
O  42.61400 17.05600 34.37200
C  41.85000 18.04100 35.11200
H  48.55800 20.12200 30.69000
H  47.88600 18.33800 24.55700
H  42.75300 15.03400 25.86900
H  45.04200 18.20000 33.36700
H  47.71300 18.82700 32.92300
H  46.38100 20.51300 33.92600
H  45.14800 20.43500 32.67600
H  46.66400 21.24400 32.31400
H  47.55900 16.53000 33.15700
H  46.28700 15.67200 32.82300
H  47.15700 16.00000 35.28500
H  45.46100 15.58700 34.88500
H  51.38000 20.70200 28.15600
H  50.71900 19.84700 29.65600
H  50.10800 21.44800 29.16500
H  52.13200 20.20800 25.78800
H  51.16700 21.75200 26.05100
H  51.65200 21.17400 24.50100
H  46.46600 16.64500 23.43200
H  43.65900 16.19700 23.66200
H  44.23300 18.31600 22.50500
H  45.97500 18.26500 22.04500
H  45.30900 19.30700 23.34200
H  44.93500 14.09400 25.05200
H  46.26700 14.55700 24.14800
H  44.12100 14.44300 22.20500
H  44.06900 12.94900 23.28200
H  45.43900 13.29900 22.44400
H  40.91600 14.31800 27.12500
H  39.99100 15.28000 28.43500
H  40.73000 13.68000 28.76100
H  43.59500 15.48000 32.92700
H  42.02300 19.06100 34.77000
H  42.23600 18.05300 36.13100
H  40.78500 17.81000 35.13300
Mg 29.98600 58.31500 41.03100
C  27.23800 56.67600 39.89400
C  31.94700 55.73700 39.69800
C  32.66400 60.32700 41.16900
C  27.93600 61.31800 41.66000
N  29.61900 56.50600 39.72800
C  28.39800 55.92500 39.61000
C  28.43700 54.52300 39.15600
C  29.97700 54.20400 39.18300
C  30.57300 55.55800 39.51300
C  30.32500 53.07400 40.24200
C  27.71100 54.26800 37.82600
C  27.08500 55.34000 36.86300
H  27.33200 55.18000 35.40600
N  32.02300 58.03700 40.63100
C  32.59600 56.90300 40.09000
C  34.02800 57.19800 39.90800
C  34.28200 58.51500 40.33800
C  32.94300 59.03300 40.74100
C  34.98600 56.33100 39.15800
C  35.61200 59.19500 40.24600
O  36.65400 58.58600 39.84900
C  35.81100 60.63800 40.54300
N  30.20400 60.56100 41.34000
C  31.48500 60.99000 41.51400
C  31.49100 62.48100 41.93800
C  30.02300 62.76100 42.24100
C  29.29100 61.49400 41.67000
C  32.46000 62.92000 43.03500
C  29.34600 64.08600 41.63200
C  28.59700 65.04400 42.61300
N  27.99600 58.94500 40.97100
C  27.26500 60.15300 41.18800
C  25.83300 59.81500 41.20100
C  25.81200 58.48700 40.63800
C  27.16100 57.98500 40.49300
C  24.62600 60.78300 41.36800
C  24.92000 57.40100 40.29300
O  23.72000 57.38100 40.34000
C  25.78900 56.23700 39.77100
C  25.46400 54.92800 40.51900
O  25.87900 54.51400 41.62700
O  24.69700 54.22200 39.67800
C  24.09700 53.08500 40.31200
H  32.51200 54.81800 39.52700
H  33.39000 61.13900 41.25300
H  27.30300 62.07800 42.12300
H  27.93400 53.93800 39.92600
H  30.41600 53.94400 38.22000
H  29.53600 52.93800 40.98100
H  31.25000 53.20300 40.80300
H  30.38600 52.05800 39.85300
H  26.85500 53.67400 38.14500
H  28.34200 53.55700 37.29300
H  27.39800 56.35300 37.11600
H  26.04300 55.10900 37.08400
H  35.21700 56.69300 38.15600
H  34.58100 55.32400 39.05600
H  35.88100 56.20400 39.76800
H  35.07500 61.25600 40.02900
H  36.71400 60.99400 40.04700
H  35.82300 60.93600 41.59100
H  31.81700 62.97000 41.02000
H  29.73000 62.77700 43.29100
H  31.93000 63.39300 43.86300
H  33.08100 63.66300 42.53400
H  32.97500 62.03000 43.39600
H  28.64100 63.75400 40.87000
H  30.20000 64.63300 41.23100
H  27.92300 64.58000 43.33200
H  28.11600 65.67100 41.86100
H  29.30600 65.63700 43.19100
H  23.69900 60.21100 41.41900
H  24.45100 61.58900 40.65500
H  24.71400 61.25400 42.34700
H  25.37400 56.13900 38.76800
H  23.62300 53.30100 41.26900
H  24.75600 52.22000 40.39000
H  23.25200 52.73800 39.71700

