158

Mg 43.55500 4.33100 47.15000
C  41.87000 7.26400 46.46900
C  40.60600 2.60500 46.23100
C  45.36300 1.51800 46.58800
C  46.53900 6.22100 47.10400
N  41.57700 4.89900 46.15300
C  41.10800 6.18200 46.06900
C  39.60800 6.15500 45.79800
C  39.21200 4.74400 46.31400
C  40.48700 4.01200 46.26300
C  38.56300 4.60900 47.78800
C  39.24300 6.36800 44.30300
C  38.61900 7.75600 43.93900
H  39.35700 8.48400 42.82100
N  43.07800 2.26600 46.69600
C  41.77800 1.81800 46.44800
C  41.81500 0.34100 46.26900
C  43.19000 -0.01800 46.28500
C  43.97500 1.29500 46.51000
C  40.62000 -0.46800 45.94500
C  43.71600 -1.38600 46.17800
O  42.94000 -2.33000 46.11800
C  45.17800 -1.82400 46.25200
N  45.70600 3.89500 46.92000
C  46.19000 2.60400 46.80800
C  47.71600 2.63500 46.89900
C  48.05900 4.13400 47.08400
C  46.68700 4.80100 46.98900
C  48.17900 1.66300 47.99200
C  49.14100 4.68700 46.12500
C  50.39300 5.36600 46.75900
N  44.08500 6.29200 47.02900
C  45.32200 6.95100 47.05600
C  45.12200 8.41000 47.20000
C  43.80200 8.55900 46.94500
C  43.23500 7.24000 46.77900
C  46.11400 9.45000 47.35600
C  42.72900 9.54700 46.77800
O  42.72200 10.76600 47.02700
C  41.43500 8.68900 46.52500
C  40.58200 8.96200 47.71700
O  40.73400 8.45400 48.80800
O  39.68200 9.93600 47.48400
C  38.88300 10.40900 48.65400
H  39.65100 2.07500 46.22400
H  45.99600 0.65700 46.36700
H  47.45600 6.73400 47.40400
H  39.04500 6.93400 46.31200
H  38.61400 4.16300 45.61300
H  38.30800 5.56500 48.24600
H  39.20200 4.02900 48.45400
H  37.64500 4.03800 47.64600
H  38.52300 5.60800 44.00200
H  40.13800 6.18500 43.70800
H  38.82600 8.39700 44.79600
H  37.53700 7.72000 43.81600
H  40.51900 -0.88400 44.94300
H  39.70300 0.10800 46.06800
H  40.56400 -1.25900 46.69300
H  45.62700 -1.31000 45.40200
H  45.27900 -2.90100 46.11900
H  45.57400 -1.50300 47.21500
H  48.11300 2.19800 45.98300
H  48.39800 4.28400 48.11000
H  48.70300 2.19800 48.78400
H  48.79600 0.84300 47.62400
H  47.29300 1.26700 48.48900
H  48.74900 5.42200 45.42300
H  49.48000 3.86000 45.50100
H  51.14600 4.75600 46.26000
H  50.44200 5.37700 47.84800
H  50.45500 6.40700 46.44000
H  45.77300 10.47500 47.20800
H  46.93000 9.10800 46.71900
H  46.45500 9.43000 48.39100
H  40.82800 8.88500 45.64100
H  39.52900 11.03800 49.26700
H  38.49500 9.55800 49.21400
H  37.99200 10.92600 48.29700
Mg 43.09000 42.67000 26.57800
C  41.97000 44.92000 29.08500
C  44.06600 40.54000 28.85700
C  44.61600 41.00300 24.06500
C  42.13600 45.05900 24.10900
N  42.88600 42.77400 28.81400
C  42.50000 43.72000 29.61000
C  42.45600 43.24800 31.04300
C  43.16100 41.96600 30.91600
C  43.33900 41.65800 29.42800
C  44.48300 41.99600 31.75500
C  41.02800 43.12300 31.74000
C  40.72100 44.04700 32.93500
H  40.19800 43.45800 34.26200
N  44.16000 40.95100 26.46700
C  44.46000 40.15400 27.56300
C  45.26400 39.03200 27.09600
C  45.49300 39.20000 25.70900
C  44.76600 40.45100 25.29300
C  45.85600 38.00300 28.08700
C  46.37400 38.36700 24.84900
O  46.51800 38.61900 23.63600
C  47.29000 37.22000 25.45900
N  43.39800 43.02300 24.44500
C  44.01700 42.11900 23.62300
C  43.86800 42.49100 22.13700
C  42.93700 43.69200 22.14500
C  42.85700 43.99000 23.63100
C  45.27000 42.73100 21.49700
C  41.53400 43.44700 21.53600
C  40.54100 42.60700 22.35500
N  42.34900 44.64300 26.56100
C  42.05100 45.53500 25.44600
C  41.31700 46.67400 25.96200
C  41.22800 46.52700 27.36700
C  41.89700 45.26400 27.70900
C  40.80400 47.77100 25.15300
C  40.78700 47.09800 28.63800
O  40.18800 48.14100 28.87200
C  41.27600 46.02500 29.76900
C  42.21400 46.81200 30.69100
O  43.36200 47.16400 30.40600
O  41.56200 47.13300 31.87800
C  42.35200 47.58500 32.96200
H  44.48500 39.92800 29.65800
H  44.89300 40.31100 23.26600
H  41.68800 45.72300 23.36700
H  43.01900 44.05800 31.50700
H  42.55000 41.15400 31.30800
H  44.48200 42.74300 32.55000
H  45.25400 42.26200 31.03200
H  44.68800 41.04300 32.24100
H  40.74900 42.10200 31.99600
H  40.34100 43.35000 30.92500
H  39.94600 44.64500 32.45500
H  41.48700 44.82000 32.99500
H  45.34700 37.88500 29.04300
H  46.89400 38.22500 28.33200
H  45.92000 37.00100 27.66300
H  48.04400 36.82900 24.77500
H  46.83700 36.29800 25.82400
H  47.79400 37.74600 26.26900
H  43.49300 41.56300 21.70500
H  43.35300 44.57200 21.65500
H  45.29900 41.93800 20.75000
H  46.04200 42.66100 22.26300
H  45.25400 43.75500 21.12400
H  41.79700 42.87000 20.64900
H  41.09500 44.40000 21.23900
H  40.91700 42.56000 23.37700
H  40.54700 41.58200 21.98500
H  39.50400 42.93200 22.26900
H  39.92700 47.51100 24.56000
H  41.66800 47.99600 24.52800
H  40.51300 48.59200 25.80700
H  40.41900 45.71900 30.37000
H  42.58900 46.69400 33.54400
H  41.78900 48.27600 33.58900
H  43.24600 48.10700 32.62100

