158

Mg 24.18500 -4.66100 45.90300
C  26.33800 -2.47300 44.34700
C  21.73400 -3.53300 43.63200
C  22.48800 -7.49200 46.52700
C  26.95500 -5.93100 47.82400
N  24.04400 -3.24700 44.18300
C  25.02800 -2.37100 43.83000
C  24.60500 -1.30500 42.75100
C  23.06100 -1.39400 42.95200
C  22.87000 -2.79300 43.63400
C  22.50100 -0.28200 43.85500
C  25.14100 -1.82600 41.36200
C  25.88900 -0.82700 40.53200
H  25.77400 -0.92100 39.00200
N  22.27900 -5.47600 45.16800
C  21.49800 -4.78100 44.28100
C  20.24700 -5.50500 44.29900
C  20.42300 -6.72000 45.07900
C  21.74300 -6.61700 45.63400
C  19.12400 -5.08100 43.38400
C  19.45200 -7.90200 45.37100
O  18.29800 -7.87300 44.83300
C  19.85800 -9.19800 46.06000
N  24.68100 -6.46100 47.07000
C  23.74100 -7.36900 47.23900
C  24.25400 -8.42600 48.30700
C  25.53100 -7.73400 48.87200
C  25.84800 -6.68300 47.80300
C  23.29800 -8.83000 49.48400
C  26.76000 -8.78000 49.11300
C  27.56100 -8.62200 50.47700
N  26.19800 -4.24300 46.19500
C  27.20600 -4.78300 46.95400
C  28.45900 -4.09900 46.79500
C  28.14800 -3.25300 45.67300
C  26.79100 -3.33700 45.40200
C  29.73400 -4.42800 47.47600
C  28.76700 -2.33400 44.72900
O  29.89400 -2.00200 44.37700
C  27.58000 -1.77700 43.91800
C  27.58100 -0.26700 44.04000
O  27.18500 0.35700 45.00000
O  27.91400 0.21000 42.82700
C  28.20500 1.66700 42.82500
H  20.82300 -3.12300 43.19200
H  22.03700 -8.36300 47.00700
H  27.77100 -6.25200 48.47400
H  25.03400 -0.35700 43.07800
H  22.57100 -1.25700 41.98800
H  23.28200 0.31700 44.32200
H  21.95800 -0.72800 44.68900
H  21.81200 0.29000 43.23300
H  24.28600 -2.02300 40.71500
H  25.80700 -2.67500 41.52100
H  26.92400 -1.13000 40.69000
H  25.75800 0.20800 40.84400
H  19.31100 -5.52000 42.40400
H  19.07800 -3.99300 43.33200
H  18.16500 -5.49500 43.69500
H  19.20200 -9.99300 45.70800
H  19.75300 -9.03200 47.13200
H  20.85400 -9.45700 45.70000
H  24.47500 -9.37400 47.81700
H  25.37800 -7.27700 49.85000
H  23.84300 -8.87400 50.42700
H  23.00900 -9.88100 49.50300
H  22.44800 -8.14700 49.47900
H  27.43100 -8.84300 48.25600
H  26.34300 -9.78700 49.08700
H  28.37700 -7.94000 50.23600
H  27.99300 -9.55800 50.83000
H  26.81500 -8.20100 51.15000
H  30.40300 -5.00500 46.83700
H  29.46000 -4.97200 48.37900
H  30.26000 -3.50600 47.72500
H  27.87300 -1.97100 42.88600
H  27.76500 2.04000 41.90000
H  29.28100 1.84000 42.81400
H  27.81400 2.32800 43.59900
Mg 6.48800 54.23700 41.94000
C  5.75300 50.89700 41.31500
C  9.14800 54.04400 39.93200
C  6.55800 57.67300 41.90200
C  3.05600 54.59600 43.27700
N  7.10400 52.81400 40.39600
C  6.83200 51.45300 40.53600
C  7.74000 50.58600 39.66600
C  9.00600 51.46100 39.81500
C  8.41000 52.83900 39.93100
C  9.93600 51.00400 40.95900
C  7.33500 50.49900 38.20000
C  8.10500 49.33200 37.43500
H  7.35500 48.44700 36.44700
N  7.71800 55.66800 41.10400
C  8.78300 55.37900 40.26900
C  9.56800 56.54400 40.05800
C  8.88200 57.59500 40.63900
C  7.63800 57.06900 41.21900
C  10.97200 56.51600 39.56000
C  9.38100 59.10000 40.79500
O  10.42700 59.42000 40.31500
C  8.61400 60.07300 41.60600
N  4.94600 55.91000 42.36600
C  5.37300 57.18500 42.49600
C  4.33300 58.10200 43.16900
C  3.17400 57.11900 43.33500
C  3.69700 55.77600 42.94400
C  4.84400 58.77000 44.45200
C  1.94900 57.46300 42.50800
C  1.26300 58.87300 42.73900
N  4.76900 53.03100 42.34800
C  3.54300 53.30800 42.99900
C  2.93000 52.01200 43.28700
C  3.73800 51.03100 42.72800
C  4.89200 51.65400 42.12800
C  1.58800 51.80900 43.97300
C  3.91200 49.61100 42.48300
O  3.26900 48.64300 42.84800
C  5.24000 49.49800 41.41400
C  4.67300 48.99800 40.16300
O  3.91300 49.64400 39.40900
O  5.08000 47.71800 39.96500
C  4.55800 46.98900 38.83000
H  10.13000 53.85900 39.49100
H  6.44400 58.74700 42.06300
H  2.11800 54.73900 43.81600
H  7.74400 49.64700 40.21900
H  9.59300 51.43200 38.89700
H  9.65800 50.00700 41.30000
H  9.92000 51.69400 41.80300
H  10.98100 50.98400 40.65200
H  7.59100 51.45300 37.73900
H  6.24700 50.54600 38.16700
H  8.57000 48.65500 38.15200
H  8.89800 49.83400 36.88100
H  11.11800 55.71100 38.83900
H  11.67200 56.24800 40.35100
H  11.33400 57.45800 39.14600
H  9.05800 61.05300 41.43600
H  8.70100 59.73000 42.63700
H  7.56700 60.25400 41.36300
H  4.06300 58.90100 42.47800
H  2.90300 57.05000 44.38900
H  4.62700 58.20100 45.35600
H  4.37300 59.72700 44.67200
H  5.92500 58.87500 44.54400
H  1.21900 56.68400 42.72800
H  2.22800 57.39300 41.45700
H  1.38200 59.48000 41.84200
H  1.67000 59.38600 43.61100
H  0.22500 58.68200 43.01300
H  0.95400 52.64700 43.68300
H  1.82500 51.73400 45.03400
H  1.07100 50.90100 43.66200
H  5.99600 48.78200 41.73900
H  4.95600 47.25600 37.85100
H  3.47000 46.94900 38.78800
H  4.76800 45.92700 38.95900

