158

Mg -1.92500 17.92300 26.91100
C  -2.68400 15.58900 29.47400
C  -2.85600 20.46300 29.04300
C  -1.12700 20.05800 24.55100
C  -1.69000 15.19000 24.67600
N  -2.77500 17.98800 28.97800
C  -2.91000 16.92900 29.89700
C  -3.33300 17.46500 31.32700
C  -3.30100 19.03400 31.04400
C  -3.00800 19.21400 29.58100
C  -4.60900 19.86800 31.58300
C  -2.50500 16.82700 32.52100
C  -2.43500 17.81600 33.76100
H  -1.91000 17.26900 35.12200
N  -1.92700 20.04500 26.84900
C  -2.38500 20.91500 27.80800
C  -2.32800 22.24300 27.33500
C  -1.67200 22.16500 26.03400
C  -1.59700 20.73700 25.73800
C  -2.92400 23.43500 28.14000
C  -1.19800 23.25100 25.17100
O  -0.59900 23.10500 24.08100
C  -1.35900 24.68100 25.53800
N  -1.61300 17.69200 24.86700
C  -1.13600 18.74500 24.15100
C  -0.85100 18.37700 22.71600
C  -0.94600 16.81500 22.75100
C  -1.48000 16.50800 24.13300
C  -1.75000 19.02300 21.65100
C  0.38400 16.16300 22.47700
C  1.49000 16.29700 23.45800
N  -2.18900 15.79900 27.00200
C  -2.07100 14.80900 26.04000
C  -2.20200 13.46000 26.55400
C  -2.47400 13.71600 27.92700
C  -2.42900 15.18100 28.11600
C  -2.19800 12.16400 25.74300
C  -2.77900 13.10500 29.20400
O  -2.94600 11.90300 29.47500
C  -2.88500 14.33900 30.24100
C  -1.81500 14.07700 31.28500
O  -0.70200 14.50000 31.33600
O  -2.40700 13.35700 32.25400
C  -1.66100 13.07900 33.46500
H  -2.99500 21.21200 29.82600
H  -0.65000 20.69300 23.80100
H  -1.66000 14.36900 23.95700
H  -4.37500 17.16100 31.42700
H  -2.45700 19.51300 31.53900
H  -5.27400 19.24000 32.17600
H  -5.12900 20.18100 30.67800
H  -4.27500 20.68400 32.22300
H  -1.48000 16.69300 32.17500
H  -3.02800 15.93600 32.86700
H  -3.38900 18.29300 33.98400
H  -1.86900 18.71200 33.50800
H  -3.61900 22.98300 28.84800
H  -3.39700 24.18700 27.50900
H  -2.03300 23.87500 28.58700
H  -2.38600 25.01200 25.38200
H  -0.67700 25.36100 25.02700
H  -1.26400 24.80500 26.61600
H  0.14400 18.70300 22.41300
H  -1.58900 16.48000 21.93700
H  -2.71300 18.51500 21.60200
H  -1.20300 18.98600 20.70900
H  -1.84300 20.06800 21.94700
H  0.81800 16.54600 21.55400
H  0.29800 15.08200 22.36400
H  1.83500 15.30200 23.73900
H  1.12600 16.85500 24.32100
H  2.24300 16.92500 22.98200
H  -2.72300 12.16200 24.78900
H  -2.82600 11.40100 26.20100
H  -1.24400 11.65000 25.62500
H  -3.85900 14.17000 30.70100
H  -0.68300 12.70900 33.15800
H  -2.16400 12.35900 34.11100
H  -1.52100 14.02300 33.99200
Mg 50.31500 46.63600 41.67400
C  47.10200 46.98700 40.26600
C  50.08700 43.38000 40.78500
C  53.65800 46.45300 41.74000
C  50.47200 50.01600 42.05200
N  48.69900 45.39700 40.79600
C  47.48900 45.66300 40.32600
C  46.66900 44.47500 39.86900
C  47.57000 43.30200 40.40500
C  48.88800 44.05800 40.73400
C  47.02700 42.48800 41.60700
C  46.34100 44.49300 38.31900
C  44.96700 44.10400 37.85600
H  44.78200 43.21700 36.59800
N  51.72300 45.11000 41.47500
C  51.39000 43.83400 41.07100
C  52.55400 43.02200 41.05500
C  53.71300 43.80400 41.42100
C  53.09700 45.17900 41.61100
C  52.42900 41.62000 40.70700
C  55.19600 43.38800 41.58200
O  55.48800 42.21800 41.57100
C  56.27900 44.36700 42.05600
N  51.91600 48.07300 41.76500
C  53.17000 47.72600 41.91800
C  54.12300 48.95000 42.06500
C  53.01900 50.15400 42.29500
C  51.71800 49.42600 41.96100
C  55.26400 48.91100 43.11600
C  53.33600 51.45300 41.39200
C  53.35700 52.84700 42.18600
N  48.97300 48.29000 41.37400
C  49.22100 49.62900 41.60500
C  48.08600 50.38100 41.11000
C  47.17800 49.38300 40.54500
C  47.84200 48.17200 40.68600
C  47.88200 51.87900 41.36500
C  45.94500 49.11000 39.95800
O  44.98500 49.87900 39.58000
C  45.79800 47.53700 39.76000
C  44.68000 47.32900 40.69700
O  44.81700 47.28700 41.94100
O  43.58000 47.08700 39.89400
C  42.41400 46.70200 40.75900
H  50.12200 42.29100 40.70200
H  54.74800 46.38300 41.74400
H  50.57600 51.07500 42.29800
H  45.75600 44.56300 40.45800
H  47.96300 42.59800 39.67200
H  45.96300 42.68500 41.74600
H  47.55900 42.78800 42.50900
H  47.15800 41.42500 41.40700
H  46.95500 43.67700 37.93800
H  46.68600 45.44600 37.91800
H  44.53600 45.05300 37.53500
H  44.41100 43.73800 38.71900
H  52.08000 41.56500 39.67600
H  51.77100 41.00700 41.32200
H  53.36100 41.05500 40.69300
H  55.86100 44.98800 42.84800
H  56.61200 44.97900 41.21800
H  57.01200 43.76900 42.59800
H  54.69900 49.01100 41.14100
H  53.06300 50.46800 43.33800
H  56.06100 48.63300 42.42500
H  55.14700 48.11200 43.84800
H  55.44900 49.88500 43.56900
H  52.53400 51.51800 40.65700
H  54.29100 51.36500 40.87500
H  54.19400 53.44200 41.82100
H  53.43700 52.63700 43.25300
H  52.41500 53.31600 41.90200
H  47.98700 52.45700 40.44700
H  48.52300 52.25300 42.16300
H  46.82100 52.05400 41.54000
H  45.51500 47.34800 38.72400
H  41.69400 47.49100 40.97600
H  42.60700 46.04300 41.60600
H  41.89700 46.02800 40.07700

