158

Mg 49.88400 45.11700 42.29100
C  46.66300 45.78600 40.98100
C  49.46000 41.83200 41.16800
C  53.27800 44.74000 42.24600
C  50.38800 48.62300 42.55100
N  48.20200 43.97600 41.33200
C  46.99200 44.43800 40.83000
C  46.24000 43.30900 40.08600
C  47.03700 42.06300 40.54300
C  48.28700 42.61700 41.11700
C  46.36000 41.21200 41.61300
C  46.30300 43.57700 38.53100
C  45.11500 43.00100 37.76600
H  44.82200 43.41700 36.36400
N  51.15300 43.52200 41.98000
C  50.79500 42.24700 41.55700
C  51.96900 41.34900 41.70400
C  53.08000 42.22600 42.06600
C  52.48900 43.58000 42.11300
C  51.77000 39.89600 41.67400
C  54.54200 41.71600 42.35200
O  54.78400 40.55900 42.19100
C  55.56000 42.60800 43.00800
N  51.61700 46.44900 42.68100
C  52.85200 46.05000 42.51700
C  53.86200 47.19800 42.55200
C  52.94800 48.47800 42.57800
C  51.54300 47.84100 42.62200
C  54.91900 47.03500 43.73400
C  53.19600 49.39300 41.32200
C  52.62800 48.92100 39.93000
N  48.78500 46.86300 41.97500
C  49.14500 48.18900 42.08700
C  47.99000 49.03000 41.66000
C  46.96600 48.15300 41.32400
C  47.52400 46.83800 41.51700
C  47.95200 50.50100 41.55100
C  45.66300 48.08500 40.73100
O  44.82200 48.94900 40.46500
C  45.49500 46.54100 40.38100
C  44.06300 46.21200 40.70600
O  43.16300 46.19200 39.86900
O  43.96900 45.78300 42.00000
C  42.58600 45.60200 42.51300
H  49.35500 40.78300 40.88300
H  54.36700 44.67500 42.20500
H  50.58800 49.69700 42.56200
H  45.20000 43.31700 40.41400
H  47.12500 41.44400 39.65000
H  45.34800 41.56300 41.81400
H  46.93300 41.20000 42.54000
H  46.39100 40.16700 41.30400
H  47.23800 43.11900 38.20800
H  46.59800 44.59600 38.27900
H  44.19300 43.08300 38.34100
H  45.16900 41.91400 37.70400
H  52.72200 39.42000 41.90700
H  51.35700 39.45900 40.76400
H  51.15600 39.76400 42.56500
H  55.03500 43.18700 43.76700
H  55.95100 43.18600 42.17100
H  56.24000 41.87100 43.43800
H  54.51800 47.24700 41.68300
H  53.09700 48.93900 43.55500
H  55.23500 46.01800 43.96400
H  54.52900 47.49100 44.64400
H  55.77000 47.59900 43.35300
H  54.27300 49.54300 41.25900
H  52.74300 50.36000 41.54000
H  51.77000 49.54600 39.68400
H  52.34300 47.87000 39.96400
H  53.34000 49.01700 39.11100
H  47.14200 50.82900 40.89900
H  48.84700 50.98600 41.16100
H  47.88900 51.04900 42.49100
H  45.60900 46.44800 39.30100
H  41.83900 45.17600 41.84300
H  42.15100 46.49900 42.95300
H  42.81900 45.03300 43.41300
Mg 0.35600 44.08100 25.59000
C  2.39000 43.70100 28.38400
C  -2.37800 43.19200 27.54200
C  -1.64500 43.76600 22.71200
C  3.07900 44.32100 23.58200
N  0.03500 43.54400 27.70800
C  0.99300 43.57600 28.75000
C  0.43500 43.32400 30.18100
C  -1.05500 42.90500 29.78700
C  -1.18300 43.25100 28.26400
C  -1.41400 41.41200 30.16600
C  0.42600 44.63800 31.07900
C  0.85500 44.44000 32.48500
H  0.72200 43.06600 33.14800
N  -1.73500 43.78500 25.27200
C  -2.67400 43.51000 26.21800
C  -3.97700 43.49300 25.55700
C  -3.75400 43.62800 24.14300
C  -2.31100 43.73400 23.99500
C  -5.26500 43.36000 26.33400
C  -4.77900 43.55500 23.07700
O  -4.51900 43.58800 21.87300
C  -6.29100 43.41000 23.34600
N  0.69300 43.74100 23.40200
C  -0.26700 43.83500 22.43100
C  0.36700 43.94000 21.08700
C  1.81000 44.42700 21.40200
C  1.89700 44.14300 22.85900
C  0.14600 42.68300 20.27300
C  1.92300 45.95200 21.15800
C  3.07200 46.45600 20.40100
N  2.35200 43.97800 25.86500
C  3.36300 44.22300 24.93400
C  4.58600 44.36200 25.65200
C  4.28100 44.06000 27.03500
C  2.89200 43.81700 27.10300
C  5.96600 44.67900 25.04200
C  4.82400 44.06200 28.38500
O  5.98200 44.18600 28.79200
C  3.59800 43.79600 29.28100
C  3.77400 42.60300 30.11100
O  3.45400 41.44300 29.86100
O  4.37900 42.95800 31.26000
C  4.74000 41.99200 32.19900
H  -3.32000 42.98400 28.05300
H  -2.21000 43.67900 21.78200
H  3.91500 44.61000 22.94200
H  1.08300 42.51100 30.51100
H  -1.74700 43.60500 30.25500
H  -2.28300 41.47900 30.82000
H  -0.62800 41.02300 30.81300
H  -1.55700 40.78200 29.28800
H  -0.53200 45.15700 31.05700
H  1.14300 45.30300 30.59600
H  0.08900 45.02400 32.99500
H  1.83800 44.85900 32.69800
H  -6.04500 44.06900 26.05700
H  -5.17500 43.63600 27.38500
H  -5.65200 42.34100 26.30500
H  -6.90700 43.23600 22.46400
H  -6.68100 44.33200 23.77600
H  -6.37800 42.53400 23.98900
H  -0.12300 44.74000 20.53200
H  2.64200 43.92300 20.91000
H  -0.39400 41.94700 20.86800
H  1.13900 42.30200 20.03500
H  -0.46000 42.88100 19.38900
H  1.99300 46.51000 22.09200
H  1.07400 46.44400 20.68200
H  3.64500 47.12800 21.03900
H  2.79200 46.96000 19.47600
H  3.76100 45.69200 20.04100
H  6.39300 45.62600 25.37200
H  5.92100 44.76400 23.95700
H  6.59400 43.84800 25.36500
H  3.53700 44.69000 29.90100
H  4.73700 42.37500 33.21900
H  5.68600 41.49800 31.97700
H  3.90700 41.28900 32.23600

