158

Mg 1.75000 -0.24500 43.86600
C  5.29900 0.05100 43.38500
C  1.29100 2.60000 42.14400
C  -1.42400 -1.06300 43.84300
C  2.56600 -3.55000 44.99900
N  3.16000 1.05000 42.85900
C  4.53000 1.06100 42.70900
C  4.98100 2.11800 41.67800
C  3.80700 3.13900 41.69100
C  2.65200 2.17700 42.28500
C  3.95400 4.44900 42.60600
C  5.23200 1.56400 40.23800
C  6.40100 2.26600 39.58100
H  5.81900 2.88800 38.28900
N  0.12100 0.68000 43.17400
C  0.09100 1.88400 42.54000
C  -1.26700 2.22600 42.35900
C  -2.08600 1.13000 42.86100
C  -1.09600 0.21200 43.32100
C  -1.68800 3.42700 41.65000
C  -3.57700 1.01500 42.81300
O  -4.20200 2.09000 42.61200
C  -4.37300 -0.26500 43.04000
N  0.72000 -2.01200 44.43100
C  -0.62600 -2.06300 44.36300
C  -1.18600 -3.38500 44.86600
C  0.06600 -4.25400 45.22600
C  1.22500 -3.24000 44.89400
C  -2.10600 -3.29000 46.19400
C  0.20000 -5.53100 44.27500
C  0.58700 -6.82700 44.98700
N  3.51500 -1.47200 44.28800
C  3.68100 -2.75900 44.72400
C  5.10200 -2.98300 44.99600
C  5.76400 -1.89700 44.55900
C  4.77300 -0.99300 44.07700
C  5.65100 -4.38900 45.36400
C  7.10000 -1.38500 44.27400
O  8.20300 -1.95500 44.36300
C  6.79700 -0.06200 43.47500
C  7.39800 1.08400 44.18100
O  6.93700 1.81900 45.08400
O  8.63600 1.30500 43.57900
C  9.40800 2.55300 43.84500
H  1.13700 3.58500 41.69800
H  -2.45600 -1.38600 44.00000
H  2.73900 -4.59400 45.27000
H  5.82300 2.66400 42.10100
H  3.39400 3.51000 40.75300
H  3.12400 4.57300 43.30100
H  3.99900 5.27700 41.89700
H  4.84500 4.43700 43.23400
H  4.32500 1.75800 39.66600
H  5.47000 0.50100 40.28300
H  7.11800 1.48000 39.34500
H  6.78200 3.08300 40.19400
H  -2.47400 3.90700 42.23300
H  -2.07600 3.07100 40.69600
H  -1.00800 4.19700 41.28800
H  -5.38300 -0.10000 42.66400
H  -4.38900 -0.38600 44.12300
H  -3.93900 -0.98400 42.34600
H  -1.78200 -3.82900 44.06900
H  0.16500 -4.56900 46.26500
H  -3.07600 -3.74400 45.99000
H  -2.37800 -2.25500 46.40400
H  -1.69000 -3.82500 47.04800
H  0.95200 -5.29700 43.52100
H  -0.73500 -5.68000 43.73500
H  -0.35500 -7.33000 45.20700
H  1.06000 -6.67700 45.95700
H  1.20400 -7.40400 44.29800
H  5.49700 -5.05700 44.51600
H  5.16300 -4.73700 46.27400
H  6.73200 -4.41000 45.50600
H  7.31700 -0.00900 42.51800
H  10.07600 2.51400 44.70600
H  8.78100 3.44100 43.92900
H  10.13500 2.70400 43.04800
Mg 26.18200 -0.90500 29.00500
C  28.29700 -1.13900 31.78900
C  23.55500 -0.37400 31.00900
C  24.16400 -1.25200 26.30500
C  29.01700 -1.55000 27.05100
N  26.04400 -0.80800 31.11800
C  26.96000 -0.81900 32.13200
C  26.47700 -0.34000 33.47600
C  24.95900 -0.24200 33.15100
C  24.77100 -0.52600 31.67200
C  24.06600 -0.99700 34.19700
C  27.17600 0.93200 34.09400
C  27.91800 0.84400 35.42600
H  27.66200 1.77200 36.58700
N  24.20900 -0.80900 28.67100
C  23.25500 -0.57700 29.64700
C  21.94500 -0.66700 29.09700
C  22.07600 -0.90400 27.67700
C  23.50000 -0.99700 27.46900
C  20.67800 -0.61100 29.98000
C  20.89000 -1.00800 26.60300
O  21.06400 -1.31500 25.41700
C  19.39200 -0.90400 27.02600
N  26.54700 -1.53800 26.98000
C  25.53300 -1.52700 26.09800
C  26.14000 -1.40500 24.70800
C  27.70900 -1.41300 24.88900
C  27.79100 -1.43300 26.37600
C  25.65600 -2.50900 23.72500
C  28.49400 -0.22100 24.19700
C  28.68200 1.09200 24.92300
N  28.16700 -1.45500 29.31800
C  29.19000 -1.63300 28.43300
C  30.37700 -1.95500 29.13600
C  30.10400 -1.75500 30.48800
C  28.69000 -1.43900 30.48900
C  31.69700 -2.34500 28.51700
C  30.66300 -1.72800 31.80600
O  31.82000 -1.84200 32.21600
C  29.49400 -1.25900 32.68000
C  29.46500 -2.09200 33.96700
O  28.87400 -3.13900 34.13800
O  30.33400 -1.50100 34.84000
C  30.41500 -2.04900 36.16200
H  22.75000 -0.16800 31.71800
H  23.62700 -1.25300 25.35400
H  29.97200 -1.48600 26.52700
H  26.68700 -1.11000 34.22000
H  24.69100 0.78800 33.38500
H  23.47700 -1.70000 33.60800
H  23.38100 -0.16400 34.35500
H  24.53800 -1.37200 35.10500
H  26.50400 1.77800 34.23600
H  27.95700 1.33900 33.45100
H  28.99000 0.97200 35.27900
H  27.90700 -0.16200 35.84500
H  19.99500 0.18500 29.68000
H  20.84700 -0.49900 31.05100
H  20.20800 -1.58700 29.86400
H  19.15800 -1.69700 27.73600
H  18.77600 -0.99200 26.13100
H  19.17500 0.03100 27.54300
H  25.83900 -0.49600 24.18700
H  28.13000 -2.39900 24.69500
H  25.74100 -3.37900 24.37600
H  26.36800 -2.67300 22.91600
H  24.67000 -2.36800 23.28000
H  27.94000 -0.01500 23.28100
H  29.46500 -0.60900 23.88700
H  28.09000 1.29100 25.81600
H  28.34200 1.80400 24.17100
H  29.75800 1.20300 25.06000
H  32.24900 -1.57200 27.98100
H  31.59900 -3.23500 27.89600
H  32.28600 -2.72800 29.35000
H  29.72200 -0.24400 33.00600
H  30.64600 -3.11000 36.06900
H  29.50200 -1.76400 36.68500
H  31.28000 -1.62100 36.66800

