158

Mg 44.58000 4.21600 45.80900
C  43.14800 7.30900 45.82900
C  41.42100 2.78800 45.32000
C  46.07400 1.30900 44.91700
C  47.69000 5.76000 45.85100
N  42.46700 5.01200 45.71900
C  42.12800 6.33500 45.66500
C  40.60500 6.52900 45.57000
C  40.14000 5.05900 45.47300
C  41.38900 4.18500 45.55300
C  39.06100 4.67700 46.57000
C  40.18300 7.36200 44.26200
C  41.06700 7.43100 42.94200
H  40.42600 7.98100 41.65800
N  43.86100 2.28400 45.19500
C  42.52600 1.96300 45.06000
C  42.52700 0.52800 44.68700
C  43.80200 0.08400 44.58700
C  44.65800 1.21500 44.92000
C  41.26400 -0.28100 44.35800
C  44.23200 -1.30800 44.19800
O  43.42700 -2.19400 43.92600
C  45.64100 -1.75900 43.92800
N  46.60100 3.63200 45.45200
C  46.95900 2.34000 45.25800
C  48.48500 2.16800 45.43900
C  49.02900 3.65400 45.52000
C  47.70000 4.37800 45.54800
C  48.85900 1.21700 46.61100
C  50.09500 4.14800 44.53000
C  51.42900 4.62300 45.09800
N  45.27700 6.08900 45.84100
C  46.55800 6.58900 45.88300
C  46.52100 8.00800 45.94500
C  45.20800 8.34400 45.96000
C  44.49700 7.13700 45.87900
C  47.69100 8.88700 46.12700
C  44.32500 9.38000 46.20000
O  44.53100 10.58600 46.38700
C  42.89900 8.79600 45.98700
C  42.06800 9.13500 47.17700
O  42.12000 8.53900 48.23700
O  41.25100 10.20900 46.83000
C  40.46900 10.58200 47.97900
H  40.49800 2.21800 45.19400
H  46.54300 0.34100 44.73300
H  48.69500 6.18500 45.88900
H  40.23100 6.94000 46.50700
H  39.76700 4.80000 44.48200
H  38.84200 5.55400 47.17900
H  39.56500 3.92800 47.18200
H  38.15400 4.37100 46.04900
H  40.12900 8.40400 44.57600
H  39.13800 7.06800 44.15900
H  41.50500 6.44600 42.78400
H  41.92800 8.04900 43.19500
H  41.26900 -0.59600 43.31400
H  40.33000 0.17200 44.68900
H  41.28600 -1.27200 44.81200
H  45.72600 -2.80300 43.62800
H  46.17800 -1.62000 44.86700
H  46.01700 -1.09800 43.14800
H  48.93400 1.72000 44.55200
H  49.47400 3.72900 46.51200
H  48.05100 0.94300 47.29000
H  49.63800 1.73600 47.16800
H  49.27100 0.37400 46.05600
H  49.75500 4.98900 43.92600
H  50.38000 3.41300 43.77700
H  52.22600 4.11500 44.55500
H  51.65300 4.49700 46.15700
H  51.52300 5.67700 44.83500
H  48.54100 8.43000 46.63300
H  47.39800 9.80300 46.64100
H  48.04300 9.21800 45.15000
H  42.33700 9.24900 45.17100
H  39.81300 11.37700 47.62600
H  41.08200 10.83900 48.84300
H  39.94200 9.69600 48.33400
Mg 5.65200 52.93600 41.46600
C  4.49700 49.67400 40.95300
C  8.64200 52.01200 40.06900
C  6.45700 56.23800 41.14800
C  2.33900 53.74300 41.99800
N  6.43200 51.00300 40.52200
C  5.80900 49.82000 40.40300
C  6.72300 48.67400 39.94200
C  8.10400 49.42600 40.03700
C  7.74300 50.89800 40.10700
C  9.07700 49.07600 41.17200
C  6.46700 48.25200 38.47900
C  6.17600 49.29700 37.43600
H  5.69200 48.74700 36.06400
N  7.35000 53.98900 40.83000
C  8.50300 53.41500 40.29600
C  9.48100 54.46900 39.97900
C  8.79900 55.69900 40.28200
C  7.46700 55.36700 40.81500
C  10.92000 54.17400 39.57500
C  9.42000 57.12200 40.26000
O  10.48100 57.22000 39.73100
C  8.83200 58.28800 40.91300
N  4.57300 54.82800 41.75700
C  5.08400 56.07300 41.49200
C  4.02700 57.14600 41.50200
C  2.71300 56.32400 41.87600
C  3.23300 54.87800 41.91300
C  4.19500 58.29500 42.44500
C  1.57100 56.68100 40.89300
C  1.41900 55.87800 39.61000
N  3.88200 51.95000 41.68300
C  2.64600 52.38200 42.10300
C  1.68600 51.31000 42.31600
C  2.44300 50.18900 42.00500
C  3.69800 50.66300 41.54200
C  0.17000 51.42600 42.59000
C  2.35800 48.76600 41.73500
O  1.43200 47.96100 41.88600
C  3.69000 48.41600 41.08200
C  3.32300 48.00400 39.73100
O  2.93800 48.75600 38.81200
O  3.40700 46.68700 39.63600
C  3.05500 46.06400 38.34600
H  9.61500 51.62700 39.75400
H  6.48600 57.30700 40.92300
H  1.29600 54.01800 42.16900
H  6.69400 47.73900 40.50300
H  8.64900 49.43500 39.09400
H  8.82400 48.05300 41.44900
H  9.00000 49.66800 42.08400
H  10.08300 49.22100 40.77800
H  5.59600 47.60000 38.55300
H  7.24600 47.56500 38.14900
H  7.12000 49.84000 37.37800
H  5.44800 49.99300 37.85400
H  11.34400 53.34600 40.14400
H  11.59100 55.01100 39.76600
H  11.09200 53.99500 38.51400
H  9.60800 59.02800 41.11300
H  8.42300 57.94000 41.86100
H  8.09000 58.78500 40.28900
H  4.06100 57.48100 40.46600
H  2.37000 56.60800 42.87100
H  5.01900 58.10800 43.13300
H  3.24900 58.49700 42.94800
H  4.30200 59.23800 41.91000
H  1.53400 57.70900 40.53500
H  0.66100 56.45500 41.44900
H  2.40300 55.60700 39.22900
H  0.93600 56.46200 38.82700
H  0.84500 54.96500 39.77000
H  -0.19000 50.64800 43.26400
H  -0.41500 51.47500 41.67200
H  0.02700 52.39700 43.06500
H  4.28900 47.58900 41.46300
H  3.86200 45.35200 38.17200
H  3.00700 46.76900 37.51600
H  2.04800 45.64900 38.39200

