158

Mg 25.17000 1.11900 29.97400
C  27.23900 0.86800 32.86100
C  22.38100 1.14200 31.99900
C  23.31400 0.91500 27.18800
C  28.04900 0.61100 27.99400
N  24.88700 1.07700 32.21700
C  25.84700 1.11300 33.20900
C  25.20000 1.22500 34.62100
C  23.70400 1.14900 34.21800
C  23.63600 1.13200 32.68300
C  22.79000 0.05700 34.92100
C  25.70400 2.50100 35.42700
C  26.37700 2.19900 36.80900
H  26.16700 3.14200 37.97300
N  23.13500 1.03200 29.58900
C  22.12100 1.01200 30.56200
C  20.86100 0.70300 29.95300
C  21.12500 0.66500 28.55300
C  22.60000 0.92300 28.39000
C  19.58100 0.61100 30.65900
C  20.21500 0.30000 27.33900
O  20.56500 0.43500 26.18900
C  18.86400 -0.26200 27.62600
N  25.66400 0.91200 27.81600
C  24.72300 0.93000 26.85300
C  25.32600 0.99300 25.47900
C  26.79800 1.11600 25.81300
C  26.90200 0.91500 27.25200
C  24.97800 -0.19100 24.65200
C  27.56100 2.48100 25.38900
C  26.91000 3.80200 25.75700
N  27.16300 0.74400 30.30000
C  28.18600 0.49400 29.39400
C  29.38300 0.05600 30.12500
C  29.06700 0.29300 31.47600
C  27.72700 0.70500 31.56400
C  30.60500 -0.47000 29.53400
C  29.66300 0.21000 32.84700
O  30.81600 -0.11400 33.25600
C  28.47000 0.60900 33.81000
C  28.26700 -0.47600 34.73900
O  27.65100 -1.51300 34.47800
O  29.03200 -0.25000 35.84500
C  28.95900 -1.21400 36.82700
H  21.50000 1.00500 32.63000
H  22.71700 0.98000 26.27600
H  28.90900 0.44900 27.34100
H  25.57000 0.29800 35.06100
H  23.25700 2.09500 34.52500
H  21.90200 0.46700 35.40200
H  23.35300 -0.15800 35.83000
H  22.61000 -0.66200 34.12200
H  24.78200 3.07200 35.53100
H  26.22600 3.23900 34.81800
H  27.43300 2.16200 36.54300
H  26.07600 1.22000 37.18200
H  19.54100 0.90200 31.70900
H  19.28800 -0.43900 30.66500
H  18.90000 1.25100 30.09800
H  18.60100 -0.69800 26.66200
H  18.17200 0.56000 27.80800
H  18.99400 -0.97200 28.44300
H  24.99600 1.91600 25.00100
H  27.46300 0.33500 25.44500
H  25.79800 -0.88200 24.45900
H  24.65900 0.30800 23.73700
H  24.17300 -0.75900 25.11900
H  27.58200 2.59100 24.30400
H  28.60700 2.38800 25.68200
H  26.10700 3.63600 26.47500
H  26.51600 4.31500 24.88000
H  27.61700 4.51200 26.18600
H  31.26400 0.39300 29.43900
H  30.45500 -1.09700 28.65500
H  31.05700 -1.00400 30.37000
H  28.76500 1.51400 34.34000
H  27.95400 -1.17400 37.24800
H  29.64800 -0.86300 37.59500
H  29.17500 -2.23900 36.52400
Mg -11.23100 37.91900 41.88800
C  -9.67400 35.03800 40.85100
C  -8.64700 39.88600 40.63500
C  -13.08600 40.86900 42.36500
C  -14.02800 36.07300 43.02300
N  -9.35800 37.47400 40.91300
C  -8.93900 36.26400 40.48700
C  -7.53600 36.39100 39.80300
C  -7.10900 37.82400 40.20200
C  -8.44600 38.44900 40.61900
C  -5.96700 37.90500 41.35700
C  -7.53600 35.94400 38.26900
C  -6.45100 34.89100 37.91500
H  -5.47500 35.29400 36.80100
N  -10.90500 40.07000 41.53400
C  -9.79300 40.66200 41.03500
C  -9.95300 42.09200 40.87600
C  -11.19300 42.41800 41.48300
C  -11.80300 41.09700 41.84800
C  -8.83900 42.98300 40.35900
C  -11.67600 43.83300 41.76400
O  -11.06500 44.83600 41.39400
C  -12.95000 44.20400 42.40600
N  -13.36400 38.35700 42.46600
C  -13.75700 39.66500 42.65600
C  -15.00600 39.74200 43.45300
C  -15.42600 38.19900 43.71600
C  -14.29100 37.47500 42.97500
C  -14.91400 40.56000 44.81700
C  -16.83600 37.83900 43.17000
C  -17.62400 37.06200 44.21500
N  -11.78700 35.94700 42.06100
C  -12.95000 35.31000 42.45500
C  -12.65700 33.87600 42.34700
C  -11.40500 33.70600 41.77800
C  -10.95900 35.04000 41.61000
C  -13.64100 32.81200 42.70300
C  -10.46900 32.76600 41.26900
O  -10.45500 31.56800 41.36300
C  -9.36700 33.56900 40.58300
C  -8.04000 33.11100 41.08000
O  -7.12500 32.82500 40.32600
O  -7.98100 33.09800 42.45800
C  -6.67100 32.83200 43.02500
H  -7.73800 40.36300 40.26300
H  -13.73400 41.74400 42.45300
H  -14.71700 35.52200 43.66600
H  -6.91800 35.64600 40.30500
H  -6.73600 38.25000 39.27100
H  -6.38500 38.50400 42.16500
H  -5.05400 38.43600 41.08900
H  -5.76700 36.86900 41.63300
H  -7.46400 36.77400 37.56600
H  -8.53700 35.54000 38.11800
H  -6.97800 33.95800 37.71600
H  -5.84700 34.73600 38.80900
H  -8.67200 43.85600 40.99100
H  -8.95000 43.26000 39.31100
H  -7.86300 42.50400 40.44300
H  -12.97500 45.26800 42.64600
H  -13.06100 43.86700 43.43700
H  -13.81600 43.95700 41.79200
H  -15.67800 40.25700 42.76700
H  -15.37900 37.87800 44.75700
H  -15.38400 41.53300 44.67600
H  -13.88500 40.88000 44.97500
H  -15.41600 40.01700 45.61900
H  -16.62200 37.32200 42.23400
H  -17.36500 38.70600 42.77600
H  -17.30000 37.23500 45.24100
H  -17.27500 36.04400 44.04500
H  -18.69400 37.16900 44.03200
H  -13.25200 31.82000 42.47200
H  -14.58100 32.98800 42.17900
H  -13.72900 32.89300 43.78600
H  -9.44200 33.31800 39.52500
H  -5.99500 33.68700 42.99600
H  -6.24100 32.05200 42.39600
H  -6.77100 32.53600 44.06900

