158

Mg 2.38400 -1.23700 44.76100
C  5.54600 0.12300 44.25700
C  1.01400 1.41400 42.89200
C  -0.41100 -2.99000 44.48500
C  4.12400 -4.27000 45.85400
N  3.09800 0.47700 43.66300
C  4.46000 0.88800 43.67300
C  4.64000 2.13600 42.79800
C  3.18400 2.67400 42.52300
C  2.35300 1.44200 43.03900
C  2.82000 4.08300 43.18800
C  5.52900 1.88500 41.49200
C  6.47700 2.96200 41.14700
H  6.19100 3.55600 39.74800
N  0.54200 -0.85500 43.89400
C  0.08700 0.33200 43.27100
C  -1.37500 0.32400 43.23600
C  -1.71200 -0.97300 43.61800
C  -0.55200 -1.66500 44.03400
C  -2.18000 1.51400 42.71500
C  -3.18100 -1.48100 43.60100
O  -4.00800 -0.70300 43.19400
C  -3.62500 -2.76400 44.12300
N  1.97000 -3.39700 44.94400
C  0.66100 -3.76000 44.93700
C  0.47700 -5.15200 45.63900
C  1.89400 -5.65700 45.60800
C  2.76400 -4.36700 45.55200
C  -0.19800 -5.01700 47.05200
C  2.33700 -6.58000 44.42600
C  2.33100 -8.06100 44.68900
N  4.40100 -1.92600 45.19300
C  4.92200 -3.16800 45.52500
C  6.32400 -3.07800 45.70100
C  6.64300 -1.77300 45.24800
C  5.45000 -1.17300 44.83300
C  7.28500 -4.10400 46.19300
C  7.74200 -0.85300 45.08400
O  8.93500 -0.95700 45.28600
C  7.04100 0.41000 44.34600
C  7.32100 1.65700 45.16700
O  6.71000 2.03600 46.15500
O  8.43600 2.31800 44.67700
C  9.04000 3.40000 45.44700
H  0.46300 2.28800 42.53700
H  -1.37400 -3.49300 44.37800
H  4.64500 -5.15500 46.22400
H  5.23000 2.80700 43.42300
H  3.09400 2.69800 41.43700
H  3.64500 4.56000 43.71700
H  1.96600 3.91300 43.84400
H  2.64000 4.79000 42.37800
H  4.81500 1.77300 40.67600
H  6.09400 0.95300 41.46600
H  7.44100 2.48000 40.98800
H  6.57900 3.69000 41.95100
H  -1.86400 1.68000 41.68600
H  -1.75100 2.33900 43.28400
H  -3.27000 1.49500 42.72000
H  -4.70800 -2.66600 44.05400
H  -3.29600 -2.91900 45.15000
H  -3.26500 -3.47400 43.37800
H  -0.12700 -5.72000 44.93200
H  2.17200 -6.23400 46.49000
H  -0.57700 -3.99900 47.14500
H  0.54400 -5.38200 47.76200
H  -1.01400 -5.74000 47.04300
H  3.34200 -6.31200 44.10000
H  1.55700 -6.41200 43.68400
H  1.97900 -8.31600 45.68900
H  3.37500 -8.36600 44.61200
H  1.74300 -8.59200 43.94100
H  8.31000 -3.73400 46.22100
H  7.16000 -4.93000 45.49300
H  7.00900 -4.43000 47.19600
H  7.49500 0.56700 43.36800
H  10.05300 3.01700 45.56700
H  8.57000 3.52500 46.42200
H  9.17900 4.35400 44.93700
Mg 48.07500 15.31500 28.70400
C  46.02600 15.51000 31.46900
C  50.44700 16.97500 30.42100
C  49.75500 15.63700 25.77700
C  45.36800 13.90800 26.89100
N  48.03100 16.35000 30.55300
C  47.22100 16.10700 31.61800
C  47.86500 16.40900 33.00400
C  49.17300 17.23200 32.59600
C  49.23600 16.80800 31.09100
C  49.23100 18.77400 32.76700
C  48.10000 15.13100 33.87500
C  47.80800 15.40400 35.33700
H  47.94700 16.88900 35.83800
N  49.91500 16.06700 28.20300
C  50.75000 16.76400 29.07100
C  51.98900 17.06200 28.41400
C  51.81800 16.55200 27.06400
C  50.45900 16.07300 26.96000
C  53.20900 17.81300 29.09400
C  52.81200 16.64600 25.85800
O  52.52600 16.19600 24.73800
C  54.07700 17.37700 26.00800
N  47.57200 14.88300 26.60200
C  48.43900 15.12100 25.61500
C  47.86400 14.73600 24.32400
C  46.49600 14.01500 24.71700
C  46.48600 14.21600 26.16200
C  47.73900 15.79300 23.13200
C  46.28100 12.54200 24.17700
C  47.39000 11.54400 24.65200
N  46.16400 14.61700 29.15600
C  45.17900 14.09900 28.26100
C  43.97100 13.85300 29.09100
C  44.27500 14.48600 30.35000
C  45.64100 14.83100 30.37800
C  42.76200 13.19500 28.65700
C  43.65600 14.85400 31.67300
O  42.51500 14.65300 32.18400
C  44.83600 15.46200 32.46900
C  44.26800 16.74900 33.00500
O  43.96200 17.78700 32.44800
O  44.13300 16.56600 34.36400
C  43.80900 17.67300 35.28100
H  51.17600 17.49800 31.04200
H  50.41700 15.70900 24.91100
H  44.53900 13.45600 26.34200
H  47.14200 17.06900 33.48400
H  50.02400 16.80400 33.12600
H  48.27700 19.10500 33.17700
H  49.18000 19.25800 31.79100
H  50.05400 19.15000 33.37400
H  49.14500 14.83000 33.95600
H  47.49800 14.31800 33.46900
H  48.44500 14.82100 36.00300
H  46.75500 15.16200 35.47600
H  52.90300 18.78600 29.48100
H  54.11400 17.80500 28.48700
H  53.40500 17.35600 30.06400
H  54.61100 17.62000 25.08800
H  54.76900 16.83500 26.65200
H  53.80700 18.36900 26.37100
H  48.60500 14.03700 23.93500
H  45.69100 14.64500 24.33800
H  46.72900 15.59000 22.77400
H  48.57700 15.63400 22.45300
H  47.79800 16.79500 23.55600
H  46.19000 12.59200 23.09200
H  45.35700 12.14000 24.59400
H  47.21300 11.40500 25.71900
H  48.39900 11.87800 24.40600
H  47.17000 10.66700 24.04500
H  41.86700 13.81100 28.57500
H  42.52500 12.46500 29.43000
H  42.91100 12.88100 27.62400
H  45.03100 14.82900 33.33500
H  44.63600 18.38000 35.23400
H  43.87500 17.30100 36.30300
H  42.86300 18.19500 35.13600

