158

Mg 3.45600 0.69500 44.44300
C  6.25500 2.77800 44.25500
C  1.55300 3.20300 42.98100
C  0.89900 -1.55500 43.90900
C  5.64400 -1.95800 45.28900
N  3.87800 2.67300 43.70000
C  5.11400 3.30700 43.66400
C  4.97300 4.77500 43.28200
C  3.36000 4.95100 43.20600
C  2.86400 3.55500 43.33500
C  2.69900 5.89700 44.26000
C  5.74500 5.11700 41.89700
C  6.08800 3.97000 40.93300
H  6.51600 4.25300 39.50100
N  1.43100 0.79000 43.70400
C  0.88400 1.91400 43.13400
C  -0.42300 1.59600 42.66300
C  -0.64600 0.22400 42.97600
C  0.55700 -0.26200 43.59000
C  -1.41800 2.62800 42.03100
C  -1.92300 -0.64700 42.56000
O  -2.83200 -0.09000 41.98100
C  -2.20400 -2.06700 43.02300
N  3.32400 -1.46900 44.37800
C  2.11600 -2.12700 44.28900
C  2.36000 -3.59500 44.51300
C  3.78000 -3.73400 45.18400
C  4.30800 -2.32000 44.92600
C  1.30000 -4.42100 45.16700
C  4.68900 -4.98300 44.71800
C  5.35000 -5.73400 45.82300
N  5.50100 0.35200 44.67300
C  6.23600 -0.70900 45.16800
C  7.55900 -0.31000 45.49900
C  7.69100 1.00500 45.07900
C  6.39800 1.37700 44.65500
C  8.64200 -1.20200 45.98200
C  8.54600 2.20400 44.97300
O  9.73700 2.32000 45.14100
C  7.60400 3.35300 44.49500
C  7.61500 4.55600 45.35500
O  8.38700 5.47700 45.14800
O  6.69600 4.58300 46.34500
C  6.62000 5.81900 47.16300
H  1.01000 4.08300 42.63100
H  0.13500 -2.32500 43.78100
H  6.27300 -2.73600 45.72700
H  5.38200 5.31400 44.13700
H  3.11100 5.38000 42.23600
H  3.02400 5.48600 45.21600
H  1.64700 5.79900 43.99100
H  3.02000 6.93400 44.16400
H  6.64300 5.54600 42.34400
H  5.17800 5.89800 41.38900
H  5.40100 3.12500 40.96300
H  7.02500 3.52500 41.26500
H  -1.41400 2.38600 40.96800
H  -1.06200 3.65400 42.11900
H  -2.43200 2.42800 42.37700
H  -1.94600 -2.18700 44.07500
H  -1.55900 -2.59300 42.31900
H  -3.27000 -2.29100 42.97900
H  2.31200 -3.87000 43.45900
H  3.58100 -3.70300 46.25600
H  0.64400 -3.82600 45.80100
H  1.80500 -5.22900 45.69600
H  0.83500 -4.92400 44.31900
H  5.33500 -4.59100 43.93300
H  4.09200 -5.73100 44.19600
H  4.91600 -5.43000 46.77600
H  6.41200 -5.50200 45.75300
H  5.13100 -6.80100 45.82700
H  8.88800 -2.02800 45.31500
H  8.37500 -1.53300 46.98500
H  9.61600 -0.71400 46.01000
H  8.24700 3.59300 43.64800
H  5.84600 6.47500 46.76600
H  7.57600 6.34200 47.17700
H  6.32000 5.54500 48.17400
Mg -9.52000 18.41900 42.39600
C  -6.06400 18.17600 42.65600
C  -9.20200 21.81000 41.77300
C  -12.80700 18.61400 41.75100
C  -9.68700 14.95400 42.77400
N  -7.87000 19.72400 42.08700
C  -6.50400 19.45000 42.25500
C  -5.67800 20.68900 41.96700
C  -6.68400 21.90500 41.98900
C  -8.00500 21.12400 42.01800
C  -6.47800 22.89600 43.22400
C  -4.85500 20.54500 40.64300
C  -5.57900 19.82700 39.46800
H  -5.34300 20.30800 38.00900
N  -10.82500 20.03100 41.83500
C  -10.54100 21.34500 41.67600
C  -11.76700 22.14000 41.40800
C  -12.82400 21.17700 41.46800
C  -12.17500 19.84700 41.70900
C  -11.84000 23.54800 41.04800
C  -14.27700 21.42800 41.44600
O  -14.62600 22.60200 41.23900
C  -15.36200 20.47600 41.63000
N  -10.97900 17.06500 42.07400
C  -12.25500 17.38500 41.98900
C  -13.16500 16.24600 42.31700
C  -12.20600 14.98100 42.30100
C  -10.83600 15.67400 42.41200
C  -14.03200 16.33700 43.59600
C  -12.26500 14.04300 41.02000
C  -13.17600 12.79400 41.05100
N  -8.16000 16.83600 42.73500
C  -8.38400 15.47400 42.96700
C  -7.13800 14.84300 43.34700
C  -6.16700 15.89000 43.20300
C  -6.88200 17.07300 42.88300
C  -6.99000 13.40300 43.66700
C  -4.74400 16.16600 43.26800
O  -3.73300 15.48100 43.49600
C  -4.62200 17.65300 42.94400
C  -3.92000 18.33300 44.05100
O  -2.94500 19.06600 43.89300
O  -4.38300 17.98400 45.26600
C  -3.45800 18.22000 46.39400
H  -9.10800 22.89400 41.67800
H  -13.89900 18.60100 41.76000
H  -9.95000 13.90100 42.89400
H  -4.93800 20.73500 42.76600
H  -6.70400 22.54700 41.10900
H  -7.21800 22.66000 43.98900
H  -6.60700 23.95700 43.00900
H  -5.50600 22.90200 43.71800
H  -3.93200 20.02100 40.89200
H  -4.57300 21.51900 40.24400
H  -6.65900 19.75600 39.59600
H  -5.11600 18.84100 39.43000
H  -10.87900 24.04700 41.18000
H  -12.43900 24.13300 41.74600
H  -12.13200 23.85900 40.04500
H  -15.27800 19.85600 42.52300
H  -15.38600 19.93400 40.68500
H  -16.31800 20.97700 41.78000
H  -13.86300 16.02800 41.50900
H  -12.39100 14.34700 43.16800
H  -14.92300 16.87000 43.26400
H  -13.55900 17.00500 44.31500
H  -14.40000 15.37700 43.96100
H  -11.27400 13.66900 40.76200
H  -12.52100 14.62800 40.13600
H  -13.44100 12.54000 42.07800
H  -12.52200 11.96500 40.77800
H  -14.06600 12.91600 40.43500
H  -6.00700 13.14300 43.27400
H  -7.72700 12.78100 43.15900
H  -7.01500 13.14600 44.72600
H  -4.01700 17.70000 42.03900
H  -3.35500 17.18300 46.71600
H  -3.92200 18.82800 47.17100
H  -2.47900 18.62700 46.14200

