158

Mg 35.57700 0.40500 29.78200
C  33.17500 1.68700 32.02300
C  37.85000 0.34400 32.42100
C  38.01400 -0.01300 27.62300
C  33.35000 1.23800 27.24600
N  35.56100 1.07100 31.99400
C  34.41000 1.42600 32.67500
C  34.63200 1.40400 34.25000
C  36.28600 1.29500 34.25500
C  36.61800 0.84000 32.80500
C  37.10200 2.61000 34.79200
C  33.82600 0.27900 35.01300
C  33.24400 0.60100 36.39300
H  34.05400 1.60100 37.32000
N  37.63100 -0.06400 29.99400
C  38.38800 -0.09900 31.14900
C  39.72700 -0.63600 30.88200
C  39.76400 -0.69600 29.44500
C  38.46100 -0.27100 28.91800
C  40.65000 -0.88100 31.96200
C  40.95600 -0.99700 28.60100
O  40.94700 -0.80700 27.36800
C  42.14900 -1.56800 29.18500
N  35.68500 0.58400 27.66400
C  36.81500 0.46200 27.03200
C  36.63700 0.68900 25.46200
C  35.16200 1.19500 25.51400
C  34.67400 0.91800 26.87500
C  37.69200 1.76000 24.89500
C  34.35500 0.55800 24.35700
C  33.47000 -0.69300 24.67500
N  33.65700 1.13300 29.57300
C  32.87400 1.40400 28.47200
C  31.62600 1.87900 28.86800
C  31.68900 2.00700 30.21200
C  32.95200 1.58400 30.62000
C  30.53900 2.35700 27.96500
C  31.00800 2.45900 31.41800
O  29.88600 3.04500 31.47700
C  31.88600 2.26000 32.60700
C  32.10500 3.49300 33.38600
O  32.71100 4.47800 32.91300
O  31.46400 3.39800 34.58900
C  31.57700 4.61900 35.39500
H  38.49200 0.40300 33.30200
H  38.72500 -0.13900 26.80400
H  32.65200 1.49100 26.44500
H  34.31600 2.40800 34.53700
H  36.58900 0.50600 34.94300
H  38.02400 2.25500 35.25300
H  36.48400 3.03100 35.58600
H  37.33200 3.35800 34.03400
H  34.49700 -0.56600 35.16000
H  32.99800 0.04200 34.34500
H  33.05900 -0.36700 36.85700
H  32.29700 1.09800 36.18200
H  40.88000 -1.91300 32.22800
H  40.38700 -0.42500 32.91600
H  41.56300 -0.36900 31.65800
H  42.93600 -0.95000 29.61700
H  42.52800 -2.24000 28.41500
H  41.86900 -2.28200 29.96000
H  36.78200 -0.34000 25.13400
H  35.14600 2.27900 25.40300
H  37.17800 2.54700 24.34400
H  38.28600 1.23000 24.15000
H  38.30800 2.16600 25.69800
H  35.08000 0.11000 23.67700
H  33.71100 1.29400 23.87700
H  33.70800 -1.16000 25.63100
H  33.61800 -1.42400 23.88000
H  32.42000 -0.40000 24.65100
H  30.61900 3.44200 27.90100
H  29.60100 2.11500 28.46500
H  30.50000 1.85100 27.00000
H  31.44300 1.54200 33.29700
H  31.45700 4.41200 36.45800
H  30.77600 5.25500 35.01800
H  32.55800 5.09200 35.33700
Mg 47.00100 24.18800 28.97100
C  47.81100 26.67800 31.48300
C  46.20000 22.10600 31.36300
C  46.95300 21.92400 26.67700
C  48.16100 26.62500 26.57900
N  46.88800 24.44200 31.12300
C  47.28500 25.51100 31.98900
C  46.72300 25.19300 33.40400
C  46.51700 23.68700 33.42400
C  46.47400 23.39400 31.91000
C  47.68000 22.87900 34.15200
C  45.48200 26.06000 33.80700
C  45.64000 26.88400 35.08200
H  44.63300 26.67200 36.19300
N  46.45500 22.26200 28.97200
C  46.14200 21.55500 30.06800
C  45.82800 20.17900 29.62900
C  46.04000 20.12700 28.27500
C  46.52100 21.47700 27.91400
C  45.48600 19.10500 30.66400
C  45.76600 18.89300 27.30900
O  45.88900 19.02800 26.12200
C  45.21500 17.57000 27.84700
N  47.45200 24.28600 26.97000
C  47.33400 23.13700 26.22600
C  47.85000 23.39500 24.89000
C  47.88400 24.95500 24.75300
C  47.91200 25.35300 26.20500
C  49.27300 22.74600 24.62900
C  46.69500 25.57400 23.99700
C  45.43600 25.94400 24.67300
N  47.81500 26.25900 28.94800
C  48.12600 27.10400 27.89800
C  48.47700 28.44200 28.42300
C  48.47100 28.30500 29.85700
C  48.02100 26.95800 30.10100
C  48.94600 29.61700 27.67400
C  48.70400 28.98600 31.13800
O  49.13700 30.06800 31.48500
C  48.27000 27.91500 32.20900
C  49.38400 27.66400 33.14600
O  50.43400 27.07700 32.91100
O  49.08300 28.19000 34.41000
C  50.11400 27.91000 35.42200
H  45.91300 21.47900 32.20900
H  47.15900 21.24600 25.84600
H  48.47300 27.28000 25.76300
H  47.59500 25.46600 33.99900
H  45.55800 23.38100 33.84100
H  47.20600 22.36000 34.98500
H  48.41600 23.60400 34.50200
H  48.23400 22.18000 33.52600
H  44.70900 25.30600 33.95900
H  45.24900 26.78700 33.02900
H  45.47900 27.96200 35.07500
H  46.58300 26.62400 35.56200
H  45.48400 19.47200 31.69000
H  46.13800 18.23800 30.76300
H  44.51000 18.71700 30.37300
H  45.87000 17.35600 28.69200
H  45.05100 16.89300 27.00900
H  44.22000 17.85100 28.19100
H  47.25800 22.89800 24.12200
H  48.78300 25.29600 24.24100
H  49.51600 22.37900 25.62700
H  49.88300 23.58400 24.29200
H  49.14800 21.96800 23.87700
H  46.52900 24.92100 23.14000
H  47.03800 26.53600 23.61900
H  44.62500 25.80000 23.96000
H  45.54100 26.90900 25.16800
H  45.26800 25.15400 25.40500
H  48.29400 29.69400 26.80400
H  50.01000 29.51500 27.46000
H  48.81500 30.54100 28.23800
H  47.32800 28.29800 32.60200
H  50.24900 26.83300 35.51600
H  49.76400 28.29100 36.38200
H  51.00100 28.47400 35.13300

