158

Mg -1.95300 17.60700 27.94500
C  -2.48700 15.69000 30.75800
C  -2.71700 20.42400 29.97700
C  -1.69900 19.43400 25.19800
C  -1.37100 14.63500 26.02200
N  -2.52900 18.00200 30.06800
C  -2.55700 17.05000 31.07800
C  -2.75400 17.68600 32.41900
C  -3.07900 19.17100 32.14500
C  -2.77900 19.22200 30.62600
C  -4.55200 19.54700 32.43300
C  -1.57900 17.45300 33.42300
C  -1.99700 17.01100 34.85000
H  -0.89400 16.96900 35.94700
N  -2.05400 19.65200 27.61200
C  -2.45200 20.60700 28.56200
C  -2.37300 21.90000 27.87300
C  -2.02100 21.61800 26.51100
C  -1.89800 20.23500 26.37500
C  -2.39800 23.19000 28.70500
C  -1.74800 22.53700 25.35000
O  -1.47600 22.19300 24.24700
C  -1.73300 24.06500 25.50200
N  -1.77700 17.10200 25.85800
C  -1.50700 18.07300 24.96300
C  -1.11100 17.40000 23.63300
C  -0.84800 15.90900 23.89900
C  -1.27300 15.88700 25.36700
C  -2.15700 17.66700 22.55200
C  0.64500 15.44800 23.73200
C  1.73000 16.04500 24.66200
N  -2.02900 15.58600 28.21900
C  -1.81700 14.48800 27.35700
C  -1.98500 13.28200 28.11400
C  -2.28000 13.71700 29.40700
C  -2.18000 15.13700 29.45100
C  -1.81600 11.82600 27.67600
C  -2.55500 13.27000 30.74000
O  -2.65500 12.14300 31.16900
C  -2.57400 14.51000 31.65500
C  -1.43000 14.28000 32.52400
O  -0.27400 14.51000 32.23000
O  -1.82500 13.74300 33.74300
C  -0.78100 13.19300 34.63900
H  -3.06900 21.27400 30.56500
H  -1.57100 20.01300 24.28200
H  -1.25500 13.79800 25.33200
H  -3.70300 17.30200 32.79200
H  -2.28400 19.77400 32.58300
H  -4.89600 20.15700 31.59800
H  -4.55100 20.20600 33.30100
H  -5.20100 18.67200 32.45900
H  -1.01800 18.38500 33.48800
H  -0.96900 16.65300 33.00400
H  -2.49000 16.04100 34.90400
H  -2.71400 17.75900 35.18600
H  -3.20000 23.91300 28.55400
H  -1.49800 23.80100 28.63600
H  -2.33300 22.96000 29.76800
H  -1.95000 24.41100 24.49100
H  -0.80100 24.47000 25.89500
H  -2.60400 24.38500 26.07400
H  -0.20400 17.83200 23.21100
H  -1.39700 15.20600 23.27200
H  -2.98200 16.95600 22.53200
H  -1.73000 17.55500 21.55500
H  -2.59500 18.65000 22.72600
H  1.00000 15.75400 22.74800
H  0.68500 14.36800 23.87400
H  2.04600 16.99500 24.23100
H  2.64200 15.44800 24.68200
H  1.29000 16.13500 25.65500
H  -1.10300 11.67200 26.86500
H  -2.84100 11.63600 27.35800
H  -1.57400 11.16600 28.50900
H  -3.46000 14.51500 32.28900
H  0.25500 13.35800 34.34200
H  -0.94600 12.13700 34.85400
H  -1.05200 13.67600 35.57800
Mg 17.12000 -0.56900 27.21600
C  16.26100 1.23300 30.20000
C  19.02300 -2.51600 29.13200
C  18.18100 -1.92400 24.39300
C  15.36400 1.79600 25.39900
N  17.59100 -0.58600 29.48500
C  17.10700 0.16200 30.51600
C  17.75800 -0.26600 31.87000
C  18.78100 -1.42000 31.38900
C  18.36500 -1.58900 29.91600
C  20.27500 -1.25600 31.68900
C  16.78900 -0.78500 32.92800
C  16.99000 -0.12100 34.29300
H  18.42800 0.16600 34.78900
N  18.38500 -2.01600 26.83100
C  19.04000 -2.72700 27.76400
C  19.80400 -3.72200 27.08300
C  19.60300 -3.63100 25.70300
C  18.60300 -2.53900 25.57800
C  20.68500 -4.70200 27.81200
C  20.19700 -4.39600 24.52500
O  19.93800 -4.20400 23.34600
C  21.08600 -5.51900 24.72400
N  16.88800 -0.02600 25.20100
C  17.42800 -0.72900 24.16100
C  17.16000 -0.09900 22.77200
C  16.11400 0.93700 23.06000
C  16.09100 0.93000 24.64900
C  18.35000 0.63400 22.21200
C  14.67200 0.67600 22.56200
C  14.18600 1.73000 21.57000
N  15.86700 1.05800 27.65000
C  15.31500 1.98000 26.78200
C  14.76000 3.02800 27.56800
C  14.95000 2.69800 28.90800
C  15.73000 1.56400 28.90200
C  14.10000 4.23200 26.99800
C  14.66700 3.13700 30.35700
O  14.04500 4.04600 30.83100
C  15.58900 2.21500 31.17800
C  16.59300 2.93300 31.99200
O  17.77400 3.13100 31.66500
O  16.05200 3.24800 33.24300
C  16.88900 3.87800 34.28600
H  19.65000 -3.27100 29.61000
H  18.59300 -2.30300 23.45600
H  14.70400 2.54100 24.94800
H  18.26800 0.59600 32.30100
H  18.47100 -2.35100 31.86400
H  20.64700 -2.22700 32.01500
H  20.57000 -0.40600 32.30400
H  20.86400 -1.03600 30.79800
H  16.66700 -1.83200 33.20700
H  15.79600 -0.41700 32.66900
H  16.49100 -0.71000 35.06200
H  16.51100 0.85800 34.28600
H  20.36900 -5.69900 27.50600
H  20.65600 -4.78400 28.89800
H  21.73600 -4.50400 27.60100
H  22.08200 -5.32200 25.12000
H  21.21800 -6.10200 23.81200
H  20.51900 -6.23300 25.32100
H  16.87000 -0.87000 22.05800
H  16.40500 1.95900 22.81800
H  18.20400 1.59800 21.72500
H  18.87700 -0.05800 21.55500
H  19.06000 0.73700 23.03300
H  13.90900 0.46900 23.31200
H  14.83100 -0.21200 21.95000
H  13.56500 2.39500 22.17000
H  13.61000 1.29300 20.75400
H  15.07300 2.19500 21.14000
H  13.04600 3.95900 26.95200
H  14.39300 4.42700 25.96700
H  14.33800 5.15700 27.52400
H  14.98700 1.66500 31.90200
H  16.42500 4.62900 34.92500
H  17.79100 4.25500 33.80400
H  17.40600 3.17200 34.93600

