158

Mg 24.37000 -4.66200 45.73000
C  26.56900 -2.36700 44.12200
C  21.91300 -3.54700 43.65100
C  22.47400 -7.29500 46.57600
C  27.01500 -5.84500 47.43000
N  24.23100 -2.99500 44.21400
C  25.16700 -2.21900 43.67200
C  24.71900 -1.42800 42.45900
C  23.18000 -1.66500 42.54000
C  23.04500 -2.80900 43.57300
C  22.36100 -0.33700 42.83900
C  25.38700 -1.88200 41.12800
C  26.10000 -0.83700 40.28300
H  25.84300 -0.81000 38.80000
N  22.44700 -5.30600 45.23500
C  21.60900 -4.66900 44.39300
C  20.35200 -5.41500 44.35200
C  20.53700 -6.59300 45.09800
C  21.86200 -6.39500 45.67800
C  19.17400 -5.10800 43.55400
C  19.51400 -7.69700 45.25700
O  18.35200 -7.61600 44.87500
C  19.80100 -8.92000 46.00500
N  24.65000 -6.34000 46.81300
C  23.72700 -7.28800 47.11000
C  24.25300 -8.36600 48.03100
C  25.61700 -7.79000 48.46200
C  25.79600 -6.58900 47.50300
C  23.35700 -8.79800 49.17200
C  26.74600 -8.86100 48.39200
C  27.49800 -8.96000 49.68200
N  26.37500 -4.19800 45.80700
C  27.37000 -4.77800 46.57900
C  28.53000 -3.97800 46.54900
C  28.26600 -3.15600 45.45200
C  26.94600 -3.25500 45.06600
C  29.81600 -4.08500 47.35100
C  28.87600 -2.18700 44.58400
O  30.00600 -1.75000 44.60500
C  27.80800 -1.66200 43.65000
C  27.66200 -0.16000 43.72000
O  26.94000 0.44600 44.50600
O  28.50600 0.39500 42.83000
C  28.80500 1.77800 43.23900
H  21.00100 -3.21400 43.15200
H  21.90700 -8.13000 46.99300
H  27.79300 -6.21600 48.10000
H  24.94900 -0.38400 42.67300
H  22.60700 -2.09800 41.72000
H  22.92400 0.57600 42.64600
H  21.94100 -0.25800 43.84200
H  21.70000 -0.31100 41.97300
H  24.67800 -2.45900 40.53600
H  26.14700 -2.59500 41.44800
H  27.17400 -1.02500 40.29700
H  26.03600 0.17300 40.68600
H  19.05200 -5.77900 42.70400
H  19.17800 -4.07900 43.19300
H  18.30300 -5.24300 44.19500
H  19.78600 -8.52000 47.01900
H  20.79100 -9.27000 45.71100
H  18.98700 -9.63500 45.88500
H  24.38100 -9.22600 47.37400
H  25.57300 -7.46600 49.50200
H  23.95600 -9.01400 50.05700
H  22.86000 -9.72400 48.88000
H  22.70200 -7.95100 49.37400
H  27.46100 -8.66100 47.59300
H  26.36900 -9.87400 48.25400
H  26.84000 -9.05600 50.54500
H  28.11900 -8.08400 49.87400
H  28.15600 -9.82900 49.66300
H  30.49100 -3.32300 46.96100
H  30.23800 -5.08400 47.24400
H  29.60700 -3.84900 48.39500
H  28.14900 -1.90900 42.64500
H  29.74700 1.97300 42.72700
H  28.87800 1.96500 44.31100
H  28.00200 2.40400 42.85200
Mg 9.48800 48.62600 25.47600
C  7.37100 49.29700 28.16000
C  12.12300 49.98000 27.26200
C  11.63100 48.14400 22.77200
C  6.81100 48.03100 23.45500
N  9.73400 49.52200 27.45200
C  8.73400 49.57700 28.42000
C  9.38700 49.94900 29.73400
C  10.66600 50.72500 29.24500
C  10.88200 50.01700 27.90100
C  10.56600 52.30900 29.28800
C  9.61800 48.61600 30.56000
C  9.18700 48.77900 32.02100
H  8.97200 47.44000 32.88300
N  11.57900 48.86900 25.22000
C  12.48900 49.49300 26.01500
C  13.80600 49.35800 25.38900
C  13.65700 48.66500 24.16900
C  12.25600 48.52700 24.03100
C  15.07500 49.77900 26.15400
C  14.74400 48.06000 23.19700
O  14.46300 47.36600 22.24900
C  16.12000 48.32700 23.41100
N  9.20400 48.19500 23.37700
C  10.22800 47.91900 22.48300
C  9.69300 47.41500 21.15300
C  8.15400 47.38200 21.46900
C  8.01900 47.83700 22.83400
C  10.10300 48.25100 19.89500
C  7.48700 45.94300 21.22200
C  6.02300 45.90300 20.65700
N  7.45600 48.76100 25.68600
C  6.45700 48.46100 24.76800
C  5.20100 48.56800 25.37000
C  5.53000 48.80300 26.78200
C  6.92000 48.97800 26.87100
C  3.86800 48.22400 24.72200
C  4.97100 48.90000 28.09900
O  3.91100 48.65300 28.42000
C  6.09200 49.35100 29.06500
C  5.97500 48.23000 30.16100
O  6.46800 47.12300 30.04300
O  5.14400 48.64500 31.12800
C  4.76300 47.70200 32.20500
H  12.87300 50.33500 27.97100
H  12.24000 47.91000 21.89600
H  5.90900 47.90400 22.85300
H  8.76400 50.70400 30.21400
H  11.49000 50.45200 29.90500
H  10.70100 52.69600 30.29700
H  9.58400 52.67700 28.99300
H  11.31900 52.75600 28.63800
H  10.63400 48.22200 30.54800
H  9.03800 47.81900 30.09400
H  8.30400 49.41400 32.10500
H  9.86900 49.47700 32.50600
H  15.49000 48.81600 26.45300
H  14.80400 50.38500 27.01900
H  15.74300 50.36700 25.52600
H  16.27600 49.38200 23.18200
H  16.69800 47.67100 22.76000
H  16.14100 48.16100 24.48800
H  10.18100 46.44100 21.20400
H  7.60400 48.14500 20.91900
H  10.77400 49.09700 20.04700
H  9.20100 48.66300 19.44300
H  10.49900 47.66600 19.06500
H  7.35700 45.43400 22.17800
H  8.12200 45.31700 20.59600
H  5.75900 46.94400 20.47300
H  5.42500 45.50700 21.47800
H  5.88500 45.28800 19.76700
H  3.26500 47.46700 25.22400
H  3.94800 47.95900 23.66700
H  3.22100 49.10100 24.71900
H  5.85200 50.32100 29.50100
H  4.98600 46.65400 32.00700
H  3.68500 47.84800 32.27400
H  5.01000 47.94000 33.24000

