158

Mg 25.83500 1.21400 29.66600
C  27.85800 1.06300 32.47200
C  23.04700 1.46000 31.67600
C  23.95000 1.72100 26.97200
C  28.70000 0.50600 27.62900
N  25.49700 1.08300 31.78200
C  26.49600 1.23600 32.73100
C  25.94300 1.32500 34.16500
C  24.34900 1.24800 34.00700
C  24.27300 1.25400 32.39400
C  23.63300 -0.02800 34.47400
C  26.38600 2.67200 34.80300
C  26.96000 2.53300 36.24400
H  26.62600 3.60800 37.28100
N  23.77800 1.47000 29.34400
C  22.82200 1.63700 30.30000
C  21.54700 1.90100 29.72400
C  21.72800 1.90200 28.32500
C  23.22900 1.74200 28.18800
C  20.29500 2.00900 30.45200
C  20.77800 2.01200 27.13400
O  21.15900 2.01600 25.96200
C  19.30100 2.01900 27.34200
N  26.26500 0.91300 27.57200
C  25.35000 1.36800 26.70800
C  25.91900 1.44800 25.20900
C  27.49600 1.19700 25.46900
C  27.50700 0.82700 26.95900
C  25.27100 0.59400 24.10600
C  28.45800 2.35300 25.11000
C  29.44800 2.06800 23.95400
N  27.79500 0.75900 29.93300
C  28.80300 0.54500 29.05600
C  30.05200 0.32300 29.81700
C  29.72200 0.57600 31.13400
C  28.37100 0.85900 31.18000
C  31.43400 0.12500 29.18300
C  30.29400 0.69700 32.48400
O  31.44200 0.50700 32.83200
C  29.11400 1.11500 33.41900
C  28.98800 0.09700 34.54800
O  28.41600 -0.94200 34.56600
O  29.57300 0.67900 35.69000
C  29.50200 -0.23100 36.80600
H  22.23500 1.46900 32.40700
H  23.47000 1.90800 26.00900
H  29.59400 0.34500 27.02300
H  26.20100 0.51500 34.84700
H  23.89800 2.17400 34.36300
H  22.81400 0.27000 35.12900
H  24.36000 -0.75800 34.82700
H  23.25500 -0.58000 33.61400
H  25.64000 3.45800 34.68200
H  27.29000 3.04600 34.32300
H  28.04100 2.41400 36.16600
H  26.67800 1.64400 36.80700
H  19.77300 2.77100 29.87400
H  20.50100 2.37800 31.45700
H  19.75400 1.06300 30.47100
H  19.08700 1.01400 27.70400
H  18.87300 1.96400 26.34100
H  18.80200 2.69700 28.03400
H  25.72900 2.50400 25.01300
H  27.83800 0.32100 24.91800
H  24.88900 1.21400 23.29500
H  24.41300 0.02800 24.47000
H  25.91800 -0.21600 23.76900
H  29.08100 2.62700 25.96200
H  27.81800 3.21400 24.92000
H  29.67800 2.82200 23.20200
H  29.08800 1.16700 23.45800
H  30.38400 1.80800 24.45000
H  32.29100 -0.04600 29.83400
H  31.82700 0.92900 28.56000
H  31.42600 -0.77600 28.57000
H  29.18700 2.06900 33.94200
H  30.16900 0.06500 37.61600
H  29.63900 -1.28000 36.54500
H  28.53300 0.00700 37.24300
Mg 49.24100 16.19800 28.38500
C  47.07100 15.79300 31.00400
C  51.26700 18.15800 30.31500
C  51.21700 16.51000 25.78300
C  46.81700 14.68200 26.34500
N  49.07000 16.96500 30.35800
C  48.24800 16.49000 31.33900
C  48.53100 17.11300 32.68400
C  49.73400 18.11900 32.38500
C  50.06900 17.73200 30.93500
C  49.42000 19.62700 32.61800
C  48.71100 16.08800 33.77200
C  48.10900 16.41000 35.17200
H  48.05900 17.85400 35.68800
N  51.06000 17.15100 28.13900
C  51.80800 17.86100 29.01100
C  53.08900 18.21700 28.46000
C  53.08900 17.75500 27.15200
C  51.73500 17.08000 26.94300
C  54.03500 19.06000 29.18000
C  54.12700 17.76200 26.09200
O  54.02900 17.19900 25.02800
C  55.40500 18.50800 26.27200
N  49.15400 15.51500 26.38600
C  50.06900 15.83100 25.51500
C  49.64100 15.33800 24.07000
C  48.29800 14.55300 24.36000
C  48.08400 14.92000 25.80300
C  49.52000 16.57500 23.14600
C  48.50700 13.03500 24.18100
C  47.47400 12.29700 23.30900
N  47.28800 15.40100 28.52600
C  46.47400 14.77200 27.67000
C  45.24600 14.31400 28.35900
C  45.47500 14.63400 29.68400
C  46.69600 15.34000 29.72000
C  44.06900 13.55900 27.68400
C  44.91900 14.56400 31.07100
O  43.88800 14.09600 31.48200
C  45.89800 15.44500 31.93300
C  45.01300 16.51100 32.42500
O  44.57800 17.53000 31.84200
O  44.86000 16.19100 33.76600
C  43.97700 16.99500 34.61400
H  51.93300 18.82800 30.86300
H  51.75500 16.49000 24.83300
H  46.16000 14.07400 25.71900
H  47.61300 17.67000 32.87200
H  50.62300 17.79300 32.92400
H  48.46400 19.89600 33.06800
H  49.26800 20.11600 31.65600
H  50.19100 19.94900 33.31800
H  49.76400 15.94700 34.01800
H  48.36300 15.09500 33.48800
H  48.77200 15.87600 35.85300
H  47.07100 16.08000 35.21600
H  55.09400 18.81100 29.11500
H  53.82600 19.10500 30.24900
H  54.08300 20.04500 28.71400
H  56.08300 18.18700 27.06300
H  55.14700 19.56500 26.33700
H  55.95200 18.54000 25.33000
H  50.44800 14.74300 23.64400
H  47.47600 14.97700 23.78400
H  50.36200 16.54800 22.45300
H  49.38200 17.59500 23.50400
H  48.64900 16.30300 22.54900
H  48.50600 12.60500 25.18200
H  49.47300 12.72600 23.78100
H  46.75900 12.01100 24.08000
H  47.83900 11.42400 22.76800
H  47.08000 13.07600 22.65700
H  44.10300 12.47100 27.74700
H  44.01600 13.89500 26.64800
H  43.12200 13.95500 28.04900
H  46.26400 14.84200 32.76400
H  42.98400 16.54800 34.65300
H  43.80500 18.06900 34.53800
H  44.45200 16.81400 35.57800

