158

Mg 41.58000 40.64000 27.04000
C  40.74500 43.05800 29.38800
C  42.40800 38.47700 29.63900
C  42.47600 38.43000 24.73000
C  41.13800 43.10200 24.56800
N  41.70900 40.76200 29.36500
C  41.06900 41.81400 30.00000
C  40.97700 41.44500 31.54000
C  41.55700 39.99700 31.58400
C  41.95800 39.71700 30.11100
C  42.66700 39.80700 32.61100
C  39.59900 41.58800 32.25500
C  39.54400 42.48100 33.51500
H  39.12000 41.80600 34.81200
N  42.35600 38.74000 27.16400
C  42.62000 38.01900 28.32000
C  43.09000 36.67100 27.99500
C  43.08700 36.60400 26.56400
C  42.64300 37.94500 26.09000
C  43.72700 35.70100 28.99400
C  43.33800 35.47200 25.65400
O  43.48900 35.53400 24.46500
C  43.49000 34.11800 26.29800
N  41.73900 40.73600 24.99400
C  42.00800 39.62900 24.16700
C  41.87800 39.99000 22.65300
C  41.16600 41.43300 22.72500
C  41.42200 41.81600 24.17800
C  43.25900 39.91000 21.84500
C  39.59600 41.41000 22.45000
C  38.77300 40.35300 23.25700
N  41.02500 42.59800 26.90600
C  40.87000 43.51900 25.88100
C  40.43500 44.77000 26.39400
C  40.39200 44.61100 27.72300
C  40.80400 43.32000 27.99900
C  40.26000 46.02900 25.48400
C  40.11000 45.33000 28.96100
O  39.77500 46.48800 29.21000
C  40.33700 44.34000 30.03200
C  41.42200 44.85700 30.92600
O  42.61100 44.55600 30.82200
O  40.88500 45.49000 32.00100
C  41.84200 45.93900 32.95400
H  42.52600 37.75600 30.45100
H  42.49800 37.76300 23.86500
H  41.01100 43.86900 23.80100
H  41.64900 42.19000 31.96600
H  40.75700 39.30200 31.84200
H  42.75600 38.77800 32.96000
H  42.62800 40.46400 33.48000
H  43.60900 40.04000 32.11500
H  39.20200 40.63700 32.61000
H  38.84100 41.90500 31.53800
H  38.85100 43.31500 33.40200
H  40.49200 42.99300 33.67700
H  44.68700 35.41100 28.56700
H  43.15500 34.80500 29.23500
H  44.06400 36.31100 29.83300
H  42.60400 34.07800 26.93200
H  44.44900 34.21600 26.80600
H  43.55200 33.27700 25.60600
H  41.12400 39.32900 22.22500
H  41.74800 42.18500 22.19100
H  43.98300 39.55700 22.58000
H  43.59200 40.92000 21.60800
H  43.16000 39.33700 20.92300
H  39.46700 41.21800 21.38500
H  39.09500 42.33400 22.73600
H  37.99100 39.98200 22.59500
H  38.33400 40.82800 24.13400
H  39.31500 39.46400 23.58100
H  41.13300 46.22400 24.86100
H  40.15200 46.80600 26.24000
H  39.44500 45.87400 24.77800
H  39.47600 44.32400 30.70000
H  42.59400 46.49100 32.39100
H  42.27900 45.06400 33.43600
H  41.23900 46.65300 33.51500
Mg 26.36900 50.66100 26.51600
C  24.00300 51.55000 28.95900
C  28.56500 50.01900 29.06300
C  28.57600 49.68600 24.12100
C  24.25400 51.75400 24.06100
N  26.20500 50.68300 28.71800
C  25.22400 51.04800 29.48500
C  25.35100 50.70800 30.91400
C  26.85500 50.38700 30.97700
C  27.25600 50.42400 29.49800
C  27.65400 51.45400 31.76500
C  24.39700 49.57500 31.50700
C  23.87800 49.71000 32.89900
H  24.54100 50.73300 33.79700
N  28.36600 49.96500 26.54700
C  29.04000 49.69400 27.71500
C  30.31200 49.06400 27.32000
C  30.29200 48.91200 25.96100
C  29.04900 49.52100 25.44300
C  31.33800 48.58600 28.35500
C  31.38300 48.29900 25.11100
O  31.29500 48.31700 23.87500
C  32.66600 47.80800 25.75700
N  26.35500 50.76200 24.44200
C  27.33300 50.14200 23.70200
C  26.97300 49.97000 22.24600
C  25.48200 50.63400 22.10900
C  25.27100 51.01000 23.64600
C  27.92000 50.57100 21.21500
C  24.43900 49.59400 21.67300
C  23.35800 50.21200 20.81300
N  24.52600 51.55100 26.44400
C  23.81200 51.98700 25.39300
C  22.50500 52.56400 25.83700
C  22.56900 52.39100 27.27200
C  23.84800 51.76900 27.56800
C  21.41300 52.86100 25.03500
C  21.80700 52.64000 28.47000
O  20.71500 53.14700 28.69200
C  22.76900 52.17200 29.57700
C  23.11000 53.39700 30.43400
O  23.87400 54.27500 30.19200
O  22.49900 53.21500 31.59000
C  22.28000 54.39000 32.46400
H  29.23500 49.58000 29.80500
H  29.14600 49.20800 23.32200
H  23.62100 52.03400 23.21600
H  25.14900 51.64400 31.43400
H  26.96400 49.35100 31.29900
H  28.23100 52.11400 31.11700
H  28.33500 51.00400 32.48800
H  27.07100 52.02000 32.49200
H  24.82700 48.57500 31.45600
H  23.53800 49.48500 30.84100
H  23.93500 48.74300 33.39900
H  22.81700 49.94900 32.83300
H  31.25000 47.50400 28.25400
H  31.11500 48.79100 29.40200
H  32.24600 49.14100 28.12200
H  33.37100 47.36000 25.05700
H  32.46400 47.05500 26.51900
H  33.10400 48.71600 26.17100
H  26.83600 48.92600 21.96300
H  25.46700 51.47600 21.41700
H  28.85300 50.93700 21.64200
H  27.61400 51.43100 20.62000
H  28.17300 49.77900 20.51000
H  23.98900 49.06100 22.51000
H  24.91500 48.77400 21.13400
H  22.32400 49.91000 20.97900
H  23.61800 49.99800 19.77600
H  23.37500 51.29900 20.89800
H  20.60700 52.13500 25.14500
H  21.68900 52.83400 23.98100
H  21.09800 53.86300 25.32500
H  22.30100 51.37300 30.15300
H  22.61100 55.23300 31.85800
H  22.83800 54.40000 33.40100
H  21.22300 54.53600 32.68700

