158

Mg 53.79500 23.92400 44.55300
C  51.36900 26.30500 43.62500
C  51.68500 21.48900 43.46000
C  56.46500 21.85900 44.34100
C  55.88800 26.60400 45.28800
N  51.90900 23.89400 43.49200
C  51.02400 24.98700 43.31700
C  49.63100 24.55600 42.80100
C  49.64600 23.06900 43.21900
C  51.15500 22.76300 43.46800
C  48.85700 22.84400 44.52700
C  49.66900 24.72000 41.24500
C  48.25800 24.64900 40.59700
H  48.24700 23.65800 39.43100
N  53.99300 21.88500 44.13500
C  52.99500 21.06700 43.75900
C  53.50200 19.68700 43.69100
C  54.95200 19.78000 43.86100
C  55.23800 21.25800 44.09700
C  52.69700 18.49100 43.34100
C  55.92400 18.59900 43.75200
O  55.57700 17.48100 43.39800
C  57.33400 18.67900 44.06900
N  55.93400 24.19600 44.59800
C  56.75100 23.18600 44.59900
C  58.20200 23.65200 44.82000
C  58.01800 25.13100 45.19200
C  56.55000 25.33000 45.04200
C  59.11400 22.84800 45.82400
C  58.89700 26.16200 44.37300
C  59.34200 27.47400 44.96400
N  53.66900 26.03800 44.50400
C  54.50500 26.98800 45.06300
C  53.91800 28.28600 45.21300
C  52.65200 28.10500 44.58900
C  52.59500 26.72000 44.17900
C  54.49700 29.47300 45.88100
C  51.35500 28.68200 44.30500
O  50.99100 29.84000 44.35500
C  50.51100 27.51200 43.57800
C  50.19200 27.96300 42.14600
O  51.01200 28.14200 41.29600
O  48.81800 28.04300 41.88200
C  48.52500 28.41800 40.45200
H  50.96300 20.71100 43.20300
H  57.32100 21.19700 44.19700
H  56.60300 27.39400 45.52600
H  48.86400 25.05700 43.39300
H  49.23500 22.47300 42.40400
H  49.45700 22.38700 45.31400
H  48.11500 22.11700 44.19400
H  48.41800 23.72800 44.98900
H  50.12200 23.82200 40.82500
H  50.18300 25.62900 40.93300
H  48.00400 25.63000 40.19700
H  47.40800 24.26400 41.16100
H  52.95100 17.94100 42.43500
H  51.62200 18.66700 43.30300
H  52.76500 17.77700 44.16200
H  57.97300 19.22800 43.37600
H  57.66400 17.64100 44.06300
H  57.39300 19.12000 45.06400
H  58.68400 23.54000 43.84900
H  58.09900 25.16600 46.27800
H  59.76400 23.48900 46.42000
H  59.70600 22.17500 45.20400
H  58.43000 22.42300 46.55900
H  58.18800 26.50200 43.61800
H  59.73700 25.60000 43.96300
H  60.42800 27.56300 44.94400
H  58.98500 27.48800 45.99400
H  58.80800 28.24100 44.40400
H  54.32100 30.36500 45.28000
H  55.58200 29.47700 45.98300
H  54.05100 29.65500 46.85900
H  49.55000 27.27300 44.03200
H  47.47900 28.61400 40.21500
H  48.89400 27.62400 39.80400
H  48.96300 29.41400 40.38900
Mg 49.80000 46.30600 41.98400
C  46.90500 48.06800 41.11700
C  48.56700 43.60300 40.26100
C  52.78200 44.89400 41.95500
C  51.20600 49.31800 43.17000
N  47.81600 45.88100 40.95200
C  46.79100 46.73000 40.72300
C  45.65500 46.01900 39.92800
C  46.33300 44.58400 39.75100
C  47.68900 44.63400 40.34200
C  45.47500 43.42600 40.26800
C  45.29900 46.71300 38.53300
C  43.97800 46.19000 37.88900
H  44.00500 45.02500 36.90100
N  50.49400 44.38100 41.43900
C  49.80700 43.41200 40.79900
C  50.64500 42.24100 40.65300
C  51.94700 42.61700 41.11000
C  51.78200 44.01200 41.57100
C  50.15800 40.85800 40.04000
C  53.09100 41.69100 41.24300
O  53.00500 40.49700 40.80200
C  54.37600 41.96400 41.95600
N  51.75700 47.08600 42.54900
C  52.84500 46.25200 42.36900
C  54.08800 47.07400 42.76800
C  53.58400 48.47100 43.18200
C  52.10000 48.30000 43.02900
C  55.08300 46.27700 43.65200
C  54.32600 49.72000 42.49700
C  55.71500 50.06700 43.16700
N  49.16000 48.27200 42.18600
C  49.88900 49.36000 42.69700
C  48.90600 50.50600 42.79600
C  47.76000 49.98200 42.21100
C  47.94100 48.63400 41.85800
C  49.09100 51.91200 43.31200
C  46.40900 50.31600 41.83000
O  45.76100 51.31200 41.95700
C  45.93600 49.12000 40.93900
C  44.67300 48.63300 41.45400
O  44.48900 48.14300 42.55100
O  43.73700 48.68700 40.47600
C  42.36400 48.42000 41.03400
H  48.11200 42.73500 39.77900
H  53.73500 44.36500 41.89000
H  51.66300 50.25700 43.49000
H  44.77400 46.05500 40.56800
H  46.42200 44.34500 38.69100
H  45.33300 42.73000 39.44100
H  44.49900 43.74800 40.63200
H  46.09100 42.90100 40.99900
H  46.12100 46.43400 37.87400
H  45.36900 47.79900 38.57700
H  43.46000 47.04300 37.45000
H  43.31500 45.80300 38.66200
H  50.78700 40.69100 39.16500
H  49.09400 40.80000 39.81200
H  50.25300 40.06900 40.78600
H  54.92500 41.02200 41.94400
H  54.15200 42.34200 42.95400
H  54.98000 42.62500 41.33600
H  54.62900 47.36600 41.86900
H  53.65800 48.61900 44.25900
H  54.48800 45.43800 44.01100
H  55.43400 46.81800 44.53000
H  55.85100 45.91800 42.96700
H  53.62200 50.54800 42.58500
H  54.53500 49.51500 41.44700
H  56.53900 50.11900 42.45600
H  55.96400 49.30200 43.90200
H  55.61300 51.02600 43.67500
H  50.01500 52.34500 42.92900
H  49.14300 51.85000 44.39900
H  48.29400 52.48700 42.84100
H  45.82400 49.49600 39.92200
H  42.24500 47.68100 41.82600
H  41.93300 47.92700 40.16200
H  41.91800 49.40200 41.19200

