158

Mg 44.14700 3.36600 47.25900
C  43.33600 6.62400 46.22200
C  40.97700 2.34000 45.94900
C  45.22700 0.22500 47.33700
C  47.44900 4.42700 47.78300
N  42.37900 4.37100 46.24400
C  42.35200 5.73600 45.91600
C  41.03900 5.94300 45.13200
C  40.18000 4.70500 45.49900
C  41.21900 3.75200 45.86200
C  39.10100 4.96000 46.49700
C  41.24600 6.23800 43.62200
C  40.38200 7.35800 42.96800
H  39.32000 6.90800 41.94200
N  43.20400 1.56300 46.83700
C  41.91900 1.33600 46.39500
C  41.57400 -0.07000 46.38000
C  42.86200 -0.73200 46.81700
C  43.83700 0.35600 47.00500
C  40.28300 -0.69000 45.89600
C  43.02900 -2.26700 47.01200
O  42.07100 -3.05200 46.83700
C  44.27300 -2.91200 47.45800
N  46.01000 2.40700 47.69700
C  46.23000 1.11700 47.68700
C  47.62800 0.69600 48.04100
C  48.40300 2.02000 48.14300
C  47.20000 3.05400 47.88700
C  47.63400 -0.12100 49.35600
C  49.59600 2.14200 47.23200
C  50.66600 3.00700 47.80300
N  45.16000 5.17300 47.22500
C  46.51500 5.42000 47.40100
C  46.71600 6.84100 47.30100
C  45.47800 7.37800 46.88100
C  44.57700 6.30000 46.70200
C  47.95400 7.67900 47.66800
C  44.77700 8.57900 46.57100
O  45.15700 9.73500 46.55500
C  43.28700 8.17500 46.16400
C  42.42200 8.81200 47.20300
O  42.56100 8.77500 48.38900
O  41.21900 9.25100 46.63600
C  40.40200 9.99000 47.55600
H  39.97800 1.92800 45.79000
H  45.53900 -0.82200 47.35800
H  48.43500 4.86900 47.94300
H  40.47200 6.75800 45.58200
H  39.66400 4.47800 44.56600
H  38.90300 3.96700 46.90200
H  38.22000 5.45000 46.08200
H  39.58800 5.53200 47.28700
H  40.96600 5.35200 43.05200
H  42.30000 6.27500 43.34800
H  41.02700 8.18600 42.67300
H  39.82800 7.84100 43.77200
H  39.49200 0.05000 46.02200
H  40.03700 -1.52400 46.55200
H  40.34400 -1.07800 44.87900
H  44.73900 -2.60100 48.39300
H  45.02200 -2.92400 46.66600
H  43.97100 -3.95500 47.54900
H  47.96500 0.03800 47.24000
H  48.74500 2.09000 49.17600
H  48.30300 0.38700 50.05100
H  47.92200 -1.16900 49.26800
H  46.65300 -0.09700 49.83200
H  49.29300 2.59700 46.28900
H  49.96300 1.13600 47.03000
H  51.55900 2.46400 48.11100
H  50.32500 3.65200 48.61200
H  50.96500 3.78600 47.10200
H  48.35000 7.60800 48.68100
H  47.70200 8.70900 47.41500
H  48.70200 7.42300 46.91700
H  43.01900 8.51000 45.16200
H  40.68600 11.04200 47.52500
H  40.50900 9.70700 48.60300
H  39.39200 9.77000 47.20900
Mg 15.96400 51.52800 25.95800
C  18.07900 50.47800 28.57600
C  13.60900 52.39800 28.27900
C  14.14300 52.70600 23.44000
C  18.48100 50.40000 23.72700
N  15.93500 51.51400 28.22000
C  16.89900 51.10200 29.06800
C  16.48900 51.39300 30.45900
C  14.93100 51.59800 30.33000
C  14.77400 51.90600 28.88400
C  14.12100 50.41500 30.82200
C  17.23300 52.61000 31.10800
C  16.84500 53.17400 32.44500
H  16.11400 52.19400 33.41000
N  14.10700 52.49200 25.85800
C  13.28200 52.75700 26.88100
C  12.07700 53.40400 26.37800
C  12.15500 53.52100 24.95200
C  13.56600 52.90700 24.71400
C  11.01100 53.79800 27.33600
C  11.23400 54.09800 23.90000
O  11.44900 53.93700 22.68900
C  9.99900 54.85300 24.31600
N  16.35100 51.50500 23.82500
C  15.32700 52.07800 23.00900
C  15.71000 51.93700 21.49600
C  17.21000 51.40600 21.58300
C  17.40800 51.09400 23.06100
C  14.71200 51.03700 20.71000
C  18.43000 52.27900 21.06800
C  19.33800 51.59300 19.99300
N  17.83700 50.49100 26.04800
C  18.72600 50.13600 25.09600
C  19.83100 49.42800 25.63200
C  19.61800 49.49300 27.03100
C  18.44300 50.27900 27.19700
C  20.97700 48.84000 24.95400
C  20.19300 49.25400 28.32300
O  21.27000 48.75000 28.62000
C  19.18600 49.95700 29.35700
C  18.75200 48.96900 30.40200
O  17.99400 47.96000 30.29100
O  19.30400 49.40400 31.53400
C  18.79100 48.79000 32.75900
H  12.87900 52.60800 29.06400
H  13.78600 53.32800 22.61700
H  19.26400 49.98000 23.09300
H  16.59600 50.47700 31.04100
H  14.65400 52.50000 30.87800
H  13.42200 50.72800 31.59800
H  14.60700 49.53500 31.24300
H  13.58800 50.06300 29.93900
H  17.13100 53.39300 30.35600
H  18.27400 52.31100 31.22800
H  16.08600 53.94100 32.29200
H  17.68900 53.64400 32.95100
H  10.58700 54.74400 27.00000
H  11.39700 53.90100 28.35000
H  10.25100 53.01800 27.34500
H  10.46600 55.76200 24.69600
H  9.42800 54.19200 24.96900
H  9.49200 55.13100 23.39200
H  15.66900 52.95700 21.11500
H  17.21200 50.43000 21.09900
H  15.18500 50.23400 20.14500
H  14.24500 51.64000 19.93100
H  13.95000 50.58400 21.34500
H  19.04800 52.48500 21.94200
H  18.10200 53.24300 20.68000
H  19.25600 52.15400 19.06200
H  19.04200 50.56200 19.79600
H  20.37700 51.44900 20.29000
H  21.77800 48.50900 25.61500
H  21.50500 49.53600 24.30100
H  20.51200 47.98500 24.46300
H  19.76900 50.69700 29.90500
H  19.38300 49.00800 33.64800
H  18.85900 47.70400 32.69400
H  17.71400 48.95900 32.79200

