158

Mg -0.98100 7.61800 26.17100
C  -0.30300 9.68400 28.94000
C  -0.53700 4.86300 28.13300
C  -1.36200 5.84800 23.41600
C  -0.46800 10.47500 24.11300
N  -0.58700 7.38100 28.31300
C  -0.50000 8.35300 29.25900
C  -0.43900 7.72200 30.62400
C  -0.28300 6.16000 30.33800
C  -0.48500 6.11000 28.80900
C  1.02400 5.56400 30.84700
C  -1.59600 8.10600 31.53600
C  -1.34700 8.72800 32.96200
H  -0.00900 8.34200 33.76500
N  -1.16300 5.60100 25.90100
C  -1.02300 4.64000 26.77900
C  -1.17200 3.34900 26.13500
C  -1.40400 3.57400 24.70900
C  -1.46100 5.12500 24.63600
C  -1.13200 2.14800 26.99800
C  -1.53100 2.61300 23.57100
O  -1.72400 2.93700 22.43000
C  -1.34000 1.15300 23.85200
N  -0.93600 8.10600 24.01200
C  -1.10900 7.14900 23.19000
C  -1.07600 7.66400 21.68000
C  -0.93600 9.20100 21.87600
C  -0.65500 9.29700 23.39000
C  -0.05700 7.03300 20.76700
C  -2.07400 10.14700 21.47900
C  -3.28800 10.35100 22.39600
N  -0.66600 9.71600 26.41200
C  -0.43300 10.75700 25.49500
C  -0.04200 11.94000 26.19900
C  -0.12000 11.58800 27.48200
C  -0.35500 10.21300 27.66800
C  0.34200 13.25300 25.59600
C  0.15200 12.11800 28.78000
O  0.51300 13.25500 29.11200
C  0.07100 10.92200 29.74900
C  1.38400 10.72400 30.40100
O  2.41300 10.40900 29.87400
O  1.28800 11.20400 31.65800
C  2.44700 11.80900 32.35200
H  -0.55100 3.99700 28.79700
H  -1.49500 5.32800 22.46500
H  -0.23800 11.38400 23.55400
H  0.49500 8.12100 31.02100
H  -1.01300 5.54700 30.86500
H  0.76200 4.95700 31.71400
H  1.65400 6.40000 31.15100
H  1.55800 4.97900 30.09800
H  -2.06500 7.17500 31.85300
H  -2.33200 8.62800 30.92400
H  -2.23000 8.61100 33.59100
H  -1.23500 9.81000 32.89300
H  -1.58100 1.27100 26.53100
H  -1.67500 2.30100 27.93100
H  -0.10600 1.91900 27.28600
H  -1.15000 0.60700 22.92800
H  -2.23300 0.81800 24.38000
H  -0.43200 1.17800 24.45600
H  -2.01800 7.40700 21.19600
H  -0.07700 9.48600 21.26900
H  0.72300 7.77000 20.57900
H  -0.64600 6.67900 19.92100
H  0.22900 6.07800 21.20900
H  -2.44300 9.91000 20.48200
H  -1.56800 11.10700 21.37700
H  -3.00300 11.20000 23.01800
H  -3.59500 9.60900 23.13300
H  -4.11600 10.67900 21.76800
H  0.62500 13.09100 24.55600
H  1.09100 13.67200 26.26900
H  -0.56500 13.85400 25.66100
H  -0.67900 11.15800 30.50400
H  2.62700 11.13800 33.19200
H  2.02200 12.73400 32.74100
H  3.36700 11.93300 31.78100
Mg -6.23100 25.40800 25.98300
C  -4.50800 26.68400 28.76900
C  -8.04200 23.52600 28.03200
C  -7.48900 24.03400 23.24100
C  -3.74500 26.94500 23.91200
N  -6.42000 25.34000 28.15300
C  -5.61700 25.85900 29.13000
C  -6.05200 25.37300 30.55000
C  -6.92100 24.13300 30.19200
C  -7.12300 24.34500 28.68200
C  -6.15800 22.73200 30.43000
C  -6.84800 26.52300 31.33600
C  -7.14200 26.24500 32.88700
H  -6.30100 25.13200 33.55000
N  -7.71700 24.08900 25.69100
C  -8.40800 23.43200 26.67400
C  -9.37900 22.56000 26.05400
C  -9.15700 22.66400 24.69500
C  -8.10900 23.65800 24.47800
C  -10.38900 21.67300 26.92100
C  -9.95500 21.97500 23.60500
O  -9.60700 22.04000 22.41200
C  -11.02000 20.95800 23.87300
N  -5.68300 25.53700 23.85800
C  -6.32200 24.68200 22.96500
C  -5.74000 24.84800 21.53500
C  -4.67300 25.95500 21.66700
C  -4.70300 26.21500 23.21500
C  -5.30600 23.49600 20.89400
C  -5.08100 27.28100 20.95000
C  -4.37300 27.54000 19.57300
N  -4.56800 26.61600 26.23400
C  -3.67100 27.10200 25.32100
C  -2.53700 27.77700 26.00900
C  -2.85000 27.66000 27.31600
C  -4.03900 26.91500 27.44400
C  -1.38100 28.49100 25.37100
C  -2.38700 28.01200 28.64500
O  -1.34400 28.54500 28.97300
C  -3.48600 27.47100 29.70100
C  -2.87700 26.59100 30.71400
O  -2.30900 25.56400 30.40900
O  -3.05200 27.05000 32.01600
C  -2.54100 26.19000 33.10400
H  -8.68100 22.88000 28.63700
H  -7.88800 23.65100 22.29900
H  -2.89000 27.40200 23.40800
H  -5.12700 25.07300 31.04200
H  -7.79800 24.15300 30.83900
H  -5.91900 22.12000 29.56000
H  -6.81600 22.10600 31.03200
H  -5.23300 22.90000 30.98200
H  -7.77900 26.60400 30.77600
H  -6.34100 27.48700 31.30800
H  -8.20300 26.06500 33.05600
H  -6.69100 27.10300 33.38600
H  -9.97800 20.66400 26.92200
H  -11.33700 21.50200 26.41100
H  -10.53500 22.08300 27.92000
H  -11.30900 20.51600 22.92000
H  -11.90800 21.45000 24.26900
H  -10.71700 20.24800 24.64300
H  -6.63700 25.21700 21.03800
H  -3.72300 25.54300 21.32700
H  -5.20900 22.79700 21.72500
H  -4.31200 23.56900 20.45200
H  -6.05600 23.14000 20.18800
H  -4.71100 28.15300 21.49000
H  -6.16800 27.32100 20.88000
H  -4.95100 27.53200 18.65000
H  -3.64500 26.74200 19.42500
H  -3.78000 28.45400 19.60600
H  -1.69300 28.86200 24.39500
H  -0.49600 27.88000 25.19400
H  -1.05300 29.35500 25.94900
H  -3.85700 28.35700 30.21700
H  -1.49900 26.50900 33.12200
H  -2.77900 25.16900 32.80600
H  -3.02500 26.40500 34.05600

