158

Mg 29.67000 59.69600 41.17200
C  26.71800 57.96200 40.30500
C  31.32100 56.90500 39.84600
C  32.43900 61.56100 40.81400
C  27.78100 62.50900 41.86900
N  29.05000 57.72100 40.11400
C  27.80000 57.16400 39.96000
C  27.81100 55.84000 39.16700
C  29.28700 55.45400 39.34800
C  29.96400 56.77500 39.76600
C  29.49500 54.35700 40.44200
C  27.36700 56.16600 37.68700
C  26.34400 55.13100 36.99300
H  26.75400 54.52100 35.61800
N  31.63500 59.26000 40.54000
C  32.12000 58.05600 40.11700
C  33.53400 58.23300 39.95400
C  33.92200 59.52800 40.31800
C  32.62900 60.20300 40.61100
C  34.34500 57.19400 39.38500
C  35.36400 60.07700 40.22800
O  36.35700 59.36500 39.89600
C  35.66000 61.54400 40.40700
N  30.03300 61.71900 41.12600
C  31.30500 62.23500 41.13800
C  31.32000 63.76100 41.31700
C  29.84100 64.01500 41.77800
C  29.16200 62.64600 41.67500
C  32.46400 64.35300 42.18100
C  29.05000 65.05100 40.96500
C  28.40100 66.08000 41.84000
N  27.68600 60.17600 41.20400
C  27.00500 61.36300 41.51600
C  25.58700 61.11900 41.47000
C  25.46300 59.83600 41.01300
C  26.73700 59.27500 40.84000
C  24.60900 62.12400 41.77700
C  24.48100 58.86200 40.56700
O  23.26700 58.89200 40.52300
C  25.26700 57.68800 39.98400
C  24.89600 56.33500 40.52800
O  25.14800 55.82100 41.63200
O  24.06700 55.82200 39.64400
C  23.25500 54.68000 40.13200
H  31.77400 55.94200 39.60500
H  33.25000 62.28100 40.68800
H  27.12800 63.31800 42.20200
H  27.10700 55.11400 39.57600
H  29.82800 55.22600 38.42900
H  29.87000 54.89800 41.31000
H  30.36900 53.79000 40.12200
H  28.61800 53.74800 40.66300
H  28.27100 56.21500 37.08100
H  27.00300 57.19200 37.62700
H  25.35600 55.56700 36.84500
H  26.26400 54.33300 37.73100
H  33.81100 56.66200 38.59800
H  34.73800 56.49800 40.12700
H  35.34000 57.49600 39.05800
H  35.24500 62.33500 39.78300
H  36.73500 61.65600 40.26600
H  35.48200 61.67600 41.47400
H  31.43500 64.07400 40.27900
H  29.77500 64.25800 42.83800
H  33.16300 64.78400 41.46500
H  32.89400 63.55400 42.78500
H  32.12900 65.02400 42.97300
H  28.23100 64.50500 40.49700
H  29.68000 65.66300 40.32000
H  27.32300 65.94300 41.76000
H  28.70400 67.09400 41.58000
H  28.67200 65.93000 42.88500
H  24.66800 62.56700 42.77100
H  23.62100 61.68700 41.63200
H  24.88800 62.78500 40.95600
H  25.17500 57.55100 38.90600
H  22.50700 55.03400 40.84200
H  23.86100 53.94200 40.65700
H  22.71700 54.17200 39.33100
Mg 7.06600 57.13100 41.37700
C  6.32600 53.80000 41.12600
C  10.23200 56.48200 40.31600
C  7.74900 60.51800 41.09800
C  3.77300 57.83000 42.09800
N  8.06900 55.36900 40.65000
C  7.56900 54.08200 40.60800
C  8.54300 53.11400 39.91300
C  9.89000 53.85100 40.07300
C  9.37700 55.35800 40.39400
C  10.84100 53.24000 41.06400
C  8.11800 52.86100 38.44000
C  8.39600 51.45300 37.78200
H  9.41000 51.14500 36.71800
N  8.78300 58.32100 40.84900
C  10.02000 57.84000 40.55200
C  10.96700 58.96500 40.36200
C  10.23900 60.18900 40.61300
C  8.90100 59.72100 40.85900
C  12.41700 58.83900 40.11000
C  10.80400 61.60600 40.56400
O  12.01200 61.86700 40.36400
C  9.90600 62.89700 40.71700
N  5.90000 58.93700 41.39100
C  6.40900 60.17600 41.38400
C  5.34700 61.24600 41.72000
C  4.07100 60.39300 42.07600
C  4.58600 58.96200 41.81000
C  5.73600 62.28200 42.83000
C  2.85400 60.82600 41.21900
C  1.40100 60.77100 41.85600
N  5.29500 56.04500 41.57700
C  4.02600 56.46200 41.93100
C  3.31100 55.22500 42.33400
C  4.19100 54.16500 42.02100
C  5.28900 54.73800 41.54500
C  1.99900 55.10500 43.11700
C  4.35200 52.72200 41.97100
O  3.73400 51.74200 42.40400
C  5.72800 52.44500 41.24400
C  5.40900 51.76400 39.98800
O  4.69700 52.22000 39.11400
O  6.02400 50.51900 39.87400
C  5.54800 49.73100 38.74500
H  11.26600 56.28800 40.02300
H  7.83400 61.60100 40.98400
H  2.77300 57.99800 42.50100
H  8.50600 52.17200 40.45900
H  10.54300 53.77700 39.20300
H  10.23100 52.78400 41.84400
H  11.43100 53.98700 41.59300
H  11.53700 52.49800 40.67300
H  8.57900 53.65300 37.85100
H  7.03500 52.85100 38.31900
H  7.42900 51.17700 37.36100
H  8.51900 50.63300 38.49100
H  12.58100 59.06400 39.05600
H  12.96100 57.95000 40.43200
H  12.79600 59.63400 40.75300
H  9.44800 62.82900 41.70400
H  9.16100 63.09500 39.94700
H  10.51800 63.79500 40.62900
H  5.29900 61.70400 40.73200
H  3.78800 60.46400 43.12600
H  5.80800 63.31800 42.49900
H  6.70600 61.97400 43.22000
H  4.98500 62.14900 43.60800
H  2.79700 60.21800 40.31600
H  2.89500 61.86100 40.87800
H  0.94100 61.66700 41.44000
H  1.40200 60.77600 42.94600
H  0.83500 59.89600 41.53600
H  1.96000 55.70400 44.02700
H  1.72100 54.08300 43.37800
H  1.20900 55.51300 42.48700
H  6.33100 51.77200 41.85300
H  4.64200 49.19900 39.03600
H  6.22700 48.95600 38.38800
H  5.22400 50.14400 37.79100

