158

Mg 49.06100 45.81500 43.15200
C  45.63000 45.74900 42.21900
C  49.09400 42.51800 42.28600
C  52.49400 46.06300 42.97000
C  48.80900 49.27500 43.63100
N  47.55000 44.34300 42.23100
C  46.23800 44.50900 41.99000
C  45.42300 43.18900 41.64900
C  46.54700 42.21000 41.88600
C  47.78900 43.06100 42.31200
C  46.28700 41.05600 42.82300
C  44.70700 43.07000 40.23000
C  45.39600 43.76200 39.03000
H  45.24600 42.91700 37.75000
N  50.59800 44.50800 42.59600
C  50.38800 43.17100 42.39500
C  51.62300 42.50800 42.23400
C  52.63600 43.49100 42.37600
C  51.95400 44.74700 42.63700
C  51.77100 41.01000 41.86300
C  54.11100 43.18300 42.33400
O  54.45800 41.98700 42.10100
C  55.09200 44.29900 42.46900
N  50.39100 47.50100 43.14000
C  51.78200 47.27700 43.16200
C  52.52100 48.62900 43.33900
C  51.33200 49.63400 43.56900
C  50.11600 48.77500 43.46000
C  53.67500 48.67000 44.32500
C  51.21700 50.73400 42.50600
C  50.74400 52.15800 42.94700
N  47.48100 47.24800 43.17300
C  47.55300 48.61900 43.38800
C  46.22800 49.17500 43.27700
C  45.41000 48.13300 42.76600
C  46.21600 46.94300 42.76500
C  45.82600 50.68500 43.46600
C  44.12100 47.77700 42.16600
O  43.11500 48.44000 41.95600
C  44.15200 46.21500 41.84200
C  43.07000 45.48600 42.62300
O  42.37900 44.53900 42.30200
O  42.90200 46.12100 43.86900
C  41.94400 45.45600 44.76800
H  49.17700 41.47600 41.97100
H  53.56800 46.22300 43.08400
H  48.64800 50.30000 43.97200
H  44.66500 43.15200 42.43100
H  46.84600 41.83000 40.90900
H  46.53100 40.13900 42.28700
H  45.24800 41.05900 43.15400
H  46.82300 41.26800 43.74800
H  43.64900 43.32600 40.29800
H  44.69200 42.00000 40.02500
H  46.47700 43.71900 39.16000
H  45.06000 44.77800 38.82200
H  51.96400 41.01300 40.79000
H  50.96700 40.32000 42.11800
H  52.64800 40.64700 42.40000
H  55.02100 44.69500 41.45600
H  56.06100 43.80100 42.50400
H  54.95600 44.88800 43.37600
H  52.92600 48.87600 42.35700
H  51.39400 50.01500 44.58800
H  53.38500 49.39700 45.08400
H  54.52200 49.00600 43.72800
H  53.81400 47.68200 44.76500
H  50.46100 50.41600 41.78900
H  52.20800 50.90500 42.08500
H  50.41400 52.13200 43.98600
H  49.89400 52.40300 42.31000
H  51.48900 52.93000 42.75600
H  46.66000 51.26300 43.06800
H  45.75400 50.80200 44.54700
H  44.89400 50.82300 42.91700
H  44.10600 45.87300 40.80800
H  42.07400 45.77400 45.80300
H  42.42400 44.47800 44.74400
H  40.93300 45.49600 44.36300
Mg 9.44100 47.19900 26.41100
C  7.65400 47.36600 29.42400
C  12.08800 48.57000 28.09300
C  11.05400 47.48700 23.44800
C  6.40600 46.83000 24.72000
N  9.76600 47.97600 28.59200
C  8.94000 47.83900 29.61600
C  9.63300 48.30600 30.92800
C  10.85300 49.08500 30.37400
C  10.90600 48.55600 28.94000
C  10.66200 50.62000 30.41400
C  10.00500 47.02700 31.74900
C  10.05100 47.28800 33.31300
H  9.98300 46.09700 34.27700
N  11.38900 47.75500 25.86200
C  12.35700 48.30400 26.71000
C  13.67800 48.25600 26.00800
C  13.39200 47.95900 24.60000
C  11.86400 47.69100 24.54400
C  14.99000 48.72800 26.67300
C  14.31100 47.94300 23.43000
O  13.90200 47.74400 22.31600
C  15.76100 48.19400 23.62900
N  8.78200 47.19800 24.42600
C  9.65200 47.31300 23.36500
C  8.92500 47.10900 22.01500
C  7.44100 46.93400 22.43800
C  7.51000 47.02800 23.91900
C  9.21400 48.29900 21.11400
C  6.69300 45.64600 22.00400
C  7.60600 44.32500 22.10800
N  7.43300 46.93900 26.92900
C  6.30600 46.83700 26.15900
C  5.09700 46.73800 27.10400
C  5.64100 46.88100 28.38100
C  6.99300 47.01900 28.22100
C  3.66700 46.42800 26.78400
C  5.22800 46.90900 29.74800
O  4.11600 46.89300 30.30700
C  6.59100 47.20100 30.52300
C  6.77400 46.07400 31.50000
O  6.94800 44.91500 31.06300
O  6.71900 46.46600 32.77900
C  6.90200 45.28300 33.69700
H  12.87600 49.06000 28.66900
H  11.52700 47.61700 22.47200
H  5.48300 46.66600 24.16000
H  8.96500 49.03500 31.38600
H  11.70300 48.69200 30.93200
H  9.82800 50.92900 31.04400
H  10.53200 50.87900 29.36300
H  11.58000 51.07900 30.78000
H  10.97500 46.69700 31.37900
H  9.31600 46.20700 31.54200
H  9.28200 47.96100 33.69300
H  10.96700 47.84300 33.51700
H  15.72500 47.92600 26.74000
H  14.86600 48.94000 27.73400
H  15.33500 49.64900 26.20400
H  16.36700 48.29400 22.72900
H  15.96200 47.22900 24.09500
H  16.01100 49.03600 24.27600
H  9.47300 46.33600 21.47600
H  6.99900 47.82900 22.00000
H  9.76600 49.08800 21.62600
H  8.26300 48.66000 20.72200
H  9.81200 48.02800 20.24400
H  6.53800 45.89500 20.95400
H  5.70700 45.42600 22.41400
H  7.88000 44.04900 21.09000
H  6.99500 43.57400 22.61000
H  8.56100 44.41200 22.62500
H  3.53200 46.19400 25.72800
H  3.01800 47.25600 27.06600
H  3.48000 45.52500 27.36500
H  6.39100 48.09500 31.11400
H  7.72700 44.63700 33.39700
H  6.03100 44.62800 33.70000
H  7.10400 45.62600 34.71200

