158

Mg 30.15100 58.60100 41.67600
C  27.39200 56.68600 40.69600
C  32.20300 56.30800 40.11100
C  32.82900 60.65400 42.08100
C  28.00500 61.10800 42.66600
N  29.85700 56.71800 40.59000
C  28.62500 56.16200 40.24700
C  28.80300 54.96700 39.33800
C  30.34700 54.79700 39.38100
C  30.83600 55.95900 40.12100
C  30.94400 53.39200 39.80900
C  28.16100 55.17900 37.94600
C  27.26700 54.04500 37.41600
H  27.41900 53.68700 35.94200
N  32.21800 58.49400 41.23400
C  32.84600 57.39800 40.71200
C  34.20900 57.63100 40.58600
C  34.50600 58.84100 41.26600
C  33.18600 59.37800 41.54600
C  35.21400 56.57100 40.07300
C  35.82900 59.36200 41.71100
O  36.88300 58.81700 41.41900
C  35.90000 60.49600 42.59200
N  30.45400 60.63200 42.30400
C  31.60200 61.29100 42.34500
C  31.39900 62.65400 42.78700
C  29.95200 62.85600 43.11800
C  29.36800 61.44300 42.63100
C  32.37400 63.21600 43.86900
C  29.28100 64.12300 42.42900
C  28.91000 64.01700 40.99100
N  28.07300 58.88300 41.67000
C  27.36900 59.99300 42.15100
C  25.96300 59.66700 41.90800
C  25.91900 58.39000 41.37600
C  27.22600 57.93200 41.29600
C  24.78300 60.68900 42.09100
C  25.04600 57.39000 40.82900
O  23.81300 57.43300 40.68500
C  25.97700 56.23900 40.32100
C  25.55800 55.06800 40.99800
O  25.66700 54.88800 42.19800
O  24.97800 54.22500 40.12800
C  24.21100 53.20500 40.77600
H  32.88500 55.55600 39.71000
H  33.68700 61.31900 42.20700
H  27.32600 61.90600 42.97300
H  28.27600 54.17100 39.86300
H  30.82100 54.86400 38.40100
H  30.17100 52.64000 39.64700
H  31.25700 53.44400 40.85200
H  31.78800 53.15100 39.16300
H  28.92000 55.47200 37.22000
H  27.62700 56.13000 37.95800
H  26.31900 54.58300 37.46000
H  27.24600 53.13000 38.00700
H  36.09400 57.11300 39.72600
H  34.81400 55.90200 39.31200
H  35.41300 55.86000 40.87500
H  35.93400 61.47300 42.11000
H  36.86200 60.43300 43.10000
H  35.13100 60.33500 43.34700
H  31.65900 63.27000 41.92600
H  29.78900 62.92900 44.19400
H  32.76000 62.34600 44.40000
H  31.73700 63.84200 44.49600
H  33.15700 63.86200 43.47200
H  30.00500 64.93600 42.45700
H  28.43400 64.37400 43.06700
H  27.87300 64.33100 40.86600
H  29.11800 63.04100 40.55200
H  29.49400 64.75000 40.43600
H  24.92800 61.55000 41.43900
H  24.89400 61.24400 43.02300
H  23.82900 60.18100 41.94900
H  25.81900 56.16600 39.24500
H  23.67700 53.72500 41.57200
H  24.90300 52.46300 41.17300
H  23.51500 52.79500 40.04500
Mg -6.21200 24.79000 25.53300
C  -4.96300 26.49300 28.28300
C  -8.25900 23.04900 27.43100
C  -7.30400 23.36400 22.75100
C  -3.92700 26.61100 23.58900
N  -6.45700 24.74400 27.67000
C  -5.91200 25.54200 28.65000
C  -6.29500 25.11000 30.05200
C  -7.12500 23.78600 29.73800
C  -7.36100 23.85900 28.18200
C  -6.39600 22.43700 30.18800
C  -7.00200 26.23500 30.81700
C  -6.43600 26.54400 32.21700
H  -5.86900 25.42200 33.08100
N  -7.65100 23.53900 25.15300
C  -8.48200 22.96400 26.10700
C  -9.58600 22.20200 25.39200
C  -9.15700 22.18900 24.05800
C  -7.94900 23.03500 23.94700
C  -10.68700 21.49500 26.09100
C  -9.93300 21.44900 22.88800
O  -9.60700 21.59100 21.69700
C  -10.97000 20.39600 23.19300
N  -5.74100 25.05100 23.44400
C  -6.28900 24.29800 22.42900
C  -5.69700 24.49300 21.09100
C  -4.69800 25.75700 21.37200
C  -4.72700 25.74800 22.88400
C  -4.98800 23.24700 20.51200
C  -5.17400 27.00600 20.60100
C  -4.39100 27.46300 19.38200
N  -4.79200 26.25200 25.82400
C  -3.96400 26.90900 24.93500
C  -3.13100 27.91400 25.65800
C  -3.52900 27.77200 26.96700
C  -4.54000 26.77600 26.99900
C  -2.30800 28.94000 25.00000
C  -3.28500 28.22200 28.28300
O  -2.55400 29.07700 28.73800
C  -4.06300 27.32000 29.16700
C  -3.18700 26.42500 29.90000
O  -2.77700 25.30800 29.58700
O  -2.92800 26.93300 31.15000
C  -1.82900 26.30300 31.99100
H  -9.03300 22.50600 27.97800
H  -7.58900 22.81600 21.85100
H  -3.10200 26.93900 22.95200
H  -5.39000 24.77000 30.55700
H  -8.04400 23.75200 30.32300
H  -5.34600 22.57300 30.44800
H  -6.40400 21.79100 29.30900
H  -6.95100 21.93200 30.97900
H  -8.06400 25.99300 30.87600
H  -6.98000 27.13000 30.19600
H  -7.33800 26.99300 32.63400
H  -5.71200 27.34900 32.33800
H  -11.59600 21.79400 25.57000
H  -10.68000 21.79300 27.14000
H  -10.57500 20.41500 25.99100
H  -10.71200 19.66600 23.96100
H  -11.00000 19.77700 22.29700
H  -11.99400 20.75900 23.28300
H  -6.55900 24.74900 20.47500
H  -3.69700 25.48400 21.03700
H  -4.81000 22.46400 21.24900
H  -4.02900 23.58200 20.11700
H  -5.63500 22.85700 19.72700
H  -5.22400 27.82400 21.32000
H  -6.18800 26.89900 20.21500
H  -4.93900 27.70700 18.47100
H  -3.77700 26.70300 18.90100
H  -3.65000 28.24100 19.56700
H  -1.64100 29.33700 25.76400
H  -2.93600 29.72800 24.58500
H  -1.66700 28.46600 24.25700
H  -4.65600 27.86100 29.90500
H  -0.85200 26.16300 31.52900
H  -2.26400 25.39200 32.40300
H  -1.55300 27.05000 32.73500

