158

Mg -2.05100 17.58600 27.23100
C  -2.62700 15.33200 29.78300
C  -2.45400 20.21100 29.54900
C  -2.01800 19.72900 24.70200
C  -2.28100 14.86300 24.98500
N  -2.53700 17.65200 29.40300
C  -2.68000 16.66500 30.30500
C  -2.80800 17.13900 31.76700
C  -2.85700 18.71200 31.58100
C  -2.52400 18.90400 30.08600
C  -4.09500 19.53000 32.10600
C  -1.72900 16.64600 32.77200
C  -1.27500 17.54000 33.92900
H  -0.85000 16.69100 35.16200
N  -2.15200 19.67600 27.13100
C  -2.33200 20.53800 28.18100
C  -2.22900 21.91400 27.64300
C  -2.02800 21.76000 26.19700
C  -2.03500 20.38900 25.99200
C  -2.22800 23.15300 28.45400
C  -1.85100 22.87700 25.19100
O  -1.56300 22.65100 24.00200
C  -2.06700 24.30700 25.52300
N  -2.11300 17.37500 25.14800
C  -2.10500 18.42400 24.35700
C  -2.12900 18.01900 22.83300
C  -1.94800 16.43000 22.92900
C  -2.10100 16.16200 24.47300
C  -3.41500 18.38700 22.00100
C  -0.60100 15.95500 22.38300
C  0.61300 16.27300 23.29700
N  -2.37000 15.57800 27.32300
C  -2.36000 14.59400 26.34600
C  -2.53800 13.31700 26.88300
C  -2.66900 13.53600 28.21000
C  -2.54800 14.91000 28.47600
C  -2.86200 11.97900 26.25000
C  -2.88000 12.90600 29.50200
O  -3.14800 11.74600 29.78400
C  -2.79000 13.98700 30.58600
C  -1.53200 13.66600 31.33400
O  -0.34100 13.88900 31.03800
O  -1.90000 13.08200 32.48700
C  -0.86600 12.66400 33.43000
H  -2.41500 21.03000 30.27000
H  -2.00100 20.39000 23.83300
H  -2.36900 13.99900 24.32200
H  -3.67300 16.65400 32.21900
H  -1.95400 19.03500 32.10000
H  -4.87300 18.98800 32.64300
H  -4.49100 20.02500 31.21900
H  -3.81100 20.24800 32.87500
H  -0.84700 16.35400 32.20200
H  -2.08700 15.70600 33.19300
H  -1.98500 18.23600 34.37400
H  -0.47700 18.20600 33.60100
H  -1.28700 23.70400 28.44300
H  -2.29200 22.95300 29.52400
H  -2.95500 23.89500 28.12400
H  -2.08800 25.05300 24.72800
H  -1.39300 24.66500 26.30200
H  -3.07900 24.47800 25.88900
H  -1.22300 18.40900 22.36900
H  -2.81400 15.91400 22.51400
H  -4.18800 18.81600 22.63900
H  -3.92700 17.57700 21.48100
H  -3.19600 19.21500 21.32700
H  -0.53300 16.45800 21.41800
H  -0.64000 14.87000 22.28300
H  0.98300 15.29400 23.60100
H  0.51500 16.76600 24.26400
H  1.30400 16.88900 22.72100
H  -1.98600 11.33300 26.30100
H  -3.10700 12.12900 25.19800
H  -3.67100 11.48700 26.78900
H  -3.55900 13.88600 31.35100
H  -1.42800 12.52300 34.35300
H  -0.11500 13.43000 33.62400
H  -0.39800 11.71000 33.19200
Mg -12.02600 37.97400 42.37500
C  -9.46600 35.61000 41.76300
C  -10.32600 40.18000 40.58100
C  -14.78800 39.88400 42.21200
C  -13.77700 35.40100 43.92400
N  -10.16200 37.79000 41.26100
C  -9.29500 36.75900 41.09100
C  -8.21400 37.07600 40.05700
C  -8.33300 38.64900 39.94600
C  -9.68900 38.90700 40.63600
C  -7.19600 39.56400 40.59600
C  -8.26000 36.21800 38.76600
C  -6.85600 35.54100 38.46600
H  -5.99000 36.30400 37.47300
N  -12.44800 39.81300 41.61100
C  -11.59700 40.60900 41.03000
C  -12.08800 41.94700 40.97300
C  -13.38000 41.86300 41.43800
C  -13.64500 40.48500 41.73200
C  -11.27800 43.18700 40.58900
C  -14.26700 43.09800 41.75300
O  -13.72100 44.18600 41.59200
C  -15.78800 43.03900 42.11700
N  -14.01700 37.74000 42.93400
C  -14.97000 38.66300 42.82000
C  -16.27200 38.24300 43.38500
C  -15.98000 36.79200 43.97600
C  -14.48300 36.63600 43.61100
C  -16.90600 39.05900 44.51300
C  -16.92100 35.70000 43.45100
C  -17.34700 34.63900 44.46300
N  -11.65800 35.96400 42.96600
C  -12.47500 35.00300 43.54900
C  -11.73200 33.73000 43.76000
C  -10.50400 33.98400 43.06300
C  -10.59400 35.26100 42.53300
C  -12.08400 32.60000 44.65100
C  -9.30000 33.33100 42.69000
O  -8.98400 32.18000 42.89400
C  -8.54100 34.42900 41.80500
C  -7.27600 34.68700 42.60300
O  -6.42500 33.78600 42.71400
O  -7.06800 35.99300 43.00400
C  -5.66100 36.20100 43.49200
H  -9.71900 40.85000 39.96900
H  -15.72000 40.45200 42.24700
H  -14.34900 34.62300 44.43200
H  -7.30300 36.85100 40.61200
H  -8.42000 39.03900 38.93200
H  -6.88500 40.31400 39.86800
H  -6.31000 38.96900 40.81400
H  -7.48100 39.94800 41.57500
H  -8.59200 36.77800 37.89200
H  -9.02100 35.46600 38.97400
H  -7.06000 34.58700 37.98000
H  -6.26400 35.33600 39.35800
H  -11.23500 43.84700 41.45500
H  -11.81700 43.74000 39.81900
H  -10.22500 42.99000 40.39000
H  -16.27700 42.59000 41.25200
H  -16.15800 44.05000 42.28700
H  -16.01700 42.54100 43.06000
H  -16.87500 38.19400 42.47800
H  -15.84300 36.77500 45.05700
H  -17.65800 39.63200 43.97200
H  -16.21900 39.73300 45.02600
H  -17.40300 38.49700 45.30400
H  -16.42700 35.17200 42.63500
H  -17.83600 36.19100 43.11700
H  -17.34900 33.64700 44.00900
H  -18.38700 34.92300 44.62200
H  -16.68300 34.68400 45.32600
H  -13.03700 32.84200 45.12100
H  -11.32500 32.42700 45.41300
H  -12.30800 31.71400 44.05700
H  -8.28800 33.84000 40.92300
H  -5.13900 36.30600 42.54100
H  -5.22100 35.48100 44.18200
H  -5.71000 37.17800 43.97400

