158

Mg -0.29600 43.39500 25.22600
C  2.22500 42.79800 27.67000
C  -2.58800 42.30600 27.48300
C  -2.42700 43.19800 22.69100
C  2.39700 43.91900 22.92000
N  -0.10800 42.59900 27.33400
C  0.91000 42.64800 28.18500
C  0.38600 42.34400 29.62600
C  -1.12600 41.86500 29.44500
C  -1.32200 42.25600 27.97500
C  -1.37400 40.35200 29.72200
C  0.45400 43.55400 30.53600
C  -0.27600 43.56700 31.90900
H  -0.42400 42.34400 32.88700
N  -2.30400 42.99500 25.16100
C  -3.13300 42.55700 26.18000
C  -4.48100 42.47800 25.67800
C  -4.41700 42.62300 24.30700
C  -3.00500 42.96700 23.97400
C  -5.64900 42.15200 26.61800
C  -5.55200 42.63200 23.33000
O  -5.41500 42.92400 22.11400
C  -6.99200 42.13300 23.76200
N  -0.08400 43.56800 23.15800
C  -1.13900 43.45700 22.29400
C  -0.85000 43.66800 20.84300
C  0.69500 43.91400 20.96400
C  1.06100 43.83600 22.43800
C  -1.35300 42.50400 19.89100
C  1.20600 45.21200 20.28900
C  1.05900 46.49600 21.08200
N  1.87200 43.37700 25.21800
C  2.80300 43.77100 24.26300
C  4.18900 43.63100 24.79200
C  3.97400 43.25100 26.12700
C  2.54400 43.15900 26.34500
C  5.53600 43.87200 23.98200
C  4.65300 42.94500 27.42400
O  5.83400 42.71700 27.73000
C  3.48800 42.90900 28.47900
C  3.76300 41.78900 29.43700
O  3.70300 40.59300 29.26000
O  4.24300 42.32600 30.56600
C  4.60400 41.41900 31.69800
H  -3.25800 42.05900 28.31000
H  -3.11300 43.33300 21.85300
H  3.14000 44.15000 22.15400
H  0.96600 41.54600 30.09000
H  -1.81800 42.43100 30.06900
H  -2.01800 39.89000 28.97400
H  -1.87000 40.38800 30.69200
H  -0.44500 39.78600 29.79600
H  0.03100 44.33900 29.90800
H  1.47400 43.85900 30.77200
H  -1.28700 43.94300 31.75500
H  0.27400 44.34400 32.44000
H  -5.33700 42.48100 27.60900
H  -5.62800 41.06700 26.71500
H  -6.64900 42.49100 26.34800
H  -7.00200 41.14300 24.21700
H  -7.56600 41.99100 22.84600
H  -7.53900 42.82200 24.40500
H  -1.37600 44.58000 20.56200
H  1.25800 43.06700 20.57300
H  -1.83400 43.07600 19.09700
H  -2.01300 41.76700 20.34900
H  -0.47300 42.08100 19.40700
H  0.74200 45.30700 19.30800
H  2.26000 45.23200 20.01000
H  0.63600 46.39700 22.08200
H  0.39300 47.11700 20.48400
H  1.99500 47.05200 21.03500
H  6.32600 44.17700 24.66700
H  5.41000 44.61100 23.19100
H  5.75300 42.88600 23.56900
H  3.39900 43.86500 28.99500
H  4.56400 40.34700 31.50800
H  3.84100 41.56900 32.46200
H  5.64400 41.51400 32.01100
Mg -5.45300 25.17900 27.23600
C  -3.39300 27.12800 29.50700
C  -6.08400 23.04500 29.87700
C  -6.80100 23.07800 25.03600
C  -4.10600 27.16500 24.75000
N  -4.84800 25.19300 29.42100
C  -4.07500 26.08100 30.11500
C  -4.14000 25.72300 31.63800
C  -4.77700 24.29500 31.69700
C  -5.24700 24.15600 30.20200
C  -3.74500 23.19900 32.18500
C  -4.98100 26.83600 32.32500
C  -6.00800 26.53600 33.43500
H  -5.61600 25.91300 34.77200
N  -6.43500 23.36600 27.43900
C  -6.52000 22.60800 28.58200
C  -7.31400 21.39500 28.35700
C  -7.60100 21.45300 26.96300
C  -6.95800 22.69500 26.39700
C  -7.45100 20.30600 29.42700
C  -8.14400 20.39300 26.09000
O  -8.30600 20.50700 24.90400
C  -8.80400 19.12000 26.66100
N  -5.43100 25.12800 25.13000
C  -6.19100 24.22000 24.43600
C  -6.27100 24.56500 22.97400
C  -5.33300 25.80600 22.82400
C  -4.88200 26.04500 24.33500
C  -5.73300 23.36700 22.07100
C  -5.92700 27.05000 22.09000
C  -5.26800 27.63200 20.84900
N  -3.92800 26.76100 27.03200
C  -3.60900 27.55000 25.99600
C  -2.67400 28.52400 26.41800
C  -2.59200 28.46100 27.79400
C  -3.39700 27.34200 28.11600
C  -1.76000 29.42700 25.59300
C  -1.92100 28.93400 28.93900
O  -1.08900 29.82400 29.06300
C  -2.49100 28.11600 30.17100
C  -1.42600 27.54700 31.02700
O  -0.58300 26.78100 30.63800
O  -1.49700 28.03300 32.27400
C  -0.80500 27.31700 33.38200
H  -6.34600 22.42700 30.73900
H  -7.37100 22.45600 24.34200
H  -3.73400 27.85300 23.98800
H  -3.13100 25.75200 32.05100
H  -5.63900 24.30800 32.36400
H  -3.59700 22.47700 31.38200
H  -4.14400 22.78000 33.10900
H  -2.73300 23.55800 32.37500
H  -5.52400 27.37200 31.54700
H  -4.22000 27.48600 32.75600
H  -6.82700 25.99000 32.96700
H  -6.32800 27.52700 33.75500
H  -8.28300 19.62900 29.23000
H  -7.71900 20.69000 30.41200
H  -6.50700 19.78000 29.57200
H  -8.14900 18.41900 27.17900
H  -9.14000 18.53300 25.80600
H  -9.52900 19.38200 27.43100
H  -7.33400 24.74300 22.80900
H  -4.41400 25.50800 22.31700
H  -5.17900 23.67800 21.18500
H  -6.58200 22.86100 21.61100
H  -5.12500 22.66300 22.64000
H  -6.04300 27.97600 22.65400
H  -6.94600 26.78700 21.80600
H  -6.06000 27.60300 20.10000
H  -4.44000 27.01800 20.49500
H  -4.94100 28.66700 20.95500
H  -2.32200 29.77400 24.72600
H  -0.91000 28.82800 25.26500
H  -1.42000 30.30700 26.13800
H  -3.19200 28.66900 30.79800
H  0.26100 27.53700 33.32300
H  -0.88600 26.23300 33.30600
H  -1.16900 27.57900 34.37600

