158

Mg 23.71900 -6.79700 45.26200
C  25.95700 -4.51700 43.70400
C  21.12600 -5.13200 43.65100
C  21.66000 -9.35100 46.01000
C  26.40700 -8.32800 46.69100
N  23.56600 -5.12900 43.66000
C  24.60500 -4.31100 43.25700
C  24.13600 -3.41500 42.16000
C  22.59200 -3.34600 42.49500
C  22.36300 -4.62600 43.33000
C  22.06200 -2.08200 43.17900
C  24.55400 -4.03100 40.78600
C  25.05500 -3.05400 39.67600
H  24.91500 -3.44700 38.20700
N  21.66400 -7.17300 44.90200
C  20.75900 -6.30700 44.28400
C  19.48600 -6.94200 44.21700
C  19.64700 -8.26600 44.82800
C  21.01500 -8.31700 45.28600
C  18.19100 -6.29100 43.69400
C  18.55300 -9.12900 45.23100
O  17.46100 -8.89900 44.68300
C  18.68500 -10.23800 46.25500
N  24.06000 -8.66600 46.02700
C  23.01700 -9.47700 46.36000
C  23.56200 -10.81400 47.03200
C  24.97600 -10.28000 47.50900
C  25.20500 -9.00800 46.70700
C  22.66700 -11.37100 48.16200
C  26.04300 -11.36100 47.39500
C  26.56200 -11.74500 48.70900
N  25.76500 -6.47500 45.27000
C  26.74000 -7.20200 45.90600
C  28.03300 -6.56400 45.65600
C  27.76000 -5.53800 44.80500
C  26.38600 -5.54700 44.58000
C  29.31800 -7.00900 46.19900
C  28.40200 -4.42500 44.04400
O  29.61700 -4.11500 43.92700
C  27.17300 -3.77300 43.33200
C  27.04300 -2.24400 43.49900
O  27.52000 -1.37300 42.74800
O  26.57600 -1.92900 44.75900
C  26.55600 -0.51400 45.07600
H  20.23700 -4.62300 43.27400
H  21.14800 -10.30000 46.18400
H  27.25100 -8.77900 47.21700
H  24.51400 -2.40400 42.31500
H  22.18100 -3.50500 41.49800
H  22.88600 -1.53500 43.63900
H  21.23700 -2.31400 43.85300
H  21.76800 -1.34900 42.42800
H  23.64600 -4.37200 40.28900
H  25.26700 -4.85400 40.84100
H  26.10700 -2.86900 39.89500
H  24.50600 -2.11900 39.78400
H  17.63600 -7.02900 43.11500
H  18.35100 -5.40900 43.07500
H  17.59300 -5.92600 44.52900
H  19.28800 -9.92600 47.10800
H  19.03400 -11.12800 45.73100
H  17.67800 -10.37900 46.64700
H  23.47100 -11.53200 46.21700
H  24.87900 -9.97300 48.55100
H  21.74600 -10.79500 48.24800
H  23.24200 -11.32700 49.08700
H  22.32200 -12.39500 48.01500
H  26.74400 -10.97800 46.65300
H  25.63300 -12.25900 46.93400
H  25.96800 -11.50600 49.59000
H  27.60300 -11.48500 48.90100
H  26.78300 -12.80800 48.60600
H  29.39500 -6.76500 47.25900
H  30.16600 -6.48900 45.75400
H  29.43600 -8.08500 46.07300
H  27.36100 -3.78700 42.25900
H  26.03600 0.08700 44.33000
H  27.56000 -0.10900 45.20100
H  26.00500 -0.39500 46.01000
Mg -11.75200 17.16000 42.03700
C  -8.56100 15.73200 41.65900
C  -10.54500 20.15500 40.78400
C  -14.85300 18.04200 41.49600
C  -12.88300 13.76700 42.44800
N  -9.74900 17.85100 41.32100
C  -8.60100 17.13800 41.29400
C  -7.43200 18.01400 40.77800
C  -8.09400 19.46800 41.05300
C  -9.57100 19.10800 40.97200
C  -7.75000 20.21600 42.31500
C  -7.13100 17.69200 39.32000
C  -5.71300 17.35800 38.99700
H  -5.01200 18.12100 37.89500
N  -12.56500 18.90900 41.36100
C  -11.91500 20.07200 41.01600
C  -12.86700 21.16000 40.85500
C  -14.14400 20.57200 40.97900
C  -13.87000 19.10500 41.27800
C  -12.48400 22.53900 40.39900
C  -15.49900 21.26900 40.90300
O  -15.62000 22.52000 40.78000
C  -16.79400 20.53900 40.92300
N  -13.58000 16.06500 41.99400
C  -14.72000 16.70400 41.80300
C  -15.96800 15.84800 41.98100
C  -15.40200 14.44200 42.28900
C  -13.86600 14.74600 42.33400
C  -16.97000 16.45300 42.98900
C  -15.86300 13.35200 41.26600
C  -16.79300 12.27100 41.78900
N  -10.87500 15.17500 42.22900
C  -11.50600 13.94000 42.49900
C  -10.41000 12.90800 42.67600
C  -9.23200 13.60000 42.37400
C  -9.59500 14.91700 42.10900
C  -10.61400 11.49100 42.96500
C  -7.81500 13.37700 42.27500
O  -7.05800 12.39800 42.42000
C  -7.32400 14.76700 41.73800
C  -6.36800 15.33900 42.65500
O  -6.68300 15.80400 43.72800
O  -5.08400 15.28100 42.20300
C  -4.03000 15.86400 43.16100
H  -10.09500 21.12700 40.57100
H  -15.89700 18.22800 41.23200
H  -13.03100 12.68700 42.38100
H  -6.60400 17.94200 41.48300
H  -7.76900 20.13700 40.25500
H  -6.81000 20.71600 42.08300
H  -7.53900 19.56800 43.16600
H  -8.52200 20.95600 42.52700
H  -7.43700 18.52600 38.68800
H  -7.76400 16.86600 38.99400
H  -5.65500 16.27300 38.91900
H  -5.09900 17.54800 39.87800
H  -12.41700 22.38300 39.32300
H  -11.48400 22.72700 40.79000
H  -13.18200 23.28000 40.78800
H  -17.54900 21.32100 41.01100
H  -16.80300 19.93800 41.83200
H  -16.88400 20.08100 39.93800
H  -16.49500 15.87800 41.02700
H  -15.64900 14.17800 43.31700
H  -17.99200 16.46300 42.61000
H  -16.71600 17.48600 43.22800
H  -16.99000 15.94500 43.95400
H  -14.99900 12.84800 40.83200
H  -16.39000 13.82400 40.43700
H  -17.06800 12.46000 42.82600
H  -16.31200 11.30000 41.90900
H  -17.75300 12.24400 41.27300
H  -9.89700 11.18500 43.72700
H  -10.69500 10.91800 42.04100
H  -11.61000 11.43400 43.40400
H  -6.80700 14.66700 40.78400
H  -4.00600 16.95000 43.25000
H  -3.11300 15.36000 42.85400
H  -4.29000 15.51100 44.15900

