158

Mg 6.46700 53.80300 41.62700
C  5.83300 50.39500 41.60000
C  9.44600 53.04800 40.22100
C  6.88200 57.06200 41.01200
C  2.99000 54.35500 42.37100
N  7.35600 51.94500 40.59600
C  6.99400 50.69800 40.97300
C  8.06300 49.58800 40.45600
C  9.32600 50.54400 40.42400
C  8.67500 51.93600 40.31800
C  10.40100 50.27900 41.56700
C  7.80200 48.86300 39.00000
C  6.70100 49.54000 38.06700
H  7.30600 49.99400 36.75500
N  8.14600 54.92100 40.97000
C  9.25700 54.39100 40.35300
C  10.08600 55.46900 39.97900
C  9.42900 56.67700 40.25800
C  8.04600 56.26900 40.70300
C  11.48100 55.32300 39.29600
C  9.99500 58.05600 40.01200
O  11.16000 58.29400 39.72800
C  9.09600 59.13900 40.10900
N  5.05100 55.39400 41.51500
C  5.59800 56.66000 41.44600
C  4.54600 57.68400 41.79500
C  3.19500 56.85000 41.88200
C  3.78000 55.43300 41.98900
C  4.86400 58.64100 42.89800
C  2.30700 56.96900 40.64200
C  0.99700 57.74500 40.83100
N  4.72600 52.63600 41.95200
C  3.40100 52.99600 42.33700
C  2.73000 51.78200 42.86100
C  3.69700 50.73900 42.53500
C  4.81400 51.29300 41.95200
C  1.46700 51.63600 43.56900
C  3.69100 49.34700 42.49800
O  2.87900 48.50400 42.86700
C  5.08700 49.06600 41.83300
C  4.79100 48.28500 40.65500
O  3.90500 48.50300 39.82200
O  5.54300 47.10500 40.68900
C  5.24400 46.19700 39.57400
H  10.49400 52.83600 39.99800
H  7.03300 58.14200 40.96600
H  2.02000 54.67600 42.75800
H  8.26000 48.86600 41.24900
H  9.94000 50.23800 39.57700
H  10.79100 51.18300 42.03400
H  11.34400 49.92000 41.15500
H  9.98900 49.60900 42.32100
H  7.49200 47.83500 39.18600
H  8.75300 48.89000 38.46700
H  6.28900 50.40700 38.58300
H  5.87600 48.85100 37.88400
H  11.52000 54.24800 39.12200
H  12.28300 55.64800 39.95900
H  11.57800 55.83200 38.33800
H  8.17300 58.88200 39.58900
H  9.57700 60.03300 39.71400
H  9.00500 59.33300 41.17800
H  4.40900 58.27000 40.88600
H  2.69400 57.17200 42.79500
H  5.94700 58.55700 42.97800
H  4.46000 58.28400 43.84600
H  4.40800 59.58200 42.59200
H  1.96400 55.99900 40.28200
H  2.78700 57.37300 39.75100
H  0.96200 58.56700 40.11500
H  0.94000 58.09700 41.86100
H  0.14400 57.11900 40.57100
H  1.45100 51.04400 44.48500
H  0.77200 51.10100 42.92200
H  1.28300 52.68000 43.81900
H  5.56200 48.34700 42.50000
H  4.34800 45.57700 39.59600
H  6.13000 45.57800 39.43400
H  5.22000 46.83500 38.69100
Mg 0.87000 43.04100 26.03400
C  3.14500 43.38200 28.68800
C  -1.65600 42.46400 28.20400
C  -0.93800 42.06200 23.38700
C  3.65100 43.46900 23.78500
N  0.82000 42.78800 28.22200
C  1.84700 43.13000 29.10300
C  1.34000 43.00500 30.56300
C  -0.16500 42.58900 30.35100
C  -0.39000 42.69700 28.86500
C  -0.48100 41.24200 30.96000
C  1.48500 44.35100 31.33600
C  1.41000 44.28600 32.88900
H  1.32000 42.97400 33.72100
N  -1.05700 42.32800 25.82700
C  -2.02000 42.26300 26.86400
C  -3.28800 41.87600 26.29000
C  -3.08200 41.83300 24.86600
C  -1.65300 42.05400 24.63300
C  -4.51800 41.55900 27.15900
C  -4.12200 41.43400 23.77500
O  -3.83200 41.38900 22.58800
C  -5.56200 41.12600 24.12700
N  1.22700 42.88100 23.92400
C  0.38000 42.46500 23.04400
C  0.88900 42.45700 21.56100
C  2.24900 43.23900 21.79700
C  2.38300 43.27500 23.29100
C  0.94800 41.07600 20.81300
C  2.22500 44.65300 21.07000
C  1.74000 45.84700 22.02700
N  2.92800 43.52400 26.08700
C  3.90600 43.60900 25.10300
C  5.16900 43.84600 25.76000
C  4.92800 43.65800 27.13700
C  3.54000 43.51400 27.33400
C  6.48800 43.96800 25.04300
C  5.53200 43.57700 28.47600
O  6.70700 43.55800 28.70900
C  4.34800 43.50900 29.57400
C  4.55000 42.40300 30.53500
O  4.17800 41.29800 30.41100
O  5.14200 42.88500 31.62400
C  5.28900 41.97300 32.80300
H  -2.47300 42.38400 28.92400
H  -1.55500 41.89600 22.50100
H  4.47000 43.56700 23.06900
H  1.85800 42.19100 31.07100
H  -0.89600 43.22000 30.85700
H  -1.29100 40.79400 30.38500
H  -0.74100 41.30300 32.01700
H  0.39700 40.59700 30.94100
H  0.64700 44.97200 31.02100
H  2.35000 44.85300 30.90300
H  0.55200 44.91500 33.12900
H  2.33300 44.76200 33.21900
H  -4.72600 40.49400 27.25600
H  -5.42100 42.05400 26.80200
H  -4.34100 42.05700 28.11300
H  -6.18900 41.00300 23.24400
H  -5.97300 41.96400 24.69000
H  -5.65800 40.18000 24.66000
H  0.19500 42.98200 20.90500
H  3.02100 42.60100 21.36800
H  0.59200 40.30300 21.49300
H  2.00400 40.84500 20.67200
H  0.35100 40.99800 19.90500
H  1.71400 44.59700 20.10900
H  3.22800 45.05300 20.92000
H  2.57200 45.97500 22.72000
H  0.87900 45.62500 22.65700
H  1.46600 46.76300 21.50300
H  6.32700 44.08300 23.97100
H  7.10000 43.06800 25.10400
H  7.02800 44.88500 25.28100
H  4.43600 44.43300 30.14600
H  4.74100 41.03100 32.79800
H  4.94300 42.54600 33.66300
H  6.35300 41.74700 32.88100

