158

Mg 24.40000 -5.39800 46.08500
C  26.90200 -3.17600 44.87900
C  22.38700 -4.11700 43.71100
C  22.47100 -8.06300 46.54700
C  26.92700 -7.01000 47.98600
N  24.64900 -3.71600 44.55600
C  25.70000 -2.94900 44.27800
C  25.39900 -2.03500 43.11100
C  23.85000 -2.16400 42.93100
C  23.60800 -3.45200 43.78300
C  22.95700 -0.98200 43.39400
C  26.21700 -2.39600 41.84700
C  26.70900 -1.21900 40.97000
H  26.46000 -1.27500 39.38900
N  22.61400 -6.01000 45.37400
C  21.97700 -5.36800 44.35400
C  20.66500 -5.97600 44.17100
C  20.53200 -7.01900 45.13500
C  21.90300 -7.08300 45.77800
C  19.73300 -5.69300 43.02400
C  19.34500 -7.90800 45.41900
O  18.34600 -7.83200 44.76100
C  19.40000 -8.87100 46.52800
N  24.69800 -7.29800 47.13800
C  23.75100 -8.24500 47.08100
C  24.11000 -9.50200 47.88500
C  25.56500 -9.20900 48.33800
C  25.78700 -7.77200 47.78100
C  23.10300 -9.91100 48.97400
C  26.78000 -10.12700 47.94500
C  26.54100 -11.53300 47.32200
N  26.54700 -5.19500 46.42500
C  27.39100 -5.88400 47.23400
C  28.69200 -5.23200 47.26300
C  28.54300 -4.20000 46.31500
C  27.20500 -4.21700 45.84600
C  29.90000 -5.74700 48.01300
C  29.25100 -3.07800 45.76100
O  30.34700 -2.51500 45.99000
C  28.25900 -2.49800 44.65900
C  28.19200 -1.03900 44.68400
O  27.50000 -0.32200 45.43500
O  29.02900 -0.56900 43.66100
C  29.16200 0.90500 43.51700
H  21.80100 -3.55800 42.97900
H  21.87600 -8.95600 46.74700
H  27.84100 -7.43400 48.40700
H  25.59000 -1.04400 43.52300
H  23.67300 -2.32900 41.86800
H  22.66200 -0.47200 42.47700
H  23.47300 -0.23900 44.00300
H  22.12800 -1.35300 43.99600
H  25.60700 -3.05500 41.22900
H  27.07800 -3.01200 42.10500
H  27.78800 -1.24000 41.12300
H  26.46400 -0.25400 41.41200
H  18.93000 -5.29900 43.64700
H  19.35400 -6.60100 42.55500
H  20.11500 -4.89100 42.39200
H  19.74900 -8.29300 47.38300
H  20.11400 -9.68100 46.37400
H  18.41400 -9.22500 46.82700
H  24.19000 -10.28800 47.13300
H  25.61100 -9.17600 49.42600
H  22.59500 -10.78800 48.57200
H  22.31800 -9.20800 49.25000
H  23.65000 -10.16900 49.88100
H  27.37000 -10.22900 48.85700
H  27.38800 -9.54800 47.25000
H  25.51400 -11.85900 47.48700
H  27.25000 -12.22000 47.78500
H  26.79400 -11.48400 46.26300
H  29.52800 -5.79800 49.03600
H  30.60400 -4.92700 47.87200
H  30.10300 -6.69800 47.52000
H  28.70100 -2.95300 43.77200
H  28.66400 1.37000 44.36800
H  28.77600 1.23000 42.55100
H  30.22100 1.12900 43.65100
Mg 0.01900 43.94100 26.19700
C  2.40900 43.43500 28.69300
C  -2.50600 43.42000 28.42900
C  -1.92900 43.49500 23.52900
C  2.87300 43.98200 23.94500
N  0.01300 43.33400 28.37700
C  1.06800 43.30700 29.18500
C  0.63200 43.22800 30.65100
C  -0.93100 42.94300 30.37700
C  -1.18200 43.27600 28.96500
C  -1.49100 41.53000 30.67900
C  0.85400 44.54800 31.45400
C  1.37400 44.45600 32.86800
H  0.97500 43.09800 33.65100
N  -2.00500 43.52900 25.98100
C  -2.92000 43.47000 27.08800
C  -4.27200 43.45200 26.54600
C  -4.17600 43.49400 25.14100
C  -2.68500 43.47600 24.78100
C  -5.44800 43.57100 27.52500
C  -5.26600 43.50000 24.13100
O  -5.05200 43.45000 22.92100
C  -6.61100 43.31600 24.59900
N  0.46200 43.88600 24.05400
C  -0.58100 43.70700 23.21200
C  -0.09300 43.59500 21.76800
C  1.33400 44.26200 21.87900
C  1.61500 44.08300 23.35300
C  0.00400 42.16600 21.19100
C  1.49800 45.77000 21.42400
C  2.54800 46.16700 20.45900
N  2.20500 43.97800 26.30300
C  3.20000 43.93700 25.30800
C  4.55500 43.83500 25.89000
C  4.27100 43.69900 27.24100
C  2.81500 43.73800 27.44200
C  5.85000 43.74800 25.12000
C  4.88600 43.41400 28.54300
O  6.08100 43.45400 28.89300
C  3.64500 43.43700 29.58100
C  3.82300 42.30800 30.47400
O  3.47100 41.15800 30.27100
O  4.55000 42.68900 31.56100
C  4.71600 41.75000 32.65600
H  -3.34000 43.30700 29.12400
H  -2.58400 43.32800 22.67100
H  3.58200 43.95600 23.11500
H  1.00100 42.33000 31.14700
H  -1.42400 43.64400 31.05000
H  -2.43800 41.72100 31.18300
H  -0.91200 41.08000 31.48600
H  -1.69200 40.85300 29.85000
H  -0.04000 45.16600 31.53100
H  1.53800 45.12400 30.83000
H  0.88100 45.32700 33.29900
H  2.46200 44.50600 32.82300
H  -6.20200 44.23800 27.10800
H  -5.17500 44.01100 28.48400
H  -5.91200 42.61800 27.77700
H  -6.62300 42.61700 25.43500
H  -7.19200 42.83100 23.81500
H  -7.07300 44.28800 24.77200
H  -0.62000 44.31700 21.14500
H  2.08200 43.68500 21.33500
H  -0.64800 41.50200 21.75800
H  0.99200 41.74400 21.37800
H  -0.19900 42.08300 20.12300
H  1.57900 46.36100 22.33600
H  0.59700 46.07500 20.89200
H  2.21500 46.79200 19.63000
H  3.01400 45.30600 19.98000
H  3.32200 46.73000 20.98100
H  6.56000 44.53200 25.38300
H  5.62500 43.84600 24.05800
H  6.34800 42.79600 25.30000
H  3.68300 44.30300 30.24100
H  3.93500 40.99200 32.61500
H  4.73400 42.20200 33.64800
H  5.70400 41.29700 32.56700

