158

Mg 9.44300 3.86600 28.15700
C  10.64100 2.44000 31.14500
C  7.85100 6.22800 30.04200
C  7.88800 4.74600 25.39100
C  10.66600 1.01700 26.46600
N  8.97600 4.08600 30.49700
C  9.82000 3.61700 31.44900
C  9.64800 4.41100 32.76700
C  8.62000 5.55100 32.35200
C  8.50500 5.29600 30.83300
C  7.26900 5.47400 33.09500
C  10.99000 4.82500 33.43500
C  10.83000 5.73400 34.63900
H  11.31400 5.07800 35.96400
N  8.07900 5.37400 27.76100
C  7.56000 6.26500 28.62600
C  6.80900 7.28000 27.86100
C  6.77600 6.86800 26.47900
C  7.59500 5.57500 26.53300
C  6.10300 8.42000 28.67300
C  6.13600 7.52700 25.24200
O  6.14900 7.07700 24.09900
C  5.51000 8.90300 25.36700
N  9.42700 3.05700 26.21400
C  8.74800 3.65500 25.30000
C  8.60400 2.74900 24.08400
C  9.72100 1.73300 24.28800
C  9.97400 1.93000 25.70900
C  7.18200 2.05600 23.91900
C  11.07100 1.85600 23.52800
C  11.42000 0.67700 22.65400
N  10.37500 2.16100 28.65200
C  10.93800 1.21700 27.86200
C  11.69900 0.31100 28.62500
C  11.68800 0.84000 29.90500
C  10.79600 1.91600 29.86800
C  12.37400 -0.87200 28.08100
C  12.14900 0.61000 31.18600
O  12.97100 -0.17800 31.60200
C  11.57200 1.74900 32.07800
C  10.91500 1.07600 33.28000
O  9.89100 0.41100 33.27200
O  11.67400 1.18300 34.41000
C  11.03300 0.63000 35.60200
H  7.39900 7.03000 30.62900
H  7.37800 5.03400 24.46800
H  10.99500 0.19200 25.83000
H  9.11200 3.71500 33.41200
H  9.11100 6.52300 32.39500
H  7.60400 5.83500 34.06700
H  6.88100 4.45500 33.09000
H  6.54400 6.16600 32.66500
H  11.60000 5.32500 32.68300
H  11.55700 3.92500 33.67200
H  9.75100 5.85700 34.73600
H  11.31300 6.67300 34.36700
H  5.82300 8.27800 29.71700
H  5.06900 8.52500 28.34500
H  6.68900 9.33900 28.66300
H  5.03500 9.36500 24.50200
H  6.20800 9.60600 25.82200
H  4.65100 8.86900 26.03700
H  8.76200 3.38700 23.21400
H  9.35300 0.72000 24.12600
H  7.35200 0.99400 23.73700
H  6.57600 2.52100 23.14200
H  6.63700 2.08400 24.86200
H  11.87700 2.02100 24.24300
H  11.16900 2.72300 22.87400
H  11.59800 1.06900 21.65300
H  10.63500 -0.07700 22.70200
H  12.30700 0.19800 23.07100
H  12.58800 -0.80700 27.01400
H  11.73300 -1.71500 28.33800
H  13.35900 -1.06500 28.50500
H  12.36200 2.43700 32.37800
H  11.57000 0.99000 36.47900
H  11.06900 -0.45600 35.52200
H  10.00300 0.96600 35.72300
Mg 47.10300 34.57000 27.74300
C  45.37000 32.91900 30.15400
C  47.59800 37.24000 29.93100
C  48.32800 36.45200 25.24400
C  46.41700 32.06400 25.50000
N  46.59100 35.02400 29.81000
C  45.86700 34.11500 30.61500
C  46.02700 34.57100 32.14300
C  46.23500 36.11300 31.90000
C  46.82500 36.17300 30.44400
C  44.91800 36.97200 32.04800
C  47.17200 33.81900 32.82200
C  47.02500 33.68200 34.35500
H  46.02800 34.54300 35.13900
N  47.91100 36.57600 27.59100
C  48.05600 37.45700 28.63400
C  48.66600 38.65900 28.06900
C  48.81100 38.42700 26.70600
C  48.30700 37.17200 26.45800
C  49.02400 39.78000 28.97900
C  49.40300 39.31500 25.67900
O  49.28200 39.17300 24.47700
C  49.94800 40.59300 26.17700
N  47.22600 34.35300 25.63800
C  47.86400 35.20300 24.86800
C  48.15200 34.68700 23.46100
C  47.72800 33.19600 23.64300
C  47.06800 33.15600 25.02900
C  47.43500 35.46600 22.38500
C  48.79100 32.13900 23.68800
C  48.67300 30.90500 22.72800
N  46.03100 32.82200 27.73100
C  45.84100 31.84300 26.75500
C  45.24800 30.69400 27.32400
C  44.91700 31.15600 28.64900
C  45.45400 32.38900 28.89100
C  45.04700 29.35600 26.72500
C  44.33800 30.70800 29.84700
O  43.73900 29.67600 30.17500
C  44.44200 31.89400 30.83000
C  44.77900 31.40100 32.21500
O  45.68400 30.57200 32.47700
O  43.94600 31.85000 33.09900
C  44.15600 31.46500 34.46700
H  47.65800 38.02100 30.69200
H  48.67500 36.93000 24.32600
H  46.33500 31.23200 24.79800
H  45.09100 34.53000 32.70000
H  47.00200 36.45300 32.59600
H  43.94300 36.49300 31.97100
H  44.88300 37.72800 31.26300
H  45.00100 37.58900 32.94300
H  48.11000 34.32500 32.59600
H  47.24900 32.82400 32.38500
H  48.00400 34.01500 34.69900
H  46.90600 32.63200 34.62500
H  50.05800 40.12200 28.91900
H  48.68900 39.68800 30.01200
H  48.42300 40.67600 28.82700
H  49.21200 41.11400 26.78800
H  50.02200 41.19700 25.27300
H  50.93300 40.57400 26.64500
H  49.23300 34.68900 23.32100
H  47.05200 32.91600 22.83400
H  46.83500 36.23700 22.86900
H  46.71400 34.89200 21.80200
H  48.11600 35.71000 21.57000
H  48.99600 31.64300 24.63700
H  49.69000 32.65900 23.35600
H  47.74000 30.87500 22.16500
H  48.70800 29.92400 23.20200
H  49.49000 31.02100 22.01700
H  45.67800 29.08200 25.87900
H  44.01800 29.26000 26.38000
H  45.23400 28.73400 27.60100
H  43.47000 32.38800 30.83400
H  44.14600 30.41700 34.76800
H  43.41000 31.96800 35.08200
H  45.15400 31.76800 34.78500

