158

Mg 17.03000 -1.77400 28.05100
C  16.04100 0.57400 30.63800
C  18.30800 -3.65500 30.51000
C  18.40600 -3.64300 25.74400
C  16.22500 0.67900 25.74000
N  17.23100 -1.48400 30.19800
C  16.72600 -0.55700 31.07800
C  17.13500 -0.86100 32.51600
C  18.17400 -2.06500 32.39000
C  17.92200 -2.40600 30.91700
C  19.64600 -1.66900 32.69100
C  15.96700 -1.17200 33.40000
C  15.97300 -0.67500 34.84000
H  17.29500 -0.07100 35.28000
N  18.03300 -3.50600 28.11500
C  18.42800 -4.16600 29.21200
C  18.84900 -5.49300 28.77300
C  18.90000 -5.49200 27.38500
C  18.45200 -4.15700 27.04200
C  19.30700 -6.50600 29.74100
C  19.35400 -6.56300 26.41500
O  19.41100 -6.38700 25.20800
C  19.72400 -7.86300 27.06600
N  17.19800 -1.48800 26.06700
C  17.86500 -2.44200 25.29900
C  18.04000 -1.89300 23.86400
C  17.28800 -0.53000 23.83600
C  16.89900 -0.41300 25.35600
C  19.52900 -1.77500 23.38400
C  16.03900 -0.50100 22.85800
C  15.76600 0.86800 22.11600
N  16.02500 0.10700 28.13300
C  15.79100 0.97900 27.07300
C  15.20900 2.20700 27.56700
C  15.31000 2.07100 28.93500
C  15.81100 0.82100 29.24700
C  14.74400 3.37600 26.71100
C  15.02500 2.70700 30.24000
O  14.41000 3.71900 30.53700
C  15.68300 1.84200 31.41500
C  16.80400 2.60800 31.99200
O  17.94600 2.74300 31.52700
O  16.38900 3.33000 33.13500
C  17.52600 3.93800 33.79300
H  18.59600 -4.19800 31.41200
H  18.79900 -4.13400 24.85100
H  16.14000 1.50300 25.02800
H  17.73900 0.01200 32.76200
H  17.82800 -2.90300 32.99500
H  19.75000 -0.64300 33.04300
H  20.20800 -1.62600 31.75800
H  20.10800 -2.45200 33.29200
H  15.63400 -2.20800 33.47400
H  15.11600 -0.73100 32.88200
H  15.54800 -1.40300 35.53200
H  15.23900 0.11100 35.01900
H  18.69200 -7.40500 29.77800
H  19.32400 -5.95300 30.68100
H  20.36100 -6.70900 29.55300
H  19.85300 -8.55500 26.23400
H  18.94100 -8.31400 27.67500
H  20.72500 -7.72100 27.47300
H  17.52500 -2.68800 23.32600
H  17.86900 0.35700 23.58200
H  20.13700 -1.95400 24.27100
H  19.87800 -0.84000 22.94600
H  19.72400 -2.53700 22.63000
H  15.17700 -0.93100 23.36800
H  16.16900 -1.19000 22.02300
H  14.87700 1.28700 22.58700
H  15.54400 0.84500 21.04900
H  16.68000 1.46200 22.11700
H  13.80900 3.24700 26.16700
H  15.36900 3.80600 25.93000
H  14.55100 4.17500 27.42700
H  14.92000 1.59500 32.15300
H  17.76300 4.95400 33.47900
H  18.49500 3.46400 33.95100
H  17.20500 4.02100 34.83100
Mg -0.85000 43.25400 26.68500
C  1.70900 43.20900 29.08900
C  -3.16400 42.77100 29.22900
C  -3.21100 43.22900 24.34900
C  1.63100 43.54900 24.11400
N  -0.72000 42.98200 28.81900
C  0.43500 43.04100 29.62200
C  0.05100 42.95500 31.14000
C  -1.43200 42.52400 31.16600
C  -1.85600 42.81700 29.64000
C  -1.58800 41.02000 31.51100
C  0.34300 44.32800 31.84300
C  0.45100 44.29600 33.36900
H  0.26600 43.06700 34.19200
N  -2.97500 43.13400 26.79900
C  -3.69800 42.93100 27.92200
C  -5.09900 42.96300 27.51600
C  -5.15700 43.02400 26.08000
C  -3.73700 43.10300 25.68800
C  -6.34100 42.85000 28.43100
C  -6.32100 42.94900 25.10700
O  -6.28600 42.99500 23.88300
C  -7.71500 42.88700 25.73300
N  -0.75000 43.28500 24.56000
C  -1.89400 43.32100 23.85700
C  -1.63300 43.47300 22.35700
C  -0.06600 43.66000 22.21100
C  0.29200 43.56900 23.68300
C  -2.17100 42.22500 21.59800
C  0.47100 44.99900 21.50500
C  0.10400 46.29100 22.10100
N  1.22500 43.19900 26.58000
C  2.06600 43.33600 25.50100
C  3.44600 43.22800 26.00500
C  3.39500 43.19900 27.38700
C  2.00000 43.19600 27.69100
C  4.64700 43.30100 25.20500
C  4.12900 43.05000 28.65500
O  5.38500 42.86900 28.73800
C  3.08000 43.23600 29.82200
C  3.29600 42.09600 30.74600
O  3.26000 40.87600 30.53000
O  3.59700 42.60400 31.93900
C  3.92800 41.58200 32.98100
H  -3.90200 42.68700 30.03000
H  -3.99800 43.17200 23.59300
H  2.38100 43.69400 23.33500
H  0.68900 42.17900 31.56300
H  -2.01300 43.12800 31.86500
H  -0.81700 40.50000 30.94200
H  -2.57900 40.63200 31.27700
H  -1.31700 40.79400 32.54200
H  -0.44400 45.06800 31.70000
H  1.28300 44.72000 31.45400
H  -0.24900 45.00300 33.81200
H  1.44600 44.71700 33.51200
H  -7.08000 43.51400 27.98100
H  -6.26100 43.18900 29.46400
H  -6.54000 41.77900 28.42100
H  -8.37100 42.77400 24.87000
H  -8.05100 43.83900 26.14600
H  -7.84400 42.07700 26.45100
H  -2.18300 44.34200 21.99400
H  0.30700 42.79500 21.66400
H  -2.04900 41.32200 22.19600
H  -1.61500 41.98700 20.69100
H  -3.24100 42.34700 21.42900
H  -0.01900 44.97000 20.53200
H  1.53800 44.92600 21.29500
H  -0.38100 46.93100 21.36400
H  1.04700 46.76700 22.36900
H  -0.47100 46.23800 23.02600
H  4.61900 44.16200 24.53700
H  4.81900 42.39500 24.62300
H  5.52600 43.51300 25.81300
H  3.24900 44.13200 30.41900
H  3.99900 42.21500 33.86500
H  4.89100 41.08700 32.86200
H  3.09700 40.87700 33.00000

