158

Mg 0.29500 8.13000 26.26900
C  0.87400 10.14500 29.26200
C  0.78400 5.46300 28.12200
C  0.35900 6.50300 23.49100
C  0.69200 11.21300 24.40000
N  0.84000 7.80400 28.46200
C  0.82400 8.74300 29.48100
C  0.97900 8.00400 30.83300
C  0.96100 6.47600 30.44500
C  0.80100 6.58300 28.93700
C  2.28600 5.73900 30.94900
C  -0.19700 8.42000 31.82700
C  0.09200 8.43700 33.37900
H  1.17500 7.56900 34.00100
N  0.51200 6.18600 25.81700
C  0.66600 5.19700 26.72200
C  0.46300 3.88500 26.04500
C  0.46700 4.18100 24.59400
C  0.38400 5.70000 24.58000
C  0.32500 2.54100 26.78700
C  0.27900 3.28100 23.34400
O  0.02200 3.81200 22.32000
C  0.35900 1.79600 23.46300
N  0.45200 8.78400 24.27900
C  0.31900 7.87100 23.28700
C  0.21100 8.51700 21.87600
C  -0.04600 9.99900 22.22500
C  0.47300 10.00100 23.71200
C  1.58000 8.25300 21.17300
C  -1.54300 10.33100 22.18400
C  -1.87500 11.51900 21.23400
N  0.67900 10.26700 26.72300
C  0.78500 11.31800 25.82500
C  0.92900 12.55400 26.54600
C  1.00300 12.19000 27.93100
C  0.82400 10.74400 27.98200
C  1.09500 13.94100 25.98200
C  1.27200 12.67300 29.24000
O  1.60600 13.78700 29.68600
C  1.08500 11.36000 30.21000
C  2.19300 11.23500 31.15800
O  3.14500 10.51900 30.93500
O  1.96200 11.95300 32.29100
C  3.09500 12.10400 33.18100
H  1.00100 4.56500 28.70300
H  0.30600 6.02900 22.50800
H  0.74100 12.16400 23.86500
H  1.91700 8.29300 31.30600
H  0.09100 5.93500 30.81600
H  1.99500 4.87600 31.54700
H  3.03400 6.32600 31.48200
H  2.85600 5.37100 30.09500
H  -1.02100 7.73700 31.61800
H  -0.54300 9.42700 31.59500
H  -0.77000 8.32400 34.03600
H  0.45800 9.41700 33.68400
H  0.16000 2.68600 27.85500
H  1.21300 1.93800 26.60100
H  -0.63900 2.13600 26.47900
H  -0.38100 1.40200 24.15900
H  1.28700 1.51600 23.96000
H  0.38500 1.33400 22.47600
H  -0.60900 8.18600 21.23800
H  0.59300 10.63300 21.61100
H  2.17400 7.49600 21.68500
H  2.19600 9.15100 21.12500
H  1.49300 8.03100 20.10900
H  -1.79900 10.74300 23.16000
H  -2.18200 9.48700 21.92400
H  -1.99000 12.43600 21.81100
H  -2.87800 11.26400 20.89200
H  -1.25200 11.75100 20.37000
H  0.44600 13.96700 25.10600
H  2.13600 14.15400 25.74000
H  0.75200 14.68300 26.70300
H  0.20800 11.59300 30.81300
H  3.58900 13.03500 32.90100
H  3.69900 11.20000 33.25900
H  2.60400 12.15000 34.15200
Mg 5.87100 54.07000 42.04300
C  4.87700 50.63100 41.85600
C  8.87500 53.12200 40.76700
C  6.41900 57.22200 41.31600
C  2.43600 54.73900 42.92200
N  6.69100 52.11900 41.35000
C  6.15200 50.85200 41.34400
C  7.14800 49.77800 40.83400
C  8.51700 50.49300 41.10100
C  8.03700 52.00800 41.07700
C  9.30000 50.18500 42.37700
C  7.02500 49.40500 39.32600
C  6.11300 50.25200 38.32500
H  6.80400 51.04600 37.27300
N  7.50700 55.06100 41.15600
C  8.68600 54.52000 40.82300
C  9.62900 55.60000 40.49500
C  8.93600 56.80100 40.76800
C  7.56000 56.42400 41.09900
C  11.07500 55.47000 39.87100
C  9.52000 58.22800 40.74100
O  10.75100 58.40800 40.51800
C  8.71500 59.45300 41.04500
N  4.58700 55.70100 41.90300
C  5.13400 56.95800 41.79700
C  4.12200 58.05400 42.16600
C  2.86900 57.18800 42.54400
C  3.38500 55.74400 42.60900
C  4.59000 59.03900 43.33200
C  1.62400 57.34200 41.54800
C  0.20800 57.55100 42.14900
N  3.96500 52.92600 42.38200
C  2.71200 53.36700 42.69100
C  1.91100 52.21500 43.05600
C  2.67600 51.10300 42.62300
C  3.93900 51.63000 42.23200
C  0.57100 52.03800 43.69800
C  2.65200 49.67800 42.49800
O  1.74200 48.88800 42.58200
C  4.10500 49.29800 42.03200
C  4.13500 48.38000 40.89200
O  3.70800 48.56000 39.78800
O  4.74000 47.21000 41.24600
C  4.58000 46.08800 40.27800
H  9.93700 52.87100 40.78700
H  6.57500 58.25400 40.99400
H  1.43600 54.92000 43.32200
H  7.04700 48.85200 41.40000
H  9.21500 50.27200 40.29300
H  9.03100 49.29900 42.95100
H  9.19400 51.04100 43.04400
H  10.35600 50.34000 42.15400
H  6.60100 48.40100 39.30100
H  8.01900 49.30500 38.89100
H  5.53500 50.98700 38.88500
H  5.37600 49.52000 37.99400
H  11.13000 54.69500 39.10700
H  11.66000 55.07200 40.70000
H  11.50900 56.41800 39.55300
H  9.43300 60.26900 41.11300
H  8.22800 59.31200 42.01000
H  7.92500 59.57900 40.30400
H  3.90300 58.75100 41.35700
H  2.47900 57.54000 43.49900
H  4.14200 60.02400 43.20300
H  5.65400 59.24900 43.22500
H  4.20400 58.62300 44.26300
H  1.51700 56.39500 41.01800
H  1.71300 58.08900 40.75900
H  -0.16200 58.52900 41.84400
H  0.03900 57.58600 43.22500
H  -0.48700 56.82600 41.72600
H  0.01200 52.97000 43.77900
H  0.66800 51.52600 44.65500
H  -0.06600 51.31600 43.18600
H  4.55700 48.77100 42.87200
H  5.16300 46.25700 39.37200
H  3.58500 45.98000 39.84600
H  4.89500 45.11600 40.65700

