158

Mg 0.38100 7.07700 25.92700
C  1.10100 9.12500 28.69800
C  1.27800 4.37600 27.95200
C  0.66000 5.03600 23.15600
C  0.58200 9.87100 23.85100
N  0.99400 6.80600 28.05100
C  1.08100 7.74100 29.03500
C  1.14500 7.14600 30.43900
C  1.23900 5.62200 30.16800
C  1.12600 5.58300 28.64800
C  2.50600 5.00400 30.70000
C  -0.06500 7.56900 31.39000
C  0.10000 7.63800 32.90500
H  1.30100 6.96200 33.56700
N  0.76300 4.91200 25.62200
C  1.04400 4.04100 26.58100
C  1.12000 2.69200 25.99400
C  0.90800 2.84400 24.61500
C  0.78100 4.29900 24.35300
C  1.33500 1.51800 26.76800
C  0.79000 1.75800 23.47900
O  0.77200 2.04000 22.28900
C  0.74600 0.27600 23.85900
N  0.61900 7.38600 23.82300
C  0.55900 6.40200 22.93500
C  0.31300 6.96700 21.48100
C  0.23000 8.51000 21.68200
C  0.42900 8.61900 23.24700
C  1.33100 6.48000 20.46300
C  -1.20500 9.09900 21.32000
C  -2.26700 9.26800 22.36400
N  0.65800 9.09200 26.19600
C  0.72400 10.12700 25.27600
C  0.84900 11.39300 25.97500
C  1.02400 11.05700 27.33300
C  0.87700 9.68300 27.38000
C  0.72300 12.66100 25.36300
C  1.25300 11.52000 28.64100
O  1.48000 12.60600 29.05700
C  1.12600 10.33800 29.57900
C  2.41500 10.43500 30.46000
O  3.60000 10.37700 30.00700
O  2.05500 10.82700 31.73800
C  3.13600 10.89500 32.71900
H  1.31600 3.51300 28.62100
H  0.59300 4.50400 22.20500
H  0.60700 10.75400 23.20900
H  2.06600 7.54800 30.86000
H  0.31700 5.08900 30.40100
H  2.28000 4.53100 31.65600
H  3.25300 5.78500 30.84800
H  2.97400 4.22200 30.10300
H  -0.84400 6.82000 31.24500
H  -0.61900 8.43600 31.03000
H  -0.81600 7.23000 33.33200
H  0.10400 8.68500 33.20800
H  0.81700 0.65100 26.35900
H  1.04000 1.62300 27.81200
H  2.41300 1.36600 26.72000
H  1.56700 0.04600 24.53800
H  0.80800 -0.39800 23.00500
H  -0.22000 -0.03800 24.25200
H  -0.65400 6.51500 21.25600
H  1.02900 9.00800 21.13300
H  1.73600 7.38200 20.00200
H  1.04200 5.74200 19.71500
H  2.13600 5.99800 21.01700
H  -1.76100 8.48500 20.61200
H  -1.04700 10.02200 20.76100
H  -2.02600 8.91500 23.36600
H  -3.17600 8.70900 22.14400
H  -2.54400 10.32200 22.36700
H  0.32500 13.38900 26.07100
H  0.18900 12.66700 24.41300
H  1.68500 13.08600 25.07600
H  0.11100 10.39300 29.97300
H  3.74700 10.00600 32.56200
H  2.86300 10.89200 33.77400
H  3.67300 11.82700 32.54400
Mg -1.85000 34.41600 26.76700
C  -3.46200 32.72200 29.40400
C  -0.33600 36.38100 28.96400
C  -0.63400 35.97600 24.16200
C  -3.68800 32.26900 24.49500
N  -1.94700 34.50300 28.97100
C  -2.62900 33.77400 29.85800
C  -2.27700 34.22900 31.29000
C  -1.41600 35.51400 31.07800
C  -1.20400 35.46200 29.54300
C  -2.09800 36.84400 31.61200
C  -1.44500 33.14000 32.05900
C  -1.36600 33.36500 33.55100
H  -1.91800 32.34900 34.54700
N  -0.81100 36.09700 26.59700
C  -0.15700 36.69400 27.58300
C  0.72000 37.70200 27.04500
C  0.66400 37.60700 25.68700
C  -0.33500 36.53600 25.38700
C  1.56200 38.56400 27.88800
C  1.34100 38.49500 24.59600
O  0.98900 38.58400 23.43100
C  2.39400 39.51400 24.90400
N  -2.22500 34.28400 24.66400
C  -1.52300 34.98600 23.76300
C  -1.74600 34.55700 22.25700
C  -2.68200 33.29400 22.45000
C  -2.82400 33.22300 24.01900
C  -2.51300 35.73500 21.36500
C  -2.04300 31.89300 21.95100
C  -0.57400 31.63900 22.54200
N  -3.31800 32.70300 26.87500
C  -3.93000 31.97500 25.87800
C  -4.76400 30.99200 26.53600
C  -4.68300 31.28900 27.93000
C  -3.69400 32.24800 28.10100
C  -5.57700 29.90200 25.84000
C  -5.03900 30.87500 29.19100
O  -5.72100 29.94700 29.65600
C  -4.29400 31.77100 30.23200
C  -5.29200 32.27800 31.24000
O  -6.18200 33.09000 30.93200
O  -5.15400 31.67600 32.43400
C  -6.13000 31.97800 33.52600
H  0.21600 36.89000 29.75600
H  -0.03100 36.44200 23.38000
H  -4.09700 31.51100 23.82300
H  -3.17400 34.45700 31.86600
H  -0.44400 35.41100 31.56200
H  -2.17900 37.55700 30.79200
H  -1.58700 37.36900 32.42000
H  -3.14200 36.75700 31.91300
H  -0.45500 33.19500 31.60700
H  -1.94400 32.19400 31.84500
H  -1.65900 34.38300 33.80900
H  -0.29200 33.36900 33.73600
H  1.49800 38.24900 28.93000
H  1.28000 39.60400 27.72600
H  2.52400 38.36500 27.41600
H  3.31400 39.03200 25.23700
H  1.91400 40.08400 25.70000
H  2.63800 40.12700 24.03700
H  -0.73900 34.42600 21.86200
H  -3.68600 33.41700 22.04300
H  -3.27700 36.12300 22.03800
H  -2.77800 35.16800 20.47200
H  -1.84700 36.55700 21.10400
H  -2.11900 31.98100 20.86700
H  -2.68200 31.02800 22.13100
H  -0.56200 31.96200 23.58300
H  0.11500 32.23600 21.94300
H  -0.22000 30.61800 22.69100
H  -5.95200 29.15200 26.53800
H  -5.03400 29.52000 24.97600
H  -6.47600 30.39000 25.46400
H  -3.74300 30.93900 30.67100
H  -6.94200 31.25200 33.58600
H  -6.61500 32.93600 33.34400
H  -5.57800 32.02600 34.46400

