158

Mg 24.39900 -6.39300 46.61300
C  26.40900 -3.77500 45.27300
C  21.81300 -5.34800 44.34700
C  22.58400 -9.20600 47.25600
C  27.14100 -7.73800 48.15600
N  24.18500 -4.73300 45.14800
C  25.11800 -3.80200 44.74200
C  24.62900 -2.91700 43.59100
C  23.11200 -3.27800 43.48100
C  23.04000 -4.58100 44.37700
C  22.14700 -2.08400 43.80000
C  25.48200 -3.04600 42.33400
C  25.77800 -1.79500 41.57000
H  24.83900 -1.65300 40.36100
N  22.41600 -7.07100 45.99600
C  21.59200 -6.50700 45.05100
C  20.31400 -7.21000 45.07500
C  20.49900 -8.37100 45.91500
C  21.82800 -8.20800 46.46900
C  19.09500 -6.82300 44.24500
C  19.47000 -9.43900 46.21900
O  18.41400 -9.50100 45.60100
C  19.66700 -10.32100 47.35200
N  24.83400 -8.21200 47.48000
C  23.85300 -9.16900 47.81400
C  24.49300 -10.38400 48.60100
C  25.93700 -9.89100 48.88700
C  26.01000 -8.53900 48.14000
C  23.76000 -10.86100 49.86800
C  27.03600 -10.84900 48.48500
C  28.04100 -11.19500 49.68300
N  26.34100 -5.81500 46.85100
C  27.31700 -6.43000 47.56700
C  28.50100 -5.68200 47.52300
C  28.24600 -4.60100 46.61600
C  26.88400 -4.72700 46.20200
C  29.70500 -5.92600 48.36500
C  28.84200 -3.48700 45.95000
O  30.02900 -3.08800 45.94300
C  27.61100 -2.83200 45.06100
C  27.33500 -1.42200 45.45900
O  28.01600 -0.42200 45.23900
O  26.13100 -1.36400 46.23200
C  25.76200 0.02200 46.68200
H  21.00000 -5.03800 43.68800
H  22.11000 -10.18400 47.36200
H  27.98400 -8.20100 48.67300
H  24.94300 -1.97600 44.04100
H  22.91300 -3.55900 42.44700
H  22.79500 -1.32800 44.24300
H  21.38100 -2.31800 44.54000
H  21.60700 -1.75900 42.91200
H  25.06400 -3.88300 41.77400
H  26.48800 -3.35600 42.61500
H  26.82700 -1.67100 41.30100
H  25.52500 -0.85900 42.06800
H  18.16700 -7.20700 44.66800
H  19.32100 -7.26100 43.27300
H  18.94100 -5.78600 43.94600
H  20.23900 -11.21300 47.09500
H  18.66100 -10.64000 47.62400
H  20.15400 -9.84400 48.20300
H  24.56200 -11.17900 47.85900
H  26.03200 -9.69100 49.95500
H  22.95900 -11.48600 49.47400
H  23.31500 -9.97500 50.32200
H  24.39600 -11.38900 50.57700
H  27.53500 -10.44100 47.60500
H  26.57300 -11.78400 48.17000
H  27.99900 -12.23600 50.00400
H  28.05900 -10.45500 50.48400
H  29.02200 -11.04500 49.23300
H  29.32100 -6.00400 49.38200
H  30.44900 -5.14300 48.21700
H  30.23400 -6.80100 47.99000
H  28.01400 -2.67100 44.06100
H  25.62500 0.59900 45.76800
H  26.45600 0.44600 47.40800
H  24.78700 -0.10600 47.15300
Mg -5.01500 25.23700 26.49100
C  -3.50600 26.86000 29.03700
C  -6.54700 23.09400 28.65700
C  -6.54400 23.59800 23.80900
C  -3.65200 27.48800 24.25700
N  -4.93700 24.96300 28.55200
C  -4.45100 25.88900 29.45300
C  -4.81600 25.48100 30.90000
C  -5.58800 24.14000 30.68800
C  -5.72600 24.10100 29.18300
C  -4.73400 22.96200 31.27500
C  -5.58800 26.68400 31.56700
C  -5.86700 26.69900 33.11200
H  -5.55700 25.41700 33.91800
N  -6.29100 23.53000 26.29500
C  -6.79000 22.84600 27.33300
C  -7.62400 21.72200 26.83300
C  -7.76700 21.87200 25.46300
C  -6.81800 22.99500 25.11600
C  -8.30200 20.70800 27.69900
C  -8.53200 21.09400 24.41600
O  -8.42300 21.42600 23.27200
C  -9.59000 20.04600 24.91700
N  -5.07600 25.53900 24.28900
C  -5.91200 24.81700 23.45900
C  -5.77300 25.30500 22.06000
C  -4.84900 26.66000 22.21500
C  -4.50700 26.55900 23.65900
C  -5.26300 24.40900 20.86500
C  -5.54800 27.96200 21.80200
C  -5.07600 28.54300 20.41700
N  -3.73800 26.70200 26.55000
C  -3.23300 27.53800 25.59500
C  -2.29800 28.49700 26.16100
C  -2.34100 28.24500 27.49600
C  -3.24700 27.15100 27.66200
C  -1.39900 29.54100 25.48000
C  -1.78900 28.66400 28.73800
O  -0.85000 29.46300 29.00700
C  -2.62900 27.83600 29.80900
C  -2.00200 27.19700 30.95600
O  -1.24000 26.26500 30.85600
O  -2.36800 27.88700 32.12700
C  -1.89200 27.22000 33.27800
H  -7.12900 22.55300 29.40600
H  -6.87700 23.14200 22.87400
H  -3.30300 28.35100 23.68500
H  -3.90500 25.27800 31.46300
H  -6.55300 24.28100 31.17500
H  -5.29400 22.39300 32.01600
H  -3.74500 23.18000 31.67800
H  -4.47200 22.35100 30.41100
H  -6.47000 26.87500 30.95600
H  -4.96400 27.56900 31.43800
H  -6.90500 26.99500 33.26400
H  -5.34400 27.58000 33.48500
H  -7.94100 19.70600 27.47000
H  -9.37000 20.79900 27.49800
H  -8.21100 20.83500 28.77800
H  -9.31800 19.23400 25.59000
H  -10.15700 19.72300 24.04300
H  -10.32900 20.68400 25.40200
H  -6.78700 25.59000 21.77800
H  -3.92800 26.48000 21.66100
H  -4.22700 24.50000 20.53800
H  -5.93000 24.76400 20.08000
H  -5.52400 23.35500 20.95400
H  -5.36200 28.71900 22.56400
H  -6.57700 27.60500 21.84800
H  -4.34800 29.30700 20.68900
H  -5.89000 28.99700 19.85100
H  -4.57500 27.76600 19.84100
H  -1.58700 29.49000 24.40800
H  -0.35000 29.33100 25.68900
H  -1.78300 30.52400 25.75400
H  -3.38800 28.50100 30.22100
H  -1.04700 27.74400 33.72400
H  -1.60600 26.18100 33.11400
H  -2.71700 27.09200 33.98000

