158

Mg 49.13100 45.60400 41.03400
C  45.84600 46.58900 40.20100
C  48.76200 42.56200 39.56600
C  52.54600 44.96400 41.39900
C  49.72400 48.93800 42.10300
N  47.49800 44.78400 39.97000
C  46.25300 45.25300 39.83000
C  45.40500 44.15600 39.07600
C  46.23000 42.90900 39.31400
C  47.61600 43.41200 39.58200
C  45.75300 41.97600 40.53900
C  45.36200 44.51100 37.54400
C  44.22000 43.83800 36.78800
H  44.40500 43.78500 35.28500
N  50.43700 43.88700 40.68000
C  50.01700 42.77500 40.04700
C  51.14700 41.88500 40.04500
C  52.24400 42.53500 40.65400
C  51.77600 43.89700 40.90500
C  51.05900 40.49200 39.54300
C  53.53900 41.88000 41.06900
O  53.83900 40.75100 40.68300
C  54.58200 42.43300 41.98100
N  51.00900 46.81400 41.78400
C  52.24900 46.32600 41.81700
C  53.22000 47.44400 42.13700
C  52.33100 48.72400 42.44600
C  50.90500 48.14600 42.12500
C  54.33000 47.20600 43.20700
C  52.68600 50.09700 41.70400
C  53.68900 50.99300 42.45700
N  48.07900 47.39000 41.09300
C  48.43400 48.63000 41.51600
C  47.33200 49.58600 41.29600
C  46.26300 48.80900 40.82700
C  46.81800 47.51600 40.68000
C  47.26600 51.08600 41.56000
C  44.86300 48.78200 40.49900
O  44.01400 49.69700 40.52000
C  44.52900 47.31300 39.96700
C  43.41300 46.76200 40.74600
O  43.51500 46.33800 41.83800
O  42.26100 46.65800 39.99800
C  41.12100 45.86800 40.51200
H  48.58300 41.52300 39.28000
H  53.62400 44.79100 41.42400
H  49.94300 49.97600 42.36300
H  44.39500 44.08200 39.47900
H  46.35700 42.24500 38.45900
H  44.77200 42.26900 40.91300
H  46.19800 42.06800 41.53000
H  45.72500 40.92400 40.25800
H  46.27700 44.21000 37.03400
H  45.40300 45.59400 37.42300
H  43.22200 44.23100 36.98000
H  44.07800 42.81200 37.12600
H  51.78000 40.21000 38.77500
H  50.13400 40.21200 39.04000
H  51.23900 39.76300 40.33300
H  55.27700 42.95300 41.32200
H  54.97200 41.52900 42.44900
H  54.14300 43.14000 42.68500
H  53.75900 47.75700 41.24200
H  52.48800 48.82100 43.52000
H  54.56000 46.14800 43.33900
H  54.14900 47.67800 44.17300
H  55.14300 47.78100 42.76400
H  51.78000 50.67800 41.53000
H  53.04600 49.93800 40.68800
H  54.58200 51.22300 41.87500
H  54.03600 50.41100 43.31100
H  53.18500 51.92800 42.69800
H  46.27100 51.44100 41.83000
H  47.54100 51.55500 40.61600
H  47.93700 51.20000 42.41200
H  44.21800 47.20000 38.92900
H  40.22300 46.25300 40.02900
H  40.82300 46.07000 41.54100
H  41.21100 44.79600 40.33700
Mg -6.00700 24.97700 26.84700
C  -4.59900 26.38500 29.68100
C  -7.87600 22.88900 28.76900
C  -7.08000 23.43500 23.92000
C  -3.79200 26.91400 24.84900
N  -6.15700 24.68000 29.07900
C  -5.56400 25.42100 30.00500
C  -6.10000 24.99600 31.37500
C  -7.04900 23.75400 31.09800
C  -7.12800 23.77600 29.51800
C  -6.61900 22.36300 31.69600
C  -6.84700 26.19000 32.10200
C  -7.07400 26.04600 33.61200
H  -6.35600 24.95600 34.41600
N  -7.29400 23.47800 26.41100
C  -7.97900 22.72900 27.36300
C  -8.83300 21.86800 26.67200
C  -8.64900 21.98900 25.29000
C  -7.62400 23.00600 25.16900
C  -9.72000 20.89600 27.40300
C  -9.36200 21.24400 24.10900
O  -9.21400 21.63400 22.97600
C  -10.37800 20.09200 24.41200
N  -5.30800 24.95500 24.69000
C  -6.04900 24.36400 23.72000
C  -5.41700 24.66200 22.35800
C  -4.41700 25.85900 22.62800
C  -4.52900 25.96200 24.14900
C  -4.77300 23.43000 21.67200
C  -4.67200 27.21100 21.83100
C  -3.62900 27.69600 20.88000
N  -4.51200 26.31800 27.11500
C  -3.71400 27.04400 26.26600
C  -2.84200 27.95900 27.03400
C  -3.25000 27.71200 28.38300
C  -4.20000 26.73700 28.38600
C  -1.71300 28.84800 26.56200
C  -2.98700 28.13600 29.72700
O  -2.20800 29.02700 30.18900
C  -3.85900 27.26900 30.62600
C  -2.98000 26.44600 31.44500
O  -2.58100 25.31800 31.23400
O  -2.58300 27.17100 32.58800
C  -1.80600 26.35100 33.56100
H  -8.60800 22.29100 29.31500
H  -7.43300 22.98100 22.99200
H  -3.05700 27.48500 24.27800
H  -5.22300 24.74200 31.97000
H  -8.05300 24.02400 31.42600
H  -5.72600 22.43200 32.31700
H  -6.42700 21.81100 30.77600
H  -7.40200 21.84500 32.25000
H  -7.84100 26.13800 31.65800
H  -6.39500 27.14100 31.82200
H  -8.13800 25.93500 33.81900
H  -6.86900 27.01700 34.06300
H  -9.87500 19.95900 26.86800
H  -10.71100 21.29400 27.61900
H  -9.27000 20.62300 28.35800
H  -11.11100 19.97000 23.61500
H  -11.00800 20.42900 25.23500
H  -9.81100 19.19900 24.67600
H  -6.22800 25.02500 21.72700
H  -3.42600 25.47600 22.38300
H  -3.69200 23.51600 21.77600
H  -5.01100 23.48000 20.60900
H  -5.06800 22.50100 22.15800
H  -4.96700 28.05300 22.45800
H  -5.54600 26.93400 21.24100
H  -2.74100 27.07100 20.96900
H  -3.43600 28.75800 21.03100
H  -3.90600 27.49200 19.84600
H  -1.88800 29.78300 27.09600
H  -1.88400 29.07000 25.50900
H  -0.66700 28.59800 26.74300
H  -4.39600 27.92100 31.31600
H  -0.75400 26.42600 33.28700
H  -2.15100 25.31900 33.50100
H  -1.85700 26.73000 34.58200

