158

Mg 35.48100 2.28200 30.17000
C  33.18500 3.09900 32.58900
C  38.01600 2.41400 32.73900
C  37.89200 2.03000 27.86800
C  33.02900 2.71700 27.71300
N  35.56000 2.76000 32.45600
C  34.44900 3.01400 33.14500
C  34.79200 3.11500 34.58600
C  36.37500 3.13700 34.64600
C  36.74500 2.79400 33.20200
C  36.95400 4.50100 35.10100
C  34.18800 1.87000 35.42200
C  34.03500 2.00600 36.98500
H  34.49300 3.32600 37.56100
N  37.59500 1.94900 30.29600
C  38.44900 2.10900 31.39200
C  39.76000 1.67400 31.08000
C  39.81700 1.69600 29.66900
C  38.41700 1.92900 29.20800
C  40.75500 1.35700 32.15200
C  40.93000 1.46000 28.75000
O  40.79300 1.36000 27.54800
C  42.30300 1.32400 29.25500
N  35.49300 2.24300 28.06600
C  36.61500 2.17700 27.37500
C  36.25000 2.22600 25.87100
C  34.72500 2.34100 25.80900
C  34.36800 2.47000 27.27600
C  36.96800 3.43100 25.13900
C  33.96400 1.11000 25.20800
C  33.74600 -0.18700 26.00300
N  33.50300 2.78500 30.09100
C  32.64400 2.85200 29.04700
C  31.32600 3.13900 29.55200
C  31.52000 3.31600 30.91700
C  32.85800 3.04200 31.23400
C  30.12500 3.31300 28.66600
C  30.82900 3.65300 32.13800
O  29.68400 3.91200 32.34600
C  31.83200 3.50400 33.29300
C  31.78900 4.84500 34.07300
O  32.44300 5.82400 33.78800
O  31.00400 4.81700 35.18100
C  31.22700 5.96100 36.12600
H  38.76500 2.52600 33.52500
H  38.62500 1.93600 27.06400
H  32.29300 2.92800 26.93400
H  34.41000 4.08700 34.89900
H  36.87600 2.41700 35.29400
H  36.26400 5.31600 35.32100
H  37.57600 4.81200 34.26200
H  37.53300 4.43100 36.02200
H  34.84900 1.01100 35.31400
H  33.31100 1.44400 34.93400
H  34.54500 1.21000 37.52700
H  32.96600 1.90500 37.17500
H  41.16800 2.32000 32.45100
H  41.62800 0.85000 31.74200
H  40.33600 0.90500 33.05200
H  42.85500 1.10300 28.34200
H  42.40400 0.43300 29.87600
H  42.59600 2.18300 29.85900
H  36.53100 1.27700 25.41500
H  34.28100 3.20300 25.31300
H  36.40500 4.24400 24.68200
H  37.58000 3.04200 24.32400
H  37.63100 3.85900 25.89000
H  34.45500 0.83800 24.27400
H  32.93700 1.33100 24.91700
H  32.71700 -0.54300 26.03200
H  33.97900 0.06900 27.03600
H  34.30300 -1.00200 25.54000
H  30.21500 2.59600 27.85000
H  30.03700 4.35900 28.37300
H  29.20600 2.96000 29.13500
H  31.53500 2.70900 33.97700
H  30.60300 5.71000 36.98300
H  30.86900 6.83500 35.58100
H  32.30400 5.94800 36.29200
Mg 4.47900 54.70400 40.76900
C  4.70700 51.18500 40.00300
C  7.32300 55.16600 39.31200
C  3.63200 57.97900 40.61900
C  1.11200 53.97700 41.83700
N  5.67100 53.32900 39.43700
C  5.70400 51.97400 39.44000
C  7.07100 51.46900 38.97300
C  8.03900 52.71900 39.11100
C  6.90300 53.85100 39.24800
C  8.87700 52.62300 40.39900
C  7.02800 50.90000 37.48800
C  6.14000 51.57300 36.43800
H  6.50800 51.25400 34.95900
N  5.38100 56.43700 40.05700
C  6.62400 56.39100 39.51300
C  7.11200 57.75700 39.51000
C  5.96300 58.55000 39.77000
C  4.84200 57.67900 40.10100
C  8.59800 58.14400 39.08800
C  5.86400 60.02500 39.59500
O  6.86400 60.64000 39.17900
C  4.74800 60.99000 39.98400
N  2.52400 55.78400 41.04400
C  2.59800 57.13200 41.11200
C  1.30500 57.72600 41.72700
C  0.49500 56.45700 42.02400
C  1.39300 55.32500 41.56100
C  1.56100 58.68200 42.99000
C  -0.88200 56.39300 41.37100
C  -2.08500 57.08600 41.96500
N  3.14200 52.91500 40.98200
C  1.80500 52.84800 41.47400
C  1.53300 51.46200 41.66300
C  2.64300 50.75900 41.06900
C  3.56000 51.71400 40.65700
C  0.31300 51.01700 42.32100
C  3.16800 49.46000 40.84000
O  2.74600 48.36200 41.18400
C  4.56000 49.69500 40.06400
C  4.54500 49.04400 38.67900
O  3.90000 49.34300 37.68900
O  5.26500 47.89600 38.64600
C  5.31000 46.96500 37.48300
H  8.38400 55.35400 39.13500
H  3.40700 59.03000 40.81200
H  0.15500 53.86100 42.34900
H  7.37600 50.66700 39.64500
H  8.52900 52.84400 38.14500
H  8.47300 53.29500 41.15700
H  9.92600 52.81400 40.17400
H  8.88000 51.59300 40.75500
H  6.79600 49.84000 37.59000
H  8.04300 50.98900 37.10200
H  6.08100 52.65800 36.52200
H  5.12300 51.20000 36.55200
H  9.26100 57.38600 39.50500
H  8.82300 59.15700 39.42100
H  8.82900 58.19100 38.02400
H  5.16400 61.99700 40.02800
H  4.46600 60.76300 41.01200
H  3.90500 61.05100 39.29500
H  0.84200 58.35300 40.96500
H  0.38000 56.36700 43.10500
H  2.53800 58.67000 43.47500
H  0.96400 58.28300 43.81000
H  1.30700 59.71900 42.77300
H  -1.21000 55.35800 41.46800
H  -0.79800 56.69100 40.32600
H  -1.76200 57.30900 42.98100
H  -3.00700 56.50400 41.97700
H  -2.28000 58.00500 41.41300
H  0.02400 51.64300 43.16500
H  0.44300 50.06200 42.83000
H  -0.56000 51.06500 41.67100
H  5.33000 49.13200 40.59000
H  5.32300 47.55100 36.56400
H  4.45700 46.29100 37.40100
H  6.28200 46.47700 37.55900

