158

Mg 17.80400 -2.04200 28.04700
C  16.93600 -0.08500 30.83200
C  19.97600 -3.77300 29.94100
C  19.25900 -3.09700 25.25000
C  15.81200 0.26000 26.26800
N  18.31600 -1.87600 30.13400
C  17.87800 -1.06400 31.15600
C  18.31500 -1.54800 32.50500
C  19.36700 -2.62300 32.13700
C  19.19500 -2.87600 30.66200
C  20.84600 -2.33900 32.60200
C  17.00600 -2.10100 33.33300
C  17.06900 -1.71600 34.87200
H  18.49200 -1.92200 35.44000
N  19.29400 -3.44000 27.64200
C  20.03400 -4.04600 28.54000
C  20.75700 -5.08800 27.89900
C  20.52200 -5.05200 26.50100
C  19.70100 -3.79700 26.41400
C  21.63000 -6.11600 28.60500
C  20.89000 -5.97900 25.38400
O  20.60100 -5.68200 24.24900
C  21.76100 -7.16900 25.64400
N  17.56600 -1.51500 26.08500
C  18.35100 -2.00200 25.08100
C  17.87800 -1.45900 23.69200
C  16.70200 -0.53500 24.05100
C  16.68100 -0.63100 25.55400
C  18.95300 -0.64900 22.90600
C  15.35900 -0.92400 23.34700
C  14.56400 0.22200 22.79000
N  16.43800 -0.33500 28.42900
C  15.67700 0.44200 27.61700
C  14.87700 1.42900 28.33900
C  15.40300 1.35700 29.62800
C  16.27800 0.24900 29.62800
C  13.92500 2.37300 27.71100
C  15.36200 1.92000 30.97400
O  14.81400 2.90100 31.45900
C  16.44400 0.98000 31.78300
C  17.58000 1.90900 32.30500
O  18.62200 2.15500 31.79400
O  17.03500 2.49200 33.42700
C  17.88900 3.38900 34.15900
H  20.66200 -4.47400 30.42100
H  19.78300 -3.46900 24.36700
H  15.24500 0.95000 25.63800
H  18.85400 -0.71900 32.96400
H  19.16800 -3.54400 32.68500
H  20.86700 -1.86600 33.58400
H  21.44900 -1.76600 31.89900
H  21.41900 -3.24700 32.79100
H  16.88500 -3.14800 33.05300
H  16.14800 -1.56900 32.92400
H  16.41500 -2.33500 35.48600
H  16.71300 -0.70400 35.06500
H  22.53200 -6.41200 28.07000
H  21.07000 -7.04100 28.74700
H  21.98500 -5.67900 29.53800
H  22.71800 -6.85100 26.05800
H  21.83200 -7.57700 24.63600
H  21.28900 -7.87000 26.33100
H  17.53700 -2.32800 23.12900
H  16.82600 0.49600 23.71700
H  19.90100 -0.82600 23.41600
H  18.76000 0.41800 22.79900
H  19.07100 -1.13900 21.94000
H  14.73900 -1.31100 24.15600
H  15.50400 -1.75100 22.65100
H  14.96500 1.18900 23.09300
H  13.56000 0.24700 23.21300
H  14.40200 0.08100 21.72100
H  14.49200 3.26900 27.45500
H  13.12300 2.54400 28.42800
H  13.59900 1.85700 26.80700
H  15.86900 0.57500 32.61600
H  18.92600 3.35800 33.82400
H  17.80500 3.08300 35.20200
H  17.30400 4.28100 33.93500
Mg 7.01300 54.25200 41.01600
C  6.78700 50.72900 40.69700
C  10.22000 54.11300 39.94400
C  6.96900 57.57500 40.75900
C  3.69300 54.22100 42.08100
N  8.28000 52.55700 40.27800
C  8.07400 51.23200 40.34800
C  9.38400 50.48300 40.18300
C  10.48800 51.61100 40.13900
C  9.58300 52.87300 40.08000
C  11.42600 51.64000 41.38200
C  9.38300 49.47300 39.03500
C  9.20100 50.14100 37.61200
H  8.01600 49.73400 36.77700
N  8.46700 55.70800 40.41300
C  9.71700 55.42300 40.09800
C  10.38400 56.70300 39.84400
C  9.42800 57.72900 39.91100
C  8.24900 57.03400 40.45400
C  11.90500 56.83000 39.56500
C  9.57000 59.26500 39.41500
O  10.68000 59.70300 39.10200
C  8.46500 60.24100 39.44000
N  5.53800 55.69700 41.33100
C  5.77000 57.03200 41.11800
C  4.52900 57.85600 41.32400
C  3.50900 56.80500 41.85400
C  4.22900 55.48000 41.76900
C  4.68600 59.20300 42.18700
C  2.26000 56.68400 40.90000
C  0.85500 56.87800 41.59000
N  5.47100 52.81800 41.34500
C  4.21900 52.94900 41.88600
C  3.71600 51.64900 42.28400
C  4.71100 50.71900 41.81600
C  5.65600 51.51600 41.17700
C  2.42400 51.35100 42.98700
C  5.08300 49.26500 41.79100
O  4.54200 48.27800 42.26100
C  6.39500 49.23700 40.97600
C  5.85300 48.57800 39.79800
O  5.12900 49.09900 38.87100
O  6.22800 47.22800 39.93700
C  5.55200 46.41300 38.95700
H  11.30100 54.13700 39.79400
H  6.85000 58.65700 40.67300
H  2.76500 54.04500 42.63000
H  9.45900 49.90000 41.10100
H  11.08000 51.55600 39.22500
H  12.37000 51.96900 40.94700
H  11.46400 50.64500 41.82400
H  11.29100 52.43900 42.11100
H  8.66400 48.68800 39.27000
H  10.36100 48.99200 39.03000
H  10.08600 49.95100 37.00400
H  9.11800 51.22700 37.65800
H  12.20500 56.97400 38.52700
H  12.48700 56.00500 39.97600
H  12.21700 57.70700 40.13300
H  7.71800 59.59900 38.97500
H  8.54000 61.17300 38.88000
H  8.24200 60.52800 40.46800
H  4.31000 58.21400 40.31800
H  3.19700 56.98400 42.88300
H  3.91000 59.27500 42.95000
H  4.58800 60.02800 41.48200
H  5.68500 59.16300 42.62300
H  2.32600 55.74300 40.35400
H  2.33500 57.49400 40.17400
H  0.55100 57.92000 41.49100
H  0.90100 56.46500 42.59800
H  0.17100 56.26800 41.00000
H  2.63400 51.03500 44.00900
H  1.93400 50.44100 42.64100
H  1.71900 52.17100 42.85200
H  7.11200 48.65600 41.55500
H  6.30100 46.25500 38.18100
H  4.53000 46.66200 38.67000
H  5.55400 45.44200 39.45300

