158

Mg 44.61000 2.69700 47.22800
C  42.29500 5.25500 46.82300
C  41.93800 0.51300 47.00800
C  46.81100 0.07900 47.23900
C  47.10300 4.96000 46.34400
N  42.34100 2.86000 46.85800
C  41.66800 4.02400 46.76500
C  40.25500 3.89400 46.51900
C  40.05400 2.36900 46.85700
C  41.51000 1.83700 46.93100
C  39.15500 2.05900 48.13300
C  39.85800 4.31200 45.06500
C  38.56700 5.20600 44.88000
H  37.96900 5.22200 43.49000
N  44.42600 0.58700 47.20200
C  43.22300 -0.07100 47.09300
C  43.50800 -1.52600 47.24300
C  44.90500 -1.73400 47.23100
C  45.47000 -0.37300 47.31900
C  42.42500 -2.48800 47.11100
C  45.63600 -3.02300 47.22000
O  45.06600 -4.13100 47.22800
C  47.03000 -2.97100 47.52300
N  46.55300 2.50900 46.83800
C  47.27300 1.34000 46.94500
C  48.84700 1.63200 46.88900
C  48.84200 3.10400 46.28900
C  47.39200 3.57400 46.44200
C  49.50000 1.37300 48.27000
C  49.47700 3.32200 44.93000
C  50.84300 3.97300 44.86300
N  44.79400 4.71900 46.90600
C  45.86100 5.45900 46.53800
C  45.43600 6.77000 46.40400
C  44.02500 6.82400 46.55400
C  43.71900 5.49400 46.87000
C  46.25300 7.96500 45.93900
C  42.80200 7.63300 46.52900
O  42.59500 8.81100 46.22300
C  41.64900 6.65000 46.87300
C  41.06400 6.86300 48.15100
O  41.51200 6.50100 49.20500
O  39.77600 7.25800 48.00300
C  38.99700 7.55700 49.22200
H  41.05500 -0.12800 46.99500
H  47.66800 -0.59100 47.33700
H  47.85400 5.69900 46.05700
H  39.76800 4.53100 47.25600
H  39.52000 1.90400 46.02800
H  38.57400 2.89400 48.52500
H  39.82400 1.79200 48.95100
H  38.60700 1.15000 47.88700
H  39.79200 3.39500 44.47900
H  40.66300 4.91800 44.65000
H  38.74700 6.20800 45.27100
H  37.83700 4.87500 45.61900
H  41.86000 -2.41700 46.18100
H  41.71000 -2.20800 47.88500
H  42.80200 -3.50700 47.19200
H  47.27400 -2.34900 48.38400
H  47.46300 -2.56200 46.61000
H  47.32400 -3.99800 47.73600
H  49.27000 0.79800 46.33000
H  49.28700 3.81200 46.98800
H  50.14900 0.50100 48.35000
H  48.69100 1.20900 48.98200
H  50.07800 2.24700 48.56900
H  48.79100 3.83900 44.26000
H  49.52200 2.32100 44.49900
H  51.68500 3.44600 44.41300
H  51.11700 4.18300 45.89700
H  50.92300 4.94400 44.37500
H  45.70400 8.89300 46.09900
H  46.50600 7.81800 44.88800
H  47.19400 7.98800 46.48900
H  40.94100 6.74100 46.04900
H  39.21100 8.59600 49.47300
H  39.28200 6.88300 50.03000
H  37.92900 7.48000 49.02200
Mg 46.50300 35.44100 28.69400
C  44.55300 33.62100 30.96700
C  46.56200 38.15100 30.82000
C  47.63100 37.37000 26.05000
C  45.84500 32.91400 26.30600
N  45.65300 35.77600 30.55700
C  45.12400 34.79800 31.38700
C  45.45200 35.20800 32.81900
C  45.57700 36.74700 32.67900
C  45.98400 36.95400 31.25200
C  44.34500 37.45300 33.18800
C  46.75300 34.49700 33.31600
C  47.11500 34.79500 34.78200
H  46.08300 35.39300 35.72600
N  47.13300 37.41400 28.52500
C  47.13400 38.30100 29.54200
C  47.81200 39.50900 29.01700
C  48.22700 39.28800 27.66900
C  47.65300 37.95200 27.31900
C  47.99500 40.73000 30.01000
C  49.05700 40.16400 26.65300
O  49.39400 39.72200 25.54100
C  49.45500 41.53900 27.06500
N  46.66200 35.26800 26.46600
C  47.16000 36.20000 25.67900
C  47.28600 35.75900 24.23900
C  46.43900 34.44100 24.25400
C  46.31400 34.09100 25.70500
C  46.82700 36.69800 23.09400
C  47.25300 33.19600 23.67600
C  46.35300 32.18600 22.94700
N  45.61000 33.61000 28.63700
C  45.49800 32.65500 27.68400
C  44.74900 31.53800 28.11000
C  44.36500 31.91000 29.42400
C  44.86300 33.17100 29.64600
C  44.65000 30.26900 27.40500
C  43.65800 31.38700 30.57500
O  43.12800 30.30400 30.82000
C  43.65600 32.55200 31.58500
C  44.10600 31.94200 32.93000
O  44.99900 31.16500 33.07400
O  43.29500 32.40900 33.96500
C  43.77100 31.97800 35.29400
H  46.59100 38.96600 31.54700
H  48.19600 37.85600 25.25100
H  45.69700 32.13500 25.55500
H  44.62100 34.86900 33.43700
H  46.41800 37.07500 33.28900
H  44.62600 38.39200 33.66500
H  43.85000 36.75400 33.86200
H  43.62900 37.74800 32.42100
H  47.63700 34.85900 32.79000
H  46.73600 33.42600 33.11200
H  48.05400 35.34200 34.86000
H  47.20400 33.77700 35.16400
H  47.03700 40.94900 30.48200
H  48.47000 41.62100 29.59800
H  48.61800 40.42700 30.85100
H  50.16500 41.57600 27.89100
H  48.62800 42.19900 27.32900
H  49.93900 41.99800 26.20300
H  48.33900 35.52700 24.07700
H  45.42800 34.51000 23.85400
H  47.65100 37.32700 22.75600
H  46.13500 37.45500 23.46600
H  46.47200 36.22500 22.17800
H  47.86100 32.70600 24.43700
H  48.01100 33.59300 23.00100
H  46.53000 31.21400 23.40900
H  46.38600 32.14600 21.85800
H  45.28600 32.36900 23.07900
H  44.68800 29.40000 28.06200
H  45.50000 30.11800 26.73900
H  43.77100 30.33400 26.76400
H  42.66500 32.98100 31.73700
H  43.28700 31.04100 35.56900
H  43.43500 32.61800 36.11100
H  44.84600 31.80100 35.31900

