158

Mg 43.03400 4.10700 47.41900
C  40.89800 6.80400 47.31700
C  40.31200 2.07900 47.07900
C  45.17200 1.55600 46.95600
C  45.71700 6.38600 47.16200
N  40.82800 4.46000 46.92800
C  40.20300 5.63400 47.25900
C  38.64100 5.42600 47.38000
C  38.57000 3.87200 47.36500
C  39.99800 3.48000 47.05700
C  37.97800 3.32800 48.62700
C  37.79500 6.20300 46.25300
C  38.09600 5.75700 44.77600
H  38.50900 6.80000 43.79400
N  42.73600 2.10200 47.01100
C  41.57600 1.44100 46.85600
C  41.78400 0.06600 46.65100
C  43.21700 -0.14800 46.58700
C  43.80400 1.18200 46.82400
C  40.74300 -1.02100 46.58800
C  43.91600 -1.43700 46.39600
O  43.31600 -2.47700 46.32100
C  45.39100 -1.58000 46.34700
N  45.17200 3.97300 47.21000
C  45.77600 2.78500 47.03000
C  47.31800 2.96400 47.05200
C  47.40300 4.52900 46.79700
C  46.02300 5.05800 47.11100
C  47.97500 2.37600 48.37900
C  48.11600 4.90000 45.46200
C  49.44200 5.70500 45.59600
N  43.26400 6.19600 47.35800
C  44.42200 6.97700 47.30400
C  43.99100 8.39100 47.22800
C  42.61900 8.34100 47.30500
C  42.24600 7.00600 47.31100
C  45.01700 9.52000 47.27700
C  41.48700 9.27800 47.34000
O  41.39800 10.50000 47.29400
C  40.25600 8.23400 47.36900
C  39.42500 8.54500 48.58900
O  39.48500 7.78100 49.53200
O  38.49700 9.55000 48.31800
C  37.41800 9.63600 49.22400
H  39.50300 1.36500 47.24900
H  45.93800 0.78100 46.87400
H  46.55000 7.09200 47.11500
H  38.24800 5.87200 48.29400
H  38.00900 3.56100 46.48400
H  38.69600 2.66700 49.11100
H  37.12900 2.72800 48.30000
H  37.60100 4.09100 49.30800
H  38.12800 7.24000 46.21200
H  36.71000 6.19300 46.35700
H  37.23300 5.31000 44.28200
H  38.94100 5.06900 44.79600
H  40.98800 -1.72400 45.79200
H  39.73600 -0.60500 46.60500
H  40.76400 -1.65100 47.47700
H  45.80100 -0.76300 45.75300
H  45.66300 -2.51800 45.86300
H  45.83500 -1.64600 47.34000
H  47.55700 2.27100 46.24500
H  47.99400 4.93100 47.62000
H  48.64500 1.56500 48.09400
H  47.22900 1.91900 49.02900
H  48.35800 3.23500 48.93000
H  47.36600 5.50400 44.95200
H  48.42700 4.02200 44.89600
H  50.14800 5.09400 46.15800
H  49.15000 6.55500 46.21200
H  49.70400 5.96100 44.56900
H  45.73300 9.38400 48.08700
H  44.51200 10.44300 47.56300
H  45.52700 9.61300 46.31800
H  39.69800 8.41000 46.44900
H  36.89300 10.58700 49.13700
H  37.60800 9.53800 50.29300
H  36.63000 8.95600 48.90000
Mg 27.00600 50.43900 25.71800
C  25.13000 51.76600 28.33400
C  29.35100 49.51400 28.15400
C  29.17200 49.73400 23.25200
C  24.89000 51.97500 23.40400
N  27.25200 50.67300 27.99300
C  26.33100 51.20300 28.83400
C  26.60200 50.87300 30.36000
C  28.15000 50.50700 30.30400
C  28.27100 50.20100 28.74600
C  29.16000 51.49700 30.87300
C  25.68700 49.74700 30.83500
C  24.62500 50.17800 31.90900
H  24.68300 49.52300 33.30700
N  28.87400 49.59000 25.76300
C  29.67700 49.26500 26.84400
C  30.93600 48.72800 26.37200
C  30.88700 48.82500 24.93900
C  29.58400 49.35400 24.60300
C  32.01100 48.18000 27.26000
C  31.96100 48.51800 23.96700
O  31.85100 48.55600 22.73800
C  33.29300 48.17700 24.36900
N  27.06500 50.81700 23.56900
C  28.04800 50.43800 22.77600
C  27.69500 50.57900 21.31400
C  26.27200 51.29000 21.34200
C  26.08800 51.46400 22.87400
C  28.85400 51.33700 20.58900
C  25.10100 50.45800 20.60900
C  24.58000 49.07000 21.15700
N  25.33600 51.58800 25.76600
C  24.51400 52.06600 24.71900
C  23.35300 52.72200 25.30800
C  23.65000 52.66200 26.68400
C  24.83800 51.97700 26.98400
C  22.26800 53.31000 24.55300
C  23.06000 53.04200 27.96100
O  21.96800 53.56200 28.20600
C  23.98900 52.42100 29.17200
C  24.40600 53.58600 30.11700
O  25.37900 54.28700 29.96100
O  23.49300 53.73600 31.14000
C  23.84900 54.68800 32.17500
H  30.02600 48.93400 28.78600
H  29.78500 49.50200 22.37900
H  24.21500 52.31600 22.61600
H  26.45500 51.84500 30.83200
H  28.23500 49.53300 30.78500
H  28.59600 52.29500 31.35600
H  29.74200 51.84100 30.01800
H  29.68700 51.00500 31.69000
H  26.29900 48.98400 31.31600
H  25.08700 49.27900 30.05500
H  23.62100 49.99200 31.52800
H  24.83500 51.23600 32.06900
H  32.81700 48.86600 27.00000
H  32.30700 47.15700 27.02600
H  31.90100 48.15600 28.34400
H  34.00500 47.92100 23.58500
H  33.30500 47.35000 25.07900
H  33.65700 49.13300 24.74800
H  27.52800 49.55900 20.96800
H  26.39700 52.25300 20.84700
H  29.66900 51.62400 21.25400
H  28.44300 52.21200 20.08600
H  29.31000 50.63600 19.89100
H  25.54500 50.26300 19.63300
H  24.33500 51.21000 20.41700
H  24.81500 49.05200 22.22100
H  24.94000 48.21700 20.58100
H  23.49800 49.13200 21.04100
H  21.34200 52.86000 24.91100
H  22.34700 53.25200 23.46700
H  22.23000 54.37500 24.78100
H  23.36700 51.69700 29.69800
H  22.98600 54.93800 32.79200
H  24.27100 55.63900 31.85000
H  24.60300 54.14800 32.74800

