158

Mg 0.89100 7.51200 25.47100
C  1.54800 9.73200 28.08400
C  0.97200 4.92600 27.75800
C  -0.08900 5.34600 23.04800
C  1.10000 10.08100 23.15800
N  1.04200 7.32400 27.64800
C  1.31400 8.41000 28.54400
C  1.32300 7.91200 30.01700
C  1.51800 6.41400 29.79800
C  1.13900 6.18200 28.36900
C  2.94600 5.73000 30.13600
C  0.01200 8.35200 30.78700
C  0.26400 8.40400 32.34500
H  1.29300 7.45700 33.03000
N  0.47800 5.43300 25.42500
C  0.51600 4.55100 26.47400
C  0.29500 3.19300 26.01900
C  -0.04500 3.27200 24.65800
C  0.15900 4.73200 24.32200
C  0.29500 1.93200 26.95700
C  -0.42500 2.18800 23.66700
O  -0.60700 2.40200 22.46900
C  -0.61400 0.77400 24.13200
N  0.65400 7.63400 23.30200
C  0.08500 6.67200 22.60500
C  -0.17400 7.12900 21.09200
C  0.14800 8.64000 21.17600
C  0.69000 8.78200 22.60700
C  0.65900 6.31700 20.03800
C  -1.10700 9.58600 20.93900
C  -0.72700 11.02400 20.57100
N  1.22000 9.50000 25.56400
C  1.39000 10.40500 24.53200
C  1.68300 11.73200 25.06300
C  1.74700 11.54400 26.48000
C  1.46400 10.18600 26.74400
C  1.82100 13.03900 24.27100
C  1.94900 12.18600 27.78100
O  2.12400 13.36000 28.09400
C  1.68800 11.03900 28.84000
C  2.79300 10.97100 29.80000
O  3.89500 10.50900 29.57600
O  2.44200 11.58000 30.97400
C  3.35200 11.51200 32.10700
H  1.23400 4.11900 28.44600
H  -0.47200 4.57200 22.38000
H  1.12700 10.82600 22.36100
H  2.10300 8.53000 30.46100
H  0.75100 5.82700 30.30300
H  3.40100 6.22000 30.99700
H  3.54700 5.73100 29.22700
H  2.66300 4.71900 30.42800
H  -0.83800 7.69000 30.62100
H  -0.36600 9.32000 30.45900
H  -0.71600 8.19200 32.77200
H  0.59000 9.41300 32.59700
H  0.33100 0.96700 26.45200
H  -0.62700 1.83300 27.53000
H  1.12700 1.99900 27.65800
H  0.28500 0.29900 24.52400
H  -0.84300 0.13100 23.28300
H  -1.47000 0.64400 24.79500
H  -1.19300 6.94400 20.75000
H  0.93700 8.86800 20.45800
H  -0.16100 6.13200 19.34300
H  1.00500 5.31600 20.29900
H  1.42300 6.92900 19.55800
H  -1.65300 9.72700 21.87200
H  -1.79500 9.17800 20.19900
H  -0.93300 11.75500 21.35300
H  -1.43200 11.19800 19.75800
H  0.25400 11.19000 20.12700
H  0.97900 13.25700 23.61300
H  2.73200 12.99700 23.67300
H  2.16500 13.90300 24.83900
H  0.77000 11.25200 29.38800
H  2.75900 11.52000 33.02100
H  3.93800 12.42900 32.04500
H  3.85400 10.54800 32.19300
Mg 16.86300 52.38000 26.00600
C  18.58800 50.98200 28.78600
C  14.38100 53.54800 28.09400
C  15.32400 53.70700 23.32000
C  19.29900 51.02300 23.95100
N  16.52000 52.12000 28.20200
C  17.38800 51.59700 29.20600
C  16.63700 51.65200 30.54300
C  15.29700 52.55800 30.27700
C  15.36300 52.70100 28.74000
C  13.90600 51.85200 30.72600
C  17.51100 52.25700 31.70000
C  17.47700 51.51500 33.08500
H  16.84500 52.26000 34.25200
N  15.08200 53.48000 25.71300
C  14.25200 53.87500 26.69200
C  13.16300 54.70800 26.18400
C  13.34300 54.61000 24.75400
C  14.59700 53.89700 24.53200
C  12.01900 55.36500 26.94700
C  12.36000 55.06100 23.60500
O  12.62100 54.92000 22.44300
C  11.07200 55.83400 23.95100
N  17.20500 52.28400 23.92600
C  16.39100 52.87800 23.02400
C  16.99800 52.81000 21.60100
C  18.25700 51.90200 21.80200
C  18.26100 51.76700 23.30500
C  16.03900 52.43900 20.45400
C  19.50200 52.58300 21.29400
C  19.99000 52.30300 19.93400
N  18.66900 51.26800 26.27000
C  19.53300 50.76400 25.36100
C  20.63200 50.02200 26.05600
C  20.31200 50.11600 27.37400
C  19.10600 50.91200 27.49500
C  21.83100 49.40200 25.34800
C  20.70700 49.78900 28.74800
O  21.61400 49.07300 29.15500
C  19.53000 50.26700 29.66300
C  18.99100 49.02800 30.27100
O  18.73100 48.02400 29.58200
O  18.92000 49.05100 31.66000
C  18.51500 47.73200 32.26000
H  13.61400 53.97800 28.74200
H  14.86900 54.06000 22.39200
H  19.97100 50.52500 23.24900
H  16.25700 50.67300 30.83400
H  15.44700 53.53900 30.72900
H  13.39500 51.49600 29.83200
H  13.30300 52.67600 31.10900
H  14.06300 51.02000 31.41200
H  17.02400 53.20000 31.94900
H  18.50600 52.49900 31.32700
H  18.52900 51.29300 33.26800
H  16.93400 50.57200 33.02100
H  12.24600 55.28600 28.01000
H  11.07900 54.84700 26.75900
H  11.92700 56.38600 26.57600
H  10.34000 55.36000 24.60400
H  10.65100 56.03000 22.96500
H  11.30000 56.83100 24.32800
H  17.29800 53.83300 21.37500
H  18.10800 50.94000 21.31200
H  16.51000 51.80500 19.70200
H  15.75600 53.37000 19.96400
H  15.18000 51.93200 20.89400
H  20.33100 52.31800 21.95000
H  19.46400 53.67200 21.25100
H  20.64800 51.43400 19.92200
H  20.54400 53.17800 19.59600
H  19.19600 52.16200 19.20100
H  22.69500 49.72600 25.92800
H  21.89800 49.88000 24.37100
H  21.82200 48.31500 25.26600
H  19.85100 50.87200 30.51200
H  18.07600 47.86600 33.24900
H  19.35300 47.08700 32.52300
H  17.72800 47.19900 31.72700

