158

Mg 0.88300 7.68900 26.30200
C  1.80300 9.81500 28.98200
C  1.36600 5.03900 28.38600
C  0.29800 5.67300 23.72100
C  1.20200 10.49100 24.18500
N  1.44400 7.51200 28.46300
C  1.64800 8.46900 29.38100
C  1.84000 7.89200 30.82200
C  1.95700 6.34300 30.59800
C  1.50100 6.22600 29.01400
C  3.47600 5.88000 30.84300
C  0.74000 8.35100 31.87100
C  1.24000 8.70600 33.20100
H  2.29500 7.85800 33.95700
N  0.82800 5.62900 26.02800
C  1.13000 4.71000 26.99000
C  1.00400 3.39300 26.35300
C  0.56500 3.52000 25.04800
C  0.44000 4.97100 24.88100
C  1.21200 2.19800 27.15800
C  0.20100 2.49800 23.96000
O  -0.35300 2.67100 22.86900
C  0.38700 1.11200 24.38800
N  0.73900 8.02200 24.27400
C  0.39900 7.03100 23.41900
C  0.37800 7.51600 21.96000
C  0.53800 9.09100 22.12100
C  0.89800 9.24600 23.60300
C  1.53300 6.92400 21.10800
C  -0.75700 9.88900 21.64000
C  -0.61200 11.08700 20.65400
N  1.33000 9.78700 26.50900
C  1.40300 10.83800 25.53500
C  1.78500 12.05400 26.19100
C  1.92200 11.70400 27.58500
C  1.65300 10.35400 27.68200
C  1.89300 13.38000 25.59400
C  2.43600 12.21100 28.85500
O  2.94800 13.28100 29.12900
C  2.13800 11.04000 29.85400
C  3.49700 10.87000 30.55800
O  4.42600 10.08700 30.22600
O  3.46200 11.67300 31.65500
C  4.44800 11.34800 32.63600
H  1.59800 4.22200 29.07300
H  0.17300 4.97200 22.89300
H  1.26100 11.33600 23.49500
H  2.80200 8.29400 31.14000
H  1.31400 5.66100 31.15600
H  4.00700 6.53200 31.53600
H  4.19100 5.74900 30.03100
H  3.40600 4.89000 31.29200
H  -0.16100 7.73800 31.91700
H  0.28300 9.24500 31.44800
H  0.41900 8.77800 33.91500
H  1.73000 9.68000 33.20700
H  1.90600 2.47700 27.95000
H  1.86000 1.50200 26.62400
H  0.22900 1.80100 27.41000
H  1.41600 0.76500 24.29000
H  -0.01200 0.43800 23.62900
H  -0.01100 0.73300 25.32900
H  -0.63400 7.16600 21.75800
H  1.35400 9.39200 21.46400
H  1.12700 5.93600 20.89300
H  2.43900 6.77600 21.69600
H  1.62400 7.39400 20.12900
H  -1.27600 10.17800 22.55400
H  -1.38200 9.20600 21.06400
H  0.47300 11.19100 20.66900
H  -1.06300 11.95300 21.13800
H  -0.86900 10.68100 19.67600
H  1.61000 14.15400 26.30800
H  1.19000 13.57400 24.78400
H  2.91500 13.57000 25.26600
H  1.25800 11.16000 30.48600
H  5.43300 11.26400 32.17800
H  4.18100 10.36800 33.02900
H  4.47200 12.06000 33.46200
Mg 41.12800 7.91600 28.75700
C  42.93900 9.20300 31.44300
C  38.74500 6.75100 31.02200
C  39.52000 6.39800 26.19300
C  43.75900 8.84700 26.68000
N  40.94800 7.86300 31.02200
C  41.78500 8.57100 31.92200
C  41.26200 8.50600 33.32000
C  39.94500 7.67600 33.21000
C  39.90900 7.33600 31.68400
C  39.82800 6.43200 34.16500
C  41.24500 9.89900 34.03400
C  40.45400 10.04300 35.32800
H  41.36400 10.00000 36.63900
N  39.31400 6.84100 28.59100
C  38.46600 6.49700 29.66500
C  37.35400 5.77800 29.09000
C  37.47500 5.72700 27.64900
C  38.86200 6.25200 27.40800
C  36.24300 5.20900 29.85900
C  36.46200 5.42200 26.55700
O  36.64000 5.61600 25.40600
C  35.03800 5.03600 26.93800
N  41.58100 7.66400 26.74300
C  40.81600 6.93500 25.89800
C  41.37200 6.95200 24.43800
C  42.58600 7.96800 24.60400
C  42.61200 8.28600 26.08300
C  41.69700 5.55600 23.91200
C  42.38200 9.29700 23.80700
C  40.99900 10.00200 23.80200
N  43.01300 8.77800 28.94000
C  43.94200 9.12900 28.05100
C  45.02700 9.77600 28.64100
C  44.60300 9.88800 29.94900
C  43.42800 9.23700 30.10800
C  46.10700 10.47800 27.81000
C  44.91500 10.54300 31.18200
O  45.78700 11.43600 31.33400
C  43.83200 10.07000 32.22100
C  44.52700 9.24300 33.31800
O  44.73400 8.04500 33.44100
O  44.87900 10.14700 34.33800
C  45.72900 9.61000 35.38400
H  37.99200 6.52300 31.77900
H  38.98100 6.01300 25.32500
H  44.42500 9.35100 25.97600
H  42.04900 7.87200 33.72700
H  39.13000 8.38300 33.36400
H  39.61600 5.50800 33.62800
H  38.87300 6.61100 34.65900
H  40.57800 6.36900 34.95400
H  41.04200 10.71200 33.33700
H  42.29100 10.00600 34.32400
H  39.87000 9.13800 35.49400
H  39.83900 10.94300 35.32100
H  36.29600 5.29300 30.94500
H  36.07800 4.18700 29.51800
H  35.32600 5.67900 29.50600
H  34.98700 4.30400 27.74400
H  34.49500 4.74500 26.03800
H  34.46000 5.83300 27.40500
H  40.50000 7.32800 23.90300
H  43.54200 7.53600 24.31100
H  41.75900 4.94900 24.81500
H  42.70600 5.62600 23.50500
H  40.84700 5.28000 23.28900
H  42.59100 9.06700 22.76300
H  43.11900 9.97300 24.24200
H  41.25900 10.97800 24.21000
H  40.26600 9.57600 24.48700
H  40.55000 10.13300 22.81700
H  46.88600 10.90200 28.44500
H  45.49200 11.27500 27.39300
H  46.61900 10.02700 26.96000
H  43.40600 10.94300 32.71500
H  45.05200 9.52700 36.23400
H  46.56100 10.22900 35.72000
H  46.14400 8.60800 35.28200

