158

Mg 45.37000 3.96000 47.44300
C  43.43900 6.69500 46.81000
C  42.63100 1.85000 47.16800
C  47.51700 1.34200 47.46300
C  48.17900 6.10200 47.40800
N  43.30100 4.18800 46.94800
C  42.77100 5.46000 46.73800
C  41.19900 5.26900 46.42000
C  40.89800 3.87700 47.07800
C  42.34300 3.24400 47.14600
C  40.34800 3.92100 48.55500
C  40.91500 5.28400 44.92000
C  39.81500 6.31500 44.46700
H  40.23700 7.18100 43.31000
N  45.09000 1.87200 47.33500
C  43.91100 1.20400 47.21600
C  44.22500 -0.25000 47.14400
C  45.62900 -0.45400 47.49200
C  46.15500 0.94700 47.48900
C  43.16100 -1.27000 46.96400
C  46.31500 -1.73100 47.69600
O  45.72800 -2.79600 47.62100
C  47.79900 -1.78000 48.01000
N  47.53900 3.75100 47.26300
C  48.12800 2.56700 47.42300
C  49.71500 2.65700 47.68800
C  49.89000 4.21700 47.67500
C  48.47500 4.70400 47.38200
C  50.30800 1.88800 48.92500
C  50.87900 4.72000 46.62200
C  51.76800 5.95700 46.94400
N  45.75200 5.98100 47.26500
C  46.98100 6.70500 47.38100
C  46.65500 8.11300 47.22200
C  45.28700 8.15900 46.98900
C  44.77600 6.88000 47.03200
C  47.69800 9.13500 47.11700
C  44.08900 8.96600 46.67300
O  43.95300 10.17500 46.53100
C  42.87500 8.04500 46.63200
C  41.91000 8.50700 47.76400
O  41.88200 8.21200 48.92200
O  41.04700 9.37600 47.16500
C  39.90500 10.00200 47.87200
H  41.85300 1.08600 47.11700
H  48.29000 0.64200 47.78500
H  48.98700 6.83700 47.41800
H  40.63100 5.99400 47.00200
H  40.27300 3.15300 46.55500
H  39.90200 4.87900 48.81900
H  41.13300 3.64000 49.25800
H  39.55500 3.18300 48.68000
H  40.65100 4.29900 44.53500
H  41.78500 5.59900 44.34500
H  39.55800 6.96700 45.30200
H  38.92600 5.74300 44.19900
H  42.84200 -1.32500 45.92300
H  42.35200 -1.11600 47.67700
H  43.57300 -2.27400 47.06400
H  48.15300 -2.79400 48.19200
H  48.04300 -1.20200 48.90100
H  48.31400 -1.41500 47.12100
H  50.13500 2.22100 46.78100
H  50.21400 4.55700 48.65800
H  49.48200 1.59500 49.57300
H  51.02500 2.56400 49.39000
H  50.92900 1.05100 48.60600
H  50.31000 4.94100 45.71900
H  51.64000 3.95300 46.47800
H  52.83400 5.79900 46.78100
H  51.65200 6.34900 47.95400
H  51.39100 6.74300 46.29000
H  48.45600 9.20000 47.89800
H  47.28300 10.11700 46.89000
H  48.36700 8.88300 46.29400
H  42.31000 8.05500 45.70000
H  39.87500 11.08600 47.98200
H  39.58700 9.48300 48.77700
H  39.05700 9.86600 47.20000
Mg 6.12200 52.94400 40.94900
C  5.03500 49.54100 40.79200
C  9.23800 51.91000 39.63700
C  6.86400 56.06800 40.52500
C  2.71500 53.67400 41.72200
N  6.94400 51.01500 40.30000
C  6.39400 49.73500 40.32900
C  7.39000 48.70100 39.82100
C  8.73700 49.47900 39.79200
C  8.28800 50.93400 39.95100
C  9.75100 49.02300 40.96300
C  7.17800 47.98100 38.48500
C  6.44900 48.78900 37.31900
H  7.26600 49.36500 36.14500
N  7.94200 53.88700 40.39400
C  9.09000 53.33500 39.83100
C  10.08400 54.34400 39.60600
C  9.36200 55.56500 39.92300
C  8.00000 55.24600 40.34600
C  11.57100 54.30300 39.33600
C  9.98200 56.93400 39.80800
O  11.10900 57.15700 39.46200
C  9.17300 58.10700 40.20800
N  4.92100 54.63400 40.88400
C  5.47200 55.80300 40.70700
C  4.35900 56.85500 40.70100
C  3.09500 56.07100 41.18300
C  3.65100 54.72400 41.39300
C  4.66400 58.13100 41.58100
C  1.94900 55.97200 40.10900
C  0.50000 56.49200 40.50300
N  4.26100 51.82500 41.37700
C  2.93300 52.29000 41.66500
C  2.12300 51.15100 41.93100
C  2.88900 50.05300 41.60200
C  4.12200 50.49400 41.19400
C  0.72000 51.09100 42.48000
C  2.83600 48.66500 41.53300
O  1.95100 47.85100 41.74900
C  4.31900 48.19800 41.02300
C  4.12000 47.37000 39.76200
O  3.68400 47.79500 38.73700
O  4.63800 46.11000 39.92700
C  4.60100 45.25200 38.73200
H  10.20200 51.49700 39.33400
H  7.00500 57.14700 40.44200
H  1.74800 54.06300 42.04900
H  7.39800 47.98100 40.64000
H  9.19400 49.29300 38.82000
H  10.69100 48.86600 40.43300
H  9.45800 48.08500 41.43300
H  9.83600 49.81200 41.71000
H  6.55300 47.11800 38.71300
H  8.12300 47.51900 38.20100
H  6.03600 49.66000 37.82800
H  5.60000 48.15100 37.07300
H  12.07600 54.69100 40.22000
H  11.80800 55.01300 38.54300
H  11.88900 53.27300 39.17500
H  8.43600 58.22400 39.41300
H  9.71400 59.04000 40.05200
H  8.93600 58.05200 41.27000
H  4.30900 57.16000 39.65600
H  2.65700 56.55600 42.05500
H  4.37100 59.01300 41.01200
H  5.71900 58.13700 41.85700
H  4.11300 58.13800 42.52100
H  1.91800 54.98700 39.64200
H  2.16000 56.64200 39.27500
H  -0.18600 55.77100 40.05900
H  0.28000 57.47100 40.07700
H  0.34600 56.56900 41.58000
H  0.08900 51.83100 41.98800
H  0.78100 51.38200 43.52900
H  0.35800 50.08300 42.27300
H  4.71200 47.48100 41.74500
H  5.07700 44.28300 38.88200
H  5.02300 45.68000 37.82200
H  3.57300 45.01200 38.46000

