158

Mg 25.71000 -8.25000 48.72800
C  27.33000 -5.72900 47.00600
C  23.11200 -8.07200 46.59100
C  24.58900 -11.32100 49.97300
C  28.83300 -8.95100 50.24900
N  25.42400 -7.23400 46.80700
C  26.11900 -6.13400 46.41200
C  25.34700 -5.42000 45.30200
C  23.89300 -5.99900 45.33600
C  24.14100 -7.09200 46.41300
C  22.74900 -5.05800 45.81300
C  26.07700 -5.45200 43.89800
C  26.44700 -4.11200 43.31400
H  25.59800 -3.76000 42.01000
N  23.99900 -9.40000 48.48800
C  22.99900 -9.08700 47.55700
C  21.86300 -9.92600 47.82100
C  22.23700 -10.65000 49.02100
C  23.68500 -10.51000 49.19600
C  20.64400 -9.92100 47.01200
C  21.30500 -11.52600 49.75700
O  20.10900 -11.60800 49.46600
C  21.78400 -12.29600 50.92300
N  26.60800 -9.83900 50.02000
C  25.95600 -11.03500 50.29800
C  26.94300 -12.07800 51.00900
C  28.13600 -11.09500 51.31600
C  27.88500 -9.94800 50.41800
C  26.27600 -12.65300 52.33400
C  29.51100 -11.66700 51.07500
C  30.40500 -11.67800 52.24400
N  27.64100 -7.42600 48.78600
C  28.81000 -7.76900 49.46200
C  29.92600 -6.86100 49.15200
C  29.30200 -5.89900 48.33900
C  27.96800 -6.35600 48.08700
C  31.36300 -6.95700 49.76400
C  29.43300 -4.64200 47.61000
O  30.39000 -3.84400 47.51900
C  28.13900 -4.53300 46.78700
C  27.50400 -3.21100 46.99800
O  26.74800 -2.88000 47.90200
O  27.92600 -2.37400 45.99400
C  27.56900 -1.00500 46.07300
H  22.24300 -7.91100 45.95000
H  24.24800 -12.32500 50.23800
H  29.76100 -9.04200 50.81700
H  25.24400 -4.38000 45.61300
H  23.62500 -6.48300 44.39800
H  22.05700 -4.95600 44.97700
H  23.22200 -4.12800 46.12700
H  22.22000 -5.58600 46.60700
H  25.40100 -5.90500 43.17300
H  26.95200 -6.09200 44.01300
H  27.49600 -4.25400 43.05300
H  26.34500 -3.31800 44.05300
H  20.24500 -10.90100 46.75000
H  20.94100 -9.53900 46.03500
H  19.80000 -9.32500 47.36000
H  22.33300 -13.20300 50.66900
H  21.04100 -12.73100 51.59200
H  22.42900 -11.65100 51.51800
H  27.13900 -12.92800 50.35500
H  27.96100 -10.66700 52.30300
H  25.90200 -13.64800 52.09200
H  25.52000 -11.99700 52.76500
H  27.13200 -12.79700 52.99300
H  30.04300 -11.13200 50.28800
H  29.39200 -12.69600 50.73500
H  31.31700 -11.19700 51.89000
H  30.54700 -12.65500 52.70500
H  29.93100 -11.11000 53.04400
H  31.27200 -7.11400 50.83900
H  31.76200 -5.95600 49.60100
H  32.01900 -7.70300 49.31400
H  28.58300 -4.58200 45.79200
H  28.05800 -0.43200 45.28500
H  27.80600 -0.50300 47.01100
H  26.51800 -0.78900 45.88100
Mg 34.94900 1.23900 30.10700
C  32.72900 2.10900 32.68300
C  37.48200 1.14900 32.35100
C  36.97400 0.46000 27.59800
C  32.29200 1.85100 27.79000
N  35.09800 1.74200 32.28300
C  34.06700 1.91000 33.18000
C  34.58400 1.96100 34.66400
C  36.13700 1.97700 34.45200
C  36.30100 1.65700 32.93100
C  36.99400 3.22500 34.90800
C  33.97500 0.89700 35.56600
C  33.65800 1.40900 37.01300
H  34.57600 2.56800 37.65400
N  36.97700 0.88700 29.97200
C  37.87200 0.84000 30.99400
C  39.19600 0.46700 30.48600
C  39.03600 0.21300 29.12300
C  37.63700 0.52600 28.81600
C  40.47800 0.64500 31.21400
C  40.04100 -0.35500 28.16000
O  39.83200 -0.39600 26.93600
C  41.47100 -0.70100 28.60800
N  34.66000 1.24500 28.00100
C  35.68800 0.77800 27.23400
C  35.20500 0.65600 25.73100
C  33.74600 1.23200 25.73300
C  33.52500 1.46400 27.20100
C  36.07700 1.48800 24.72700
C  32.70600 0.27100 24.99300
C  31.98400 0.89200 23.83700
N  32.94700 1.69300 30.20400
C  32.03000 2.03100 29.16500
C  30.80100 2.45000 29.80200
C  31.05200 2.46300 31.13900
C  32.31200 1.92800 31.38700
C  29.55000 2.94100 29.15600
C  30.41300 2.67200 32.35100
O  29.32800 3.08400 32.59600
C  31.48400 2.40600 33.48100
C  31.55300 3.68300 34.24300
O  31.99500 4.73000 33.84900
O  30.88900 3.49100 35.43500
C  31.04000 4.55300 36.41400
H  38.20700 0.82400 33.10000
H  37.59200 0.03100 26.80800
H  31.59000 2.16100 27.01300
H  34.36900 2.94300 35.08400
H  36.62600 1.10800 34.89300
H  36.21500 3.95700 35.12100
H  37.68300 3.54700 34.12700
H  37.65300 2.91700 35.72000
H  34.77100 0.15300 35.57100
H  33.12100 0.35300 35.16200
H  33.32600 0.61200 37.67900
H  32.69800 1.89800 36.84300
H  41.22100 1.09500 30.55400
H  40.84800 -0.32100 31.55700
H  40.34300 1.33300 32.04800
H  41.38100 -1.30900 29.50800
H  42.06800 0.20400 28.72400
H  41.88400 -1.22300 27.74500
H  35.22100 -0.38200 25.39700
H  33.68700 2.22300 25.28300
H  36.15100 1.09600 23.71300
H  37.09100 1.48100 25.12700
H  35.89100 2.56000 24.65700
H  31.98100 -0.02000 25.75300
H  33.13100 -0.70200 24.74600
H  32.13000 0.17200 23.03300
H  32.31400 1.91200 23.63600
H  30.94400 1.07000 24.11200
H  29.78100 3.37700 28.18300
H  29.19300 3.73100 29.81700
H  28.83400 2.13500 28.99700
H  31.14400 1.56600 34.08700
H  30.17500 4.53900 37.07800
H  31.15800 5.52900 35.94400
H  31.94600 4.38800 36.99700

