158

Mg -0.76500 7.43000 26.25300
C  -0.09200 9.50900 28.89300
C  -0.17900 4.75900 28.40900
C  -1.16200 5.51900 23.67600
C  -1.10700 10.34000 24.13500
N  -0.23700 7.16400 28.41500
C  -0.04600 8.18400 29.28000
C  0.24200 7.64900 30.72100
C  0.24300 6.09700 30.48900
C  0.03500 5.96400 28.97200
C  1.58500 5.39300 30.95900
C  -0.86900 8.12700 31.69600
C  -0.54800 8.07800 33.19800
H  0.54900 7.22000 33.88700
N  -0.70100 5.42500 26.06300
C  -0.40200 4.46500 26.98600
C  -0.29900 3.14900 26.35500
C  -0.58000 3.35900 24.94800
C  -0.85300 4.78900 24.84600
C  -0.01000 1.85100 27.20000
C  -0.53500 2.34600 23.76700
O  -0.95700 2.57800 22.64100
C  -0.16200 0.85000 23.97200
N  -1.11000 7.92000 24.23000
C  -1.22000 6.88900 23.36300
C  -1.44800 7.34500 21.97100
C  -1.87000 8.79500 22.20500
C  -1.28200 9.08900 23.55700
C  -0.13300 7.21500 21.10700
C  -3.46000 8.88600 22.14000
C  -3.92500 10.13600 21.33800
N  -0.62000 9.52700 26.40400
C  -0.70400 10.53400 25.48800
C  -0.42200 11.78500 26.10200
C  -0.16900 11.41400 27.48000
C  -0.31700 10.02600 27.55700
C  -0.46200 13.22100 25.61600
C  0.16900 12.03400 28.74700
O  0.47100 13.19700 29.02900
C  0.11500 10.79100 29.69700
C  1.26800 10.86000 30.58400
O  2.38200 10.88700 30.15200
O  0.90700 11.00900 31.87900
C  2.03900 11.04200 32.84200
H  0.02900 3.83500 28.95300
H  -1.42800 4.89000 22.82400
H  -1.14600 11.21800 23.48700
H  1.26900 7.95100 30.93000
H  -0.61700 5.63200 30.97200
H  2.23000 6.04800 31.54400
H  2.14700 5.06000 30.08700
H  1.26600 4.55600 31.58000
H  -1.58700 7.32000 31.55100
H  -1.32300 9.05600 31.34900
H  -1.48400 7.63100 33.53500
H  -0.57800 9.12000 33.51700
H  0.79700 1.96100 27.92500
H  0.28400 1.03600 26.53900
H  -0.93400 1.53900 27.68700
H  0.89000 0.85000 24.25900
H  -0.30400 0.43600 22.97300
H  -0.87500 0.40200 24.66300
H  -2.27500 6.81200 21.50100
H  -1.32100 9.47000 21.54900
H  -0.39100 6.37600 20.46000
H  0.79100 6.92800 21.60800
H  -0.03200 8.14500 20.54800
H  -3.85500 9.04800 23.14200
H  -4.02800 8.05000 21.73100
H  -3.24400 10.64400 20.65600
H  -4.23600 10.95900 21.98100
H  -4.84300 9.78200 20.86900
H  -0.75300 13.96600 26.35800
H  -1.16500 13.23400 24.78400
H  0.46400 13.58700 25.17200
H  -0.69200 10.86600 30.42500
H  2.64900 11.93500 32.70300
H  2.75300 10.23000 32.70000
H  1.75800 11.04400 33.89500
Mg 17.13700 50.67700 26.30600
C  18.75600 49.50800 29.14900
C  14.58000 51.93300 28.18800
C  15.56100 51.81900 23.40100
C  19.69700 49.31600 24.24200
N  16.77800 50.74500 28.38200
C  17.60800 50.36200 29.42000
C  17.01000 50.79500 30.83800
C  15.52600 51.07900 30.42800
C  15.61000 51.29600 28.86200
C  14.47700 50.01100 30.92700
C  17.85200 51.82700 31.55500
C  18.20200 51.56200 33.04500
H  17.21900 50.84900 33.98300
N  15.33200 51.67600 25.85000
C  14.45900 52.20100 26.79100
C  13.47800 53.07700 26.10500
C  13.83500 53.10900 24.75500
C  14.94900 52.11100 24.65900
C  12.38200 53.76500 26.89600
C  13.35400 54.01800 23.53400
O  13.71200 53.87900 22.33900
C  12.38700 55.24600 23.87600
N  17.55100 50.57000 24.17900
C  16.74900 51.07700 23.16400
C  17.19700 50.53200 21.78200
C  18.68100 50.26400 22.07900
C  18.70400 50.06500 23.56200
C  16.29900 49.33200 21.29600
C  19.72900 51.25700 21.55900
C  19.87600 52.57600 22.30200
N  18.88200 49.61000 26.53200
C  19.85000 49.10400 25.63000
C  20.96900 48.50800 26.41100
C  20.52300 48.52800 27.76900
C  19.31500 49.26700 27.81800
C  22.20900 47.75000 25.84900
C  20.91500 48.15500 29.11000
O  21.86200 47.50500 29.60900
C  19.80100 48.84700 30.04500
C  19.16600 47.88300 31.01900
O  18.27900 47.04300 30.75200
O  19.78700 48.00300 32.27200
C  19.39100 47.16400 33.31800
H  13.92500 52.42500 28.90900
H  15.01600 51.96600 22.46600
H  20.50900 48.86300 23.67000
H  17.12400 49.94200 31.50700
H  15.24000 52.08300 30.73900
H  15.05300 49.25100 31.45500
H  13.79400 49.69700 30.13800
H  13.82500 50.51200 31.64200
H  17.22200 52.71600 31.52200
H  18.70800 51.96300 30.89400
H  18.35100 52.58800 33.38200
H  19.21700 51.18600 33.17600
H  11.51100 53.91100 26.25600
H  12.72400 54.76900 27.14900
H  12.02300 53.20800 27.76100
H  11.30800 55.08800 23.87200
H  12.59900 56.03100 23.14900
H  12.61600 55.82600 24.77000
H  17.13800 51.33200 21.04400
H  18.92800 49.32600 21.58200
H  16.87200 48.45600 20.99500
H  15.61500 49.71700 20.53900
H  15.63400 49.01400 22.09900
H  19.54600 51.59200 20.53800
H  20.68800 50.73900 21.57300
H  19.18000 52.54900 23.14100
H  19.65200 53.39700 21.62100
H  20.88000 52.75200 22.68700
H  21.95900 47.48700 24.82100
H  22.45300 46.77800 26.27700
H  23.02800 48.45200 26.01000
H  20.41900 49.54000 30.61500
H  19.49900 47.70600 34.25800
H  19.98800 46.27100 33.13500
H  18.33000 46.95000 33.44600

