158

Mg 34.36500 2.14900 29.45500
C  32.28400 3.36900 32.02200
C  36.94000 2.16200 31.53500
C  36.33800 1.60300 26.76000
C  31.62200 2.74700 27.18000
N  34.56400 2.70800 31.51100
C  33.57900 2.99000 32.46300
C  34.10700 2.83900 33.95300
C  35.64800 2.47000 33.79000
C  35.74100 2.52800 32.18300
C  36.58400 3.45600 34.59700
C  33.26000 1.79700 34.77000
C  33.03700 2.01400 36.32500
H  33.84700 3.04500 37.01700
N  36.40700 1.96100 29.20400
C  37.32300 1.97100 30.20400
C  38.67100 1.59500 29.69200
C  38.56400 1.43500 28.24600
C  37.08400 1.70100 28.01200
C  39.85900 1.35500 30.65900
C  39.54200 0.95100 27.21800
O  39.23100 0.89500 26.04400
C  40.95100 0.43000 27.64900
N  33.98400 2.13000 27.31100
C  35.02800 1.91700 26.44800
C  34.62300 2.02900 25.00900
C  33.04100 2.02100 25.17700
C  32.84400 2.31700 26.59500
C  35.18800 3.34700 24.29400
C  32.38400 0.71500 24.67600
C  32.21800 -0.41600 25.71900
N  32.40600 3.01100 29.46500
C  31.42800 3.16400 28.52800
C  30.22000 3.69100 29.10300
C  30.53700 3.79100 30.45700
C  31.85700 3.36200 30.65100
C  28.88800 3.96400 28.43400
C  29.95900 4.12300 31.76300
O  28.87000 4.53700 32.11500
C  31.07600 3.66700 32.76700
C  31.18400 4.68000 33.85000
O  31.71300 5.80400 33.74400
O  30.45200 4.31600 34.97200
C  30.30800 5.23900 36.03900
H  37.65800 1.93700 32.32600
H  36.90600 1.29400 25.88000
H  30.75000 2.75400 26.52200
H  33.97400 3.84900 34.33900
H  35.81500 1.42600 34.05300
H  37.41600 3.85000 34.01300
H  36.93200 3.04700 35.54500
H  36.03000 4.35300 34.87500
H  33.60400 0.80000 34.49500
H  32.21500 1.95700 34.50600
H  33.08200 1.07600 36.87800
H  32.04300 2.42900 36.49000
H  39.91600 1.92900 31.58400
H  40.77700 1.62400 30.13500
H  39.95600 0.28500 30.83900
H  40.87500 -0.08500 28.60700
H  41.50600 1.34800 27.83800
H  41.50000 -0.28100 27.03000
H  34.92300 1.14700 24.44400
H  32.56700 2.85400 24.65800
H  35.97700 3.87400 24.83000
H  34.39900 3.98700 23.90000
H  35.68800 3.07500 23.36400
H  32.99500 0.33300 23.85900
H  31.45800 1.00800 24.18200
H  32.40100 -0.04700 26.72800
H  32.86900 -1.27200 25.54400
H  31.23100 -0.86800 25.62600
H  28.78200 3.54900 27.43200
H  29.01500 5.04600 28.38300
H  27.97700 3.91200 29.03000
H  30.67500 2.83500 33.34600
H  29.98800 6.26500 35.85400
H  31.29600 5.42600 36.45800
H  29.66600 4.68600 36.72400
Mg 49.10200 47.27600 42.19200
C  45.69800 47.65100 41.12900
C  49.15600 44.30300 40.43800
C  52.37300 47.22400 42.68400
C  49.06300 50.75100 42.79200
N  47.63000 46.20400 40.84800
C  46.32100 46.49700 40.58300
C  45.62300 45.65300 39.55300
C  46.57100 44.41400 39.66400
C  47.88300 44.97800 40.37500
C  45.94800 43.16300 40.46700
C  45.65200 46.28600 38.15000
C  44.40700 46.15400 37.41900
H  44.63500 45.67400 35.97600
N  50.57900 45.79800 41.86900
C  50.39200 44.63200 41.15600
C  51.62500 43.92500 41.20600
C  52.56700 44.74200 41.92900
C  51.89700 45.96300 42.27400
C  51.82600 42.49000 40.66800
C  53.99400 44.42400 42.31100
O  54.44000 43.31500 42.08800
C  54.95000 45.38800 43.01600
N  50.53200 48.75700 42.73100
C  51.81000 48.49300 42.84600
C  52.64400 49.75400 43.25200
C  51.64200 50.84400 42.95000
C  50.28000 50.07000 42.90400
C  53.24700 49.77000 44.71600
C  52.05500 51.58200 41.63900
C  52.53100 52.93300 41.91100
N  47.64900 48.82500 42.32400
C  47.78800 50.17000 42.59500
C  46.54100 50.90200 42.37300
C  45.60000 49.84800 41.98500
C  46.38000 48.69600 41.85200
C  46.39300 52.32700 42.46800
C  44.23200 49.54100 41.63200
O  43.16900 50.24200 41.65900
C  44.24500 48.09700 41.02200
C  43.14300 47.30400 41.70500
O  43.17000 46.97800 42.92500
O  42.22200 46.83200 40.81100
C  41.83000 45.41500 41.01800
H  49.24400 43.32900 39.95100
H  53.45700 47.21700 42.81100
H  49.13500 51.83300 42.91500
H  44.60900 45.38200 39.84900
H  46.74500 44.07200 38.64300
H  45.15400 42.72700 39.86000
H  45.41200 43.50400 41.35300
H  46.71000 42.43200 40.73800
H  46.42800 45.70200 37.65400
H  45.98700 47.32300 38.19100
H  43.83900 47.07900 37.51500
H  43.77700 45.40300 37.89400
H  51.36300 42.12900 39.75000
H  51.57000 41.76700 41.44300
H  52.88100 42.31400 40.45800
H  54.61200 45.81100 43.96200
H  55.04700 46.22200 42.32100
H  55.89200 44.85500 43.14700
H  53.47800 49.68800 42.55400
H  51.65400 51.59800 43.73700
H  52.72300 49.04100 45.33400
H  53.24700 50.77500 45.13600
H  54.30400 49.50500 44.76100
H  51.11200 51.65500 41.09800
H  52.69200 50.89300 41.08500
H  52.92700 53.39800 41.00900
H  53.19800 53.00100 42.77100
H  51.62000 53.45900 42.19900
H  46.82000 52.73700 43.38300
H  45.34500 52.53400 42.68800
H  46.58800 52.93700 41.58600
H  43.89800 48.26700 40.00300
H  42.53400 44.80600 41.58600
H  41.74700 44.96100 40.03000
H  40.90400 45.35900 41.59000

