158

Mg -0.16600 7.97000 26.31000
C  0.60600 9.90200 29.09800
C  0.11300 5.16400 28.32900
C  -0.35800 6.02400 23.63800
C  0.28000 10.78600 24.29500
N  0.29200 7.59700 28.45400
C  0.44300 8.52600 29.40300
C  0.70200 7.97200 30.76600
C  0.57800 6.41700 30.51100
C  0.29800 6.34800 29.01100
C  1.87200 5.57600 30.91400
C  -0.28300 8.49800 31.86500
C  0.20800 8.55300 33.30400
H  -0.68200 7.94200 34.47200
N  -0.25300 5.82700 26.02500
C  -0.22900 4.87700 26.99100
C  -0.49300 3.60900 26.37500
C  -0.56200 3.82700 24.97700
C  -0.34300 5.25500 24.78700
C  -0.63000 2.36900 27.20500
C  -0.67100 2.84000 23.87200
O  -1.01900 3.11000 22.71700
C  -0.48400 1.38600 24.20500
N  -0.21200 8.36500 24.27300
C  -0.32200 7.35900 23.37400
C  -0.43100 7.94400 21.93600
C  -0.35400 9.48100 22.14100
C  -0.04700 9.59400 23.61700
C  0.57200 7.30600 20.84500
C  -1.61500 10.22200 21.74200
C  -2.82800 10.26200 22.74100
N  0.19700 9.98700 26.58400
C  0.44100 10.95500 25.68900
C  0.79500 12.19400 26.38400
C  0.94700 11.79900 27.71700
C  0.56700 10.52200 27.79800
C  1.02100 13.55900 25.78400
C  1.30000 12.31600 29.06100
O  1.64400 13.45800 29.45100
C  0.95600 11.05900 29.96700
C  2.11200 10.83900 30.83800
O  3.27500 10.71800 30.46000
O  1.74300 11.14000 32.11600
C  2.77500 11.41800 33.15700
H  0.22200 4.37500 29.07600
H  -0.33700 5.48000 22.69200
H  0.12700 11.69200 23.70600
H  1.72500 8.30300 30.94800
H  -0.25100 5.96700 31.05700
H  2.29400 5.94000 31.85000
H  2.60100 5.68700 30.11200
H  1.66800 4.54100 31.19100
H  -1.14000 7.82600 31.80800
H  -0.57300 9.48200 31.49800
H  0.18400 9.62400 33.50900
H  1.25000 8.23900 33.26000
H  -1.40300 1.70100 26.82600
H  -0.75600 2.60700 28.26100
H  0.31900 1.83400 27.16400
H  -0.65300 0.79200 23.30600
H  -1.32500 1.09600 24.83600
H  0.53300 1.12500 24.49800
H  -1.45100 7.73700 21.61200
H  0.52400 9.85700 21.61600
H  1.30700 6.61700 21.26000
H  0.95900 8.00900 20.10700
H  -0.05000 6.67400 20.21000
H  -2.11400 9.94800 20.81200
H  -1.23400 11.20900 21.48100
H  -3.61200 10.57900 22.05300
H  -2.73200 11.18100 23.32000
H  -3.01500 9.36200 23.32700
H  0.80100 13.60700 24.71700
H  2.04600 13.91100 25.90200
H  0.30400 14.22900 26.26000
H  0.14300 11.39000 30.61400
H  3.74700 11.22300 32.70500
H  2.63000 10.62500 33.89100
H  2.63600 12.35900 33.68800
Mg 35.60300 49.06500 25.28400
C  35.96000 47.08500 28.01500
C  34.29600 51.63000 27.02700
C  34.98400 50.82600 22.28100
C  36.94000 46.52500 23.28600
N  35.01400 49.30800 27.25100
C  35.31000 48.35200 28.26800
C  35.17600 49.07600 29.65300
C  34.48300 50.46500 29.34800
C  34.65700 50.53400 27.81400
C  33.07400 50.65900 29.81000
C  36.59700 49.29500 30.32600
C  36.59800 48.71600 31.76700
H  35.21400 48.53900 32.39000
N  34.81700 50.97100 24.74400
C  34.35000 51.84500 25.63900
C  33.98000 53.09500 25.02100
C  34.03400 52.81400 23.58400
C  34.54900 51.48500 23.46100
C  33.66300 54.35800 25.84400
C  33.64600 53.75200 22.45200
O  33.87500 53.45800 21.31200
C  32.99400 55.06200 22.62900
N  36.06900 48.75500 23.06000
C  35.66400 49.55300 22.14200
C  36.01100 48.91500 20.73000
C  36.82600 47.63400 21.03800
C  36.51500 47.59200 22.57100
C  34.76300 48.77600 19.88100
C  38.34900 47.85100 20.82400
C  39.12600 46.62600 20.33900
N  36.27600 47.16400 25.49400
C  36.76400 46.27800 24.63600
C  37.16800 45.10100 25.34500
C  36.80500 45.29800 26.65800
C  36.34000 46.60700 26.75000
C  37.76200 43.89800 24.68400
C  36.72100 44.66500 27.95300
O  36.98800 43.54800 28.36800
C  36.24200 45.84700 28.92200
C  35.07100 45.40100 29.66400
O  33.90900 45.39500 29.30400
O  35.51800 45.01500 30.89500
C  34.58700 44.18600 31.62800
H  33.98800 52.51800 27.58200
H  34.79800 51.31600 21.32300
H  37.30700 45.73100 22.63200
H  34.53600 48.36900 30.18200
H  35.10800 51.22800 29.81300
H  33.01100 51.63600 30.29000
H  32.69700 49.91200 30.50800
H  32.33500 50.66800 29.00900
H  36.76900 50.36300 30.45600
H  37.32500 48.81900 29.66900
H  37.10400 49.43400 32.41300
H  37.06200 47.73100 31.83700
H  33.60100 55.28500 25.27400
H  34.43400 54.45500 26.60800
H  32.70900 54.15100 26.33000
H  32.36900 55.23500 23.50500
H  32.41700 55.14000 21.70800
H  33.84800 55.72600 22.49500
H  36.51200 49.64800 20.09700
H  36.38900 46.73200 20.60900
H  33.84600 48.54800 20.42600
H  34.94000 47.93400 19.21200
H  34.49700 49.71100 19.38800
H  38.74100 48.18600 21.78400
H  38.47900 48.73500 20.20000
H  38.46900 45.80500 20.05300
H  39.77900 46.31000 21.15200
H  39.68600 46.99600 19.48000
H  37.27900 43.68200 23.73100
H  37.54900 42.97000 25.21400
H  38.83300 44.02400 24.52400
H  37.00600 46.11700 29.65100
H  35.15600 43.66700 32.39900
H  34.15400 43.43400 30.96900
H  33.62300 44.56300 31.97000

