158

Mg 6.08700 54.40100 40.70500
C  4.77500 51.25900 40.74400
C  8.97000 53.27300 39.32100
C  7.08600 57.65800 40.36200
C  2.96800 55.66500 42.00800
N  6.65000 52.48400 40.02300
C  6.04700 51.30800 40.16400
C  6.82100 50.21900 39.57200
C  8.28500 50.80000 39.57500
C  7.95200 52.30600 39.61900
C  9.15000 50.30500 40.78500
C  6.28100 49.84100 38.11600
C  6.50400 48.40900 37.61600
H  5.77200 48.13800 36.34300
N  7.75300 55.32400 39.89200
C  8.90300 54.65900 39.48300
C  9.87100 55.67700 39.19200
C  9.34700 57.00200 39.49900
C  7.96100 56.69000 39.96700
C  11.29200 55.21200 38.60100
C  10.09200 58.29700 39.42900
O  11.31000 58.31100 39.28500
C  9.49500 59.67900 39.39700
N  4.98300 56.47800 40.92600
C  5.80700 57.61400 40.86500
C  5.02800 58.80800 41.52800
C  3.75200 58.06800 42.08900
C  3.89000 56.64600 41.65200
C  5.83200 59.61900 42.57500
C  2.39700 58.73900 41.68600
C  1.86300 59.85100 42.60100
N  4.29900 53.67900 41.32300
C  3.15800 54.28200 41.84600
C  2.20900 53.20000 42.21600
C  2.88300 52.01300 41.86500
C  4.09000 52.37300 41.28200
C  0.75200 53.35600 42.67400
C  2.76800 50.65300 41.92500
O  1.87400 49.92700 42.38200
C  4.03800 49.96700 41.27100
C  3.60800 48.91600 40.30900
O  2.77100 48.93500 39.49200
O  4.29600 47.80800 40.67900
C  3.77900 46.48900 40.27900
H  9.86000 52.77500 38.93200
H  7.38100 58.70200 40.48600
H  2.03800 55.90600 42.52700
H  6.69100 49.28600 40.11900
H  8.93600 50.59600 38.72500
H  10.16200 50.18600 40.39900
H  8.74300 49.40600 41.24900
H  9.27400 51.01200 41.60500
H  6.88500 50.36300 37.37300
H  5.29100 50.25700 37.92700
H  6.21400 47.62700 38.31800
H  7.53300 48.24600 37.29600
H  11.62700 54.57000 39.41500
H  12.00700 56.02200 38.45400
H  11.20300 54.53600 37.75100
H  8.46400 59.67000 39.04300
H  10.10100 60.29900 38.73500
H  9.49600 60.03400 40.42800
H  4.76200 59.39700 40.65100
H  3.86100 57.98000 43.17000
H  6.72200 59.03600 42.81200
H  5.30800 59.98700 43.45700
H  5.99400 60.50500 41.96100
H  1.62600 57.96900 41.72900
H  2.53000 59.01100 40.63900
H  2.66300 60.10400 43.29800
H  0.91300 59.55400 43.04600
H  1.58700 60.71500 41.99700
H  0.72900 54.28600 43.24300
H  0.48400 52.46000 43.23400
H  0.18000 53.45100 41.75100
H  4.52600 49.53500 42.14500
H  4.55600 45.73400 40.15700
H  3.22600 46.42400 39.34200
H  3.08800 46.26600 41.09300
Mg 9.80100 47.96100 26.32400
C  7.86500 47.75900 29.37700
C  12.48100 48.90700 28.08000
C  11.42400 48.44500 23.42800
C  6.83300 47.16100 24.57800
N  10.11200 48.25500 28.56300
C  9.23300 48.16000 29.63100
C  9.96000 48.46200 30.95500
C  11.36200 49.08200 30.49100
C  11.37800 48.68000 28.96100
C  11.47800 50.62500 30.51700
C  10.10400 47.20800 31.91800
C  9.88200 47.38600 33.41100
H  10.17200 46.19400 34.38600
N  11.68300 48.42800 25.82400
C  12.69600 48.77100 26.71400
C  13.93100 48.97700 26.01000
C  13.66200 48.75700 24.61800
C  12.18200 48.54400 24.52100
C  15.21600 49.43600 26.68900
C  14.67500 48.70400 23.43300
O  14.35800 48.57700 22.29000
C  16.06600 48.65900 23.80500
N  9.14800 47.80000 24.25600
C  10.04900 48.07500 23.20900
C  9.36200 47.88300 21.84400
C  7.91900 47.27400 22.27600
C  7.94000 47.38100 23.77400
C  9.15600 49.19600 21.09400
C  7.63900 45.92000 21.66300
C  7.95900 44.86000 22.69100
N  7.89500 47.53100 26.82600
C  6.76100 47.18700 25.96300
C  5.60700 47.06900 26.75300
C  5.97900 47.26900 28.07900
C  7.34800 47.52600 28.06800
C  4.26200 46.57900 26.21800
C  5.42300 47.31200 29.40600
O  4.24500 47.08700 29.85600
C  6.71000 47.42200 30.32500
C  6.80600 46.08000 30.90300
O  7.19300 45.05800 30.29600
O  6.55200 46.05800 32.26000
C  6.95700 44.80500 32.97000
H  13.34600 49.05900 28.73000
H  11.98000 48.71700 22.52800
H  5.94300 46.87300 24.01500
H  9.33300 49.13700 31.53700
H  12.21700 48.68200 31.03500
H  11.44900 51.06900 29.52200
H  12.40300 51.00100 30.95500
H  10.67100 51.12500 31.05300
H  10.97200 46.56700 31.76600
H  9.37700 46.48500 31.54800
H  8.86000 47.69900 33.62400
H  10.43800 48.27600 33.70700
H  14.99700 49.74500 27.71100
H  15.61000 50.28000 26.12400
H  15.98300 48.66400 26.75300
H  16.18200 49.68700 24.14800
H  16.66200 48.48600 22.90800
H  16.10800 47.89900 24.58500
H  9.92500 47.11400 21.31600
H  7.13900 47.94600 21.91800
H  9.48100 50.04800 21.69100
H  8.11000 49.36800 20.83800
H  9.82200 49.12000 20.23500
H  8.19300 45.81100 20.73100
H  6.57600 46.02600 21.44900
H  7.07300 44.66200 23.29600
H  8.80000 45.10200 23.34000
H  8.04700 43.89000 22.20200
H  4.50800 45.69300 25.63200
H  3.73800 47.31700 25.61200
H  3.65800 46.29600 27.08000
H  6.63200 48.26300 31.01400
H  7.94300 44.51500 32.60500
H  6.25600 43.97600 32.87700
H  6.97200 45.05600 34.03100

