158

Mg 6.59600 53.99400 40.29400
C  6.16600 50.49400 40.01900
C  9.74800 53.56900 39.09800
C  6.64800 57.24800 39.86400
C  3.09300 54.13600 40.85700
N  7.70800 52.23300 39.45200
C  7.33600 50.92800 39.44200
C  8.56300 50.06600 39.27000
C  9.77000 51.04800 39.23200
C  9.06200 52.36300 39.29700
C  10.76600 50.80600 40.36000
C  8.55500 49.32300 37.92600
C  8.45200 50.13900 36.66900
H  7.48300 49.74100 35.51000
N  8.06200 55.27700 39.71200
C  9.32800 54.88400 39.25500
C  10.09800 56.06400 39.05300
C  9.20900 57.15600 39.27500
C  7.92300 56.59200 39.60900
C  11.54800 56.11300 38.58200
C  9.64300 58.60400 39.32200
O  10.75500 58.89900 38.92400
C  8.74300 59.71900 39.80200
N  5.03500 55.42800 40.29500
C  5.40200 56.76400 40.20800
C  4.18600 57.67500 40.38200
C  3.00400 56.61000 40.51800
C  3.73800 55.28000 40.53100
C  4.42600 58.60900 41.70600
C  1.85000 56.62200 39.39900
C  0.57900 57.41700 39.64600
N  4.89400 52.65100 40.43100
C  3.58800 52.83200 40.96100
C  3.05200 51.53100 41.31800
C  3.99700 50.60400 40.91500
C  5.07700 51.32100 40.42300
C  1.75100 51.29200 42.01400
C  4.29100 49.23300 40.82700
O  3.49900 48.30700 41.10900
C  5.66000 49.02700 40.26100
C  5.44900 48.11400 39.08900
O  4.77000 48.33700 38.06500
O  6.25700 47.05700 39.13500
C  6.06700 46.05500 38.05800
H  10.78000 53.43500 38.76900
H  6.50700 58.33000 39.83000
H  2.03800 54.29700 41.08700
H  8.72200 49.38900 40.10900
H  10.39800 51.10600 38.34300
H  10.74600 49.76900 40.69300
H  10.54500 51.58000 41.09600
H  11.79400 50.97600 40.04000
H  7.65700 48.71200 37.83600
H  9.40200 48.64800 37.80300
H  9.47700 50.31500 36.34500
H  8.08800 51.11600 36.98700
H  11.91300 55.22100 38.07300
H  12.23700 56.46100 39.35100
H  11.64000 56.85600 37.78900
H  7.81600 59.83500 39.24200
H  9.28500 60.62400 39.52800
H  8.54100 59.56500 40.86200
H  4.07700 58.27100 39.47500
H  2.55500 56.68900 41.50800
H  4.37300 59.63700 41.34700
H  5.33500 58.40300 42.27100
H  3.61300 58.42200 42.40800
H  1.52500 55.60500 39.17800
H  2.26100 56.92700 38.43700
H  0.32800 58.18600 38.91600
H  0.57900 58.04700 40.53600
H  -0.17900 56.64600 39.51400
H  1.09700 50.76400 41.32000
H  1.33000 52.20400 42.43600
H  1.96100 50.72700 42.92200
H  6.19500 48.45500 41.02000
H  6.73000 46.20700 37.20600
H  5.08600 46.07400 37.58400
H  6.29400 45.05600 38.43200
Mg 0.22100 43.34700 24.89800
C  2.13900 43.28000 28.00500
C  -2.60700 42.74900 26.92100
C  -1.46600 42.80200 22.14400
C  3.20000 43.61200 23.23700
N  -0.08600 43.03000 27.28100
C  0.77600 43.15400 28.34400
C  0.07400 43.10400 29.70200
C  -1.47800 42.82500 29.22500
C  -1.44500 42.87100 27.75400
C  -1.99500 41.37100 29.56000
C  0.13200 44.33800 30.53300
C  0.57200 44.14700 32.02900
H  0.45500 42.77200 32.78800
N  -1.76900 42.98900 24.50100
C  -2.76500 42.76000 25.47000
C  -4.00500 42.44500 24.80500
C  -3.80100 42.65100 23.37500
C  -2.30000 42.81400 23.25600
C  -5.23300 42.04000 25.56100
C  -4.74900 42.72300 22.26000
O  -4.40200 42.88700 21.08800
C  -6.29200 42.65000 22.52100
N  0.81300 43.05200 22.99700
C  -0.08300 42.97600 21.99900
C  0.56800 43.14100 20.64900
C  1.93700 43.78700 21.08200
C  2.03600 43.35000 22.51200
C  0.71800 41.64000 20.02900
C  1.82900 45.34200 20.88500
C  3.13500 46.14000 20.76100
N  2.33900 43.43600 25.46000
C  3.43000 43.62900 24.63600
C  4.65300 43.75300 25.41400
C  4.18100 43.60700 26.73500
C  2.77100 43.41500 26.73400
C  6.06100 44.01900 24.90400
C  4.58900 43.53600 28.12800
O  5.76200 43.60300 28.54600
C  3.25100 43.42700 29.05200
C  3.41200 42.30700 29.89700
O  3.23800 41.14900 29.58700
O  4.02100 42.79800 31.03700
C  4.41700 41.75900 32.01700
H  -3.53700 42.74700 27.49300
H  -1.86300 42.68900 21.13300
H  4.09300 43.91400 22.68600
H  0.49700 42.25000 30.23100
H  -2.20300 43.57700 29.53500
H  -1.34900 40.90400 30.30400
H  -1.94400 40.78000 28.64500
H  -3.02400 41.49700 29.89400
H  -0.81500 44.87500 30.58600
H  0.75300 45.09400 30.05300
H  -0.19900 44.74700 32.51400
H  1.52200 44.67500 32.11600
H  -5.69600 41.33600 24.87000
H  -6.04200 42.76900 25.58100
H  -5.09500 41.64500 26.56800
H  -6.76600 42.91500 21.57600
H  -6.52200 43.54800 23.09300
H  -6.67300 41.77000 23.03800
H  -0.01000 43.80100 20.00400
H  2.76300 43.39200 20.49000
H  0.62700 41.80800 18.95600
H  -0.07200 40.93500 20.28900
H  1.64600 41.11300 20.24900
H  1.16500 45.82100 21.60500
H  1.43400 45.52800 19.88600
H  3.18400 46.54800 19.75100
H  3.94100 45.43100 20.95300
H  3.25200 46.95500 21.47500
H  6.27700 45.05700 25.15900
H  6.03600 43.86700 23.82500
H  6.69900 43.27500 25.38000
H  3.14000 44.37000 29.58700
H  3.95000 40.79900 31.79600
H  4.00700 42.09200 32.97100
H  5.48900 41.60200 32.13700

