158

Mg 48.45600 35.86400 27.45400
C  46.20900 34.18600 29.51900
C  49.07200 38.00300 29.97100
C  50.29500 37.81900 25.28200
C  47.68500 33.61400 24.86700
N  47.85500 36.01100 29.47500
C  46.98600 35.20500 30.12000
C  47.07200 35.38900 31.64100
C  47.48500 36.87900 31.63700
C  48.23500 36.96600 30.29100
C  46.31600 37.83800 31.80000
C  48.16300 34.38600 32.25200
C  48.16100 34.29700 33.80500
H  47.18600 35.21800 34.62600
N  49.56000 37.69600 27.61600
C  49.72400 38.41400 28.76200
C  50.49200 39.60300 28.48400
C  50.76000 39.66800 27.10000
C  50.19500 38.40500 26.59300
C  50.72900 40.69900 29.52200
C  51.43500 40.66200 26.22800
O  51.56000 40.59500 25.00900
C  51.93300 41.91600 26.92500
N  48.84700 35.80700 25.37500
C  49.70700 36.67300 24.70300
C  49.92600 36.29900 23.20600
C  49.26000 34.84800 23.17400
C  48.54600 34.71200 24.55500
C  49.16400 37.32300 22.30300
C  50.29600 33.65000 22.88700
C  49.82000 32.73400 21.69600
N  47.20900 34.21200 27.20000
C  47.03300 33.34300 26.14300
C  46.05900 32.24800 26.49800
C  45.64400 32.63000 27.80000
C  46.41200 33.80100 28.16900
C  45.55800 31.09500 25.71900
C  44.74200 32.20200 29.00900
O  44.01600 31.22900 29.19200
C  44.99200 33.33700 30.04100
C  45.04400 32.66000 31.44700
O  46.03000 32.08500 31.85400
O  43.88400 32.93700 32.13300
C  43.95600 32.77800 33.55100
H  49.23900 38.68900 30.80400
H  50.83400 38.38200 24.51800
H  47.53500 32.82900 24.12200
H  46.09600 35.27100 32.11300
H  48.26200 37.14300 32.35300
H  45.38300 37.32600 32.03200
H  46.28300 38.40700 30.87000
H  46.52700 38.63400 32.51400
H  49.11000 34.88300 32.04100
H  48.17400 33.44000 31.71100
H  49.15800 34.44700 34.22000
H  47.80900 33.28000 33.98200
H  51.79500 40.92500 29.53900
H  50.39900 40.21100 30.44000
H  50.05600 41.52400 29.29000
H  52.23300 42.71700 26.25000
H  52.70400 41.66700 27.65400
H  51.07600 42.27200 27.49800
H  50.95900 36.18200 22.87800
H  48.50800 34.81200 22.38600
H  48.42500 36.86900 21.64300
H  49.97400 37.68500 21.66900
H  48.71900 38.11100 22.91100
H  50.43500 33.01900 23.76500
H  51.32200 33.97100 22.70500
H  48.73200 32.71900 21.64900
H  50.29000 31.76700 21.87700
H  50.22500 33.08400 20.74600
H  44.83600 30.49800 26.27600
H  46.36600 30.45700 25.36300
H  45.12600 31.44100 24.78000
H  44.17900 34.06000 30.10800
H  43.84000 31.70200 33.68000
H  43.21300 33.28800 34.16500
H  44.91000 33.10500 33.96300
Mg 6.61500 53.50200 40.70300
C  6.19100 50.01200 39.99500
C  9.88400 53.15100 39.56800
C  6.84800 56.79500 40.92700
C  3.12100 53.62100 41.27700
N  7.87200 51.74500 39.75400
C  7.52600 50.40200 39.60200
C  8.76300 49.54100 39.08600
C  9.91000 50.46200 39.49400
C  9.20300 51.85100 39.56600
C  10.54900 50.07600 40.89000
C  8.70600 48.91500 37.59900
C  8.61000 49.83200 36.39500
H  7.51900 49.72200 35.36000
N  8.17000 54.77700 40.28900
C  9.44300 54.46000 39.84700
C  10.20100 55.66900 39.74800
C  9.37100 56.70100 40.15900
C  8.07400 56.12900 40.50300
C  11.59500 55.79800 39.24300
C  9.84900 58.17000 40.13000
O  10.95500 58.51800 39.68700
C  9.01000 59.29400 40.80700
N  5.19300 54.96300 41.01400
C  5.55400 56.29000 41.01400
C  4.31400 57.24600 41.14100
C  3.20600 56.13100 41.34500
C  3.83600 54.80800 41.19600
C  4.24900 58.39300 42.26300
C  2.03200 56.48100 40.23900
C  0.89300 57.46300 40.55200
N  4.98800 52.15900 40.88000
C  3.66100 52.32900 41.24200
C  3.01300 51.08600 41.27600
C  4.02200 50.15800 40.88100
C  5.15100 50.84900 40.63000
C  1.55800 50.70900 41.61800
C  4.29400 48.69100 40.68900
O  3.59900 47.71300 40.86500
C  5.70200 48.56900 40.01300
C  5.37000 48.07300 38.61500
O  5.02400 48.78600 37.71000
O  5.52200 46.66700 38.49200
C  5.24900 46.10200 37.19900
H  10.95600 52.95000 39.51900
H  6.93200 57.88000 41.01700
H  2.05300 53.60200 41.50700
H  8.68200 48.63500 39.68700
H  10.73500 50.41900 38.78400
H  10.80900 50.84100 41.62200
H  11.41000 49.45900 40.63300
H  9.93000 49.31400 41.36400
H  7.83500 48.26200 37.53100
H  9.54600 48.25800 37.37500
H  9.61800 49.69600 36.00300
H  8.56300 50.87800 36.69900
H  12.21200 56.18400 40.05400
H  11.76300 56.40200 38.35200
H  12.02900 54.83500 38.97400
H  9.70100 60.12500 40.94500
H  8.67900 59.09700 41.82600
H  8.14100 59.57500 40.21300
H  4.31800 57.74500 40.17200
H  2.78400 56.27500 42.33900
H  5.21800 58.50000 42.75100
H  3.51900 58.19700 43.04900
H  4.08300 59.40700 41.89800
H  1.58900 55.53400 39.93100
H  2.47700 56.92500 39.35000
H  0.91100 57.71100 41.61400
H  -0.06900 57.03200 40.27300
H  1.07500 58.40900 40.04400
H  1.26700 49.99100 40.85100
H  0.91800 51.59100 41.56900
H  1.42700 50.19400 42.56900
H  6.35400 47.90100 40.57700
H  6.14900 46.17400 36.58800
H  4.42400 46.52400 36.62500
H  5.01200 45.04500 37.32500

