158

Mg 25.03800 1.62400 30.29400
C  27.25800 1.36400 33.03200
C  22.40300 2.03000 32.54800
C  22.91500 1.69300 27.70500
C  27.60800 1.11800 28.09900
N  24.89100 1.68600 32.55100
C  25.92900 1.73400 33.45900
C  25.46900 1.95000 34.89100
C  23.94900 2.13400 34.69300
C  23.67400 1.82900 33.16600
C  23.11000 1.29300 35.67600
C  26.11900 3.19700 35.57300
C  26.89700 2.93400 36.87700
H  26.77500 3.98100 38.07600
N  22.95100 1.72100 30.16500
C  22.04600 1.91400 31.18400
C  20.74500 1.97000 30.67100
C  20.85800 1.89600 29.23800
C  22.33300 1.70800 29.01400
C  19.46700 2.11300 31.58800
C  19.72900 2.00600 28.21300
O  19.91900 1.93000 27.01400
C  18.30300 2.33800 28.68400
N  25.16400 1.41600 28.20200
C  24.26100 1.62000 27.29600
C  24.71400 1.62800 25.81800
C  26.28000 1.41900 25.93000
C  26.36000 1.35900 27.52400
C  24.01500 0.53600 25.01800
C  27.08100 2.66300 25.42800
C  26.85200 4.04600 26.21100
N  26.96600 1.27000 30.46300
C  27.96500 1.02800 29.46500
C  29.27400 0.88100 30.14800
C  29.00400 1.03000 31.50600
C  27.58400 1.20500 31.69000
C  30.58100 0.66600 29.35500
C  29.65200 0.99700 32.81300
O  30.81600 0.87100 33.11200
C  28.57700 1.34300 33.87300
C  28.55200 0.38100 34.89900
O  27.92200 -0.66400 34.85600
O  29.20400 0.79600 36.02800
C  29.26900 -0.16700 37.10600
H  21.62500 2.31600 33.25900
H  22.13900 1.72700 26.93800
H  28.33400 0.91300 27.31000
H  25.63300 1.02700 35.44600
H  23.64900 3.17100 34.83800
H  22.43800 2.08300 36.01100
H  23.75600 0.78700 36.39400
H  22.44500 0.57700 35.19300
H  25.36200 3.96100 35.74800
H  26.68900 3.67800 34.77800
H  27.96000 3.04000 36.65900
H  26.71200 1.97800 37.36700
H  18.87500 2.98600 31.31600
H  19.68400 1.96900 32.64700
H  18.85800 1.23700 31.36500
H  18.39200 3.23000 29.30300
H  17.99500 1.51300 29.32700
H  17.76600 2.50100 27.74900
H  24.46700 2.57200 25.33200
H  26.55500 0.51400 25.38800
H  23.50900 -0.17600 25.67100
H  24.67800 -0.12100 24.45500
H  23.35500 0.96000 24.26100
H  26.76600 2.77800 24.39000
H  28.12900 2.37700 25.33700
H  27.67400 4.21100 26.90700
H  25.86200 3.97600 26.66300
H  26.76500 4.75800 25.39100
H  30.70900 1.40800 28.56700
H  30.50400 -0.31300 28.88200
H  31.39500 0.62800 30.08000
H  28.65100 2.29800 34.39400
H  29.94500 0.14000 37.90400
H  29.53000 -1.20800 36.91400
H  28.30200 -0.14600 37.60800
Mg -2.41000 33.90500 26.32000
C  -4.05700 32.42300 29.07000
C  -0.71700 35.95900 28.50200
C  -1.21200 35.40500 23.67200
C  -4.08300 31.64300 24.28400
N  -2.36700 34.07400 28.56300
C  -3.11200 33.42900 29.44100
C  -2.88700 33.85900 30.87100
C  -1.98200 35.18600 30.61000
C  -1.65400 35.13300 29.16000
C  -2.57500 36.59800 31.02900
C  -2.33700 32.79700 31.82000
C  -3.08200 32.52700 33.12400
H  -2.18600 32.57700 34.37400
N  -1.09000 35.45900 26.10500
C  -0.47200 36.10600 27.15300
C  0.46300 36.98100 26.53500
C  0.25200 36.92800 25.08000
C  -0.69600 35.89700 24.93600
C  1.24200 38.05700 27.35600
C  0.90800 37.76100 24.02800
O  0.69400 37.72900 22.86400
C  2.02300 38.69700 24.48900
N  -2.77700 33.69300 24.35800
C  -2.14200 34.42800 23.41700
C  -2.46900 34.05700 21.95400
C  -3.11500 32.65600 22.15500
C  -3.26700 32.59200 23.70900
C  -3.41400 35.11200 21.29300
C  -2.29700 31.54900 21.48500
C  -1.24700 30.83200 22.39800
N  -3.76000 32.32400 26.58800
C  -4.33800 31.49700 25.66100
C  -5.26500 30.59300 26.25700
C  -5.14300 30.88100 27.61700
C  -4.29100 32.00700 27.73800
C  -6.07600 29.41500 25.65400
C  -5.55900 30.44600 28.89600
O  -6.26400 29.51400 29.19500
C  -4.92200 31.52700 29.90600
C  -5.97500 32.28700 30.64600
O  -6.78000 32.93900 30.08800
O  -5.92000 32.03700 32.04900
C  -6.99600 32.77000 32.75800
H  -0.16300 36.60100 29.19100
H  -0.59300 35.72600 22.83200
H  -4.60000 31.07400 23.50800
H  -3.84500 34.19700 31.26700
H  -1.15800 35.06900 31.31300
H  -2.52700 37.18100 30.10900
H  -2.03000 37.03800 31.86500
H  -3.63900 36.63200 31.26500
H  -1.42500 33.29300 32.15200
H  -2.10900 31.79900 31.44700
H  -3.60000 31.56900 33.14300
H  -3.75600 33.36700 33.29300
H  0.81000 39.01400 27.06400
H  2.28000 38.04800 27.02400
H  1.19600 38.03700 28.44500
H  2.37700 39.15700 23.56600
H  2.85100 38.18000 24.97400
H  1.53100 39.43800 25.11800
H  -1.47400 34.09000 21.50900
H  -4.09200 32.49700 21.69800
H  -3.13300 36.11000 21.62800
H  -4.42700 35.02900 21.68500
H  -3.27700 34.94600 20.22400
H  -1.70600 31.91800 20.64700
H  -2.96300 30.76500 21.12400
H  -0.22500 31.17900 22.24600
H  -1.27100 29.79100 22.07500
H  -1.45200 30.71200 23.46100
H  -7.04900 29.81000 25.36200
H  -6.11100 28.70000 26.47600
H  -5.48400 28.96900 24.85400
H  -4.32300 30.90100 30.56800
H  -6.46000 33.45400 33.41600
H  -7.53800 32.04100 33.36000
H  -7.72400 33.32900 32.17000

