158

Mg 40.85000 8.35900 29.47800
C  42.59800 9.90900 32.13800
C  38.48000 7.22700 31.83300
C  39.43600 6.50500 27.08300
C  43.56100 9.07000 27.36500
N  40.59300 8.56300 31.75300
C  41.35800 9.36700 32.58900
C  40.78900 9.48300 33.95700
C  39.51100 8.46500 33.81600
C  39.48100 8.11600 32.35600
C  39.48200 7.30700 34.82900
C  40.44300 10.92800 34.48500
C  41.06000 11.22900 35.83300
H  40.17200 11.95200 36.80300
N  39.14200 7.11800 29.43200
C  38.29600 6.73900 30.50500
C  37.19500 6.06200 29.95500
C  37.36200 5.92300 28.56800
C  38.64600 6.49600 28.29200
C  36.09200 5.45300 30.76600
C  36.45200 5.23900 27.43100
O  36.77100 5.16900 26.19100
C  35.14500 4.77800 27.84200
N  41.36600 7.83700 27.46600
C  40.65500 7.07500 26.71300
C  41.27000 6.92900 25.31200
C  42.59800 7.68900 25.40600
C  42.49600 8.26000 26.82800
C  41.37800 5.47100 24.78800
C  42.84400 8.71700 24.28300
C  41.93200 9.95200 24.31100
N  42.64800 9.30800 29.62300
C  43.69900 9.49200 28.73300
C  44.73600 10.24800 29.32500
C  44.34600 10.43700 30.64600
C  43.06400 9.81800 30.80100
C  45.99300 10.73100 28.68100
C  44.83300 11.00400 31.90100
O  45.91800 11.47300 32.27300
C  43.59200 10.77500 32.89500
C  44.18000 10.12300 34.09800
O  44.55300 9.00500 34.23100
O  44.33900 11.13300 35.03100
C  44.98300 10.91100 36.28200
H  37.72800 7.19200 32.62400
H  38.96000 5.88500 26.32100
H  44.28800 9.40600 26.62200
H  41.60900 9.07700 34.55100
H  38.59100 9.03600 33.94300
H  39.44900 6.29200 34.43200
H  38.58500 7.30300 35.44700
H  40.33400 7.37400 35.50500
H  39.35500 10.93800 34.55000
H  40.68900 11.72000 33.77800
H  41.85700 11.87300 35.46100
H  41.55500 10.40300 36.34400
H  36.17200 4.36600 30.77200
H  35.05100 5.55800 30.46000
H  36.11500 5.72900 31.82000
H  34.71200 4.19600 27.02800
H  34.58700 5.61100 28.27000
H  35.28200 3.94100 28.52600
H  40.76800 7.54900 24.57000
H  43.34700 6.89700 25.43800
H  40.83000 5.41800 23.84800
H  40.95300 4.71300 25.44600
H  42.41200 5.27100 24.50700
H  42.85900 8.24800 23.29900
H  43.84700 9.13200 24.38100
H  41.15600 9.95400 25.07700
H  41.42700 10.11600 23.35900
H  42.56900 10.79200 24.58900
H  46.24200 9.89700 28.02400
H  46.74300 10.86900 29.46000
H  45.85000 11.71300 28.23000
H  43.17400 11.76400 33.08600
H  44.28400 10.44900 36.97900
H  45.36700 11.81400 36.75600
H  45.72200 10.19800 35.91600
Mg 35.60500 49.45200 25.48000
C  35.56400 47.46000 28.33700
C  34.34700 52.07000 27.24200
C  35.32100 51.05300 22.54300
C  36.61200 46.65600 23.66500
N  35.05500 49.68000 27.53000
C  35.22400 48.81900 28.58800
C  34.79700 49.39700 29.91300
C  34.42100 50.90700 29.49500
C  34.59900 50.90900 27.94400
C  32.97900 51.36800 29.98800
C  36.00800 49.37600 30.95200
C  35.68800 48.92100 32.37100
H  34.24400 49.12300 32.85800
N  35.04700 51.34800 24.96400
C  34.57500 52.29800 25.86200
C  34.22200 53.49900 25.13400
C  34.53100 53.21800 23.74500
C  35.00400 51.83800 23.69900
C  33.49000 54.70600 25.87900
C  34.34600 54.17300 22.59800
O  34.50800 53.81000 21.50000
C  34.22900 55.64000 22.81900
N  35.85000 48.92100 23.42900
C  35.66400 49.73100 22.38200
C  36.13000 49.10900 20.96000
C  36.69900 47.77000 21.36600
C  36.41500 47.80500 22.93900
C  34.93500 49.06500 19.94100
C  38.24700 47.50900 20.99700
C  38.60500 46.25000 20.28700
N  35.93200 47.42800 25.86500
C  36.37900 46.46500 25.05300
C  36.52000 45.18400 25.81100
C  36.30300 45.55400 27.12100
C  35.90000 46.94200 27.10700
C  37.01500 43.84000 25.22500
C  36.29000 45.13100 28.48400
O  36.59300 44.03800 28.90800
C  35.70400 46.28400 29.34400
C  34.41600 45.91300 29.99800
O  33.30900 45.98800 29.53400
O  34.66600 45.46700 31.30500
C  33.46200 45.02700 32.08100
H  33.95600 52.85900 27.88900
H  35.44400 51.48600 21.54800
H  36.89700 45.72900 23.16200
H  33.90700 48.85600 30.23600
H  35.17300 51.61800 29.83800
H  32.17200 51.55400 29.27900
H  32.98600 52.16400 30.73200
H  32.59500 50.53100 30.57100
H  36.20000 50.43500 31.12600
H  36.92300 48.89800 30.60200
H  36.49000 49.45800 32.87900
H  36.08700 47.90700 32.35400
H  33.80600 55.67000 25.48000
H  33.68500 54.67700 26.95100
H  32.41800 54.56200 25.73900
H  33.27300 56.06600 23.12200
H  34.48400 56.15900 21.89600
H  35.00300 56.00100 23.49700
H  36.85100 49.87200 20.66600
H  35.97300 47.02700 21.03700
H  35.36100 49.47300 19.02400
H  34.07000 49.64700 20.25900
H  34.62200 48.04100 19.74200
H  38.96400 47.82400 21.75500
H  38.38100 48.14800 20.12500
H  39.30800 45.70000 20.91300
H  39.01100 46.39300 19.28600
H  37.70800 45.63100 20.26200
H  37.52900 43.29900 26.01900
H  37.62600 44.00200 24.33800
H  36.18700 43.27900 24.79100
H  36.40400 46.42000 30.16700
H  33.81300 44.47100 32.95000
H  32.80400 44.39900 31.48000
H  32.92100 45.80800 32.61400

