158

Mg 29.83500 58.50500 40.28400
C  26.81800 57.00400 39.16200
C  31.55100 55.69800 38.95200
C  32.68600 60.47200 39.86800
C  28.02900 61.42000 40.82700
N  29.18700 56.58400 39.16200
C  27.94900 56.17000 38.84700
C  27.90100 54.87000 37.93600
C  29.37700 54.30600 38.23900
C  30.13900 55.61500 38.83300
C  29.33500 53.19400 39.33700
C  27.76500 55.23600 36.40800
C  27.40100 54.15400 35.42900
H  26.60200 54.64100 34.21100
N  31.86600 58.11200 39.68800
C  32.34700 56.93500 39.21300
C  33.79800 57.08200 39.04100
C  34.15100 58.46700 39.27600
C  32.87100 59.05600 39.65700
C  34.63200 55.95200 38.59100
C  35.50100 59.19700 39.07200
O  36.39700 58.64600 38.43500
C  35.80800 60.54800 39.59900
N  30.33300 60.66900 40.35000
C  31.54200 61.19300 40.25400
C  31.60700 62.70600 40.54500
C  30.15900 62.97500 40.90700
C  29.46400 61.63800 40.74400
C  32.68100 63.18800 41.55500
C  29.31500 64.08000 40.07700
C  28.56000 65.13800 40.88300
N  27.75900 59.09400 40.23400
C  27.24300 60.35800 40.48200
C  25.82300 60.23900 40.24500
C  25.60000 58.94600 39.78600
C  26.81600 58.31200 39.74700
C  24.76600 61.34300 40.42800
C  24.54900 58.06400 39.18800
O  23.38800 58.26400 38.92700
C  25.31000 56.66900 38.91400
C  24.89800 55.77300 40.00100
O  24.64700 56.03400 41.11400
O  24.76600 54.49800 39.46200
C  24.06000 53.46400 40.24600
H  32.09200 54.82400 38.58100
H  33.43300 61.24700 39.68500
H  27.50200 62.32100 41.14800
H  27.10200 54.18900 38.22800
H  29.93100 53.96900 37.36400
H  28.33000 52.82700 39.54500
H  29.65600 53.43500 40.35000
H  29.80100 52.30100 38.92000
H  28.71100 55.65800 36.06800
H  26.99500 56.00400 36.33300
H  26.75900 53.45500 35.96400
H  28.34100 53.70000 35.11600
H  34.27300 55.22900 39.32300
H  35.71600 56.05600 38.64000
H  34.37500 55.62600 37.58400
H  36.89400 60.56000 39.70100
H  35.28800 60.44200 40.55000
H  35.43500 61.26900 38.87200
H  31.83300 63.30400 39.66100
H  30.05300 63.21300 41.96500
H  32.17600 63.48300 42.47500
H  33.20800 64.08400 41.22800
H  33.42500 62.45600 41.86900
H  28.66300 63.56000 39.37600
H  30.06500 64.62200 39.50200
H  28.76500 65.05400 41.95000
H  27.49800 64.99400 40.68200
H  28.84700 66.16100 40.64100
H  25.15000 61.94500 41.25100
H  23.80800 60.87900 40.65800
H  24.90900 61.95000 39.53300
H  25.18400 56.24500 37.91800
H  23.53700 52.86400 39.50100
H  23.29300 53.96300 40.83900
H  24.73300 52.84400 40.83900
Mg 16.14800 53.37900 25.30000
C  17.54000 52.09300 28.17700
C  13.40200 54.44000 27.16000
C  14.66300 54.21800 22.31400
C  18.68200 51.71800 23.41900
N  15.63000 53.25100 27.37500
C  16.35200 52.82000 28.39200
C  15.73100 53.13800 29.73400
C  14.28900 53.45700 29.38800
C  14.42900 53.64200 27.87900
C  13.18100 52.50600 29.84200
C  16.52100 54.22300 30.55000
C  17.13900 53.73100 31.84800
H  16.19000 53.00000 32.86200
N  14.38500 54.39600 24.84500
C  13.39500 54.73100 25.77500
C  12.30300 55.37100 25.03200
C  12.61300 55.18600 23.62800
C  13.96200 54.61800 23.54300
C  11.17200 56.07600 25.80200
C  11.72900 55.42500 22.39000
O  12.00300 55.18700 21.20400
C  10.43900 56.16000 22.66400
N  16.55300 52.85900 23.07500
C  15.88800 53.45700 22.11900
C  16.41600 53.06700 20.67500
C  17.76200 52.45700 21.07800
C  17.68800 52.24700 22.63900
C  15.46200 52.12100 19.84900
C  19.00300 53.32500 20.64200
C  20.08000 52.52300 19.88700
N  17.92000 52.25600 25.63900
C  18.84800 51.71500 24.83900
C  19.90800 51.15200 25.66700
C  19.42700 51.28600 26.99000
C  18.20000 51.91600 26.93600
C  21.18700 50.51200 25.18100
C  19.74700 50.96000 28.44500
O  20.71400 50.42200 28.97100
C  18.49100 51.50900 29.21300
C  18.04300 50.49400 30.18600
O  17.20300 49.61600 30.01300
O  18.85700 50.60100 31.27300
C  18.64600 49.65200 32.35100
H  12.51200 54.77200 27.69800
H  14.31400 54.71000 21.40300
H  19.42600 51.19400 22.81600
H  15.69200 52.25500 30.37100
H  14.05900 54.39100 29.90000
H  13.49800 51.49600 30.10200
H  12.31700 52.31100 29.20800
H  12.74200 53.10700 30.63800
H  15.87700 55.07100 30.78100
H  17.33100 54.46500 29.86100
H  17.44400 54.52200 32.53300
H  18.05800 53.25600 31.50400
H  11.00700 56.99200 25.23400
H  11.46200 56.40000 26.80200
H  10.22900 55.53000 25.82600
H  9.86400 56.17300 21.73900
H  10.70200 57.19700 22.87600
H  9.88400 55.84800 23.54900
H  16.63000 53.98700 20.13000
H  17.80100 51.48200 20.59300
H  15.15400 52.69400 18.97500
H  14.72100 51.76600 20.56600
H  16.07700 51.26600 19.56700
H  19.47800 53.71400 21.54200
H  18.75700 54.19100 20.02700
H  20.71500 53.09000 19.20700
H  19.68200 51.66300 19.35000
H  20.77900 51.98400 20.52700
H  21.57200 50.94200 24.25600
H  20.84200 49.49000 25.02300
H  21.91200 50.46600 25.99400
H  18.88800 52.37600 29.74100
H  18.55000 48.64600 31.94300
H  17.67600 49.92500 32.76700
H  19.47900 49.71100 33.05100

