158

Mg 0.68900 -2.01800 45.29900
C  4.19100 -1.16100 44.49500
C  -0.30900 0.70000 43.54700
C  -2.41400 -3.24700 45.42600
C  2.04300 -5.18400 46.33800
N  1.83900 -0.50900 44.08200
C  3.21800 -0.25000 43.92900
C  3.46200 1.17600 43.42200
C  2.00100 1.70300 43.15800
C  1.07600 0.56800 43.66600
C  1.71000 3.04700 43.93100
C  4.42100 1.29600 42.14800
C  5.24600 2.68800 42.06000
H  5.41700 3.19300 40.57000
N  -1.16100 -1.36700 44.61600
C  -1.37300 -0.20800 43.93500
C  -2.79800 -0.06900 43.59200
C  -3.44900 -1.26400 44.08600
C  -2.32800 -2.01700 44.72700
C  -3.46300 1.10500 42.82000
C  -4.97100 -1.58300 44.06400
O  -5.74900 -0.83100 43.48100
C  -5.55000 -2.81900 44.75300
N  -0.01300 -3.97800 45.69700
C  -1.41600 -4.08000 45.92100
C  -1.71500 -5.42500 46.62700
C  -0.28800 -6.11900 46.83700
C  0.61500 -5.04200 46.28200
C  -2.58300 -5.35700 47.90900
C  -0.18300 -7.39600 45.96300
C  -0.29500 -8.72200 46.73400
N  2.69800 -2.95700 45.54300
C  3.06500 -4.24600 45.95200
C  4.47500 -4.37600 46.09700
C  5.00400 -3.24200 45.52700
C  3.88400 -2.40100 45.14600
C  5.19100 -5.53200 46.88100
C  6.21300 -2.50600 45.31500
O  7.38300 -2.79900 45.56300
C  5.76800 -1.10300 44.64000
C  6.25400 -0.01400 45.52000
O  6.17800 0.00000 46.71800
O  6.91300 0.97900 44.79500
C  7.53900 2.05400 45.65500
H  -0.62600 1.72700 43.35300
H  -3.38200 -3.70900 45.63000
H  2.20800 -6.16700 46.78400
H  3.80700 1.65700 44.33700
H  1.81800 1.87200 42.09700
H  1.96300 3.79200 43.17600
H  2.41600 3.12000 44.75800
H  0.67200 3.12500 44.25500
H  3.87100 1.36000 41.20900
H  5.10100 0.44500 42.18100
H  6.26300 2.68400 42.45200
H  4.68500 3.43200 42.62500
H  -2.88800 2.03100 42.79500
H  -4.29300 1.56500 43.35600
H  -3.82500 0.74600 41.85700
H  -5.18800 -2.72500 45.77700
H  -5.20900 -3.67700 44.17200
H  -6.63800 -2.84500 44.79600
H  -2.31200 -5.86600 45.82900
H  -0.17700 -6.50400 47.85100
H  -3.22000 -4.47300 47.86800
H  -1.90600 -5.16400 48.74100
H  -3.14400 -6.27200 48.10200
H  0.82000 -7.54600 45.56500
H  -0.87000 -7.43100 45.11700
H  -1.06100 -9.41800 46.39300
H  -0.79000 -8.35000 47.63100
H  0.56000 -9.39500 46.79600
H  5.44300 -5.00500 47.80200
H  6.08800 -5.69200 46.28400
H  4.52600 -6.38100 47.04000
H  6.29900 -0.93700 43.70300
H  8.30600 1.59000 46.27500
H  6.88300 2.63400 46.30400
H  8.08700 2.73900 45.00700
Mg 40.70700 9.76400 29.26300
C  42.61900 10.82800 31.93600
C  38.63400 8.01200 31.42900
C  39.34800 7.87700 26.52700
C  43.24000 10.87700 27.07100
N  40.76000 9.35900 31.51700
C  41.50700 10.08100 32.41300
C  41.02400 9.82600 33.81100
C  39.64500 9.14200 33.58800
C  39.69600 8.74500 32.09300
C  39.37600 7.86600 34.49500
C  40.98200 10.99100 34.75600
C  41.46200 10.75600 36.21900
H  40.86500 11.47100 37.38200
N  39.14800 8.28500 29.00800
C  38.32500 7.78100 30.02300
C  37.29200 6.98700 29.45200
C  37.49900 6.92700 28.08400
C  38.70200 7.74300 27.81800
C  36.15600 6.30600 30.36400
C  36.63600 6.23900 27.00800
O  36.86800 6.40300 25.79900
C  35.44500 5.37800 27.37000
N  41.26100 9.33700 27.11100
C  40.49400 8.55600 26.22800
C  40.91300 8.87100 24.81800
C  42.19000 9.78800 25.03000
C  42.27100 10.00200 26.48800
C  41.19100 7.55900 24.06900
C  42.26500 10.98600 24.11500
C  41.75400 12.36200 24.61800
N  42.52400 10.82100 29.41100
C  43.45300 11.19900 28.43100
C  44.58200 11.85800 29.08200
C  44.28300 11.77700 30.44800
C  43.03200 11.07400 30.60300
C  45.68500 12.55000 28.39500
C  44.72300 12.18300 31.75400
O  45.67900 12.79000 32.17000
C  43.65000 11.57300 32.72200
C  44.39300 10.72100 33.77200
O  44.66700 9.54200 33.79200
O  44.82300 11.59600 34.74300
C  45.51700 11.14100 35.90100
H  37.85700 7.68900 32.12500
H  38.89400 7.35800 25.68100
H  43.91000 11.33800 26.34200
H  41.80700 9.17900 34.20600
H  38.79100 9.81200 33.69100
H  39.84600 7.00400 34.02100
H  38.33600 7.63200 34.72300
H  39.80500 7.93800 35.49400
H  39.91200 11.17700 34.84200
H  41.37600 11.90500 34.31100
H  42.48900 11.12100 36.24900
H  41.33800 9.73800 36.58800
H  36.24500 5.22000 30.32700
H  35.17700 6.53700 29.94400
H  36.14200 6.71200 31.37600
H  34.96100 5.16200 26.41700
H  34.80800 5.98700 28.01100
H  35.76400 4.53400 27.98200
H  40.11300 9.48000 24.39700
H  43.08500 9.21000 24.80100
H  42.18600 7.55900 23.62200
H  40.56100 7.33400 23.20900
H  41.21900 6.69200 24.72900
H  41.76900 10.73100 23.17900
H  43.29700 11.17200 23.81800
H  42.58600 13.03400 24.82900
H  41.19800 12.24600 25.54800
H  41.15100 12.81000 23.82800
H  45.47000 12.59100 27.32700
H  46.57100 11.92400 28.50000
H  45.86600 13.47300 28.94700
H  43.08100 12.33700 33.25200
H  44.86200 11.26400 36.76300
H  46.30900 11.87100 36.06800
H  45.83500 10.09800 35.89200

