158

Mg -1.82200 16.92200 25.85600
C  -2.31600 14.59600 28.54700
C  -2.43600 19.41100 28.19300
C  -1.57400 19.02100 23.40300
C  -1.67200 14.09700 23.72800
N  -2.54400 17.01000 28.10100
C  -2.41100 15.95800 28.94500
C  -2.55800 16.40700 30.43300
C  -2.69000 17.98500 30.20500
C  -2.64900 18.14200 28.76300
C  -3.87900 18.66000 30.89300
C  -1.56200 16.06600 31.51700
C  -1.34300 16.91000 32.77700
H  -1.89800 16.36100 34.15900
N  -1.94300 18.95300 25.83100
C  -2.18000 19.81400 26.88700
C  -2.00000 21.14200 26.39000
C  -1.71000 21.01800 24.99300
C  -1.62300 19.59900 24.68600
C  -2.19800 22.39500 27.23600
C  -1.55700 22.16900 23.98100
O  -1.35400 21.90400 22.83600
C  -1.60200 23.57200 24.35300
N  -1.74000 16.59700 23.87800
C  -1.55500 17.68100 23.00500
C  -1.51200 17.23900 21.59000
C  -1.14300 15.73200 21.78800
C  -1.58900 15.42900 23.20700
C  -2.81900 17.63700 20.82400
C  0.30800 15.26300 21.41700
C  1.50200 15.43800 22.49000
N  -2.13800 14.79200 26.00700
C  -1.94900 13.77100 25.09600
C  -2.10300 12.49500 25.69000
C  -2.27900 12.76500 27.09400
C  -2.27200 14.17700 27.16100
C  -2.11900 11.16400 25.06700
C  -2.30900 12.13900 28.35000
O  -2.30200 10.97200 28.72100
C  -2.37700 13.29900 29.36500
C  -1.20300 13.09600 30.26400
O  -0.05900 13.52200 30.04500
O  -1.68800 12.46300 31.43400
C  -0.79800 12.31800 32.50600
H  -2.58000 20.21600 28.91600
H  -1.47200 19.73800 22.58600
H  -1.60500 13.30500 22.97800
H  -3.54600 16.04500 30.71900
H  -1.77800 18.49100 30.52200
H  -4.50100 19.13900 30.13800
H  -3.61200 19.43400 31.61300
H  -4.53300 17.90800 31.33400
H  -0.61000 15.89100 31.01500
H  -1.88200 15.13100 31.97800
H  -1.89500 17.83000 32.58500
H  -0.28500 17.12200 32.93300
H  -2.50600 22.38200 28.28100
H  -2.91200 23.07000 26.76100
H  -1.21400 22.85600 27.15200
H  -2.60100 23.82200 24.71000
H  -1.34000 24.18300 23.49000
H  -0.80100 23.65900 25.08700
H  -0.66400 17.75800 21.14500
H  -1.79000 15.14200 21.13800
H  -3.43000 16.74300 20.69500
H  -2.72700 17.97400 19.79100
H  -3.41900 18.32300 21.42300
H  0.66400 15.65700 20.46500
H  0.11700 14.20900 21.21900
H  2.33700 15.96300 22.02500
H  1.84400 14.46500 22.84300
H  1.20000 16.03100 23.35300
H  -2.80200 10.57400 25.67800
H  -1.11300 10.74400 25.06900
H  -2.54200 11.31200 24.07400
H  -3.32100 13.26500 29.90900
H  0.01500 13.03300 32.63300
H  -0.25000 11.37600 32.53800
H  -1.45300 12.37700 33.37500
Mg 8.60400 48.94500 28.59700
C  6.67700 47.87500 31.25600
C  11.37200 48.89900 30.52700
C  10.32700 50.16200 26.00900
C  5.58200 49.54500 26.76300
N  8.95400 48.59200 30.75600
C  8.00600 48.04600 31.65500
C  8.69000 47.89900 33.08800
C  10.20900 48.33700 32.80200
C  10.18200 48.73300 31.27200
C  10.67300 49.50200 33.79200
C  8.65100 46.45600 33.72800
C  9.78100 45.87900 34.67800
H  9.53600 45.02100 35.97500
N  10.57600 49.31800 28.26200
C  11.60600 49.11400 29.17500
C  12.86300 49.12200 28.48100
C  12.63700 49.44500 27.14100
C  11.15200 49.65400 27.06900
C  14.16700 48.68800 29.18200
C  13.55300 49.43400 25.96600
O  13.11500 49.61500 24.84400
C  15.03900 49.24600 26.16900
N  7.93100 49.61000 26.58000
C  8.90300 50.20600 25.77800
C  8.30800 50.94500 24.56400
C  6.76300 50.65000 24.78900
C  6.74400 49.96500 26.16300
C  8.53200 52.50900 24.43900
C  6.05800 49.70000 23.70500
C  6.80800 48.49400 23.22700
N  6.55800 48.68100 28.83900
C  5.43900 48.85700 27.98800
C  4.25500 48.33800 28.63900
C  4.69100 47.99100 29.93100
C  6.15200 48.15200 30.00600
C  2.91700 48.09900 27.95300
C  4.21800 47.35900 31.20600
O  3.11400 46.98300 31.57500
C  5.53400 47.31500 32.10900
C  5.68100 45.95200 32.60700
O  6.05600 44.98000 31.99000
O  5.15900 45.86600 33.86100
C  5.24000 44.53700 34.47400
H  12.21800 48.70800 31.19100
H  10.90400 50.50300 25.14700
H  4.61000 49.71700 26.29500
H  8.17400 48.62200 33.72100
H  10.93400 47.52900 32.89700
H  10.86500 50.43700 33.26700
H  11.58500 49.13400 34.26300
H  9.93300 49.56000 34.59000
H  8.43300 45.74300 32.93300
H  7.68600 46.51100 34.23400
H  10.41400 46.70300 35.00700
H  10.39900 45.22400 34.06500
H  14.73000 47.84100 28.79200
H  13.95800 48.32300 30.18800
H  14.86000 49.52700 29.25300
H  15.34000 49.92700 26.96500
H  15.48800 49.54400 25.22100
H  15.28300 48.18500 26.20900
H  8.65300 50.55800 23.60500
H  6.05100 51.45100 24.99000
H  7.58500 53.04700 24.39200
H  9.13800 52.71300 23.55600
H  8.99700 52.89800 25.34400
H  6.01800 50.25900 22.77000
H  5.10700 49.32400 24.08300
H  7.11700 48.52600 22.18200
H  6.18300 47.61000 23.35100
H  7.66300 48.33900 23.88500
H  3.08800 47.74700 26.93500
H  2.33100 49.01700 27.92800
H  2.41500 47.33900 28.55200
H  5.32800 47.93000 32.98400
H  4.85300 43.67000 33.93800
H  4.52200 44.60800 35.29100
H  6.24400 44.25500 34.79100

