158

Mg 35.53800 1.28900 29.79500
C  33.24000 2.43500 32.32000
C  37.97900 1.42000 32.22600
C  37.81200 0.78300 27.40900
C  32.98600 1.85200 27.41100
N  35.60100 1.93900 31.93100
C  34.54100 2.20300 32.80200
C  34.94100 2.28000 34.24700
C  36.58600 2.36600 34.13700
C  36.73500 1.88500 32.71200
C  37.20900 3.73200 34.48700
C  34.42600 1.12100 34.98600
C  34.43400 1.24700 36.50800
H  35.21100 2.35100 37.22000
N  37.62400 0.83400 29.80200
C  38.42700 1.05300 30.90600
C  39.83300 0.79700 30.50000
C  39.78400 0.53900 29.06500
C  38.36700 0.78900 28.68800
C  40.94100 0.84500 31.47100
C  40.89400 0.30900 28.15100
O  40.79800 0.17000 26.94100
C  42.29400 0.27400 28.70200
N  35.35700 1.14600 27.70800
C  36.47500 0.89700 26.97600
C  36.12600 0.75500 25.45300
C  34.57700 1.10700 25.45300
C  34.27600 1.43400 26.95700
C  37.07400 1.69200 24.55100
C  33.76600 -0.05600 24.89000
C  33.33500 -1.15700 25.83200
N  33.54800 2.08100 29.78700
C  32.61000 2.13300 28.72500
C  31.31500 2.56300 29.25400
C  31.57100 2.66200 30.63800
C  32.91100 2.41300 30.93800
C  30.07500 2.88400 28.45300
C  30.86900 3.00800 31.88300
O  29.66200 3.37600 31.99200
C  31.91400 2.84500 33.03400
C  31.96800 4.15900 33.76300
O  32.30500 5.23400 33.23700
O  31.79300 3.95300 35.10500
C  31.72900 5.23200 35.86300
H  38.75500 1.34700 32.99100
H  38.56200 0.72900 26.61700
H  32.18600 1.92500 26.67200
H  34.56400 3.21200 34.66900
H  37.03900 1.64800 34.82000
H  38.04800 3.67800 35.17900
H  36.50300 4.50600 34.78800
H  37.64700 4.15400 33.58200
H  34.96600 0.21600 34.70400
H  33.42200 0.79300 34.71800
H  34.57700 0.25000 36.92400
H  33.39600 1.50200 36.71900
H  41.40200 -0.13800 31.57100
H  40.57400 1.18600 32.43900
H  41.76800 1.47500 31.14400
H  42.73900 1.22700 28.98700
H  43.00700 -0.21200 28.03600
H  42.29700 -0.40800 29.55300
H  36.34400 -0.28000 25.18800
H  34.27500 1.94500 24.82500
H  37.77100 1.01600 24.05500
H  37.66000 2.43400 25.09300
H  36.58400 2.19900 23.71900
H  34.36400 -0.50600 24.09700
H  32.89200 0.37300 24.40000
H  33.73600 -1.04500 26.84000
H  33.60600 -2.15600 25.49100
H  32.26600 -1.09200 26.03200
H  30.33100 2.82200 27.39500
H  29.67900 3.87100 28.68800
H  29.29200 2.15800 28.67300
H  31.62800 2.01900 33.68500
H  31.03200 5.94000 35.41400
H  32.74100 5.62800 35.95000
H  31.36800 4.83500 36.81100
Mg -8.98900 19.04800 42.66600
C  -5.62200 18.70900 42.85700
C  -8.60900 22.39800 41.89700
C  -12.40600 19.32200 42.25500
C  -9.28300 15.55500 42.54600
N  -7.30000 20.34800 42.39300
C  -5.99400 20.01900 42.51800
C  -5.06600 21.20600 42.25000
C  -6.09300 22.34700 42.11700
C  -7.45200 21.65800 42.16100
C  -5.95500 23.54400 43.14500
C  -4.21600 20.89100 40.98200
C  -4.78700 20.06200 39.74700
H  -4.33400 20.51700 38.35300
N  -10.38100 20.66600 42.05500
C  -9.97600 21.96600 41.86000
C  -11.16700 22.76500 41.66800
C  -12.33600 21.89400 41.91400
C  -11.72000 20.53400 42.06200
C  -11.17200 24.16600 41.13300
C  -13.72800 22.36800 41.84900
O  -13.96100 23.55100 41.61600
C  -14.99700 21.44400 41.96600
N  -10.59800 17.63100 42.15900
C  -11.88700 18.00800 42.27700
C  -12.84900 16.79500 42.37000
C  -11.87400 15.55500 42.10700
C  -10.47000 16.23700 42.24500
C  -13.54600 16.74000 43.71000
C  -12.10000 14.79800 40.69900
C  -12.19700 13.29200 40.73000
N  -7.76900 17.46700 42.74400
C  -7.95600 16.09300 42.74800
C  -6.81100 15.37300 43.02300
C  -5.80200 16.40400 43.05100
C  -6.46000 17.61500 42.82900
C  -6.70500 13.90800 43.07500
C  -4.40700 16.67800 43.28600
O  -3.45900 15.92600 43.61300
C  -4.22200 18.16200 43.19300
C  -3.70400 18.80800 44.38000
O  -2.68500 19.53600 44.40300
O  -4.48900 18.31000 45.43100
C  -4.01000 18.67500 46.84100
H  -8.53100 23.48600 41.84000
H  -13.49600 19.38500 42.27400
H  -9.34400 14.48000 42.72700
H  -4.43100 21.20800 43.13700
H  -6.04000 22.91500 41.18700
H  -5.85600 24.46900 42.57600
H  -5.06100 23.44000 43.76000
H  -6.82600 23.55100 43.80100
H  -3.26000 20.43700 41.24100
H  -3.85700 21.83600 40.57500
H  -5.87000 20.13600 39.65900
H  -4.62900 18.98500 39.81000
H  -11.76100 24.20600 40.21700
H  -10.11500 24.39400 40.99700
H  -11.59800 24.77100 41.93300
H  -14.98000 20.90800 42.91500
H  -14.96600 20.60400 41.27200
H  -15.85600 22.09500 41.80100
H  -13.61100 16.96100 41.60900
H  -11.90400 14.75300 42.84400
H  -14.56400 16.37700 43.56700
H  -13.59500 17.70700 44.21100
H  -13.01300 16.17300 44.47300
H  -11.25100 15.07800 40.07600
H  -12.98900 15.10300 40.14600
H  -12.98700 12.86200 40.11500
H  -12.14800 12.83800 41.72000
H  -11.39800 12.90100 40.10000
H  -5.72400 13.56800 42.74300
H  -7.33400 13.50100 42.28400
H  -6.97000 13.36900 43.98500
H  -3.54100 18.46800 42.39900
H  -2.96700 18.97300 46.73300
H  -4.04300 17.80500 47.49600
H  -4.48200 19.59600 47.18400

