158

Mg 25.01600 -6.90900 46.87000
C  27.55100 -4.73900 46.10900
C  22.88100 -5.17600 44.70800
C  22.95700 -9.58600 46.89800
C  27.34200 -8.81800 48.73300
N  25.30500 -5.24300 45.52000
C  26.44400 -4.45300 45.30400
C  26.29200 -3.49100 44.20900
C  24.63600 -3.42300 43.97400
C  24.21100 -4.68700 44.83100
C  24.01900 -2.09200 44.41100
C  27.05300 -3.84300 42.94900
C  27.78400 -2.59400 42.34900
H  27.48800 -2.23600 40.86800
N  23.15100 -7.33200 45.93200
C  22.40200 -6.43200 45.27700
C  21.09700 -7.05900 44.96700
C  21.16300 -8.37700 45.43000
C  22.43200 -8.49800 46.14200
C  19.93700 -6.34700 44.28400
C  19.98100 -9.36300 45.29100
O  19.04400 -9.07400 44.50600
C  19.89300 -10.69300 45.97400
N  25.10100 -8.99300 47.72800
C  24.05100 -9.80100 47.72000
C  24.27600 -11.17400 48.37400
C  25.63000 -10.76300 49.11000
C  26.07000 -9.45500 48.48000
C  23.13600 -11.67700 49.25900
C  26.75200 -11.78700 49.05100
C  27.38900 -12.20800 50.38100
N  27.02300 -6.77800 47.47600
C  27.78300 -7.62500 48.24600
C  29.12400 -6.98700 48.44700
C  28.99600 -5.83000 47.64400
C  27.72100 -5.73100 47.09200
C  30.29300 -7.55500 49.28600
C  29.76100 -4.71800 47.17900
O  30.96900 -4.51000 47.39400
C  28.89200 -3.97300 46.11800
C  28.72300 -2.61800 46.53500
O  28.01100 -2.26900 47.48700
O  29.32400 -1.84000 45.63300
C  28.89600 -0.40200 45.57200
H  22.18800 -4.62600 44.06700
H  22.32800 -10.47900 46.89000
H  28.12800 -9.30800 49.31000
H  26.56000 -2.48900 44.54400
H  24.45400 -3.52100 42.90300
H  24.61400 -1.22300 44.69200
H  23.24400 -2.15600 45.17500
H  23.51000 -1.75900 43.50700
H  26.40600 -4.27400 42.18500
H  27.80000 -4.59800 43.19400
H  28.81400 -2.88500 42.55500
H  27.82100 -1.74900 43.03600
H  19.87200 -6.90400 43.34900
H  20.02000 -5.30400 43.97900
H  19.01900 -6.60000 44.81300
H  19.98100 -10.65600 47.06000
H  20.73900 -11.25900 45.58400
H  19.01900 -11.26300 45.66100
H  24.52700 -11.98200 47.68600
H  25.25700 -10.48400 50.09600
H  23.25600 -11.45900 50.32000
H  23.03300 -12.74900 49.09200
H  22.17100 -11.19800 49.09700
H  27.58100 -11.44900 48.43000
H  26.42700 -12.75000 48.65700
H  27.33900 -13.29000 50.50400
H  26.93300 -11.59900 51.16200
H  28.42600 -11.87600 50.41000
H  29.76400 -8.15500 50.02700
H  30.77900 -6.69000 49.73600
H  30.94100 -8.11300 48.60900
H  29.22900 -4.03600 45.08300
H  29.27300 0.00000 44.63200
H  29.24100 0.18600 46.42200
H  27.80800 -0.39200 45.51000
Mg 26.32700 50.65700 26.71600
C  24.13600 51.45500 29.48500
C  28.66900 49.79700 28.95900
C  28.44000 50.42700 24.20800
C  23.87000 51.98700 24.60300
N  26.33500 50.77300 28.97500
C  25.37800 51.03900 29.92500
C  25.82600 50.71900 31.33400
C  27.29600 50.31500 31.10200
C  27.44800 50.28400 29.57800
C  28.34600 51.23800 31.74000
C  24.97700 49.67500 32.13300
C  24.64600 50.12100 33.62700
H  25.63700 50.60200 34.57500
N  28.23400 50.05900 26.55600
C  29.03300 49.69900 27.60600
C  30.29000 49.17900 27.10800
C  30.26600 49.52000 25.72200
C  28.91000 50.00000 25.40200
C  31.40400 48.62000 27.93400
C  31.34100 49.47300 24.70700
O  31.16000 49.76200 23.52500
C  32.60300 49.04100 25.12400
N  26.29200 51.49600 24.80500
C  27.24500 51.17200 23.90900
C  26.79800 51.22200 22.40600
C  25.38100 51.73400 22.52500
C  25.12700 51.81600 24.03600
C  27.72400 52.08600 21.48300
C  24.44200 50.80500 21.65300
C  23.54100 49.75600 22.30800
N  24.40800 51.58800 26.95700
C  23.47400 52.00500 25.98400
C  22.16400 52.26500 26.58600
C  22.42700 52.19000 27.95200
C  23.76700 51.61500 28.11100
C  20.95100 52.78400 25.85200
C  21.85100 52.43700 29.21400
O  20.81200 52.99300 29.50300
C  22.88000 51.83300 30.31900
C  23.19700 52.93900 31.24300
O  24.21400 53.61200 31.22100
O  22.32500 52.89300 32.24500
C  22.48500 53.77100 33.36400
H  29.32600 49.20900 29.60300
H  28.95500 50.20600 23.27100
H  23.10300 52.26100 23.87500
H  25.81200 51.66100 31.88200
H  27.37500 49.31100 31.51800
H  27.88900 52.22700 31.75300
H  29.24100 51.18200 31.12000
H  28.63000 50.98200 32.76100
H  25.43200 48.69000 32.03800
H  24.00800 49.58700 31.64200
H  24.05000 49.25500 33.91500
H  23.88600 50.89100 33.50100
H  31.07200 48.29000 28.91800
H  32.25700 49.29200 28.01900
H  31.67300 47.66600 27.48200
H  33.18200 48.89500 24.21100
H  32.53400 48.07200 25.61900
H  32.98100 49.68200 25.92000
H  26.81600 50.19100 22.05200
H  25.22000 52.73200 22.11600
H  28.23800 51.49800 20.72200
H  28.39600 52.53900 22.21100
H  27.18500 52.91900 21.03200
H  25.10900 50.29900 20.95500
H  23.73400 51.51600 21.22600
H  23.93600 49.45200 23.27800
H  23.67000 48.91400 21.62800
H  22.51600 50.10500 22.18200
H  20.87500 53.86300 25.71700
H  20.12600 52.68500 26.55800
H  20.70100 52.29000 24.91300
H  22.22900 51.12200 30.82800
H  22.66600 54.81100 33.09000
H  23.34700 53.45400 33.95200
H  21.55900 53.58600 33.90800

