158

Mg 24.44300 1.91600 29.51700
C  26.68700 1.77100 32.32900
C  21.87600 1.90300 31.74400
C  22.42800 1.87400 26.91700
C  27.22000 1.34300 27.37000
N  24.26600 1.79300 31.86200
C  25.32800 1.83100 32.79300
C  24.78600 1.90300 34.21000
C  23.21800 1.94800 33.99300
C  23.10000 1.91300 32.46300
C  22.44200 0.86700 34.68000
C  25.46600 3.12700 34.94300
C  24.74400 3.56200 36.25400
H  25.54100 3.67500 37.52600
N  22.51700 1.79400 29.30900
C  21.60600 1.95900 30.40500
C  20.26400 1.89900 29.87300
C  20.39500 2.01100 28.47400
C  21.82900 1.89000 28.17600
C  19.07400 1.90600 30.74900
C  19.22800 2.16000 27.36700
O  19.45800 2.26600 26.14900
C  17.79500 2.06300 27.76600
N  24.79700 1.65700 27.54900
C  23.79900 1.84000 26.64000
C  24.25400 1.93700 25.12000
C  25.81000 1.92100 25.36600
C  25.96800 1.58300 26.83300
C  23.67400 0.90400 24.17800
C  26.52800 3.28300 25.01500
C  25.98100 4.58000 25.64800
N  26.52500 1.64400 29.74400
C  27.51400 1.28800 28.78900
C  28.73600 1.08700 29.42800
C  28.43600 1.33700 30.80300
C  27.11300 1.69400 30.94800
C  30.06700 0.68600 28.82200
C  29.07100 1.32100 32.09100
O  30.24300 1.12900 32.38200
C  28.01400 1.78200 33.16900
C  28.06100 0.74700 34.28100
O  27.78700 -0.40900 34.10500
O  28.50800 1.27800 35.49100
C  28.64500 0.28800 36.57400
H  21.07400 2.07800 32.46500
H  21.70800 1.93300 26.09800
H  27.94600 1.35900 26.55500
H  25.16200 0.96400 34.61700
H  22.81100 2.91500 34.28600
H  21.88000 0.36300 33.89300
H  21.76900 1.33300 35.40000
H  23.05300 0.20300 35.29200
H  25.54400 4.00600 34.30400
H  26.50700 2.93400 35.20300
H  23.93400 2.87200 36.48700
H  24.32300 4.52100 35.95200
H  18.08700 2.02500 30.30100
H  19.22700 2.66600 31.51500
H  18.93900 0.96000 31.27300
H  17.19800 2.12000 26.85600
H  17.38300 2.88000 28.35800
H  17.67200 1.16600 28.37400
H  23.96100 2.93200 24.78600
H  26.32400 1.18400 24.74900
H  23.20700 0.12600 24.78200
H  24.52800 0.44300 23.68000
H  23.00700 1.32100 23.42300
H  26.57500 3.28500 23.92600
H  27.59500 3.21200 25.23100
H  26.92300 4.98600 26.01700
H  25.23200 4.40200 26.42000
H  25.60800 5.19600 24.83000
H  29.89100 0.22300 27.85100
H  30.55500 -0.07000 29.43700
H  30.60200 1.61900 28.64600
H  28.26200 2.78400 33.52000
H  27.96500 0.53800 37.38800
H  29.67300 0.12400 36.89900
H  28.45300 -0.74900 36.30000
Mg 34.41100 2.86400 29.20300
C  32.43100 4.11800 31.72900
C  37.05800 2.46300 31.67600
C  36.59700 2.49400 26.72800
C  31.96500 3.74100 26.86100
N  34.70600 3.20900 31.48300
C  33.70300 3.69100 32.24200
C  34.09500 3.66100 33.74900
C  35.60100 3.40000 33.63400
C  35.83700 3.05900 32.19600
C  36.45500 4.71900 34.00500
C  33.27600 2.67600 34.60000
C  33.07500 3.26500 36.02200
H  34.05800 4.28400 36.58600
N  36.45800 2.30900 29.18000
C  37.30300 2.19200 30.28200
C  38.60400 1.79300 29.78300
C  38.65900 1.99500 28.36700
C  37.20800 2.31400 28.00900
C  39.74800 1.55000 30.67300
C  39.80000 1.86600 27.33800
O  39.56900 1.99900 26.11600
C  41.23300 1.54700 27.63600
N  34.26500 3.13700 27.18700
C  35.26800 2.81600 26.37700
C  34.97700 3.00800 24.90800
C  33.47300 3.08100 24.90800
C  33.17400 3.25400 26.41800
C  35.74300 4.10700 24.28600
C  32.66000 1.84400 24.35400
C  32.32500 0.64500 25.14200
N  32.56900 3.77800 29.21800
C  31.64200 3.93900 28.21900
C  30.36900 4.42500 28.75600
C  30.59100 4.47200 30.14700
C  31.99000 4.15200 30.35300
C  29.18400 4.65900 27.94100
C  30.05100 4.84700 31.41000
O  28.94200 5.27600 31.73000
C  31.21400 4.55200 32.50300
C  31.31300 5.82800 33.21100
O  32.11500 6.69700 32.99500
O  30.37500 5.93200 34.22900
C  30.46200 7.04900 35.18000
H  37.77500 2.30600 32.48500
H  37.22500 2.46600 25.83400
H  31.25400 3.92100 26.05300
H  33.86000 4.66800 34.09600
H  36.00500 2.63100 34.29200
H  36.92100 4.43200 34.94700
H  35.83300 5.56100 34.30800
H  37.08900 4.93700 33.14500
H  33.95800 1.84800 34.79000
H  32.32800 2.38700 34.14500
H  33.09800 2.43400 36.72600
H  32.15100 3.84000 35.97300
H  40.14000 0.56900 30.40500
H  39.53800 1.53100 31.74200
H  40.43200 2.39500 30.59500
H  41.53100 2.12200 28.51200
H  41.93700 1.77400 26.83500
H  41.33200 0.48400 27.85900
H  35.16000 2.06600 24.39100
H  33.07200 4.02500 24.53800
H  36.44000 4.67200 24.90600
H  35.03900 4.74700 23.75400
H  36.35100 3.58600 23.54700
H  33.27600 1.41500 23.56400
H  31.79100 2.29500 23.87400
H  31.23600 0.61600 25.11400
H  32.54700 0.82100 26.19400
H  32.81500 -0.25100 24.76300
H  29.32200 5.42400 27.17700
H  28.26300 4.67700 28.52300
H  29.04700 3.70800 27.42500
H  30.95300 3.84000 33.28600
H  29.55000 7.10200 35.77400
H  30.54600 7.92000 34.53000
H  31.34000 6.97700 35.82200

