158

Mg 24.24000 -6.82200 46.05900
C  26.53200 -4.37900 45.21000
C  21.88400 -5.29000 43.94000
C  22.15200 -9.42100 46.51400
C  26.81200 -8.56500 47.90700
N  24.26400 -5.09000 44.63400
C  25.30300 -4.21200 44.46100
C  24.93100 -3.07400 43.54200
C  23.37900 -3.31800 43.35700
C  23.14800 -4.67700 43.88500
C  22.47200 -2.15400 44.00100
C  25.77300 -3.13800 42.18000
C  26.70000 -2.00100 41.95600
H  26.85000 -1.32400 40.58400
N  22.21600 -7.26500 45.37400
C  21.47400 -6.53200 44.54200
C  20.27600 -7.26400 44.24800
C  20.25400 -8.45100 45.03200
C  21.51100 -8.43100 45.69700
C  19.19200 -6.71300 43.27300
C  19.17800 -9.44900 45.11400
O  18.22600 -9.36500 44.39100
C  19.08700 -10.60700 46.05600
N  24.54000 -8.78000 46.99700
C  23.41400 -9.62800 47.03400
C  23.83300 -10.97900 47.78200
C  25.32100 -10.67400 48.27400
C  25.64600 -9.26800 47.65900
C  22.77200 -11.46400 48.84700
C  26.37700 -11.62700 47.64600
C  27.36000 -12.22900 48.73000
N  26.26800 -6.54600 46.60900
C  27.12600 -7.31100 47.34500
C  28.36200 -6.51000 47.38600
C  28.14500 -5.42200 46.60800
C  26.87700 -5.48500 46.10700
C  29.63900 -6.94500 47.97600
C  28.74700 -4.19700 46.09200
O  29.86600 -3.76700 46.33600
C  27.76600 -3.55600 45.17000
C  27.55400 -2.16800 45.61800
O  26.87600 -1.75700 46.54000
O  28.13300 -1.31600 44.69800
C  27.97000 0.13300 44.86300
H  21.05200 -4.79800 43.43200
H  21.47200 -10.26900 46.61900
H  27.53100 -9.08200 48.54600
H  25.02900 -2.10400 44.02800
H  23.19700 -3.35300 42.28200
H  21.79500 -2.52800 44.76900
H  21.98000 -1.64000 43.17600
H  22.99800 -1.32300 44.47000
H  25.21400 -3.26600 41.25400
H  26.39800 -4.03100 42.18600
H  27.66900 -2.30800 42.34900
H  26.44600 -1.22900 42.68200
H  19.48500 -7.15200 42.32000
H  19.13600 -5.62400 43.25000
H  18.20900 -7.13400 43.48300
H  18.03400 -10.75300 46.29400
H  19.59100 -10.50300 47.01700
H  19.55500 -11.50100 45.64400
H  23.87900 -11.74000 47.00300
H  25.38900 -10.43800 49.33600
H  22.16300 -12.29600 48.49600
H  22.00000 -10.70200 48.95300
H  23.21000 -11.53500 49.84300
H  26.93900 -11.10700 46.87000
H  25.88200 -12.48200 47.18400
H  27.22600 -13.29900 48.89100
H  27.29200 -11.72200 49.69200
H  28.38400 -12.07500 48.39000
H  29.42600 -7.19500 49.01600
H  30.15900 -5.99300 48.08300
H  30.13100 -7.77500 47.46900
H  28.18400 -3.57800 44.16400
H  26.96200 0.39000 44.53800
H  28.52800 0.73700 44.14700
H  28.09200 0.52300 45.87400
Mg 17.06600 52.19800 26.74200
C  19.17600 50.79100 29.30100
C  14.81800 52.90800 29.24100
C  15.20600 53.48100 24.39800
C  19.25800 50.80900 24.43400
N  17.06200 51.94200 28.98000
C  18.01800 51.42400 29.78300
C  17.61000 51.52600 31.23100
C  16.07600 51.70900 31.11200
C  15.97700 52.24100 29.65600
C  15.41900 50.29700 31.08800
C  18.36000 52.73200 31.90200
C  18.38000 52.66800 33.46600
H  17.39000 51.73500 34.19900
N  15.27800 53.11200 26.77200
C  14.52400 53.36400 27.94700
C  13.41500 54.27600 27.55000
C  13.55700 54.46600 26.12900
C  14.68000 53.63400 25.66900
C  12.32600 54.75800 28.50400
C  12.78000 55.41200 25.28900
O  12.97300 55.39400 24.07800
C  11.75000 56.37000 25.85100
N  17.15800 52.01100 24.67800
C  16.29200 52.73000 23.93600
C  16.83700 52.91300 22.56200
C  18.08400 51.92700 22.52000
C  18.21600 51.58200 23.96200
C  15.81600 52.50200 21.37800
C  19.43600 52.68600 22.13600
C  20.22100 52.22200 20.93900
N  18.78700 50.99500 26.81700
C  19.54700 50.45000 25.78000
C  20.63600 49.60600 26.25300
C  20.58500 49.73100 27.59500
C  19.47200 50.64200 27.87600
C  21.65500 48.88900 25.40000
C  21.23100 49.37600 28.84200
O  22.20000 48.67500 29.11700
C  20.39600 50.16600 29.92600
C  20.01800 49.22200 31.02200
O  19.45300 48.18700 30.79900
O  20.37200 49.60600 32.20700
C  20.25500 48.64000 33.32000
H  14.11800 53.05400 30.06600
H  14.94800 54.01400 23.47900
H  20.03800 50.54600 23.71600
H  17.93800 50.59300 31.69000
H  15.51400 52.40000 31.74100
H  16.16900 49.52100 30.93400
H  14.65800 50.28900 30.30700
H  14.89100 50.25300 32.04000
H  17.93300 53.67300 31.55500
H  19.41200 52.62100 31.64100
H  18.39900 53.68500 33.85800
H  19.38000 52.26300 33.62000
H  12.47200 55.83500 28.42100
H  12.56600 54.40100 29.50600
H  11.38300 54.34800 28.14500
H  11.05800 55.79800 26.46800
H  11.29000 56.94200 25.04500
H  12.07400 57.15200 26.53700
H  17.12500 53.95400 22.42100
H  17.87800 51.05300 21.90200
H  15.19000 51.64400 21.62200
H  16.47300 52.43200 20.51100
H  15.22400 53.40800 21.24900
H  20.18500 52.80800 22.91900
H  19.09100 53.69900 21.92800
H  21.22600 52.11800 21.34800
H  20.23200 52.87400 20.06500
H  19.74900 51.29000 20.62800
H  22.62300 49.10100 25.85300
H  21.61600 49.41800 24.44700
H  21.48300 47.81300 25.37700
H  21.15200 50.88300 30.24700
H  20.12000 47.57400 33.13700
H  19.37700 48.99500 33.85900
H  21.15700 48.65700 33.93200

