158

Mg 8.04900 2.44100 27.37000
C  9.72500 0.94000 30.29000
C  6.44200 4.59600 29.45200
C  6.18900 3.44600 24.73700
C  9.71700 0.10000 25.43900
N  8.08000 2.61100 29.58100
C  8.89500 2.01800 30.60200
C  8.66100 2.65600 31.90100
C  7.46400 3.55900 31.60200
C  7.34800 3.67800 30.07300
C  6.08400 3.15500 32.23100
C  9.89400 3.26800 32.65300
C  10.47900 2.52700 33.93300
H  11.12000 3.36700 35.07200
N  6.41900 3.68300 27.18400
C  5.95100 4.55900 28.10800
C  4.86000 5.38400 27.59100
C  4.81200 5.08700 26.23500
C  5.84700 3.98400 26.00300
C  4.04700 6.35600 28.46000
C  3.80600 5.57800 25.18400
O  3.74100 5.22400 23.99800
C  2.74800 6.46800 25.68000
N  7.92600 1.86900 25.41400
C  7.12400 2.46100 24.44200
C  7.45300 1.88600 23.05400
C  8.60000 0.90500 23.24000
C  8.73700 0.88800 24.80800
C  6.26000 1.27600 22.26400
C  9.95500 1.14500 22.52800
C  10.44300 0.14800 21.50800
N  9.49300 0.77000 27.73200
C  10.02700 -0.07400 26.79900
C  10.95700 -0.93600 27.49900
C  10.88200 -0.62000 28.85100
C  9.96700 0.46400 28.91700
C  11.78000 -2.06400 26.79200
C  11.35600 -0.94000 30.18700
O  12.15800 -1.78500 30.48600
C  10.75300 0.10700 31.17700
C  10.13100 -0.54200 32.38600
O  8.89100 -0.79000 32.52800
O  11.05200 -0.82300 33.38600
C  10.34800 -1.06000 34.64500
H  5.99000 5.31500 30.13800
H  5.64100 3.93600 23.92900
H  10.19600 -0.57900 24.73100
H  8.14500 1.94200 32.54200
H  7.56000 4.57600 31.98100
H  5.37000 3.91900 32.53900
H  6.31400 2.65200 33.17000
H  5.50000 2.65500 31.45900
H  9.64600 4.25700 33.03800
H  10.62300 3.34500 31.84600
H  11.24100 1.83400 33.57600
H  9.69000 1.98700 34.45700
H  4.47000 6.46100 29.45800
H  3.04000 5.94200 28.52200
H  4.09500 7.29500 27.90900
H  2.04000 5.94500 26.32200
H  2.12700 6.85000 24.86900
H  3.25100 7.33200 26.11400
H  7.79500 2.74000 22.47000
H  8.38800 -0.13100 22.97400
H  5.33200 1.47300 22.80200
H  6.28600 0.20400 22.06900
H  6.39400 1.83000 21.33600
H  10.67500 1.18400 23.34600
H  10.03400 2.14800 22.10800
H  10.75300 0.86100 20.74400
H  9.65600 -0.54800 21.21800
H  11.28800 -0.46500 21.82200
H  11.60600 -3.01600 27.29300
H  12.83300 -1.78500 26.84000
H  11.43500 -2.20200 25.76800
H  11.53600 0.72200 31.61900
H  9.75000 -0.22700 35.01400
H  11.05300 -1.23900 35.45700
H  9.57100 -1.82400 34.61600
Mg 46.64200 16.91700 28.45500
C  44.47300 16.34200 31.34800
C  48.75600 18.57700 30.53700
C  48.28800 17.80600 25.74600
C  44.13900 15.48000 26.45100
N  46.65900 17.31100 30.64200
C  45.70600 17.01700 31.61800
C  46.22400 17.39400 32.95400
C  47.39000 18.34200 32.65400
C  47.65700 18.08300 31.18000
C  47.13000 19.81600 33.02600
C  46.61500 16.20700 33.73200
C  47.12200 16.40900 35.19000
H  46.79500 17.73400 35.84700
N  48.35200 17.96900 28.16600
C  49.13000 18.54900 29.16600
C  50.27700 19.14500 28.54400
C  50.24800 18.76400 27.16300
C  48.88500 18.20800 26.95900
C  51.25200 19.94200 29.29500
C  51.28900 18.84300 26.00200
O  51.11800 18.39600 24.87200
C  52.70500 19.35300 26.33300
N  46.27800 16.56000 26.45400
C  47.13000 17.06600 25.46200
C  46.57500 16.84300 24.05900
C  45.40500 15.87800 24.26300
C  45.21900 15.96200 25.79400
C  46.38400 18.14600 23.23700
C  45.59700 14.38800 23.83400
C  46.45600 13.47600 24.66900
N  44.68600 16.11000 28.77400
C  43.81000 15.45600 27.85500
C  42.67600 14.88700 28.55000
C  42.85200 15.29900 29.87500
C  44.13000 15.94900 29.96200
C  41.49600 14.17900 27.92700
C  42.27100 15.37100 31.17500
O  41.13200 15.00100 31.58100
C  43.28600 15.91200 32.17200
C  42.70000 16.98800 32.93000
O  42.12700 17.96500 32.46900
O  43.15200 16.90700 34.25000
C  42.67300 18.04200 35.02100
H  49.56200 19.03600 31.11300
H  48.92800 18.10200 24.91100
H  43.44800 15.04500 25.72600
H  45.39700 17.94400 33.40300
H  48.31900 18.12400 33.18200
H  46.51000 20.17500 32.20400
H  48.07600 20.35700 33.03300
H  46.73300 19.86200 34.04000
H  47.50200 15.81800 33.23300
H  45.89900 15.38600 33.67600
H  48.19800 16.24200 35.15400
H  46.59400 15.69900 35.82700
H  51.49000 20.75600 28.61000
H  52.21100 19.43000 29.38100
H  50.93800 20.24100 30.29500
H  53.42800 19.40000 25.51900
H  53.12300 18.90500 27.23500
H  52.36200 20.36800 26.53000
H  47.38400 16.26100 23.61800
H  44.49900 16.29900 23.82600
H  45.31700 18.23700 23.03600
H  46.96500 18.00800 22.32500
H  46.82000 18.97800 23.79000
H  46.10800 14.39400 22.87100
H  44.59900 13.95900 23.74300
H  45.93600 13.35900 25.62000
H  47.36100 13.97700 25.01000
H  46.74700 12.48700 24.31600
H  41.84300 13.25300 27.46800
H  41.21600 14.99000 27.25400
H  40.66800 13.95200 28.59900
H  43.63200 15.18600 32.90800
H  41.59600 18.11500 34.86600
H  43.14300 18.96200 34.67400
H  42.78000 17.78500 36.07500

