158

Mg -1.56900 17.69100 27.11600
C  -1.93700 15.41200 29.80900
C  -1.59300 20.24300 29.32800
C  -1.54800 19.64200 24.47200
C  -2.03600 14.86900 24.96400
N  -1.90100 17.84600 29.31700
C  -1.90000 16.81600 30.24000
C  -2.09600 17.37400 31.73000
C  -2.21100 18.92700 31.49000
C  -1.91500 19.03300 29.97500
C  -3.65700 19.43400 31.86500
C  -0.85200 17.00700 32.63700
C  -0.81600 17.75000 33.95100
H  -0.28000 16.93900 35.17600
N  -1.49300 19.62500 26.97000
C  -1.40300 20.56500 27.98200
C  -1.29400 21.85100 27.41300
C  -1.22000 21.69900 25.99600
C  -1.44800 20.25700 25.73300
C  -1.26000 23.14200 28.26300
C  -0.96500 22.82200 25.01400
O  -0.94400 22.56200 23.77500
C  -0.69600 24.28500 25.40200
N  -1.77900 17.29100 25.01000
C  -1.69900 18.26400 24.11300
C  -1.83800 17.72900 22.69800
C  -1.54100 16.21900 22.86400
C  -1.78900 16.09600 24.38100
C  -3.25700 18.01600 22.14600
C  -0.16000 15.66100 22.50300
C  1.05700 16.38900 23.01400
N  -1.88800 15.59100 27.26100
C  -2.18700 14.60500 26.33200
C  -2.41000 13.31300 26.96100
C  -2.29700 13.59500 28.33200
C  -1.93500 14.98400 28.46800
C  -2.74300 12.04900 26.32700
C  -2.32600 12.97600 29.59900
O  -2.53100 11.84400 29.98700
C  -2.10300 14.10600 30.68400
C  -0.87500 13.74100 31.47800
O  0.28100 14.04900 31.18700
O  -1.19500 13.07900 32.60100
C  -0.03200 12.85100 33.45400
H  -1.57700 21.07600 30.03500
H  -1.50700 20.30900 23.60900
H  -2.08400 14.17400 24.12300
H  -2.98700 16.91200 32.15600
H  -1.60100 19.45400 32.22400
H  -4.25700 18.78400 32.50100
H  -4.18900 19.59100 30.92600
H  -3.52100 20.37900 32.39100
H  0.02600 17.17900 32.01400
H  -0.86100 15.94800 32.89200
H  -1.77700 18.19800 34.20000
H  -0.10800 18.57800 33.91700
H  -2.20900 23.65900 28.11800
H  -0.39900 23.77500 28.04500
H  -1.16800 22.94500 29.33100
H  0.29400 24.38700 25.84600
H  -1.43600 24.77100 26.03800
H  -0.65700 24.84300 24.46700
H  -1.03000 18.19100 22.13000
H  -2.24800 15.69500 22.22100
H  -3.62300 18.89100 22.68400
H  -3.95900 17.19200 22.27400
H  -3.12400 18.21400 21.08300
H  -0.00900 15.58400 21.42600
H  -0.17000 14.62300 22.83700
H  1.59400 16.55400 22.08000
H  1.56800 15.80700 23.78000
H  0.77100 17.29600 23.54700
H  -2.99100 12.23500 25.28200
H  -3.54800 11.63300 26.93300
H  -1.87100 11.39600 26.35600
H  -2.96600 14.17500 31.34700
H  0.07700 13.72900 34.09100
H  0.95500 12.60800 33.06200
H  -0.43400 12.03800 34.05900
Mg 17.16000 52.75000 26.65300
C  19.07400 51.33700 29.16200
C  14.80400 53.63000 29.07200
C  15.41000 54.11500 24.08500
C  19.53900 51.53900 24.26700
N  16.93300 52.30400 28.84200
C  17.93500 51.94600 29.63300
C  17.65300 52.09800 31.10300
C  16.11500 52.56800 31.08900
C  15.90900 52.87900 29.56800
C  15.00500 51.51400 31.66700
C  18.60600 53.02500 31.81800
C  19.07800 52.63700 33.22100
H  18.01400 51.89600 34.02900
N  15.27600 53.65500 26.57300
C  14.53500 53.97300 27.70100
C  13.41000 54.82900 27.19600
C  13.46200 54.79800 25.72200
C  14.76100 54.18600 25.40100
C  12.32900 55.51100 28.09900
C  12.49000 55.24800 24.68700
O  12.73300 55.03800 23.48100
C  11.26800 55.89900 25.08000
N  17.38300 52.71500 24.53800
C  16.56100 53.45100 23.66400
C  17.03300 53.45700 22.17400
C  18.49900 52.87000 22.40200
C  18.41500 52.23700 23.79800
C  16.08200 52.49700 21.39000
C  19.59600 53.97800 22.23500
C  19.98900 54.72700 23.53200
N  18.88900 51.65700 26.65400
C  19.81100 51.28600 25.59600
C  20.93500 50.61300 26.22800
C  20.61400 50.49800 27.55400
C  19.35200 51.18500 27.79900
C  22.10900 50.02200 25.47800
C  21.15200 50.03700 28.85700
O  22.18100 49.45300 29.11800
C  20.22400 50.57800 29.91000
C  19.58100 49.44400 30.63900
O  18.92900 48.61000 30.14800
O  19.98800 49.41300 31.90300
C  19.51300 48.29400 32.82000
H  14.17000 54.02400 29.86900
H  14.95900 54.68100 23.26700
H  20.32100 51.10800 23.63800
H  17.62300 51.14000 31.62200
H  15.98200 53.52800 31.58700
H  14.40800 51.14400 30.83300
H  14.29700 52.03500 32.31100
H  15.48200 50.83100 32.37000
H  18.21800 54.04000 31.74000
H  19.54100 53.10800 31.26400
H  19.19200 53.54300 33.81500
H  19.97000 52.02700 33.07200
H  12.30800 55.06800 29.09400
H  11.33500 55.37800 27.67200
H  12.36000 56.60100 28.09600
H  10.66500 55.15600 25.60200
H  10.83300 56.24900 24.14300
H  11.49000 56.76700 25.70000
H  17.12000 54.50200 21.87700
H  18.76700 52.07100 21.71100
H  15.26200 52.18600 22.03800
H  16.67800 51.65800 21.03000
H  15.76500 53.10400 20.54300
H  19.29200 54.75700 21.53600
H  20.57700 53.61800 21.92400
H  19.51800 55.70800 23.47400
H  21.07000 54.86500 23.55100
H  19.81500 54.24100 24.49200
H  22.48400 50.73600 24.74400
H  21.93200 49.06400 24.99000
H  22.82900 49.87500 26.28300
H  20.70700 51.34000 30.52200
H  19.98600 47.35000 32.54900
H  18.45200 48.23500 32.57900
H  19.69700 48.62600 33.84200

