158

Mg -2.11900 16.56300 26.92800
C  -2.43000 14.43900 29.60300
C  -2.56400 19.24700 28.92700
C  -2.07900 18.64600 24.13900
C  -1.74900 13.82400 24.80100
N  -2.68800 16.75000 29.03900
C  -2.57100 15.77700 30.00400
C  -2.75400 16.37400 31.43100
C  -2.94900 17.88200 31.04600
C  -2.63500 17.97400 29.58400
C  -4.37800 18.48700 31.45200
C  -1.58700 16.06400 32.38600
C  -1.32100 16.96100 33.57000
H  -0.80700 16.39000 34.87500
N  -2.29900 18.74700 26.61300
C  -2.46400 19.66700 27.56700
C  -2.50500 21.01900 27.00000
C  -2.38300 20.82900 25.55200
C  -2.30700 19.36500 25.38000
C  -2.53400 22.31000 27.82600
C  -2.38900 21.90700 24.47100
O  -2.52100 21.67500 23.25500
C  -2.40300 23.34000 24.84200
N  -1.79200 16.33800 24.88700
C  -1.91000 17.33800 23.90800
C  -1.70400 16.75500 22.49800
C  -1.38100 15.22800 22.74900
C  -1.63200 15.07500 24.23800
C  -2.86300 16.94200 21.41100
C  -0.01900 14.74800 22.17100
C  0.09800 13.31400 21.61400
N  -2.09300 14.57500 27.10900
C  -1.91000 13.59100 26.14300
C  -2.05800 12.32300 26.83200
C  -2.18800 12.60200 28.15500
C  -2.13700 13.96600 28.29400
C  -2.21300 11.00200 26.11700
C  -2.36900 12.03900 29.44300
O  -2.37400 10.85700 29.75900
C  -2.45100 13.20500 30.46800
C  -1.28100 13.05400 31.34600
O  -0.17500 13.47900 31.12900
O  -1.59800 12.27800 32.44800
C  -0.44800 11.92000 33.26200
H  -2.50300 20.13200 29.56400
H  -2.07000 19.29600 23.26300
H  -1.72500 12.94500 24.15400
H  -3.66200 16.09800 31.96700
H  -2.18000 18.37900 31.63600
H  -4.18100 19.30300 32.14800
H  -5.01600 17.76900 31.96600
H  -4.89100 19.02100 30.65200
H  -0.70300 15.92400 31.76400
H  -1.90800 15.12000 32.82600
H  -2.29100 17.43900 33.71200
H  -0.58100 17.71300 33.29800
H  -2.80400 22.17200 28.87300
H  -3.31500 22.96100 27.43400
H  -1.57200 22.76100 27.58300
H  -3.31600 23.44400 25.42800
H  -2.48200 24.07000 24.03600
H  -1.68400 23.56300 25.63000
H  -0.74300 17.15700 22.17800
H  -2.12400 14.54200 22.34000
H  -3.68500 16.22700 21.42700
H  -2.36300 16.83300 20.44900
H  -3.20900 17.96400 21.56800
H  0.70200 14.80200 22.98700
H  0.47100 15.45000 21.49600
H  0.48400 13.32800 20.59500
H  -0.82700 12.74400 21.53400
H  0.82000 12.69200 22.14300
H  -2.72300 10.29000 26.76600
H  -1.23300 10.67100 25.77400
H  -2.85500 11.23000 25.26600
H  -3.39600 12.98900 30.96700
H  0.42900 11.55500 32.72800
H  -0.85200 11.21700 33.99100
H  -0.05000 12.85800 33.65100
Mg 6.83100 54.14000 39.87500
C  6.30500 50.53200 39.61200
C  10.10700 53.49300 39.24700
C  7.10900 57.24600 39.56000
C  3.28600 54.43600 39.95100
N  8.07500 52.21600 39.24200
C  7.66700 50.92900 39.38400
C  8.85900 49.99100 39.23800
C  9.97700 50.94800 39.56000
C  9.38800 52.37600 39.31600
C  10.59400 50.77000 40.97800
C  9.07400 49.27100 37.93300
C  8.78300 50.05300 36.62400
H  7.63500 49.59500 35.66700
N  8.38300 55.24800 39.41200
C  9.70200 54.83300 39.19500
C  10.56000 55.93800 39.15700
C  9.73100 57.15000 39.17300
C  8.36800 56.60100 39.41900
C  12.01900 55.86700 38.66500
C  10.15400 58.65300 38.99000
O  11.37700 58.90100 39.00700
C  9.18500 59.79400 38.91800
N  5.33200 55.58500 39.52700
C  5.78300 56.86500 39.61800
C  4.60300 57.88900 39.67500
C  3.34100 56.97200 39.72800
C  3.99200 55.56400 39.68800
C  4.71700 58.79100 40.93100
C  2.21200 57.22900 38.65900
C  0.96900 57.85200 39.16000
N  5.11600 52.81100 39.78700
C  3.76000 53.09200 39.97000
C  3.00900 51.84500 40.31500
C  4.01700 50.82500 40.20400
C  5.26800 51.48300 39.80800
C  1.59800 51.66700 40.75100
C  4.21200 49.41500 40.33400
O  3.42300 48.53400 40.68300
C  5.75500 49.14900 39.90700
C  5.72300 48.11100 38.86900
O  5.68400 48.31500 37.68500
O  5.68700 46.85700 39.38600
C  5.82900 45.71400 38.53700
H  11.17800 53.27600 39.25200
H  7.09600 58.31500 39.34000
H  2.22400 54.51300 40.19300
H  8.73900 49.25100 40.03000
H  10.80100 50.92800 38.84700
H  10.01300 50.24200 41.73400
H  10.74400 51.77400 41.37400
H  11.55500 50.27300 40.84000
H  8.48600 48.35700 37.84600
H  10.02900 48.74700 37.96900
H  9.70600 50.09800 36.04700
H  8.58600 51.07100 36.96100
H  12.51600 54.95800 39.00500
H  12.61600 56.64100 39.14900
H  12.11100 55.93800 37.58200
H  8.50500 59.78800 39.76900
H  8.60200 59.73800 37.99900
H  9.90700 60.60500 38.81900
H  4.81500 58.48600 38.78800
H  2.93500 56.94300 40.73900
H  4.70600 59.75400 40.42000
H  5.62000 58.51100 41.47300
H  3.80700 58.67500 41.51900
H  1.91700 56.29000 38.19100
H  2.66300 57.85200 37.88600
H  0.21100 57.24800 38.66200
H  0.92500 58.84200 38.70600
H  0.89400 57.82900 40.24700
H  0.98100 51.53300 39.86300
H  1.20400 52.57500 41.20800
H  1.33800 50.78700 41.34000
H  6.27200 48.78600 40.79500
H  6.62500 45.07100 38.91300
H  6.23600 45.77700 37.52800
H  4.84100 45.25300 38.54500

