158

Mg 1.38000 7.67300 26.09900
C  2.08800 9.75100 28.85500
C  1.65300 4.97300 28.15900
C  0.88200 5.68800 23.43300
C  1.38400 10.48900 24.12300
N  1.65500 7.50600 28.32200
C  2.00900 8.42900 29.21300
C  2.15200 7.86600 30.61900
C  2.37500 6.35000 30.26900
C  1.86200 6.25600 28.79600
C  3.78200 5.72300 30.57000
C  0.80000 8.17700 31.31200
C  0.94700 8.68400 32.79100
H  2.02800 8.08900 33.64200
N  1.20500 5.54100 25.79100
C  1.39600 4.59000 26.80700
C  1.10300 3.26400 26.26800
C  0.85900 3.49200 24.90200
C  0.99200 4.95000 24.61700
C  0.93700 2.00300 27.01400
C  0.50000 2.41600 23.79300
O  0.29900 2.81800 22.65000
C  0.64700 0.93200 24.01300
N  1.08900 8.03000 24.18400
C  0.90300 7.05600 23.18000
C  0.79400 7.63300 21.78300
C  0.59800 9.14700 22.15600
C  1.20300 9.22400 23.52700
C  2.03900 7.38000 20.89800
C  -0.89200 9.65600 22.10200
C  -1.27700 10.90300 21.36800
N  1.61500 9.75400 26.38100
C  1.64200 10.71800 25.47700
C  1.91800 11.93800 26.14900
C  2.07800 11.63700 27.51300
C  1.91400 10.30200 27.57900
C  2.12400 13.34400 25.59600
C  2.46900 12.14800 28.83700
O  2.76300 13.28300 29.16500
C  2.35800 10.91900 29.81100
C  3.56500 10.74700 30.74500
O  4.51600 10.04000 30.53700
O  3.38600 11.42600 31.89500
C  4.40200 11.24700 32.91300
H  1.79800 4.20300 28.92000
H  0.59800 5.12900 22.53900
H  1.30600 11.34900 23.45500
H  2.99300 8.18900 31.23200
H  1.73900 5.85500 31.00200
H  4.64100 6.36400 30.77000
H  4.10900 5.29200 29.62400
H  3.69100 5.00800 31.38700
H  0.13800 7.33200 31.12000
H  0.42500 9.05600 30.78600
H  -0.01900 8.52800 33.27100
H  1.05100 9.76500 32.70600
H  -0.11500 1.83600 27.24400
H  1.39300 2.08800 28.00000
H  1.44600 1.18500 26.50300
H  0.54800 0.48900 23.02200
H  -0.18000 0.48400 24.56300
H  1.63900 0.80900 24.44700
H  -0.07300 7.21100 21.27600
H  1.19800 9.80700 21.52900
H  2.82500 8.13200 20.96700
H  1.81900 7.15600 19.85400
H  2.32600 6.34800 21.10000
H  -1.19400 9.92000 23.11500
H  -1.53600 8.83700 21.78000
H  -1.87300 11.59800 21.95900
H  -1.90000 10.70100 20.49700
H  -0.45000 11.54300 21.06000
H  2.97400 13.35300 24.91400
H  2.33100 14.01500 26.42900
H  1.18600 13.46700 25.05400
H  1.35400 10.96500 30.23400
H  4.87500 12.22800 32.95400
H  5.07600 10.41100 32.73200
H  3.93800 11.06500 33.88300
Mg 26.69000 -0.99300 29.33800
C  28.45400 -0.96500 32.59100
C  23.73100 -1.13900 31.38600
C  24.86000 -1.24700 26.49500
C  29.52800 -1.14700 27.82400
N  26.19700 -0.97400 31.73800
C  27.08900 -0.75900 32.74400
C  26.39700 -0.69300 34.13800
C  24.92300 -0.62700 33.72300
C  24.88700 -0.90200 32.15900
C  24.04800 -1.76100 34.47900
C  26.87100 0.49800 35.09500
C  27.15800 0.15500 36.61200
H  26.61400 1.16200 37.61800
N  24.56300 -1.20500 29.00600
C  23.56700 -1.23300 29.96300
C  22.32800 -1.39100 29.22100
C  22.53600 -1.34300 27.75800
C  24.03300 -1.23000 27.71300
C  20.95300 -1.58700 29.83500
C  21.57100 -1.39500 26.64000
O  22.01200 -1.44000 25.49600
C  20.07500 -1.41100 26.82100
N  27.06300 -1.26100 27.35800
C  26.21600 -1.17400 26.33100
C  26.95500 -0.99600 24.96900
C  28.43400 -0.79200 25.50300
C  28.37400 -1.01500 27.03400
C  26.78700 -2.23800 24.07900
C  29.08200 0.62300 25.21400
C  30.49700 0.44700 24.73500
N  28.59900 -1.19100 30.05900
C  29.70100 -1.30500 29.23200
C  30.86500 -1.42200 29.99600
C  30.40100 -1.23700 31.33800
C  29.05300 -1.07500 31.28200
C  32.30100 -1.57900 29.48200
C  30.82000 -1.08000 32.71400
O  31.91600 -1.21100 33.21800
C  29.58100 -0.91400 33.57400
C  29.56700 -2.03600 34.61000
O  29.08400 -3.17400 34.47900
O  30.05400 -1.52200 35.79000
C  29.83200 -2.41700 36.95000
H  22.81800 -1.19900 31.98300
H  24.30900 -1.41200 25.56700
H  30.42600 -0.95400 27.23300
H  26.59000 -1.61800 34.68200
H  24.54600 0.37500 33.93000
H  23.57900 -2.53000 33.86500
H  23.27600 -1.23200 35.03600
H  24.59600 -2.26200 35.27700
H  25.95700 1.07800 35.22100
H  27.71800 1.11200 34.79000
H  28.21300 0.00900 36.84300
H  26.74100 -0.84500 36.73600
H  20.47300 -2.39000 29.27500
H  20.36000 -0.69700 29.62400
H  21.05600 -1.77700 30.90300
H  19.72100 -2.41300 27.06200
H  19.74000 -1.20500 25.80500
H  19.85400 -0.62400 27.54200
H  26.60700 -0.11200 24.43500
H  29.07700 -1.58400 25.12000
H  26.54300 -1.96900 23.05100
H  25.93500 -2.78500 24.48100
H  27.69100 -2.84700 24.06100
H  29.01900 1.16000 26.16000
H  28.43700 1.22000 24.56900
H  30.78200 -0.59300 24.57600
H  31.19200 1.00700 25.36000
H  30.54800 0.97500 23.78300
H  32.85300 -1.89600 30.36700
H  32.64600 -0.63500 29.06000
H  32.47200 -2.39200 28.77700
H  29.56800 0.05300 34.07700
H  28.81600 -2.38700 37.34500
H  30.47400 -2.22600 37.81000
H  29.97300 -3.47300 36.71700

