158

Mg 24.08800 -4.74900 45.35000
C  26.43800 -2.52000 43.89300
C  21.73500 -3.35400 43.31300
C  22.23300 -7.51200 45.85900
C  26.86600 -6.36700 46.84000
N  24.11300 -3.04000 43.80900
C  25.13500 -2.21800 43.47400
C  24.65200 -1.12100 42.52300
C  23.08400 -1.24200 42.72100
C  22.93000 -2.64400 43.30800
C  22.51100 -0.24000 43.76700
C  25.16200 -1.35600 41.11300
C  25.52000 -0.09900 40.24300
H  25.02700 -0.15200 38.79600
N  22.15600 -5.32300 44.77700
C  21.34600 -4.55100 43.90300
C  20.18800 -5.31900 43.68400
C  20.14600 -6.45700 44.53400
C  21.55100 -6.50400 45.12400
C  19.04600 -4.95000 42.68200
C  18.98000 -7.38500 44.64400
O  17.98700 -7.25500 43.93000
C  19.02800 -8.44000 45.69500
N  24.45100 -6.62000 46.36600
C  23.51300 -7.61800 46.49400
C  24.07100 -8.91500 47.08600
C  25.57200 -8.49300 47.37800
C  25.65500 -7.03200 46.86000
C  23.35400 -9.53500 48.32900
C  26.57900 -9.42200 46.75800
C  26.24700 -10.97800 46.89300
N  26.18100 -4.41000 45.57900
C  27.11800 -5.13000 46.26100
C  28.45500 -4.62100 46.03200
C  28.28100 -3.56900 45.10400
C  26.84800 -3.50100 44.84200
C  29.75400 -5.08200 46.67600
C  28.91800 -2.57100 44.30000
O  30.09900 -2.19800 44.29500
C  27.75500 -1.87400 43.45400
C  27.83100 -0.41700 43.96400
O  27.21600 0.02900 44.91700
O  28.77400 0.24200 43.20600
C  29.17000 1.51800 43.77000
H  20.95000 -3.06800 42.61000
H  21.62500 -8.38900 46.09000
H  27.75900 -6.87000 47.21800
H  25.09700 -0.19200 42.87800
H  22.47500 -1.28700 41.81800
H  23.31600 0.30500 44.25900
H  21.92500 -0.70800 44.55800
H  21.90000 0.54400 43.31900
H  24.35200 -1.88000 40.60600
H  26.00300 -2.04200 41.21900
H  26.60700 -0.02400 40.20900
H  24.99800 0.76600 40.65200
H  18.04700 -5.02300 43.11200
H  19.18500 -5.41800 41.70700
H  18.94800 -3.86600 42.62600
H  19.66900 -8.10100 46.51000
H  19.52500 -9.27800 45.20600
H  18.08300 -8.90100 45.98500
H  24.18200 -9.58300 46.23200
H  25.89500 -8.37200 48.41100
H  22.54600 -8.98600 48.81200
H  24.04900 -9.93200 49.06900
H  22.82200 -10.43600 48.02200
H  27.47000 -9.23600 47.35700
H  26.70000 -9.12300 45.71700
H  25.69600 -11.11400 47.82400
H  27.09200 -11.66600 46.89500
H  25.55700 -11.17900 46.07300
H  30.44300 -4.23800 46.70700
H  30.20600 -5.76200 45.95400
H  29.64100 -5.62600 47.61400
H  27.97300 -1.78100 42.39000
H  29.92200 1.94700 43.10900
H  29.60300 1.33900 44.75400
H  28.34200 2.21900 43.88100
Mg 0.57600 44.36300 26.32000
C  2.83400 44.27100 29.06300
C  -1.94900 43.70400 28.68700
C  -1.44500 43.80000 23.84000
C  3.35700 44.55100 24.21000
N  0.50000 44.01200 28.69200
C  1.52000 44.20500 29.56300
C  1.05500 44.05500 30.96100
C  -0.43900 43.57700 30.79200
C  -0.70800 43.78300 29.30300
C  -0.63400 42.07800 31.30400
C  1.23100 45.43300 31.72700
C  1.60400 45.41800 33.24300
H  1.06000 44.23000 34.04400
N  -1.48500 44.08800 26.23700
C  -2.32200 43.77100 27.34500
C  -3.63600 43.89200 26.88300
C  -3.60800 43.74900 25.41800
C  -2.16800 43.87600 25.11100
C  -4.86400 44.12000 27.82300
C  -4.75400 43.60000 24.42700
O  -4.59100 43.50300 23.25200
C  -6.18100 43.50700 25.03300
N  0.94900 43.96600 24.33500
C  -0.06500 43.86900 23.51500
C  0.47500 43.90500 22.05100
C  1.79700 44.68600 22.19200
C  2.07900 44.39000 23.67900
C  0.51400 42.51600 21.38600
C  1.70500 46.16300 21.91400
C  2.40000 46.60900 20.60000
N  2.63600 44.38700 26.50800
C  3.66300 44.49400 25.57200
C  4.94800 44.63800 26.16000
C  4.63900 44.48800 27.52800
C  3.24600 44.35800 27.70800
C  6.26300 44.67300 25.47200
C  5.29500 44.48600 28.81000
O  6.47200 44.51400 29.09300
C  4.14000 44.25300 29.85000
C  4.33900 43.01400 30.70800
O  4.47800 41.90200 30.22200
O  4.22000 43.28200 32.02000
C  4.32900 42.14300 32.98600
H  -2.65600 43.39900 29.46100
H  -2.10200 43.74100 22.97000
H  4.17400 44.92700 23.59100
H  1.54600 43.24100 31.49600
H  -1.16100 44.09900 31.42000
H  0.26900 41.47500 31.40400
H  -1.22600 41.50900 30.58700
H  -1.21400 42.22700 32.21500
H  0.32000 46.00000 31.53400
H  1.94300 45.99500 31.12300
H  1.12700 46.33300 33.59300
H  2.68300 45.55000 33.32600
H  -5.47900 43.22900 27.95500
H  -5.49300 44.89400 27.38500
H  -4.61200 44.60500 28.76700
H  -6.24100 42.93600 25.96000
H  -6.73500 42.82100 24.39200
H  -6.68700 44.47200 25.04700
H  -0.26600 44.47500 21.48900
H  2.52800 44.15600 21.58200
H  -0.11500 41.81400 21.93300
H  1.47900 42.02200 21.49500
H  0.23800 42.66200 20.34100
H  2.06100 46.74600 22.76300
H  0.72400 46.58300 21.69300
H  3.15800 47.35800 20.83100
H  1.69900 47.16900 19.98100
H  2.98600 45.88800 20.03100
H  6.13600 45.52100 24.79900
H  6.55200 43.73600 24.99600
H  7.01500 44.96500 26.20500
H  4.05100 45.10600 30.52300
H  5.25300 41.59000 32.81600
H  3.48900 41.46300 32.83800
H  4.41200 42.54900 33.99300

