158

Mg 2.81400 -0.35500 43.74900
C  6.27100 -0.17400 43.13000
C  2.43400 2.71200 42.09700
C  -0.45000 -1.08200 43.32600
C  3.31100 -3.58800 44.83900
N  4.23000 0.98700 42.73300
C  5.54900 0.90100 42.66000
C  6.13300 2.27000 42.13100
C  4.93900 3.18700 42.07000
C  3.76800 2.17400 42.23700
C  4.86100 4.26800 43.20300
C  6.85000 2.07700 40.74000
C  6.03800 1.32500 39.63800
H  5.97000 1.99700 38.26400
N  1.17100 0.83400 42.96300
C  1.21700 2.05800 42.39400
C  -0.17800 2.42700 42.05300
C  -0.99100 1.26500 42.35100
C  -0.07200 0.24100 42.87600
C  -0.59300 3.73900 41.42600
C  -2.44700 1.13100 42.00600
O  -2.99300 2.19000 41.72800
C  -3.26300 -0.15000 42.11200
N  1.66500 -2.02400 43.93200
C  0.32800 -2.13600 43.85000
C  -0.25500 -3.53400 44.09400
C  0.99100 -4.29800 44.61900
C  2.07100 -3.22800 44.45500
C  -1.53500 -3.51500 44.99100
C  1.33100 -5.74900 44.11800
C  1.46100 -6.88300 45.24100
N  4.43000 -1.64000 44.08500
C  4.44200 -2.86900 44.62700
C  5.84500 -3.31700 44.80700
C  6.62000 -2.29200 44.28600
C  5.71700 -1.28800 43.82700
C  6.35100 -4.60900 45.23100
C  7.99800 -1.76700 43.92100
O  9.09200 -2.24900 44.19200
C  7.82800 -0.44300 43.10800
C  8.66500 0.73900 43.69000
O  9.77800 1.07200 43.26800
O  8.05900 1.26200 44.70100
C  8.74800 2.34800 45.41800
H  2.15300 3.68200 41.68100
H  -1.49400 -1.36800 43.18200
H  3.48700 -4.53500 45.35300
H  6.88200 2.56800 42.86500
H  4.84500 3.59900 41.06500
H  4.49100 3.92500 44.16900
H  4.44900 5.14300 42.70100
H  5.89800 4.53400 43.40900
H  7.81700 1.63000 40.97200
H  7.06300 3.06700 40.33600
H  5.00900 1.16500 39.95800
H  6.40000 0.31600 39.44100
H  -0.66100 3.65700 40.34100
H  0.09900 4.53900 41.68900
H  -1.49900 4.05200 41.94500
H  -3.32000 -0.34700 43.18200
H  -2.67200 -0.86800 41.54300
H  -4.27600 -0.12500 41.70900
H  -0.58300 -3.98700 43.15800
H  1.11400 -4.28300 45.70200
H  -1.58600 -2.65100 45.65400
H  -1.51600 -4.41200 45.61000
H  -2.43600 -3.51000 44.37600
H  2.28300 -5.70000 43.59000
H  0.59800 -6.02900 43.36100
H  0.49800 -7.38700 45.32700
H  1.57000 -6.30200 46.15700
H  2.29800 -7.55900 45.07200
H  5.70600 -5.12700 45.94000
H  7.36300 -4.55200 45.63100
H  6.39200 -5.30100 44.39000
H  8.20000 -0.42200 42.08300
H  8.89900 3.18800 44.74000
H  9.76500 2.11100 45.73100
H  8.04100 2.80100 46.11300
Mg -2.81200 34.77700 25.73000
C  -3.95000 33.09100 28.78800
C  -1.48500 37.16500 27.90600
C  -2.17500 36.47300 23.03800
C  -4.66700 32.45900 24.00800
N  -2.56600 35.01500 28.14700
C  -3.18900 34.22400 29.14500
C  -2.73300 34.66300 30.50300
C  -2.16100 36.10700 30.19900
C  -1.97900 36.05500 28.67300
C  -3.11500 37.31300 30.67700
C  -1.70600 33.70500 31.24500
C  -2.29000 33.02700 32.62300
H  -1.30000 32.92600 33.79900
N  -1.98800 36.58600 25.52100
C  -1.43700 37.35700 26.51400
C  -0.70400 38.45500 25.85600
C  -0.92700 38.28700 24.41900
C  -1.65500 37.07900 24.26500
C  0.08300 39.52000 26.61400
C  -0.35200 39.08700 23.30900
O  -0.73500 38.96500 22.15900
C  0.68800 40.12100 23.58900
N  -3.53100 34.63200 23.82300
C  -3.12400 35.47100 22.77900
C  -3.50600 34.96200 21.46300
C  -4.31600 33.68100 21.76100
C  -4.10600 33.50900 23.28500
C  -4.35600 35.96300 20.51200
C  -3.84200 32.38100 20.98700
C  -2.69000 31.54500 21.67300
N  -4.00500 33.07600 26.22200
C  -4.57600 32.16000 25.36600
C  -5.15000 31.04200 26.06200
C  -4.85900 31.41300 27.42800
C  -4.29300 32.66300 27.46600
C  -5.79200 29.80900 25.48500
C  -5.07500 30.97700 28.79700
O  -5.59200 29.93700 29.17500
C  -4.49700 32.04500 29.80300
C  -5.65800 32.48600 30.57400
O  -6.67500 33.09000 30.20600
O  -5.38700 32.15600 31.83200
C  -6.35200 32.34600 32.85800
H  -1.06800 37.94900 28.54200
H  -1.79600 36.88600 22.10100
H  -4.87500 31.55500 23.43100
H  -3.63700 34.62100 31.11100
H  -1.21000 36.20600 30.72200
H  -4.04700 36.80600 30.92600
H  -3.14400 38.03000 29.85600
H  -2.66200 37.76900 31.55700
H  -0.74600 34.13400 31.53100
H  -1.46900 32.97200 30.47400
H  -2.84300 32.12000 32.37600
H  -3.01000 33.79900 32.89400
H  -0.43700 40.47500 26.53400
H  1.07400 39.46100 26.16400
H  0.13300 39.27800 27.67600
H  1.17300 40.29100 22.62800
H  1.42800 39.76900 24.30800
H  0.25500 41.09100 23.83400
H  -2.63200 34.68800 20.87300
H  -5.36600 33.83800 21.51600
H  -4.61300 36.84100 21.10400
H  -5.25900 35.48800 20.12800
H  -3.85700 36.32200 19.61200
H  -3.47000 32.76200 20.03600
H  -4.66900 31.71400 20.74400
H  -2.54000 31.71100 22.74000
H  -1.76900 31.80700 21.15300
H  -2.90300 30.49900 21.45300
H  -6.87800 29.89200 25.51800
H  -5.66400 28.85600 25.99800
H  -5.63700 29.68000 24.41400
H  -3.60200 31.73700 30.34300
H  -7.25200 32.89500 32.58300
H  -6.06300 32.69900 33.84800
H  -6.65600 31.32300 33.07900

