158

Mg 30.32900 58.58000 40.27400
C  27.55200 56.91400 39.32700
C  32.29600 56.06400 38.83000
C  33.12500 60.45000 40.55400
C  28.36600 61.47300 40.93900
N  29.95700 56.72000 39.28300
C  28.70600 56.22500 38.97800
C  28.80100 54.96300 38.14600
C  30.21200 54.48200 38.52400
C  30.89800 55.80700 38.86200
C  30.28100 53.49400 39.78700
C  28.52800 55.24100 36.62100
C  27.50000 54.24900 35.90900
H  26.56200 54.82300 34.95300
N  32.49000 58.28400 39.94200
C  33.09000 57.18600 39.28400
C  34.55000 57.37600 39.24700
C  34.84200 58.66700 39.74200
C  33.50000 59.17700 40.08300
C  35.47400 56.33200 38.71200
C  36.18200 59.30400 39.91600
O  37.20800 58.69100 39.57900
C  36.36600 60.68300 40.59200
N  30.67300 60.66700 40.68800
C  31.92000 61.12600 40.89300
C  31.96700 62.63000 41.31000
C  30.43100 62.99400 41.31000
C  29.78200 61.64900 40.94500
C  32.60100 62.82100 42.80000
C  30.11000 64.05300 40.23500
C  29.96500 65.54800 40.70100
N  28.33900 59.05600 40.25700
C  27.69800 60.25700 40.56000
C  26.27500 60.03400 40.49300
C  26.17900 58.75800 39.91800
C  27.46400 58.19700 39.83800
C  25.10300 60.95300 40.89200
C  25.29300 57.73300 39.47800
O  24.06900 57.70200 39.40900
C  26.14200 56.55600 39.02000
C  25.61900 55.36900 39.71400
O  25.99100 55.04300 40.83400
O  24.74700 54.65700 38.97300
C  24.14000 53.39600 39.48300
H  32.98600 55.28500 38.50200
H  33.97700 61.12300 40.67400
H  27.71700 62.30000 41.23500
H  28.15400 54.20200 38.58400
H  30.66600 53.92700 37.70300
H  30.75100 54.02700 40.61400
H  30.84000 52.61800 39.45600
H  29.27900 53.13300 40.01800
H  29.40500 55.16600 35.97900
H  28.01100 56.18700 36.46500
H  26.97500 53.74100 36.71800
H  28.01600 53.51900 35.28600
H  36.45500 56.72800 38.45300
H  35.09000 55.88300 37.79600
H  35.65200 55.59900 39.49900
H  37.42800 60.71600 40.83600
H  35.64600 60.74600 41.40800
H  36.05400 61.41800 39.85000
H  32.63700 63.20500 40.67100
H  30.12600 63.40000 42.27400
H  32.75800 63.89100 42.93500
H  33.46100 62.25000 43.15300
H  31.84900 62.41900 43.47800
H  29.23100 63.73900 39.67100
H  30.95700 63.92200 39.56100
H  29.07400 66.05000 40.32400
H  30.84000 66.11100 40.37800
H  29.87700 65.54800 41.78800
H  25.47200 61.72500 41.56700
H  24.28500 60.42800 41.38600
H  24.70400 61.56400 40.08200
H  25.90900 56.45800 37.96000
H  24.41900 53.27600 40.53000
H  24.51700 52.52800 38.94100
H  23.05200 53.45100 39.51000
Mg 16.40900 51.53200 25.70600
C  18.17900 50.49900 28.54800
C  13.75000 52.26900 27.83900
C  14.74900 52.41500 22.91100
C  18.97800 50.05800 23.78400
N  16.05400 51.43400 28.03900
C  16.97600 51.08900 28.97500
C  16.45900 51.41300 30.34700
C  14.92400 51.84200 30.11500
C  14.84700 51.79900 28.55700
C  13.88400 50.91700 30.89000
C  17.46500 52.49100 30.99400
C  17.82400 52.11300 32.45400
H  17.00900 51.04600 33.23800
N  14.55500 52.37700 25.42300
C  13.59400 52.54900 26.39300
C  12.39700 53.05400 25.72200
C  12.60500 53.02400 24.32400
C  13.97500 52.54700 24.13900
C  11.14300 53.57600 26.49800
C  11.73200 53.53700 23.22500
O  12.02400 53.49800 22.01200
C  10.30200 54.10800 23.46600
N  16.67600 51.14800 23.66900
C  16.00900 51.80300 22.71700
C  16.60000 51.71300 21.28100
C  17.95800 50.96600 21.63000
C  17.88800 50.71900 23.09800
C  15.65200 50.69000 20.45900
C  19.25400 51.75900 21.39400
C  20.33900 50.94700 20.69100
N  18.03800 50.40800 25.98800
C  19.05500 49.93400 25.12300
C  20.12400 49.36000 25.87700
C  19.77600 49.50900 27.19000
C  18.56900 50.23100 27.23900
C  21.40900 48.77100 25.32800
C  20.33600 49.34100 28.52200
O  21.44400 48.82300 28.87600
C  19.26900 49.94300 29.51700
C  18.76500 48.85600 30.36700
O  17.81100 48.13300 30.12400
O  19.68600 48.56200 31.38800
C  19.48800 47.26600 32.12400
H  12.90900 52.43100 28.51600
H  14.36800 52.66100 21.91800
H  19.72800 49.58700 23.14600
H  16.44700 50.51100 30.95900
H  14.75400 52.88200 30.39200
H  14.20600 50.73800 31.91600
H  13.78400 49.94100 30.41400
H  12.82400 51.16900 30.88800
H  16.85000 53.38900 31.05800
H  18.33000 52.75600 30.38600
H  17.68100 53.00300 33.06700
H  18.88100 51.86800 32.55900
H  11.15100 54.61700 26.17400
H  11.26900 53.71800 27.57200
H  10.21000 53.06900 26.25400
H  9.70200 53.46400 24.11000
H  9.82800 54.16500 22.48600
H  10.56700 55.04800 23.94900
H  16.62700 52.72700 20.88000
H  17.93000 49.98300 21.15900
H  14.89100 51.26800 19.93400
H  15.20800 49.98800 21.16500
H  16.27300 50.06200 19.82000
H  19.62700 52.25600 22.29000
H  19.07700 52.65600 20.79900
H  20.08400 50.02600 20.16600
H  21.07500 50.63800 21.43400
H  20.89900 51.59000 20.01200
H  22.32300 49.32100 25.55300
H  21.46300 48.61300 24.25100
H  21.50600 47.79500 25.80200
H  19.62700 50.76500 30.13700
H  19.12400 47.46600 33.13200
H  20.43000 46.74600 32.29900
H  18.86600 46.53900 31.60200

