158

Mg 24.60300 -6.97500 48.27500
C  27.18000 -4.60700 47.27700
C  22.71600 -5.64100 45.64100
C  22.62800 -9.62000 48.49300
C  26.88900 -8.29900 50.51900
N  24.91800 -5.34100 46.57800
C  25.98500 -4.44500 46.54000
C  25.77400 -3.37900 45.46300
C  24.19900 -3.58400 45.12800
C  23.91100 -4.94100 45.83000
C  23.24900 -2.47300 45.60000
C  26.64700 -3.52700 44.26300
C  27.25400 -2.33900 43.49400
H  26.94400 -1.89700 42.12300
N  22.77100 -7.54600 47.22300
C  22.21300 -6.89000 46.17900
C  21.05000 -7.62100 45.71800
C  21.03500 -8.86000 46.50300
C  22.18700 -8.74300 47.45000
C  20.05400 -7.26900 44.70700
C  19.90900 -9.91000 46.45900
O  18.94900 -9.74400 45.71300
C  19.84200 -11.15400 47.29500
N  24.65600 -8.72100 49.39200
C  23.68600 -9.63200 49.40800
C  23.96900 -10.79700 50.40300
C  25.32900 -10.39200 51.02200
C  25.66000 -9.01000 50.31000
C  22.82000 -10.97500 51.46100
C  26.45200 -11.52500 50.68100
C  27.33400 -12.22300 51.80600
N  26.58600 -6.59000 48.84800
C  27.38100 -7.21400 49.83100
C  28.61000 -6.52400 50.02300
C  28.63800 -5.55800 48.98300
C  27.35900 -5.60100 48.27700
C  29.64400 -6.90800 50.98300
C  29.40000 -4.51700 48.32500
O  30.50400 -4.08200 48.57500
C  28.42900 -3.81600 47.28300
C  28.21000 -2.37900 47.70300
O  27.89300 -2.01800 48.85900
O  28.39000 -1.59700 46.61500
C  28.30400 -0.07700 46.82500
H  21.96600 -5.28900 44.93000
H  22.02100 -10.52700 48.54500
H  27.54800 -8.68300 51.30100
H  25.91500 -2.39300 45.90600
H  24.02800 -3.70000 44.05800
H  22.29100 -2.76300 45.16900
H  23.54000 -1.50500 45.19200
H  23.17800 -2.39800 46.68500
H  26.03500 -3.97600 43.48200
H  27.37400 -4.27200 44.58800
H  28.34100 -2.40400 43.54600
H  26.92200 -1.51900 44.13000
H  20.53400 -6.66800 43.93500
H  19.22500 -6.66900 45.08500
H  19.62100 -8.10700 44.16200
H  19.29000 -11.05100 48.22900
H  20.85800 -11.54100 47.38500
H  19.38800 -12.02000 46.81300
H  24.10200 -11.75600 49.90300
H  25.20200 -10.19000 52.08500
H  22.03000 -10.30700 51.11900
H  23.11000 -10.59400 52.44000
H  22.40400 -11.98200 51.50800
H  27.22100 -10.99300 50.12200
H  25.99400 -12.31300 50.08200
H  27.14600 -11.79400 52.79000
H  28.39500 -12.06500 51.61600
H  27.01600 -13.26400 51.87600
H  29.80300 -7.98100 50.88500
H  29.51400 -6.72100 52.04900
H  30.64500 -6.73900 50.58500
H  28.82500 -3.82800 46.26700
H  29.24500 0.16900 47.31700
H  27.45600 0.25200 47.42600
H  28.15600 0.43400 45.87400
Mg -10.43300 38.89400 42.31800
C  -8.86900 35.92000 41.58300
C  -7.68900 40.58300 41.22600
C  -12.22400 41.75200 42.43600
C  -13.40100 37.01400 42.74500
N  -8.57800 38.22000 41.35400
C  -8.01900 36.97700 41.27400
C  -6.59500 37.01600 40.73600
C  -6.17500 38.51900 41.09500
C  -7.54800 39.15200 41.22600
C  -5.18400 38.75400 42.29600
C  -6.44300 36.64200 39.15300
C  -5.24000 35.75500 38.87700
H  -5.37600 34.69600 37.75400
N  -10.09100 40.89000 41.74400
C  -8.86400 41.35700 41.38900
C  -8.97900 42.77800 41.06100
C  -10.25400 43.15300 41.46700
C  -10.90800 41.94900 41.96400
C  -7.82300 43.62100 40.37700
C  -10.80400 44.64600 41.44700
O  -10.05600 45.54100 41.00200
C  -12.23900 45.01400 41.94500
N  -12.54500 39.33900 42.69100
C  -12.94600 40.59300 42.78100
C  -14.48600 40.62600 43.20100
C  -14.94500 39.11900 43.03700
C  -13.58800 38.41500 42.79500
C  -14.82400 41.36400 44.53400
C  -16.15200 38.86100 42.04300
C  -17.55700 38.41700 42.52600
N  -10.99800 36.87100 42.31300
C  -12.21400 36.24800 42.52700
C  -12.09800 34.78300 42.40300
C  -10.76300 34.62300 42.07100
C  -10.14900 35.90400 41.96900
C  -13.12100 33.79100 42.85000
C  -9.68400 33.64900 41.79300
O  -9.79900 32.46100 41.89900
C  -8.46800 34.49200 41.30500
C  -7.42500 34.03800 42.21400
O  -7.15600 34.52800 43.35300
O  -6.85200 32.93800 41.66400
C  -5.90200 32.19600 42.60700
H  -6.80500 41.13100 40.89500
H  -12.86200 42.61600 42.63200
H  -14.34900 36.48200 42.85100
H  -5.99200 36.37200 41.37600
H  -5.75200 39.02900 40.22900
H  -5.76300 39.23400 43.08500
H  -4.37500 39.43700 42.03900
H  -4.70700 37.86200 42.70100
H  -6.21500 37.54800 38.59100
H  -7.41700 36.28700 38.81900
H  -5.10000 35.24300 39.82900
H  -4.38100 36.30100 38.48800
H  -7.02600 42.95500 40.04500
H  -7.43300 44.44300 40.97800
H  -8.26300 44.06500 39.48400
H  -12.42700 44.67200 42.96300
H  -12.95000 44.83600 41.13800
H  -12.12400 46.09700 42.00400
H  -14.96900 41.15800 42.38100
H  -15.41500 38.69200 43.92300
H  -15.53500 42.18400 44.43100
H  -13.89300 41.87500 44.78100
H  -15.07200 40.78400 45.42200
H  -15.82200 38.19000 41.25100
H  -16.39400 39.76100 41.47700
H  -17.94500 37.50000 42.08200
H  -18.23900 39.26100 42.42300
H  -17.56100 38.32100 43.61100
H  -13.68800 33.29400 42.06200
H  -13.85900 34.20600 43.53600
H  -12.63600 33.07900 43.51800
H  -8.17600 34.26100 40.28100
H  -6.27600 32.28400 43.62700
H  -4.92400 32.67500 42.56600
H  -5.82800 31.14400 42.33200

