158

Mg 47.99600 34.80400 26.82200
C  46.33900 33.39800 29.64400
C  48.22000 37.73900 28.77500
C  49.07500 36.28200 24.19100
C  47.49200 31.80400 25.13500
N  47.53400 35.45900 29.02900
C  46.89200 34.64600 29.95100
C  46.94600 35.29700 31.31100
C  47.10200 36.77700 30.95000
C  47.62200 36.71000 29.51400
C  45.84600 37.68000 31.10500
C  48.12200 34.65200 32.10100
C  48.09700 34.79100 33.64800
H  47.05000 35.68000 34.40200
N  48.67900 36.68500 26.53800
C  48.75700 37.70900 27.46300
C  49.36600 38.80900 26.77900
C  49.62600 38.49000 25.40300
C  49.14800 37.11900 25.31500
C  49.79800 40.15100 27.49700
C  50.39100 39.19300 24.27400
O  50.52800 38.74100 23.13100
C  50.91000 40.58800 24.53300
N  48.33200 34.10400 24.94500
C  48.75400 34.97700 23.96700
C  48.82000 34.17300 22.65100
C  48.70800 32.68500 23.02100
C  48.07200 32.87900 24.41200
C  47.77000 34.68400 21.61600
C  50.07300 31.86100 22.88500
C  51.16100 31.89300 24.04200
N  47.03400 32.99400 27.18300
C  46.94400 31.84700 26.44900
C  46.18900 30.81700 27.18800
C  45.89100 31.44400 28.41800
C  46.42800 32.73400 28.38600
C  45.75500 29.40100 26.71300
C  45.13900 31.28800 29.64500
O  44.42400 30.32800 29.99800
C  45.29600 32.59700 30.44000
C  45.47900 32.40100 31.89900
O  46.50400 32.05200 32.50700
O  44.25500 32.36600 32.56300
C  44.08400 32.01000 33.97400
H  48.16600 38.73100 29.22900
H  49.48300 36.74200 23.28800
H  47.47100 30.89300 24.53200
H  46.01500 35.13200 31.85400
H  47.84100 37.28200 31.57200
H  45.89400 38.28100 32.01300
H  45.00300 37.00100 31.23300
H  45.60500 38.28300 30.22900
H  49.01300 35.21400 31.81900
H  48.31500 33.60700 31.86200
H  49.14300 35.03800 33.83000
H  48.00400 33.75200 33.96600
H  50.87400 40.31600 27.55600
H  49.24800 40.09100 28.43700
H  49.40700 40.98100 26.91000
H  50.22300 41.24800 25.06400
H  50.93400 41.02800 23.53500
H  51.87600 40.54000 25.03500
H  49.74600 34.31000 22.09200
H  47.95100 32.26500 22.35900
H  48.10200 34.61500 20.58000
H  47.41400 35.71100 21.69200
H  46.83600 34.12200 21.65800
H  50.43000 32.19900 21.91200
H  49.56600 30.90800 22.73100
H  50.98300 30.96300 24.58100
H  50.88500 32.75100 24.65600
H  52.15900 32.08500 23.64700
H  45.90400 29.38600 25.63300
H  44.68200 29.34800 26.89900
H  46.16400 28.54900 27.25500
H  44.46000 33.29500 30.38200
H  43.10700 31.55800 34.14200
H  44.26900 32.85500 34.63800
H  44.87100 31.30000 34.23100
Mg -1.79100 35.16200 26.71900
C  -3.46500 33.22700 29.18400
C  -0.59000 37.15600 29.24300
C  -0.85400 37.43900 24.41500
C  -3.59900 33.42400 24.37600
N  -2.13600 35.25800 28.93400
C  -2.79600 34.31500 29.75000
C  -2.52400 34.60500 31.22800
C  -1.81900 35.95500 31.21100
C  -1.40500 36.06600 29.75100
C  -2.73200 37.15400 31.52200
C  -1.48100 33.48000 31.75100
C  -1.84600 32.95400 33.13400
H  -0.86300 32.96100 34.33200
N  -0.74300 36.88400 26.81300
C  -0.23900 37.49600 27.93400
C  0.67900 38.57200 27.55000
C  0.59600 38.73000 26.15600
C  -0.37800 37.64500 25.72000
C  1.35500 39.40900 28.56800
C  1.30100 39.68200 25.18500
O  1.13300 39.72700 24.04600
C  2.32200 40.58300 25.68500
N  -2.24000 35.48300 24.69600
C  -1.76900 36.52500 23.94700
C  -2.35100 36.50500 22.53600
C  -2.89200 35.00100 22.41300
C  -2.96700 34.58300 23.92700
C  -3.35900 37.67200 22.30700
C  -1.96700 34.03400 21.69100
C  -2.64800 32.78100 21.05600
N  -3.12800 33.58300 26.74700
C  -3.73400 32.93000 25.71900
C  -4.38500 31.72000 26.15500
C  -4.36700 31.76800 27.51800
C  -3.60900 32.95600 27.85800
C  -5.16100 30.80800 25.25900
C  -4.86300 31.16500 28.77600
O  -5.55900 30.18500 29.01500
C  -4.11600 32.03300 29.93200
C  -5.11700 32.41100 30.90900
O  -6.25900 32.82400 30.60900
O  -4.67700 32.01000 32.17000
C  -5.67100 32.23100 33.26300
H  -0.14200 37.80800 29.99500
H  -0.54100 38.18400 23.68100
H  -4.07500 32.85400 23.57500
H  -3.51800 34.57400 31.67500
H  -0.97100 35.80600 31.87900
H  -3.61900 36.86800 32.08800
H  -2.97900 37.60800 30.56300
H  -2.23800 37.87500 32.17300
H  -0.46600 33.87700 31.72000
H  -1.46400 32.70000 30.99000
H  -2.20100 31.93700 32.96800
H  -2.71300 33.54400 33.43000
H  1.19700 40.47800 28.42500
H  2.42900 39.22800 28.51700
H  1.09300 39.28500 29.61900
H  2.99200 40.96600 24.91500
H  3.00900 39.98900 26.28800
H  2.03500 41.54000 26.12200
H  -1.55100 36.68600 21.81800
H  -3.85500 35.10000 21.91200
H  -3.71700 37.42100 21.30900
H  -2.83900 38.63000 22.30100
H  -4.22100 37.71600 22.97300
H  -1.26200 33.54100 22.35900
H  -1.35400 34.59400 20.98400
H  -3.71400 32.72000 21.27600
H  -2.25000 31.92000 21.59300
H  -2.54200 32.58400 19.98900
H  -5.95400 31.26600 24.66900
H  -5.69800 30.08400 25.87200
H  -4.56600 30.23100 24.55200
H  -3.39200 31.39700 30.43900
H  -6.40300 33.00000 33.01300
H  -5.11800 32.67200 34.09300
H  -6.06900 31.28200 33.62100

