158

Mg 44.82100 3.63700 47.20600
C  42.64500 6.34100 46.79400
C  42.03400 1.49400 47.31900
C  46.90500 1.00300 46.81300
C  47.49300 5.99200 46.68500
N  42.55000 3.94900 47.10600
C  41.93000 5.09200 46.83200
C  40.36900 4.87800 46.65100
C  40.20600 3.34000 46.99200
C  41.69500 2.92400 47.28200
C  39.15500 3.15700 48.15500
C  40.03000 5.16300 45.09800
C  38.83600 5.97500 44.76400
H  39.03700 7.03300 43.74500
N  44.53900 1.52500 47.17300
C  43.27300 0.88700 47.22900
C  43.57900 -0.58400 47.31700
C  44.95000 -0.72300 47.09700
C  45.54900 0.60900 46.94500
C  42.47400 -1.67300 47.44700
C  45.73700 -2.06300 47.11100
O  45.16200 -3.13700 47.31500
C  47.25300 -2.16700 46.94100
N  46.83900 3.56000 46.56800
C  47.45600 2.30500 46.67500
C  48.98200 2.53300 46.71400
C  49.13500 4.08900 46.94200
C  47.72600 4.63400 46.76900
C  49.76000 1.82500 47.81900
C  50.11200 4.80700 45.83700
C  51.13800 5.78400 46.49400
N  45.09300 5.78800 46.85000
C  46.21300 6.58300 46.72800
C  45.76200 7.90800 46.61600
C  44.37600 7.96600 46.57200
C  44.00100 6.56200 46.74200
C  46.72800 9.18400 46.34800
C  43.15900 8.77400 46.55800
O  42.92300 9.97900 46.58200
C  42.03500 7.73300 46.61600
C  41.20300 8.11200 47.76900
O  41.32300 7.68400 48.91500
O  40.22500 9.02900 47.36100
C  39.29200 9.50100 48.43700
H  41.19400 0.82000 47.14200
H  47.63300 0.18900 46.81400
H  48.40900 6.58400 46.64000
H  39.72700 5.52600 47.24900
H  39.88000 2.74600 46.13800
H  38.55700 4.06100 48.27600
H  39.55500 2.94800 49.14700
H  38.55500 2.27700 47.92600
H  39.78100 4.21900 44.61200
H  40.84500 5.65000 44.56300
H  38.53900 6.51900 45.66100
H  38.08300 5.26300 44.42600
H  42.37000 -2.38400 46.62700
H  41.56500 -1.17100 47.77800
H  42.73500 -2.38800 48.22700
H  47.83400 -1.63000 47.69000
H  47.38700 -1.89300 45.89400
H  47.57300 -3.20500 47.03400
H  49.42300 2.18400 45.78000
H  49.38400 4.32600 47.97700
H  49.28600 1.98400 48.78700
H  50.82000 2.07700 47.84200
H  49.66200 0.76100 47.60000
H  49.61500 5.18200 44.94200
H  50.78100 4.01300 45.50700
H  52.10000 5.28200 46.39500
H  50.88200 5.98700 47.53400
H  51.15600 6.68700 45.88400
H  46.51800 9.63000 45.37600
H  47.78600 8.94800 46.46300
H  46.51900 9.89000 47.15100
H  41.39300 7.84300 45.74200
H  39.61000 10.53400 48.57800
H  39.44700 9.04800 49.41700
H  38.28500 9.48200 48.02100
Mg 50.68100 45.29200 42.34700
C  47.79900 47.03000 41.03900
C  49.54600 42.39100 40.98000
C  53.74600 44.03200 42.58000
C  51.94400 48.55600 42.98000
N  48.95900 44.83700 41.11300
C  47.82200 45.65500 40.81300
C  46.67400 44.82400 40.15300
C  47.08800 43.31600 40.36000
C  48.65600 43.52100 40.84800
C  46.31200 42.49800 41.45700
C  46.44000 45.08600 38.65500
C  44.99700 45.02800 38.16200
H  44.63700 43.86500 37.27100
N  51.53400 43.40200 41.90000
C  50.83200 42.34700 41.42500
C  51.76700 41.25900 41.38400
C  53.01700 41.72600 41.77500
C  52.83400 43.12500 42.03600
C  51.41400 39.94800 40.83600
C  54.26100 40.93600 41.81100
O  54.23000 39.70300 41.68100
C  55.63200 41.48300 41.93800
N  52.49800 46.14700 42.81800
C  53.66900 45.38100 42.93700
C  54.89400 46.18400 43.36500
C  54.28300 47.59500 43.67000
C  52.85300 47.44400 43.08900
C  55.59400 45.51500 44.52300
C  55.01300 48.81500 42.97300
C  55.13700 50.06300 43.78600
N  49.96800 47.37600 42.23800
C  50.62600 48.56000 42.52100
C  49.82900 49.68800 42.23900
C  48.62500 49.12100 41.76200
C  48.80400 47.76300 41.74100
C  50.28900 51.18100 42.33600
C  47.44100 49.45800 41.05700
O  47.05400 50.61100 40.80200
C  46.82800 48.11500 40.55400
C  45.52100 48.11600 41.22000
O  45.28600 48.38800 42.41800
O  44.53700 47.99000 40.26400
C  43.17300 48.12000 40.67500
H  49.06700 41.43300 40.77000
H  54.79400 43.72700 42.60300
H  52.37100 49.50900 43.29800
H  45.83500 45.03200 40.81700
H  47.11900 42.68800 39.47000
H  45.34900 42.94200 41.70700
H  46.82400 42.43000 42.41700
H  46.01300 41.53400 41.04300
H  46.99000 44.33300 38.09000
H  46.86300 46.00900 38.25800
H  44.83300 45.95300 37.60900
H  44.32400 44.92900 39.01400
H  52.00700 39.63000 39.97900
H  50.37900 39.90100 40.49900
H  51.36100 39.09000 41.50600
H  55.61900 41.98500 42.90500
H  55.74900 42.24300 41.16600
H  56.48700 40.81300 41.84600
H  55.58300 46.21700 42.52100
H  54.06500 47.65500 44.73600
H  55.84100 46.28800 45.25200
H  56.51700 45.02400 44.21900
H  54.94800 44.78600 45.01300
H  54.43100 49.10100 42.09700
H  56.04400 48.52300 42.77200
H  56.11200 50.11900 44.27100
H  54.30100 49.98300 44.48000
H  54.91000 50.90600 43.13300
H  50.47600 51.49300 43.36400
H  49.55300 51.80500 41.83000
H  51.24900 51.19700 41.82000
H  46.77800 48.10500 39.46600
H  42.87400 47.16100 41.09700
H  42.52100 48.30800 39.82200
H  43.00600 48.97900 41.32500

