158

Mg 26.95000 50.42500 26.17800
C  24.96700 51.38100 28.93000
C  29.20500 49.28000 28.43600
C  28.85100 49.90200 23.62200
C  24.38600 51.79900 24.10800
N  26.89200 50.10600 28.41700
C  26.02600 50.65100 29.33600
C  26.50900 50.43800 30.78200
C  27.98100 49.88400 30.56500
C  28.06700 49.64500 29.08100
C  29.16000 50.65000 31.17700
C  25.49000 49.43000 31.56000
C  24.96800 49.85900 32.92200
H  25.88400 50.27500 34.09500
N  28.76200 49.70500 26.04400
C  29.62800 49.32800 27.05300
C  30.91900 48.88200 26.50500
C  30.72600 48.93800 25.11700
C  29.41400 49.53600 24.85900
C  32.14200 48.39100 27.41800
C  31.61700 48.47800 24.00200
O  31.38400 48.48300 22.82000
C  32.99200 48.04800 24.43800
N  26.78400 51.08200 24.24100
C  27.68500 50.59300 23.33900
C  27.23300 50.90700 21.88800
C  25.74400 51.21200 22.09000
C  25.59500 51.30500 23.60000
C  28.04900 52.00500 21.31500
C  24.63900 50.29100 21.45600
C  23.50700 50.99700 20.62400
N  25.06100 51.39500 26.41500
C  24.14800 51.89500 25.46700
C  23.01900 52.45600 26.14600
C  23.26400 52.31200 27.50700
C  24.56300 51.68400 27.62300
C  21.79200 53.10000 25.55900
C  22.79700 52.63700 28.89800
O  21.77700 53.12600 29.30400
C  23.81800 51.95000 29.83100
C  24.22100 53.01400 30.77400
O  25.14800 53.82000 30.56400
O  23.41600 53.06100 31.85000
C  23.74900 54.02100 32.91600
H  30.03100 48.98800 29.08800
H  29.48000 49.73700 22.74500
H  23.52400 51.97400 23.46000
H  26.61100 51.36900 31.33900
H  28.00200 48.93500 31.10100
H  29.76900 51.01500 30.35000
H  29.75600 50.02000 31.83800
H  28.82300 51.50600 31.76200
H  25.76200 48.37400 31.57100
H  24.62100 49.51100 30.90700
H  24.38800 48.97700 33.19300
H  24.20100 50.61900 32.77500
H  31.76800 48.21700 28.42800
H  32.76400 49.28200 27.33600
H  32.71600 47.53600 27.06100
H  32.93300 47.04100 24.85100
H  33.34800 48.79500 25.14700
H  33.63200 47.88200 23.57000
H  27.53200 49.98900 21.38200
H  25.51200 52.24000 21.81200
H  28.76300 52.39200 22.04200
H  27.35100 52.81900 21.11800
H  28.59100 51.60400 20.45900
H  24.21600 49.53200 22.11300
H  25.22400 49.68900 20.76100
H  23.72800 52.05300 20.47000
H  22.51200 50.88700 21.05700
H  23.68800 50.56400 19.64100
H  20.96800 53.09700 26.27300
H  21.53200 52.54800 24.65600
H  21.96400 54.14000 25.28300
H  23.30200 51.11000 30.29500
H  24.15400 53.52100 33.79600
H  22.86300 54.56400 33.24200
H  24.53300 54.69600 32.57500
Mg -10.64900 38.59300 41.01400
C  -8.59500 35.79600 40.53700
C  -8.46500 40.50600 39.35000
C  -12.92700 41.07200 41.24300
C  -13.12400 36.40200 42.49200
N  -8.83600 38.11500 39.84500
C  -8.15800 36.90700 39.77300
C  -6.88600 37.05900 38.94500
C  -6.81600 38.60300 38.65000
C  -8.10400 39.15700 39.37100
C  -5.47800 39.17900 39.14400
C  -6.93300 36.12700 37.70000
C  -5.60100 35.40300 37.31300
H  -4.54900 36.17900 36.45100
N  -10.64300 40.53600 40.41400
C  -9.59900 41.21700 39.76000
C  -9.94700 42.60300 39.58800
C  -11.31700 42.80900 40.03300
C  -11.70900 41.46200 40.64800
C  -8.96500 43.65800 39.16800
C  -12.06800 44.17500 40.00300
O  -11.61800 45.17600 39.54800
C  -13.41600 44.23100 40.75800
N  -12.80400 38.60600 41.48800
C  -13.39600 39.80800 41.63900
C  -14.84300 39.70500 42.17100
C  -15.01400 38.18300 42.34400
C  -13.56500 37.65600 42.12700
C  -15.17000 40.59400 43.36800
C  -16.01800 37.50200 41.32300
C  -15.53500 36.88800 40.00800
N  -10.86500 36.58600 41.44500
C  -11.84300 35.87100 42.10900
C  -11.34400 34.57700 42.44200
C  -10.09900 34.51700 41.83700
C  -9.84800 35.76800 41.23200
C  -12.15500 33.49900 43.10300
C  -8.98000 33.65500 41.58100
O  -8.88600 32.51700 41.91800
C  -7.95900 34.42700 40.80600
C  -6.66000 34.33900 41.52200
O  -5.97200 33.32200 41.49600
O  -6.36400 35.51100 42.23400
C  -5.15000 35.50300 43.13600
H  -7.63600 41.11100 38.97600
H  -13.69300 41.80700 41.49800
H  -13.83300 35.71100 42.95300
H  -6.00100 36.73800 39.49300
H  -6.80000 38.97100 37.62400
H  -5.59900 39.61900 40.13400
H  -5.10400 39.96500 38.48700
H  -4.73800 38.40300 39.33900
H  -7.18100 36.83700 36.91200
H  -7.71700 35.38600 37.85700
H  -5.96100 34.57500 36.70200
H  -5.12400 35.00700 38.21000
H  -7.95000 43.26100 39.19000
H  -9.05500 44.39700 39.96400
H  -9.15200 44.18800 38.23500
H  -13.23900 44.06000 41.82000
H  -14.07500 43.48900 40.30700
H  -13.88900 45.21100 40.70700
H  -15.48000 39.95900 41.32400
H  -15.34700 37.91100 43.34500
H  -14.18800 40.92700 43.70400
H  -15.61400 39.99500 44.16300
H  -15.75600 41.45000 43.03000
H  -16.83500 38.16800 41.04900
H  -16.38400 36.60600 41.82500
H  -16.13200 37.05200 39.11200
H  -15.32800 35.81800 40.00500
H  -14.56100 37.36400 39.89100
H  -12.55100 33.80800 44.07000
H  -11.42300 32.75800 43.42300
H  -12.94700 33.07000 42.48900
H  -8.06800 33.96600 39.82500
H  -5.38800 35.59100 44.19600
H  -4.65800 36.47400 43.07100
H  -4.39000 34.74100 42.96500

