158

Mg 35.79400 1.96100 29.61400
C  33.89400 3.28200 32.13200
C  38.70200 2.36600 31.69800
C  37.65600 0.98700 27.06100
C  33.02800 2.22200 27.40900
N  36.21900 2.88000 31.54200
C  35.22600 3.06400 32.47900
C  35.76500 3.12500 33.94100
C  37.27800 3.28200 33.61900
C  37.43900 2.79200 32.20200
C  37.85000 4.67900 33.70900
C  35.40600 1.80200 34.72100
C  34.93100 1.87000 36.19100
H  35.14900 3.15500 37.01900
N  37.86200 1.62100 29.40400
C  38.87100 1.84600 30.36700
C  40.13600 1.46000 29.85100
C  39.94000 1.21900 28.46800
C  38.41800 1.23800 28.24200
C  41.25600 1.48400 30.68100
C  40.97500 0.92500 27.40700
O  40.64600 0.65500 26.28300
C  42.42300 0.98500 27.71800
N  35.38400 1.69500 27.50400
C  36.30600 1.09600 26.76800
C  35.83100 0.87200 25.29800
C  34.26300 1.24800 25.42400
C  34.17600 1.67500 26.87000
C  36.58000 1.65000 24.13900
C  33.40300 0.04600 25.10900
C  33.00100 -0.16500 23.63900
N  33.85900 2.48500 29.70200
C  32.82800 2.48400 28.79700
C  31.62900 2.93200 29.47300
C  31.99400 3.19400 30.80200
C  33.37900 2.95900 30.84100
C  30.28300 3.03500 28.89700
C  31.51200 3.59000 32.09000
O  30.33200 3.66800 32.47600
C  32.76300 3.75900 33.04100
C  32.80100 5.12300 33.55700
O  33.52400 5.99600 33.17000
O  32.04800 5.11100 34.78100
C  32.09500 6.43900 35.55800
H  39.44800 2.34200 32.49600
H  38.21000 0.62000 26.19400
H  32.25100 2.13900 26.64600
H  35.38900 4.03800 34.40300
H  37.91600 2.68900 34.27300
H  37.21100 5.43000 34.17300
H  38.07600 5.09900 32.72900
H  38.79400 4.67700 34.25500
H  36.29000 1.16600 34.77400
H  34.70200 1.18200 34.16500
H  35.40900 1.05100 36.72900
H  33.88400 1.60500 36.33300
H  41.42700 2.47300 31.10600
H  42.22300 1.22000 30.25200
H  41.04200 0.90500 31.57900
H  42.62700 0.03600 28.21500
H  42.64700 1.90200 28.26300
H  42.88400 1.01800 26.73100
H  35.86500 -0.20000 25.10600
H  34.03600 2.21700 24.98000
H  36.94000 0.93500 23.39900
H  37.42100 2.21600 24.53800
H  35.96400 2.38500 23.62200
H  32.47500 -0.03500 25.67500
H  33.88200 -0.89500 25.37900
H  32.01200 0.28300 23.53300
H  33.10600 -1.20700 23.33800
H  33.70100 0.40400 23.02700
H  29.53300 2.48400 29.46500
H  30.21100 2.87200 27.82200
H  30.03100 4.05700 29.17900
H  32.63400 3.08300 33.88600
H  32.89600 6.35800 36.29300
H  31.24700 6.41900 36.24300
H  32.22800 7.36700 35.00200
Mg 9.48000 48.03300 26.01900
C  7.44700 48.43900 28.87600
C  12.15700 49.20700 27.95100
C  11.39800 48.10900 23.24900
C  6.57300 47.69900 24.14100
N  9.67300 48.83400 28.12500
C  8.79000 48.74700 29.17700
C  9.49800 49.00500 30.55900
C  10.93900 49.58200 30.19500
C  10.95800 49.18300 28.66000
C  11.20400 51.15700 30.30200
C  9.55700 47.71900 31.42900
C  10.38800 47.77100 32.68000
H  9.83300 46.99200 33.86900
N  11.55700 48.35000 25.71000
C  12.45400 48.81800 26.60600
C  13.78100 48.83900 25.95900
C  13.59800 48.42400 24.60800
C  12.14600 48.31000 24.47200
C  15.07600 49.12100 26.68400
C  14.64900 48.15600 23.58300
O  14.30600 47.77800 22.46900
C  16.20000 48.24800 23.85900
N  9.10500 47.61300 24.09800
C  10.02500 47.80500 23.05300
C  9.38600 47.63000 21.62700
C  7.91400 47.33500 21.98700
C  7.84300 47.57100 23.52800
C  9.67400 48.60000 20.43600
C  7.38200 46.00300 21.47900
C  6.54300 46.07600 20.20300
N  7.42700 47.95200 26.38800
C  6.35800 47.78600 25.48000
C  5.07900 47.84900 26.19100
C  5.49000 48.07900 27.60000
C  6.88500 48.20400 27.58600
C  3.69800 47.61000 25.64700
C  5.00500 48.29100 28.91300
O  3.87300 48.22100 29.37400
C  6.29500 48.43300 29.88700
C  6.22700 47.21200 30.71100
O  6.51900 46.14100 30.30300
O  5.73200 47.40500 31.98700
C  5.22200 46.29300 32.78500
H  13.02400 49.60400 28.48400
H  11.87200 48.00200 22.27100
H  5.72600 47.54900 23.46800
H  8.89200 49.79200 31.00600
H  11.86400 49.17000 30.59800
H  11.54700 51.33100 31.32200
H  10.20700 51.56000 30.12200
H  11.85400 51.59800 29.54600
H  9.88000 46.98800 30.68800
H  8.54300 47.51000 31.77000
H  10.54500 48.82600 32.90100
H  11.32900 47.32200 32.36000
H  15.00900 49.69600 27.60800
H  15.63300 49.75100 25.99000
H  15.70100 48.27700 26.97500
H  16.36400 47.61400 24.73000
H  16.50700 49.27200 24.07200
H  16.85600 47.91700 23.05400
H  9.85400 46.67000 21.40800
H  7.35000 48.19400 21.62400
H  10.33300 48.18100 19.67600
H  10.17300 49.44900 20.90300
H  8.75300 48.99600 20.00900
H  6.64700 45.63200 22.19400
H  8.13000 45.21600 21.37800
H  6.75600 47.00600 19.67400
H  5.48300 46.03200 20.45200
H  6.85000 45.15500 19.70800
H  2.92200 47.75200 26.39900
H  3.78000 46.54100 25.45000
H  3.47500 48.03600 24.66900
H  6.33500 49.27500 30.57700
H  4.83500 46.74000 33.70100
H  6.07600 45.64600 32.98700
H  4.50000 45.62200 32.32000

