158

Mg 43.07400 42.10700 26.57100
C  42.42300 44.42200 29.17700
C  44.28200 39.82100 28.96300
C  43.87900 40.00000 24.10400
C  42.02200 44.52600 24.36200
N  43.34600 42.17100 28.75900
C  42.90100 43.18200 29.58700
C  42.78700 42.64000 31.01800
C  43.68500 41.31800 31.08200
C  43.84000 41.09900 29.51300
C  45.05400 41.44900 31.73300
C  41.35600 42.46000 31.42000
C  41.10500 42.99000 32.85600
H  41.91300 42.63200 34.11500
N  43.96600 40.16000 26.52300
C  44.41400 39.40900 27.62100
C  44.92300 38.13400 27.08800
C  44.67400 38.11000 25.66800
C  44.15600 39.44300 25.38500
C  45.61200 37.13900 28.01600
C  44.85000 36.96000 24.65500
O  44.52100 37.10500 23.52300
C  45.38800 35.72100 25.18600
N  43.12800 42.36000 24.54400
C  43.47300 41.32600 23.73500
C  43.33700 41.58600 22.26000
C  42.53300 42.94800 22.33800
C  42.58800 43.35000 23.78400
C  44.61200 41.69900 21.37200
C  41.09500 42.91300 21.70500
C  40.23400 41.84200 22.36100
N  42.43900 44.06600 26.67900
C  41.93700 44.88300 25.69100
C  41.42600 46.10800 26.28400
C  41.48900 45.95500 27.71900
C  42.17800 44.71600 27.86600
C  40.79100 47.25600 25.44400
C  41.21600 46.66600 28.91600
O  40.83500 47.81300 29.11800
C  41.84200 45.64500 29.95500
C  42.78900 46.34800 30.90900
O  44.00900 46.38400 30.89900
O  41.99900 46.99800 31.81000
C  42.81700 47.43800 32.98600
H  44.38900 39.00200 29.67800
H  44.29900 39.50100 23.22800
H  41.55500 45.20400 23.64500
H  43.28300 43.36400 31.66500
H  43.09400 40.46800 31.42400
H  45.81200 40.91000 31.16400
H  44.95100 40.94900 32.69600
H  45.28600 42.50300 31.88300
H  40.99800 41.43100 31.37300
H  40.71100 43.04700 30.76500
H  40.11500 42.60800 33.10400
H  41.08500 44.08000 32.82800
H  45.80100 37.69300 28.93500
H  46.55500 36.80800 27.58000
H  44.92500 36.29700 28.11200
H  44.70500 35.37700 25.96200
H  46.41300 35.58800 25.53300
H  45.30700 34.92600 24.44400
H  42.71600 40.76300 21.90500
H  43.10900 43.73900 21.85900
H  45.43400 41.10500 21.77100
H  44.90600 42.74100 21.23900
H  44.35700 41.35300 20.37000
H  40.98300 42.85400 20.62300
H  40.62000 43.86800 21.93000
H  39.83700 41.13500 21.63200
H  39.37700 42.34100 22.81400
H  40.74600 41.35900 23.19400
H  40.04600 46.86000 24.75400
H  41.52800 47.68400 24.76500
H  40.20700 47.92900 26.07200
H  41.08300 45.33900 30.67400
H  43.60900 48.13300 32.70500
H  43.39200 46.65200 33.47700
H  42.14000 47.98000 33.64500
Mg 9.93100 47.34000 25.50200
C  7.86200 47.41700 28.34000
C  12.33600 48.62400 27.38400
C  11.80200 47.29100 22.70900
C  7.00800 46.86800 23.62700
N  9.98500 48.15000 27.62300
C  9.15500 47.82600 28.60700
C  9.77900 48.21200 30.00200
C  11.05900 48.98700 29.60200
C  11.11800 48.68700 28.06900
C  11.06400 50.52200 29.93700
C  10.05200 46.95300 30.95100
C  9.88500 47.22600 32.43800
H  10.17900 46.14200 33.50000
N  11.80700 47.71400 25.06600
C  12.74400 48.13500 26.07800
C  14.02800 48.11500 25.49200
C  13.86300 47.87000 24.13100
C  12.46700 47.65600 23.92600
C  15.30900 48.51500 26.20300
C  14.81700 47.88600 23.01000
O  14.43400 47.96000 21.87000
C  16.28600 47.86600 23.25200
N  9.51300 47.03100 23.46500
C  10.46700 47.03900 22.49600
C  9.84900 46.58000 21.11200
C  8.31100 46.60400 21.42200
C  8.24100 46.78000 22.93000
C  10.29100 47.36700 19.87100
C  7.54000 45.34900 20.86500
C  6.62300 45.49600 19.62300
N  7.86400 47.07000 25.83900
C  6.84800 46.91900 25.00200
C  5.62100 46.92100 25.68800
C  6.00800 47.09000 27.03600
C  7.34700 47.11000 27.11000
C  4.30100 46.68700 25.17500
C  5.43500 47.19800 28.35600
O  4.23400 47.18500 28.64400
C  6.68700 47.26600 29.28400
C  6.68800 46.03700 30.08000
O  7.03600 44.97200 29.56800
O  6.15500 46.13000 31.38000
C  5.94200 44.86200 32.07100
H  13.23400 48.89200 27.94500
H  12.22700 47.05400 21.73100
H  6.09100 46.66600 23.06900
H  9.19100 48.96100 30.53200
H  11.93100 48.62700 30.14800
H  10.47900 50.97600 30.73700
H  10.75000 50.97400 28.99600
H  12.08600 50.84400 30.14000
H  10.99300 46.44400 30.74300
H  9.27100 46.26300 30.63100
H  8.83500 47.48100 32.58300
H  10.48300 48.07300 32.77400
H  15.18800 48.65900 27.27600
H  15.74000 49.40300 25.74000
H  16.04800 47.71900 26.11300
H  16.57900 46.92700 23.72100
H  16.49400 48.66400 23.96400
H  16.73500 47.98400 22.26600
H  10.19600 45.56700 20.91200
H  7.89300 47.55800 21.10100
H  11.09200 48.08600 20.04500
H  9.46400 47.85900 19.36000
H  10.83000 46.68200 19.21600
H  6.97300 44.80000 21.61700
H  8.32000 44.66600 20.52700
H  6.27800 46.52800 19.69000
H  5.81400 44.77100 19.70800
H  7.23300 45.39500 18.72500
H  3.67800 46.78400 26.06300
H  4.14700 45.66600 24.82700
H  4.15100 47.47800 24.44000
H  6.63700 48.17800 29.88000
H  5.69800 45.08000 33.11100
H  6.82200 44.21900 32.05500
H  5.11100 44.25900 31.70700

