158

Mg -2.19000 16.57300 26.10100
C  -2.62900 14.30500 28.86200
C  -2.76600 19.11800 28.25800
C  -2.49900 18.62600 23.51000
C  -1.78300 13.91500 24.03500
N  -2.75900 16.62700 28.31800
C  -2.89900 15.62200 29.26800
C  -3.29900 16.15900 30.65600
C  -3.14300 17.74500 30.37100
C  -2.96400 17.84800 28.82800
C  -4.43300 18.46600 30.81400
C  -2.42300 15.71900 31.90400
C  -2.24800 16.60700 33.09000
H  -2.42500 15.96700 34.49300
N  -2.38400 18.62900 25.95400
C  -2.53200 19.53300 26.97200
C  -2.74200 20.87500 26.41100
C  -2.73900 20.74400 25.02600
C  -2.54100 19.24400 24.75900
C  -3.10200 22.12900 27.21700
C  -2.95800 21.79100 23.93700
O  -2.89900 21.59200 22.71200
C  -3.04500 23.11800 24.31900
N  -2.01300 16.33100 24.08000
C  -2.22200 17.27600 23.16700
C  -2.32600 16.75100 21.66600
C  -2.05900 15.21600 21.95300
C  -1.92000 15.16600 23.41800
C  -3.68100 17.05500 20.91100
C  -0.89300 14.55600 21.11500
C  0.60200 14.84800 21.41500
N  -2.07600 14.58000 26.36100
C  -1.93800 13.56500 25.41200
C  -2.00000 12.30200 26.00700
C  -2.14900 12.56200 27.32600
C  -2.28000 13.90200 27.52100
C  -1.68500 11.02600 25.38500
C  -2.31500 11.88900 28.60400
O  -2.36900 10.71600 28.89000
C  -2.60000 13.04900 29.64200
C  -1.42200 12.97700 30.55400
O  -0.33700 13.53300 30.44200
O  -1.69500 12.00900 31.46400
C  -0.69800 11.73000 32.55300
H  -2.97100 19.89600 28.99600
H  -2.75500 19.22300 22.63200
H  -1.77100 13.08700 23.32300
H  -4.31400 15.86600 30.92200
H  -2.32400 18.20100 30.92800
H  -5.09300 17.79400 31.36300
H  -4.87200 19.01400 29.98000
H  -4.13400 19.28900 31.46400
H  -1.48300 15.40900 31.44800
H  -2.88700 14.78300 32.21500
H  -2.93200 17.45500 33.14300
H  -1.26800 17.08300 33.12100
H  -4.09600 22.47600 26.93700
H  -2.30100 22.85800 27.09900
H  -3.19000 21.77900 28.24600
H  -3.94100 23.12800 24.93900
H  -3.05700 23.69700 23.39500
H  -2.14900 23.35300 24.89300
H  -1.51700 17.16300 21.06400
H  -2.96500 14.64600 21.74700
H  -3.45400 17.65300 20.02900
H  -4.23700 17.79400 21.48700
H  -4.23700 16.14100 20.70100
H  -1.02000 14.93100 20.10000
H  -0.92500 13.47100 21.21600
H  0.83800 15.45900 22.28600
H  1.21100 15.32900 20.65000
H  1.00100 13.87300 21.69300
H  -1.41800 10.33400 26.18400
H  -0.85700 11.16000 24.68800
H  -2.47700 10.58000 24.78500
H  -3.56000 12.91200 30.13900
H  -1.22900 12.11100 33.42500
H  0.29900 12.17200 32.57300
H  -0.58100 10.70100 32.89400
Mg 54.40200 23.58400 44.08000
C  51.67800 25.72200 43.11900
C  52.80400 20.95100 42.51900
C  57.30000 22.08400 43.69200
C  55.86600 26.56600 45.11100
N  52.59900 23.42900 42.71700
C  51.57600 24.37300 42.50300
C  50.32600 23.81200 41.94500
C  50.57700 22.26400 42.22400
C  52.05200 22.15200 42.52100
C  49.86300 21.82100 43.53900
C  50.07900 24.04000 40.38400
C  51.28100 24.17000 39.37800
H  50.97900 25.05800 38.08200
N  54.93700 21.69700 43.43400
C  54.12800 20.76700 42.83900
C  54.83700 19.51100 42.86400
C  56.18500 19.82500 43.01200
C  56.16600 21.28100 43.43200
C  54.22800 18.18400 42.33300
C  57.36700 18.85000 42.86300
O  57.16300 17.64800 42.57800
C  58.74300 19.31500 43.04100
N  56.27800 24.33900 44.08700
C  57.32700 23.46300 44.07200
C  58.61600 24.15500 44.55700
C  58.17700 25.57800 45.06500
C  56.66600 25.49300 44.74800
C  59.49300 23.41900 45.68000
C  58.87700 26.76000 44.33400
C  59.19100 27.94300 45.32000
N  53.78800 25.54600 44.54800
C  54.51200 26.70200 44.95000
C  53.66800 27.90500 44.98500
C  52.53300 27.49300 44.34600
C  52.69500 26.12200 43.99800
C  53.99400 29.32300 45.48500
C  51.29800 28.00800 43.83800
O  50.89700 29.19400 43.87000
C  50.58800 26.85100 43.07000
C  50.18900 27.30100 41.70500
O  50.93000 27.51100 40.73800
O  48.87400 27.45900 41.79700
C  48.18900 28.05900 40.66100
H  52.28200 20.03200 42.24400
H  58.26900 21.60400 43.84800
H  56.36300 27.50100 45.37800
H  49.42100 24.22000 42.39400
H  50.36700 21.65600 41.34300
H  49.63000 22.74500 44.06800
H  50.37000 21.10300 44.18400
H  48.92500 21.36000 43.23000
H  49.45000 24.91700 40.23000
H  49.47600 23.24300 39.94800
H  51.62100 23.17100 39.10500
H  52.19300 24.53200 39.85200
H  53.17300 18.03300 42.56100
H  54.68000 17.26800 42.71300
H  54.17500 18.23100 41.24500
H  58.94800 19.38400 44.10900
H  58.95000 20.21200 42.45800
H  59.39700 18.47600 42.80400
H  59.17200 24.29400 43.63000
H  58.31500 25.63700 46.14500
H  60.46000 23.35000 45.18200
H  59.09500 22.42700 45.89200
H  59.62900 23.96300 46.61500
H  58.26200 27.20000 43.54800
H  59.87700 26.55800 43.95000
H  58.97200 27.69300 46.35800
H  58.60900 28.80100 44.98400
H  60.26600 28.11400 45.27400
H  54.87800 29.30500 46.12400
H  53.23500 29.77900 46.12000
H  54.22200 29.89800 44.58700
H  49.76800 26.50400 43.70000
H  48.64300 29.02600 40.44700
H  47.13300 27.83400 40.81300
H  48.55300 27.47600 39.81500

