158

Mg 26.77000 50.28100 27.02400
C  24.68100 51.42600 29.57000
C  29.06900 49.59900 29.47100
C  28.89700 49.44200 24.60400
C  24.57000 51.58500 24.60600
N  26.84700 50.55700 29.17500
C  25.83200 50.91200 30.02700
C  26.21600 50.67800 31.44100
C  27.75600 50.43100 31.43400
C  27.97700 50.25500 29.91600
C  28.69300 51.52600 32.11500
C  25.27100 49.63100 32.05600
C  24.74800 50.13700 33.41900
H  25.78200 50.50400 34.54700
N  28.70400 49.51600 27.06800
C  29.46900 49.23300 28.12600
C  30.73900 48.61300 27.66000
C  30.69800 48.58700 26.26800
C  29.40300 49.20300 25.92700
C  31.83900 48.09200 28.67600
C  31.81400 48.22500 25.20700
O  31.75000 48.41200 24.04100
C  33.07100 47.54600 25.66100
N  26.62900 50.30600 24.90000
C  27.68500 49.93000 24.15200
C  27.31400 49.96400 22.63000
C  25.81100 50.48600 22.67300
C  25.64500 50.85300 24.14400
C  28.29500 50.74000 21.79500
C  24.71500 49.49000 22.09300
C  23.52100 50.03800 21.33100
N  24.98600 51.30400 27.01000
C  24.16700 51.65700 25.94700
C  22.93700 52.23200 26.40700
C  23.07100 52.19700 27.86000
C  24.40200 51.67000 28.15200
C  21.81100 52.77500 25.56700
C  22.50900 52.53500 29.18400
O  21.54400 53.11100 29.52000
C  23.52200 52.09000 30.32700
C  23.98300 53.15500 31.25300
O  25.10600 53.70500 31.26000
O  23.02800 53.35500 32.17100
C  23.46400 54.34700 33.21900
H  29.78200 49.20900 30.20200
H  29.62500 49.17700 23.83300
H  23.86200 52.00900 23.89100
H  26.01300 51.61400 31.96100
H  27.93300 49.54900 32.04900
H  29.20100 51.00200 32.92500
H  28.04300 52.32300 32.47600
H  29.46300 51.93900 31.46300
H  25.71400 48.64800 32.21500
H  24.40000 49.48900 31.41600
H  24.13400 49.36000 33.87400
H  24.06300 50.95600 33.19700
H  31.61700 48.35900 29.71000
H  32.77800 48.62100 28.51500
H  32.17200 47.07600 28.46400
H  33.79100 48.35400 25.79600
H  33.47100 46.92800 24.85700
H  33.02200 46.92000 26.55200
H  27.35500 48.88900 22.45200
H  25.83200 51.46400 22.19100
H  29.14500 51.07700 22.38700
H  27.88500 51.47500 21.10300
H  28.61400 49.98100 21.08100
H  24.21400 49.12200 22.98900
H  25.12000 48.75300 21.40000
H  23.52700 49.49900 20.38400
H  23.73800 51.07500 21.07100
H  22.55400 49.82200 21.78500
H  21.48300 52.18000 24.71500
H  22.10800 53.75600 25.19700
H  20.97900 52.88500 26.26300
H  23.01700 51.31400 30.90200
H  23.82000 55.26100 32.74300
H  24.28300 53.92900 33.80400
H  22.59800 54.58900 33.83400
Mg -0.04300 43.76600 26.06700
C  2.09500 43.15500 28.79800
C  -2.65500 42.75700 28.09900
C  -2.07800 43.98600 23.39600
C  2.83800 44.02300 24.05100
N  -0.23900 42.95000 28.17200
C  0.76200 42.92100 29.10400
C  0.19000 42.72800 30.54700
C  -1.31000 42.27700 30.19100
C  -1.40700 42.60800 28.71500
C  -1.63500 40.75600 30.58500
C  0.28700 44.05900 31.33600
C  0.49100 43.98900 32.88200
H  0.39100 42.62300 33.64100
N  -2.12500 43.57800 25.82600
C  -3.05100 43.20100 26.79000
C  -4.41800 43.32800 26.28800
C  -4.22100 43.62400 24.90900
C  -2.72700 43.69900 24.63500
C  -5.67700 43.20800 27.07900
C  -5.31300 43.88100 23.87700
O  -4.97200 44.03700 22.68700
C  -6.79500 43.92200 24.23000
N  0.29400 43.89800 23.99600
C  -0.70500 44.08400 23.11800
C  -0.10200 44.37600 21.71300
C  1.41400 44.56000 22.00700
C  1.55900 44.13600 23.43500
C  -0.49700 43.26000 20.68000
C  1.98200 45.99400 21.82500
C  1.83100 46.99000 22.97300
N  2.07700 43.55800 26.34800
C  3.08900 43.76400 25.40700
C  4.40300 43.75200 26.09100
C  4.08700 43.53400 27.44200
C  2.65200 43.36900 27.52000
C  5.77300 44.00700 25.49100
C  4.60000 43.44300 28.77500
O  5.80300 43.49700 29.14700
C  3.31500 43.24800 29.73800
C  3.63200 42.01900 30.44500
O  3.54500 40.91400 29.99600
O  3.76800 42.22800 31.79600
C  4.12300 41.07300 32.60300
H  -3.46000 42.54600 28.80500
H  -2.83700 44.13100 22.62400
H  3.67700 44.07400 23.35500
H  0.67700 41.84100 30.95300
H  -2.07300 42.96600 30.55500
H  -1.21300 40.16100 29.77500
H  -2.71000 40.66700 30.42900
H  -1.33900 40.37300 31.56200
H  -0.64400 44.58000 31.11200
H  1.05100 44.62400 30.80300
H  -0.26200 44.68200 33.25700
H  1.40000 44.52000 33.16600
H  -5.48300 42.65700 28.00000
H  -6.48200 42.67000 26.57900
H  -6.08600 44.15800 27.42200
H  -7.18400 44.23000 23.26000
H  -7.03300 44.62600 25.02800
H  -7.08100 42.90800 24.50800
H  -0.47600 45.36200 21.43600
H  1.95300 43.85100 21.38000
H  0.38600 43.04700 20.07800
H  -1.20700 43.71800 19.99200
H  -0.83800 42.33600 21.14600
H  1.40300 46.51300 21.06000
H  3.04400 45.98000 21.58100
H  1.64600 46.63900 23.98900
H  1.11100 47.79100 22.80400
H  2.78900 47.46000 23.19900
H  5.85900 45.01900 25.09500
H  6.01500 43.30000 24.69700
H  6.56300 44.05200 26.24100
H  3.22000 43.94900 30.56800
H  5.19400 41.12300 32.79700
H  3.87700 40.14700 32.08300
H  3.54400 41.10400 33.52600

