158

Mg 1.56500 -1.78000 43.43600
C  4.75100 -0.55900 42.91700
C  0.28500 1.04700 41.69100
C  -1.51900 -3.27200 43.36000
C  2.97700 -4.83300 44.48700
N  2.44900 0.08400 42.55800
C  3.78100 0.32100 42.41200
C  4.02600 1.65800 41.64100
C  2.57700 2.26300 41.51000
C  1.68000 1.01000 41.85400
C  2.25700 3.46900 42.49300
C  4.80800 1.52800 40.36200
C  5.89300 2.61000 40.11000
H  5.67100 3.51000 38.88200
N  -0.30000 -1.21500 42.65900
C  -0.61000 -0.01300 41.99300
C  -2.00400 -0.02700 41.62600
C  -2.54800 -1.22300 42.10800
C  -1.45000 -1.99800 42.71000
C  -2.78400 0.99700 40.84900
C  -4.05200 -1.50000 41.92400
O  -4.88600 -0.79600 41.37400
C  -4.66100 -2.81300 42.41300
N  0.87800 -3.79400 43.81500
C  -0.47400 -4.05600 43.88500
C  -0.80800 -5.34600 44.62600
C  0.63500 -5.94000 44.86400
C  1.55400 -4.82700 44.31500
C  -1.61200 -5.20900 45.94700
C  0.83300 -7.40000 44.27100
C  0.61100 -8.52100 45.34000
N  3.46600 -2.56300 43.79700
C  3.93200 -3.76700 44.27200
C  5.33500 -3.71700 44.45900
C  5.72900 -2.49400 43.94000
C  4.52900 -1.85000 43.54600
C  6.24500 -4.79600 44.99400
C  6.84900 -1.65000 43.56600
O  8.01800 -1.85000 43.65900
C  6.25100 -0.39600 42.89100
C  6.63300 0.78800 43.70700
O  6.20800 1.01100 44.84100
O  7.61000 1.52600 43.05300
C  8.22800 2.62800 43.70600
H  -0.10800 1.94600 41.21200
H  -2.56800 -3.50500 43.55200
H  3.43600 -5.69600 44.97300
H  4.64700 2.28600 42.28000
H  2.34200 2.67600 40.52900
H  3.20700 3.63500 43.00200
H  1.51100 3.17800 43.23200
H  1.95000 4.33600 41.90600
H  4.06500 1.80400 39.61400
H  5.08500 0.47700 40.27600
H  6.77200 2.00300 39.89200
H  5.99600 3.26300 40.97700
H  -3.17800 0.36900 40.05000
H  -2.18500 1.81900 40.45800
H  -3.63300 1.36900 41.42300
H  -4.12300 -3.66300 41.99300
H  -5.55100 -2.94900 41.79800
H  -4.75600 -2.85700 43.49800
H  -1.38500 -5.90800 43.89100
H  0.79600 -5.95000 45.94200
H  -0.88300 -4.89000 46.69200
H  -2.00600 -6.14400 46.34400
H  -2.38500 -4.44700 45.84100
H  1.78600 -7.70900 43.84300
H  0.02100 -7.56100 43.56200
H  -0.30600 -8.29200 45.88300
H  1.50300 -8.50200 45.96600
H  0.64400 -9.50100 44.86300
H  5.96700 -5.81200 44.71300
H  6.24300 -4.53800 46.05300
H  7.29500 -4.63300 44.74800
H  6.70500 -0.33300 41.90200
H  8.60400 2.00900 44.52000
H  7.45900 3.29900 44.08800
H  8.98900 3.21900 43.19800
Mg 27.03900 49.32700 26.11900
C  25.01900 50.52300 28.78700
C  29.28800 48.16800 28.41600
C  28.93700 48.44400 23.53600
C  24.78300 50.82600 23.87900
N  27.11000 49.33600 28.41500
C  26.14200 49.77100 29.24400
C  26.52600 49.52500 30.71800
C  27.97300 48.84500 30.57800
C  28.16000 48.74300 29.04300
C  29.14400 49.57300 31.27900
C  25.31400 48.75600 31.49200
C  25.00100 49.03400 33.00200
H  25.96800 49.73000 33.99000
N  28.86300 48.44200 26.01300
C  29.66200 47.99600 27.02300
C  30.88200 47.48300 26.47100
C  30.84700 47.65100 25.07100
C  29.49100 48.19500 24.80200
C  31.98500 46.89700 27.44500
C  31.92400 47.26900 24.07800
O  31.74100 47.41200 22.84800
C  33.31300 46.70800 24.55800
N  27.04200 49.81200 24.00700
C  27.82900 49.18700 23.14200
C  27.41400 49.33100 21.66400
C  26.17400 50.21700 21.75500
C  25.96200 50.24200 23.29700
C  28.52000 49.98500 20.74400
C  25.02200 49.65400 20.86000
C  23.95800 48.81800 21.59600
N  25.26600 50.34800 26.16000
C  24.49100 51.03700 25.21900
C  23.35500 51.74300 25.86700
C  23.64700 51.60200 27.22000
C  24.77000 50.72400 27.36200
C  22.35000 52.44000 25.15200
C  23.14000 52.05500 28.56100
O  22.23500 52.79400 28.83900
C  23.93500 51.19600 29.60100
C  24.26100 52.08900 30.70300
O  25.22800 52.84800 30.64300
O  23.25200 52.15000 31.66700
C  23.43400 53.03500 32.80200
H  29.94900 47.79500 29.20100
H  29.42400 47.93500 22.70100
H  23.97500 51.21200 23.25400
H  26.74200 50.52500 31.09300
H  27.88400 47.83800 30.98600
H  29.91500 49.92400 30.59400
H  29.64700 48.96400 32.03100
H  28.70100 50.40800 31.82200
H  25.38800 47.69200 31.27100
H  24.42400 49.02500 30.92300
H  24.68700 48.10900 33.48600
H  24.13500 49.68800 32.90600
H  31.58500 46.65500 28.43000
H  32.73500 47.68700 27.48700
H  32.32700 45.97400 26.97900
H  33.23800 45.65100 24.81400
H  33.60600 47.30600 25.42100
H  34.02000 46.70300 23.72800
H  27.22600 48.32600 21.28700
H  26.43300 51.22800 21.44200
H  29.34700 50.48200 21.25000
H  28.08700 50.67400 20.01900
H  28.76200 49.13600 20.10500
H  25.37700 49.07600 20.00700
H  24.55400 50.54400 20.44100
H  23.03100 49.37900 21.71900
H  24.17700 48.52400 22.62200
H  23.77500 47.86300 21.10300
H  22.50700 53.47300 25.46300
H  21.34200 52.10900 25.40300
H  22.47300 52.27600 24.08100
H  23.27500 50.43200 30.01000
H  24.40100 53.03500 33.30600
H  22.63900 52.82500 33.51700
H  23.16800 54.07100 32.59300

