158

Mg 35.69200 48.28500 25.38600
C  36.38900 46.52100 28.20000
C  34.49400 50.82200 27.33100
C  34.67700 49.94300 22.56900
C  36.83000 45.64300 23.41600
N  35.38500 48.52400 27.53300
C  35.87800 47.73000 28.51000
C  35.67200 48.35700 29.93100
C  34.90500 49.59600 29.60500
C  34.93100 49.69800 28.03000
C  33.39400 49.56300 30.09500
C  37.04900 48.58600 30.63600
C  37.12500 48.23500 32.14000
H  36.01300 48.56100 33.12500
N  34.84600 50.18200 25.02000
C  34.47300 51.07900 25.95100
C  33.96100 52.25600 25.39500
C  33.82400 51.99200 23.99500
C  34.48400 50.67200 23.80100
C  33.51700 53.49300 26.18800
C  33.09600 52.81300 22.91800
O  33.07000 52.39800 21.78500
C  32.28800 54.03500 23.19700
N  35.71500 47.83000 23.32900
C  35.24400 48.66100 22.34900
C  35.68600 48.13200 20.93500
C  36.33400 46.78300 21.22700
C  36.31900 46.76900 22.75400
C  34.51100 47.89300 19.91100
C  37.77300 46.53900 20.58900
C  39.05900 47.16100 21.24100
N  36.42600 46.40700 25.68700
C  36.86600 45.41700 24.80500
C  37.37800 44.31000 25.52100
C  37.17300 44.65400 26.91900
C  36.64500 46.01400 26.93100
C  37.99300 43.00200 24.92300
C  37.39600 44.22300 28.28800
O  37.71100 43.12200 28.72800
C  36.93700 45.44500 29.16600
C  35.79500 44.95200 29.99800
O  34.66700 44.61100 29.62100
O  36.24400 44.92800 31.28200
C  35.30000 44.48000 32.34100
H  34.15200 51.60100 28.01500
H  34.40800 50.58800 21.73000
H  37.39500 44.97600 22.76100
H  35.09100 47.81300 30.67600
H  35.36500 50.42200 30.14700
H  33.20800 50.37500 30.79800
H  33.25500 48.62500 30.63300
H  32.63300 49.73500 29.33400
H  37.40500 49.61400 30.69500
H  37.74200 48.10400 29.94700
H  37.98700 48.82600 32.45000
H  37.34800 47.17500 32.26200
H  33.88400 54.37300 25.66100
H  34.06200 53.60700 27.12500
H  32.44100 53.52800 26.35900
H  31.86800 54.42000 22.26700
H  32.72000 54.85700 23.76800
H  31.43100 53.71900 23.79100
H  36.29500 48.88200 20.42800
H  35.77400 45.91100 20.88800
H  33.65000 47.80600 20.57400
H  34.59100 46.92100 19.42500
H  34.37300 48.72600 19.22200
H  37.75200 46.86100 19.54800
H  37.93600 45.50300 20.29200
H  39.68200 47.69700 20.52600
H  39.69600 46.36600 21.62700
H  38.69700 47.78800 22.05600
H  38.95400 42.78700 25.39100
H  38.09900 43.09600 23.84300
H  37.37100 42.12100 25.08100
H  37.85200 45.66600 29.71600
H  36.01100 44.23700 33.13100
H  34.68000 43.62400 32.07500
H  34.61400 45.24200 32.71100
Mg 0.39800 43.45300 25.34300
C  2.44900 43.18700 28.18600
C  -2.33700 42.77700 27.44200
C  -1.52600 42.87000 22.63800
C  3.27100 43.40000 23.25100
N  0.10400 43.19600 27.56000
C  1.11500 43.19800 28.54500
C  0.54200 43.21000 29.97900
C  -0.96600 42.99500 29.62400
C  -1.10100 42.91500 28.13300
C  -1.68000 41.75600 30.29600
C  0.91000 44.45000 30.94500
C  1.64700 44.18600 32.23200
H  1.18700 42.94200 33.04100
N  -1.69200 42.95100 25.05000
C  -2.56400 42.70400 26.03400
C  -3.87700 42.43100 25.36600
C  -3.73700 42.67200 24.01000
C  -2.28000 42.83700 23.82600
C  -5.13600 42.11400 26.08400
C  -4.77900 42.60000 22.89100
O  -4.46700 42.56000 21.72000
C  -6.27700 42.48000 23.22000
N  0.87300 43.15000 23.30700
C  -0.11100 43.06400 22.37300
C  0.43100 43.09400 20.96200
C  1.84500 43.58000 21.20100
C  2.03100 43.32400 22.66000
C  0.39600 41.67700 20.21200
C  2.02300 45.12400 20.91700
C  3.16600 45.69700 20.06800
N  2.49600 43.32300 25.59000
C  3.58300 43.34900 24.68100
C  4.84400 43.19700 25.43300
C  4.42200 43.11800 26.80300
C  2.98600 43.20900 26.83000
C  6.18300 43.14300 24.93200
C  4.92000 43.01000 28.14200
O  6.07500 42.78200 28.53900
C  3.66800 43.14400 29.10200
C  3.82600 41.91300 30.03100
O  3.65400 40.69500 29.74400
O  4.37500 42.32200 31.20200
C  4.75600 41.19700 32.06200
H  -3.21100 42.58900 28.07000
H  -2.11400 42.90700 21.71800
H  4.07600 43.45500 22.51500
H  0.83600 42.22500 30.34200
H  -1.57800 43.86500 29.86100
H  -1.97800 41.01300 29.55700
H  -2.50500 42.07200 30.93500
H  -0.93600 41.26000 30.92000
H  0.00800 45.00500 31.20400
H  1.53400 45.15900 30.40100
H  1.66300 45.01100 32.94400
H  2.69600 44.09800 31.94900
H  -4.97400 41.73900 27.09500
H  -5.55000 41.22900 25.60200
H  -5.80700 42.97100 26.12700
H  -6.40100 41.49200 23.66400
H  -6.81900 42.38100 22.27900
H  -6.53400 43.32500 23.85800
H  -0.21300 43.77800 20.40900
H  2.56200 42.88900 20.75700
H  1.39600 41.38300 19.89300
H  -0.15100 41.86800 19.28900
H  -0.07400 40.86200 20.76200
H  2.21200 45.59700 21.88100
H  1.11400 45.59300 20.54100
H  3.85300 44.85200 20.03100
H  3.68300 46.52300 20.55700
H  2.76000 46.02300 19.11100
H  6.45000 42.26800 24.34000
H  6.94900 43.36400 25.67600
H  6.21400 44.07400 24.36600
H  3.60100 44.11300 29.59600
H  5.14200 41.83000 32.86200
H  5.58300 40.65800 31.60100
H  3.95600 40.48800 32.27200

