158

Mg 53.61400 23.43800 45.72200
C  51.29700 25.47600 44.22100
C  51.83800 20.73600 44.57700
C  56.38100 21.38300 46.25300
C  55.56100 26.09700 46.32000
N  51.81000 23.10500 44.58500
C  51.09000 24.13500 43.97500
C  49.77500 23.48700 43.41400
C  49.79900 22.05100 43.87700
C  51.26800 21.92500 44.37800
C  48.63000 21.62200 44.86300
C  49.67700 23.65100 41.84900
C  48.29000 23.84200 41.23600
H  48.05400 23.39700 39.84100
N  54.02800 21.29200 45.42200
C  53.14200 20.33200 44.99700
C  53.75000 18.99900 45.04000
C  55.02100 19.16400 45.62800
C  55.19100 20.68400 45.83700
C  53.03800 17.82200 44.34800
C  55.95100 18.02200 45.95200
O  55.74800 16.88100 45.54100
C  57.16200 18.34800 46.71700
N  55.77300 23.67400 46.01000
C  56.66100 22.73800 46.39200
C  58.01700 23.27900 46.85500
C  57.77400 24.86100 46.66700
C  56.26800 24.89900 46.32600
C  58.37000 22.94100 48.34600
C  58.60200 25.55700 45.48900
C  59.81300 26.41600 45.82900
N  53.41100 25.37900 45.59600
C  54.26000 26.41800 45.90300
C  53.68100 27.73200 45.66600
C  52.45600 27.40000 45.08400
C  52.40500 25.95600 44.92200
C  54.26600 29.14100 45.90000
C  51.23000 27.92500 44.54300
O  50.73800 29.00500 44.55500
C  50.41800 26.71000 43.90700
C  50.42900 26.92800 42.39500
O  51.42300 26.83700 41.63300
O  49.18200 27.37000 42.00800
C  49.18100 27.87700 40.67600
H  51.15500 19.92800 44.30800
H  57.37000 20.94300 46.39400
H  56.26400 26.90400 46.53700
H  48.94500 23.98100 43.91900
H  49.75800 21.45100 42.96800
H  47.94500 22.46100 44.98500
H  48.99700 21.37900 45.86000
H  48.05500 20.71600 44.67200
H  50.04800 22.76000 41.34000
H  50.27100 24.50200 41.51600
H  47.93400 24.84200 41.48400
H  47.61500 23.15600 41.74700
H  53.17300 16.90600 44.92300
H  53.50900 17.67900 43.37500
H  51.99000 18.06500 44.17100
H  56.87900 18.71400 47.70400
H  57.80200 18.95500 46.07600
H  57.68500 17.39400 46.77900
H  58.70000 22.86800 46.11200
H  57.89600 25.25800 47.67400
H  59.14800 22.18300 48.43200
H  57.44400 22.50700 48.72200
H  58.67400 23.82700 48.90400
H  57.88300 26.21300 44.99800
H  58.92100 24.80100 44.77100
H  59.62500 27.39200 45.38000
H  60.70800 26.04200 45.33200
H  60.03600 26.40900 46.89600
H  54.18900 29.36500 46.96300
H  53.71600 29.88400 45.32300
H  55.31100 29.25000 45.61200
H  49.43500 26.65200 44.37600
H  50.17300 28.06200 40.26300
H  48.59600 28.79200 40.77200
H  48.55500 27.18400 40.11400
Mg 47.30900 24.73500 28.90600
C  48.19300 26.97000 31.37700
C  46.63100 22.38600 31.27400
C  46.89000 22.42300 26.50600
C  48.58700 26.97400 26.55900
N  47.29100 24.76700 31.11500
C  47.74500 25.75700 31.88300
C  47.50700 25.52700 33.38600
C  46.98500 24.01600 33.35900
C  46.97100 23.66900 31.79900
C  47.74200 23.05600 34.33300
C  46.59000 26.64000 34.14800
C  45.87600 26.15400 35.39400
H  45.72600 27.14700 36.57800
N  46.98300 22.63200 28.89800
C  46.57700 21.90400 29.99200
C  46.08900 20.58300 29.54500
C  46.24900 20.50300 28.14900
C  46.72300 21.86300 27.79100
C  45.54300 19.43200 30.52700
C  45.97100 19.34600 27.22100
O  46.31400 19.39600 26.01400
C  45.40900 18.12800 27.76500
N  47.69400 24.72100 26.79800
C  47.25000 23.65200 25.99400
C  47.49900 24.00300 24.45100
C  47.81800 25.50800 24.53800
C  48.06200 25.76500 26.04400
C  48.65800 23.16300 23.83000
C  46.69100 26.34000 23.88000
C  46.77500 26.57600 22.31200
N  48.20700 26.55600 28.91900
C  48.67400 27.37500 27.86700
C  49.08500 28.63600 28.36500
C  48.88400 28.53100 29.73300
C  48.37400 27.24200 30.02400
C  49.63100 29.74700 27.49300
C  49.11800 29.21500 30.97300
O  49.50100 30.35600 31.12500
C  48.70400 28.24500 32.07500
C  49.88800 28.00100 32.98800
O  50.93900 27.39200 32.67900
O  49.53200 28.47200 34.22200
C  50.48800 28.42400 35.29300
H  46.41200 21.67600 32.07500
H  46.71100 21.87200 25.58100
H  48.85300 27.66100 25.75400
H  48.41400 25.61700 33.98500
H  45.95300 23.87000 33.67900
H  48.34800 22.22600 33.97000
H  46.99400 22.61800 34.99300
H  48.35300 23.63100 35.02900
H  45.79700 27.03000 33.51000
H  47.10700 27.58000 34.34100
H  46.38200 25.26000 35.75700
H  44.88100 25.80400 35.11800
H  44.53600 19.06900 30.32500
H  45.57400 19.80600 31.55000
H  46.23800 18.59400 30.46500
H  46.14000 17.66700 28.42900
H  45.32900 17.47900 26.89300
H  44.44800 18.44100 28.17300
H  46.55800 23.61400 24.06100
H  48.76200 25.72000 24.03600
H  49.45000 23.81600 23.46300
H  48.32900 22.59300 22.96100
H  49.17200 22.52900 24.55200
H  46.57500 27.27100 24.43500
H  45.70800 25.92200 24.09600
H  45.81000 26.29700 21.88900
H  47.54500 26.01400 21.78300
H  47.02800 27.63400 22.23300
H  50.65800 29.41400 27.34600
H  49.62200 30.61500 28.15300
H  49.05300 29.89700 26.58100
H  47.86400 28.67600 32.62000
H  51.50800 28.35000 34.91800
H  50.18500 27.51000 35.80400
H  50.38100 29.27700 35.96500

