158

Mg 24.89600 -5.18000 45.83500
C  27.13900 -2.93200 44.27500
C  22.44000 -4.05800 43.63700
C  22.94700 -7.82800 46.68900
C  27.62300 -6.64700 47.47200
N  24.79200 -3.82900 43.98500
C  25.80000 -2.87600 43.76400
C  25.24100 -1.86500 42.69400
C  23.66300 -1.91000 42.96600
C  23.61000 -3.32100 43.59800
C  23.08300 -0.76400 43.82600
C  25.67100 -2.18400 41.15500
C  26.15800 -0.92300 40.40300
H  26.11400 -1.08500 38.88700
N  22.97900 -5.85200 45.27900
C  22.13800 -5.27700 44.33600
C  20.95300 -6.06900 44.18900
C  21.01100 -7.12600 45.12300
C  22.39500 -6.93600 45.77700
C  19.88500 -5.69500 43.17900
C  19.91900 -8.12800 45.34300
O  18.84200 -8.10500 44.71200
C  19.92300 -9.13900 46.48700
N  25.20600 -6.93900 46.91600
C  24.22800 -7.84100 47.25200
C  24.78700 -9.02400 48.14900
C  26.15300 -8.46100 48.48600
C  26.35500 -7.27200 47.56000
C  23.88100 -9.49000 49.30800
C  27.23300 -9.55400 48.26000
C  28.52800 -9.46800 49.07800
N  26.94900 -4.81800 45.97600
C  27.96000 -5.58700 46.59100
C  29.23300 -4.96300 46.28200
C  28.95000 -3.95200 45.31800
C  27.54000 -3.91300 45.16300
C  30.55700 -5.41100 46.74300
C  29.59200 -2.88500 44.58900
O  30.78500 -2.51800 44.55400
C  28.34400 -2.13100 43.81400
C  28.34800 -0.70700 44.28000
O  27.65700 -0.21000 45.18800
O  29.37200 -0.07800 43.66000
C  29.92900 1.02900 44.39300
H  21.73200 -3.54700 42.98100
H  22.31300 -8.67900 46.94800
H  28.38500 -6.89900 48.21200
H  25.64400 -0.88100 42.93400
H  23.04800 -1.89500 42.06600
H  22.67400 -1.11700 44.77300
H  22.23400 -0.35400 43.27900
H  23.87700 -0.04200 44.01400
H  24.77300 -2.53600 40.64600
H  26.38100 -3.00900 41.21800
H  27.12900 -0.57000 40.75200
H  25.41000 -0.23100 40.79000
H  20.27700 -4.95500 42.48200
H  19.15800 -5.07900 43.70900
H  19.60200 -6.65300 42.74300
H  20.69200 -9.85400 46.19700
H  18.98400 -9.66300 46.66100
H  20.12000 -8.51700 47.36100
H  25.00000 -9.86100 47.48400
H  26.28000 -8.08500 49.50100
H  23.56900 -10.53300 49.24300
H  23.01500 -8.83300 49.39100
H  24.50900 -9.37100 50.19100
H  27.47900 -9.60400 47.20000
H  26.88300 -10.51200 48.64600
H  28.72600 -10.29000 49.76500
H  28.45200 -8.66000 49.80600
H  29.42900 -9.33100 48.48000
H  30.69700 -4.92000 47.70600
H  31.43700 -5.11600 46.17100
H  30.60500 -6.49900 46.71700
H  28.44800 -2.05700 42.73200
H  30.41000 1.61100 43.60700
H  30.74000 0.52400 44.91700
H  29.19800 1.64100 44.92200
Mg 29.78600 57.01000 40.09500
C  27.19500 55.06100 38.76700
C  31.96700 54.63800 38.97300
C  32.15700 59.28800 40.30000
C  27.28000 59.43500 40.95600
N  29.58100 55.23300 38.84500
C  28.46100 54.57900 38.50100
C  28.69000 53.20300 37.95300
C  30.14200 52.99000 38.21100
C  30.63200 54.37000 38.72300
C  30.56700 51.89400 39.26400
C  28.35200 52.92300 36.46500
C  28.12200 54.20400 35.59600
H  28.45400 54.28300 34.15000
N  31.78300 56.95900 39.78700
C  32.51600 55.91600 39.37800
C  33.91900 56.24300 39.33900
C  34.03700 57.59700 39.71100
C  32.62200 58.01300 39.94000
C  34.98100 55.19800 39.01400
C  35.28400 58.47600 39.70300
O  36.36300 57.94700 39.41300
C  35.23500 59.99300 40.01300
N  29.75100 59.01000 40.66700
C  30.87700 59.73700 40.64900
C  30.49700 61.25900 40.85100
C  29.03800 61.18600 41.49500
C  28.58400 59.82000 40.97100
C  31.57200 62.01600 41.70300
C  28.11300 62.41200 41.09200
C  27.38000 63.06700 42.23700
N  27.66600 57.17400 40.00700
C  26.82000 58.19700 40.38100
C  25.45500 57.79400 40.11400
C  25.53700 56.52700 39.57800
C  26.88700 56.22300 39.47500
C  24.16600 58.50600 40.34700
C  24.82900 55.45400 38.98200
O  23.65100 55.31400 38.82700
C  25.88400 54.39900 38.53000
C  25.60300 53.16500 39.34900
O  26.04900 52.91700 40.47400
O  24.76300 52.35200 38.67700
C  24.44300 51.07600 39.22400
H  32.66000 53.79600 38.93000
H  32.84900 60.13200 40.29100
H  26.54900 60.14800 41.34600
H  28.09200 52.47200 38.49800
H  30.64400 52.73600 37.27800
H  29.85100 51.09700 39.46700
H  30.80000 52.31500 40.24100
H  31.44000 51.47800 38.76200
H  27.50100 52.24400 36.41200
H  29.10800 52.25900 36.04600
H  28.59900 55.05000 36.08900
H  27.03300 54.23600 35.61200
H  35.25700 55.26400 37.96200
H  34.79900 54.16600 39.31600
H  35.85300 55.42000 39.62900
H  36.29200 60.25000 39.94900
H  34.81100 60.05700 41.01500
H  34.71500 60.57100 39.24900
H  30.44300 61.70100 39.85600
H  29.08100 61.05600 42.57600
H  32.14500 61.35600 42.35400
H  31.10400 62.68900 42.42200
H  32.23600 62.77500 41.29000
H  27.40600 62.09000 40.32800
H  28.54800 63.32900 40.69500
H  26.95500 64.02100 41.92600
H  28.03300 63.16100 43.10600
H  26.49800 62.48200 42.49900
H  23.37300 57.88300 39.93400
H  24.05400 59.44700 39.80800
H  24.06300 58.64900 41.42300
H  25.65500 54.22800 37.47800
H  25.22200 50.45400 39.66500
H  24.09800 50.50300 38.36300
H  23.68800 51.07800 40.01100

