158

Mg -10.16300 40.12400 42.01300
C  -8.90400 36.84200 41.36100
C  -7.15700 41.29500 40.49800
C  -11.48400 43.10300 41.54700
C  -13.30300 38.57300 42.50300
N  -8.19500 39.19000 41.22900
C  -8.05200 37.87800 40.96700
C  -6.62100 37.60400 40.30800
C  -5.98800 38.97200 40.39900
C  -7.20400 39.91700 40.69500
C  -4.86500 39.27900 41.43700
C  -6.67400 37.05200 38.83100
C  -5.92600 35.73700 38.48500
H  -4.84100 35.76200 37.42200
N  -9.45500 42.00600 41.15900
C  -8.18500 42.27400 40.65900
C  -8.15700 43.65000 40.27900
C  -9.43500 44.25500 40.48500
C  -10.17500 43.14400 41.05800
C  -6.94000 44.35700 39.67700
C  -9.92500 45.69700 40.30100
O  -9.03500 46.45700 39.96700
C  -11.32800 46.15500 40.36600
N  -12.07200 40.67900 42.07900
C  -12.35600 42.01300 41.93000
C  -13.84700 42.26900 42.12600
C  -14.44300 40.89400 42.51400
C  -13.24600 39.99100 42.36100
C  -14.13700 43.39300 43.17800
C  -15.64800 40.39800 41.63600
C  -16.99000 40.18400 42.26100
N  -10.94700 38.09100 42.22200
C  -12.22000 37.63000 42.38300
C  -12.25100 36.27200 42.51700
C  -10.96700 35.84400 42.16800
C  -10.19600 37.00300 41.95300
C  -13.47600 35.44600 42.90500
C  -10.01400 34.78800 41.92100
O  -10.23200 33.56700 42.04400
C  -8.69800 35.36300 41.30000
C  -7.54700 34.93100 42.12300
O  -6.96500 35.53400 43.05600
O  -6.96000 33.86000 41.48900
C  -5.56500 33.46400 41.90100
H  -6.17700 41.51700 40.06900
H  -11.98000 44.06400 41.39700
H  -14.28700 38.14300 42.69900
H  -6.05900 36.86300 40.87600
H  -5.42000 39.19500 39.49500
H  -4.67900 38.41700 42.07800
H  -5.21900 40.06500 42.10300
H  -3.92000 39.67500 41.06500
H  -6.32800 37.77300 38.08900
H  -7.73500 36.90100 38.62900
H  -6.71900 35.05500 38.18000
H  -5.45800 35.29000 39.36300
H  -5.94600 43.93000 39.81200
H  -6.83400 45.38000 40.04000
H  -6.97600 44.39300 38.58800
H  -11.92200 45.51600 39.71300
H  -11.40200 47.16900 39.97200
H  -11.65000 46.19800 41.40700
H  -14.33000 42.66600 41.23300
H  -14.66800 40.85000 43.57900
H  -15.09500 43.15400 43.64000
H  -14.33700 44.21600 42.49200
H  -13.39700 43.47800 43.97400
H  -15.48600 39.43400 41.15300
H  -15.89100 41.12200 40.85900
H  -16.94400 40.62700 43.25500
H  -17.26900 39.13000 42.25600
H  -17.81500 40.61100 41.69100
H  -13.21300 34.48800 43.35300
H  -14.17200 35.22400 42.09500
H  -14.03800 36.00900 43.65000
H  -8.55000 35.05400 40.26500
H  -4.96200 33.53900 40.99600
H  -5.51000 32.48100 42.36900
H  -5.18200 34.12100 42.68100
Mg 0.14300 43.40200 26.00900
C  2.28400 43.11200 28.79700
C  -2.41300 42.51700 28.15500
C  -1.84300 43.20100 23.37500
C  2.83100 44.27000 24.03400
N  -0.06000 42.73700 28.25100
C  0.93500 42.84400 29.17500
C  0.47100 42.66700 30.64500
C  -1.01900 42.12400 30.34200
C  -1.24100 42.55700 28.85300
C  -1.27700 40.58900 30.56600
C  0.61000 44.02600 31.46200
C  1.26700 43.89800 32.81000
H  0.87600 42.64700 33.65200
N  -1.90700 42.93400 25.80200
C  -2.82100 42.65500 26.77200
C  -4.10700 42.47500 26.22000
C  -3.91000 42.58300 24.77100
C  -2.46400 42.92300 24.56200
C  -5.27100 42.31400 27.16400
C  -4.92800 42.48900 23.60800
O  -4.70900 42.62400 22.45800
C  -6.34500 42.05800 23.96700
N  0.49500 43.63700 24.01200
C  -0.54700 43.57000 23.08600
C  -0.12800 44.05000 21.68100
C  1.34100 44.56600 21.99200
C  1.57000 44.20700 23.39900
C  -0.20600 42.89300 20.62200
C  1.53000 46.06700 21.76600
C  1.40200 46.61300 20.37500
N  2.11500 43.63800 26.28900
C  3.12300 43.96000 25.41600
C  4.44000 43.93900 26.08800
C  4.05500 43.66900 27.42500
C  2.68100 43.41800 27.48500
C  5.77100 44.03300 25.43300
C  4.66700 43.41600 28.70500
O  5.89100 43.38700 28.96600
C  3.53000 43.09600 29.71100
C  3.81100 41.68300 30.19500
O  3.87100 40.65700 29.50500
O  4.09400 41.69000 31.49900
C  4.85800 40.62800 32.12800
H  -3.24600 42.23700 28.80500
H  -2.50600 43.30200 22.51300
H  3.61700 44.77600 23.47100
H  0.97200 41.84900 31.16200
H  -1.74900 42.66300 30.94700
H  -1.79600 40.54700 31.52400
H  -0.32800 40.07900 30.39800
H  -1.83500 40.28400 29.68100
H  -0.34300 44.50500 31.68600
H  1.23500 44.71400 30.89400
H  1.05900 44.82400 33.34600
H  2.34700 44.02200 32.73600
H  -5.19400 41.25100 27.39300
H  -6.23000 42.45400 26.66600
H  -5.09100 42.88800 28.07300
H  -7.07800 42.85100 23.82100
H  -6.28700 41.55600 24.93200
H  -6.64800 41.22300 23.33600
H  -0.74900 44.90300 21.40700
H  2.08000 44.00900 21.41600
H  0.76400 42.72100 20.15600
H  -0.78700 43.28900 19.78900
H  -0.67800 41.94600 20.88300
H  2.47800 46.43200 22.16200
H  0.90200 46.55900 22.50800
H  0.99200 47.60000 20.59100
H  0.64000 46.18400 19.72600
H  2.37300 46.76600 19.90400
H  5.77900 44.08300 24.34400
H  6.49500 43.34700 25.87200
H  6.11800 45.05000 25.61800
H  3.41300 43.79900 30.53600
H  4.19700 39.92400 32.63300
H  5.52900 41.05500 32.87300
H  5.36600 39.98600 31.40800

