158

Mg 45.17500 5.26800 47.15000
C  43.15700 8.15200 46.51600
C  42.60700 3.27900 46.21000
C  47.39500 2.69400 47.10200
C  47.96800 7.44000 47.07600
N  43.11900 5.72200 46.41600
C  42.46100 6.93900 46.31200
C  41.05600 6.77100 45.81500
C  40.87400 5.20700 45.90700
C  42.28400 4.63300 46.18100
C  39.76100 4.80100 46.91800
C  40.78700 7.59400 44.48100
C  40.20200 6.74700 43.32800
H  39.90900 7.60500 42.08500
N  45.00800 3.23900 46.81400
C  43.82600 2.58600 46.51700
C  44.06000 1.18100 46.65600
C  45.44700 0.96000 46.87300
C  46.04400 2.29600 46.92500
C  42.96600 0.17500 46.27500
C  46.06500 -0.40600 46.86200
O  45.34600 -1.38100 46.79000
C  47.57800 -0.58800 46.91100
N  47.40700 5.12200 47.05400
C  48.04500 3.92500 47.10300
C  49.61800 4.00900 47.09300
C  49.77800 5.55000 46.89900
C  48.29200 6.14000 47.05600
C  50.28400 3.20900 48.25600
C  50.50000 6.10600 45.61300
C  49.97500 5.56400 44.26500
N  45.49100 7.34400 47.07600
C  46.72300 8.10500 47.09000
C  46.41900 9.49300 47.06100
C  45.05200 9.53500 46.92800
C  44.51000 8.27000 46.87700
C  47.41300 10.53600 47.00600
C  43.95400 10.44500 46.72800
O  43.91500 11.69100 46.66800
C  42.69100 9.53300 46.46000
C  41.64900 9.88500 47.48500
O  41.52700 9.31600 48.57300
O  40.90900 10.99700 47.03200
C  39.83700 11.36400 47.97800
H  41.76400 2.65400 45.90800
H  48.18600 1.94100 47.11800
H  48.80000 8.14400 47.14500
H  40.43200 7.19000 46.60500
H  40.55300 4.79400 44.95100
H  39.31700 5.65800 47.42400
H  40.09700 4.10100 47.68400
H  38.99500 4.26600 46.35700
H  41.63800 8.19000 44.15300
H  39.94600 8.23600 44.74500
H  39.31900 6.21600 43.68500
H  41.02500 6.08700 43.05400
H  42.05100 0.61400 46.67300
H  43.06000 -0.75000 46.84300
H  42.91500 -0.14700 45.23500
H  47.80500 -1.65100 46.82600
H  47.95800 -0.23800 47.87100
H  48.11100 -0.11500 46.08600
H  49.83400 3.51000 46.14900
H  50.30900 5.78200 47.82200
H  51.20900 3.71700 48.53100
H  50.55500 2.20500 47.93100
H  49.65200 2.97800 49.11300
H  51.57100 5.91700 45.68800
H  50.50000 7.19500 45.64200
H  48.95600 5.20800 44.41300
H  50.59200 4.69100 44.05500
H  50.07700 6.14600 43.34900
H  48.19200 10.55400 47.76800
H  46.83800 11.46100 47.00000
H  47.93000 10.46000 46.04900
H  42.27100 9.86500 45.51100
H  39.35100 12.21100 47.49500
H  40.15800 11.67300 48.97200
H  39.09900 10.56200 47.96700
Mg 1.68500 41.63400 25.66100
C  2.59300 42.02600 29.14400
C  -1.52900 40.68100 26.78400
C  1.04600 40.59300 22.54800
C  5.02300 42.27200 24.89600
N  0.71300 41.44700 27.70200
C  1.23800 41.75500 28.95900
C  0.23100 41.51300 30.10800
C  -1.12000 41.09200 29.28300
C  -0.65300 41.05300 27.80200
C  -1.75700 39.72200 29.75000
C  0.03900 42.71900 31.06600
C  0.27600 42.39800 32.56700
H  -0.13100 40.96300 33.02000
N  -0.02500 40.80500 24.84200
C  -1.26300 40.47800 25.39300
C  -2.14800 40.01700 24.36500
C  -1.47000 40.15800 23.16900
C  -0.07100 40.52900 23.48000
C  -3.60100 39.69400 24.65900
C  -2.07200 40.09700 21.73000
O  -1.43300 40.23100 20.72400
C  -3.53400 39.75800 21.50600
N  2.88800 41.38800 24.04300
C  2.35200 40.97800 22.82900
C  3.39100 40.88000 21.66000
C  4.58500 41.63700 22.32700
C  4.18200 41.78000 23.87300
C  3.54900 39.48200 21.15700
C  4.78700 43.06300 21.76400
C  5.40900 43.18000 20.30900
N  3.51900 42.20600 26.76500
C  4.79800 42.40900 26.28600
C  5.61900 42.79200 27.39000
C  4.86100 42.56600 28.54200
C  3.57300 42.26100 28.11900
C  7.11800 42.99600 27.35200
C  4.87400 42.55700 29.98500
O  5.81400 42.76700 30.71300
C  3.34400 42.11300 30.45200
C  3.67600 40.81400 31.25100
O  3.58400 39.68400 30.88900
O  4.13000 41.17800 32.52800
C  4.56900 39.93700 33.31100
H  -2.56500 40.43900 27.03100
H  1.02200 40.25800 21.50900
H  6.00600 42.52400 24.49400
H  0.65000 40.68700 30.68200
H  -1.80000 41.93100 29.43100
H  -1.24300 39.29600 30.61100
H  -1.56700 38.91700 29.04000
H  -2.83700 39.74800 29.89600
H  -0.97800 43.10000 30.96700
H  0.61700 43.56700 30.69700
H  -0.41500 43.10100 33.03300
H  1.29500 42.57100 32.91300
H  -4.24200 40.56500 24.51800
H  -3.75000 39.32600 25.67400
H  -3.94100 38.96400 23.92500
H  -3.86900 39.93200 20.48300
H  -4.09700 40.41700 22.16600
H  -3.68300 38.69300 21.68800
H  3.07800 41.53100 20.84400
H  5.56000 41.14800 22.33500
H  2.78700 39.30100 20.40000
H  3.47200 38.75600 21.96600
H  4.55800 39.27200 20.80200
H  5.30300 43.70500 22.47900
H  3.81300 43.53600 21.64100
H  5.23500 42.28000 19.71800
H  6.46600 43.44300 20.35500
H  4.82600 43.99700 19.88300
H  7.43300 43.48900 26.43200
H  7.58900 42.01800 27.45200
H  7.40300 43.51600 28.26600
H  2.94400 42.78600 31.21100
H  5.54400 40.25000 33.68600
H  4.88400 39.07100 32.73000
H  4.00100 39.71600 34.21500

