158

Mg 46.65500 46.39800 44.12500
C  43.46900 45.16700 43.34600
C  47.96500 43.39900 43.09000
C  49.68300 47.79400 44.21700
C  45.27000 49.56100 44.66700
N  45.76100 44.56300 43.24200
C  44.41400 44.23200 43.05600
C  44.22400 42.77000 42.50900
C  45.67900 42.18300 42.79800
C  46.57700 43.42600 43.02200
C  45.61200 41.25500 44.07300
C  43.87100 42.79100 40.95500
C  42.69800 41.89900 40.54900
H  42.63400 41.48000 39.05800
N  48.60400 45.74000 43.67500
C  48.92100 44.42500 43.31400
C  50.30100 44.23900 43.26100
C  50.87400 45.50000 43.60300
C  49.68900 46.47300 43.85100
C  51.02500 42.90700 42.92500
C  52.29300 45.74000 43.68500
O  53.14900 44.86000 43.45700
C  52.77700 47.06700 44.20700
N  47.31100 48.42500 44.25900
C  48.61500 48.70100 44.40400
C  48.85700 50.21800 44.52900
C  47.42300 50.76600 44.61000
C  46.62100 49.45700 44.62500
C  49.67500 50.58300 45.79800
C  47.07300 51.67600 43.35700
C  46.03600 52.79100 43.68200
N  44.73400 47.26200 44.07100
C  44.28600 48.54900 44.43200
C  42.82700 48.50200 44.37500
C  42.46800 47.19200 43.92200
C  43.69900 46.47400 43.79000
C  41.85800 49.61300 44.70300
C  41.42200 46.28100 43.50100
O  40.18100 46.41800 43.40000
C  42.02100 45.01900 43.15800
C  41.49200 44.00000 44.05600
O  41.07900 42.88300 43.62200
O  41.44900 44.39500 45.40600
C  40.54400 43.50400 46.16500
H  48.34800 42.39300 42.90200
H  50.64400 48.31200 44.26800
H  44.80900 50.51900 44.91700
H  43.48300 42.33900 43.18200
H  46.04800 41.61600 41.94400
H  44.68600 41.26100 44.64900
H  46.44700 41.58700 44.69000
H  45.72000 40.20800 43.78900
H  44.70800 42.63600 40.27400
H  43.54900 43.80100 40.70100
H  41.78200 42.46800 40.71400
H  42.61900 41.11900 41.30600
H  51.77100 42.91800 42.13000
H  50.39900 42.07400 42.60700
H  51.57800 42.49200 43.76700
H  53.86400 47.14200 44.23800
H  52.22400 47.23300 45.13200
H  52.49700 47.65000 43.32900
H  49.41000 50.61500 43.67800
H  47.27000 51.43300 45.45800
H  49.48200 49.98400 46.68800
H  49.50100 51.61400 46.10800
H  50.75500 50.55900 45.65100
H  46.69100 50.97100 42.61900
H  47.99500 52.15400 43.02500
H  46.36800 53.72400 43.22700
H  45.78700 52.89000 44.73900
H  45.09800 52.45400 43.24300
H  41.09900 49.34100 45.43700
H  41.25200 49.83500 43.82500
H  42.43200 50.43800 45.12700
H  41.75500 44.70200 42.15000
H  40.94900 42.49200 46.18400
H  39.48500 43.48000 45.90600
H  40.60000 43.78300 47.21700
Mg 8.95900 47.37200 24.82700
C  6.86300 47.59100 27.59100
C  11.51600 48.45600 26.79600
C  10.90700 47.48500 22.12700
C  6.13400 47.17600 22.81500
N  9.22100 47.90900 26.93400
C  8.25100 47.84500 27.89600
C  8.74900 48.30200 29.31400
C  10.08500 49.05500 28.91000
C  10.33000 48.42300 27.47400
C  9.92400 50.62400 28.72800
C  8.87100 47.19700 30.41100
C  8.15600 47.67900 31.74700
H  8.14300 46.62000 32.87900
N  10.92600 47.80200 24.50400
C  11.85800 48.14900 25.48700
C  13.18300 48.24200 24.90100
C  13.02900 47.88200 23.59300
C  11.61200 47.65300 23.33800
C  14.45800 48.55700 25.73400
C  14.07300 47.71400 22.58200
O  13.79300 47.45300 21.40500
C  15.51500 47.72100 22.98300
N  8.53600 47.58300 22.71600
C  9.54000 47.51100 21.81800
C  8.99300 47.23200 20.36500
C  7.43500 47.24300 20.58000
C  7.33500 47.33200 22.16200
C  9.43200 48.30400 19.25300
C  6.74200 46.05600 19.81700
C  5.44700 46.41000 19.07000
N  6.91800 47.19900 25.06200
C  5.90200 47.05200 24.21600
C  4.66800 47.04200 24.94700
C  4.98100 47.09000 26.27000
C  6.36400 47.31700 26.30600
C  3.35700 47.09200 24.35900
C  4.47800 47.22900 27.61500
O  3.36600 47.22000 28.13900
C  5.65600 47.58900 28.44900
C  5.67300 46.49600 29.51000
O  6.08300 45.36300 29.36000
O  4.99500 46.89900 30.59900
C  4.62900 45.97100 31.61800
H  12.34900 48.76700 27.43000
H  11.40300 47.39000 21.15900
H  5.21300 47.04300 22.24300
H  8.05400 49.11200 29.53700
H  10.84800 48.80000 29.64500
H  9.01800 51.05900 29.14900
H  9.93000 50.82100 27.65500
H  10.70000 51.26000 29.15500
H  9.94400 47.03700 30.51600
H  8.38500 46.26900 30.11000
H  7.11500 47.92600 31.53700
H  8.61500 48.60100 32.10500
H  14.20500 48.91500 26.73200
H  15.14800 49.23200 25.22900
H  14.98100 47.60900 25.86600
H  15.78500 48.76300 23.15300
H  16.05300 47.30200 22.13300
H  15.60700 46.98100 23.77800
H  9.47300 46.27900 20.14300
H  6.94600 48.14100 20.20100
H  8.52400 48.68000 18.78200
H  10.17000 47.92400 18.54700
H  9.78000 49.19100 19.78300
H  6.54300 45.34900 20.62200
H  7.43200 45.68500 19.05900
H  4.97700 47.38100 19.22800
H  4.72800 45.67800 19.43800
H  5.54400 46.33400 17.98700
H  3.09000 48.14700 24.29600
H  2.70300 46.51800 25.01500
H  3.19100 46.72500 23.34600
H  5.39700 48.55300 28.88600
H  3.67300 46.31700 32.01000
H  5.38300 45.92000 32.40300
H  4.41000 44.97200 31.24100

