158

Mg 1.60300 -0.92900 44.12800
C  4.89100 0.10900 43.62000
C  0.46500 1.79400 42.52000
C  -1.43900 -2.51500 44.00900
C  3.04300 -4.11300 45.05300
N  2.55700 0.63200 43.10200
C  3.88600 0.96000 43.21400
C  4.11300 2.48200 42.76300
C  2.65500 2.98300 42.47300
C  1.82800 1.71600 42.70200
C  2.22400 4.25200 43.20700
C  4.98500 2.51100 41.45500
C  5.15300 1.32100 40.41600
H  6.45900 1.25200 39.68600
N  -0.28100 -0.37600 43.35400
C  -0.49500 0.82100 42.80000
C  -1.91400 0.82300 42.46500
C  -2.52100 -0.33900 42.93000
C  -1.38200 -1.15500 43.42000
C  -2.46200 1.95100 41.81600
C  -3.97400 -0.75500 42.75800
O  -4.80000 0.00800 42.30800
C  -4.52600 -2.11800 43.01700
N  0.92500 -2.95700 44.50300
C  -0.39700 -3.31300 44.45000
C  -0.60600 -4.76400 44.97300
C  0.80300 -5.25000 45.19200
C  1.64900 -4.04200 44.88100
C  -1.49700 -4.83700 46.24100
C  1.16600 -6.60100 44.55100
C  0.88300 -7.86100 45.43200
N  3.61000 -1.90600 44.28700
C  3.97200 -3.14700 44.72700
C  5.39600 -3.15400 44.83700
C  5.80300 -1.85400 44.47700
C  4.70100 -1.18900 43.95300
C  6.19800 -4.23300 45.31700
C  6.95200 -0.93700 44.40600
O  8.12600 -1.16300 44.82500
C  6.36100 0.41100 43.87200
C  6.40400 1.38700 44.99900
O  5.85200 1.38200 46.07600
O  7.29900 2.45500 44.64300
C  7.65400 3.48300 45.61100
H  0.16400 2.73100 42.04800
H  -2.42000 -2.97700 44.13800
H  3.42800 -5.05800 45.44000
H  4.57500 3.05900 43.56400
H  2.53800 3.23300 41.41800
H  1.45300 4.03500 43.94600
H  1.80200 4.95600 42.49000
H  3.04600 4.65500 43.79900
H  5.89200 2.86400 41.94600
H  4.70900 3.44500 40.96500
H  4.38400 1.54300 39.67700
H  4.86000 0.39700 40.91500
H  -2.08700 1.80500 40.80300
H  -2.27300 2.86900 42.37100
H  -3.52700 1.86100 41.60200
H  -4.07400 -2.93600 42.45600
H  -5.57600 -2.10300 42.72400
H  -4.45000 -2.36900 44.07500
H  -0.98800 -5.29900 44.10300
H  0.95600 -5.39700 46.26100
H  -2.13900 -3.96100 46.32500
H  -0.96900 -4.86100 47.19400
H  -2.29000 -5.58300 46.18800
H  2.22800 -6.64700 44.30800
H  0.70200 -6.74400 43.57500
H  0.48900 -8.74900 44.93700
H  0.13100 -7.61000 46.18000
H  1.81500 -8.13100 45.92800
H  5.67900 -4.53500 46.22600
H  7.17300 -3.80900 45.56000
H  6.26300 -5.12200 44.69100
H  7.05500 0.75900 43.10700
H  6.92500 3.51300 46.42100
H  7.65100 4.39700 45.01800
H  8.64700 3.23300 45.98300
Mg 16.63400 51.30400 26.41200
C  18.89900 49.94800 28.76500
C  14.53500 52.10400 28.99200
C  14.69800 52.43900 24.12500
C  19.05600 50.28800 23.99200
N  16.64600 50.95900 28.56900
C  17.78300 50.58100 29.32800
C  17.61500 50.96000 30.76700
C  16.05800 51.23400 30.83000
C  15.66700 51.48000 29.38100
C  15.23000 50.10700 31.37400
C  18.51800 52.08900 31.30600
C  18.84700 51.98900 32.82800
H  17.87100 51.31200 33.79800
N  14.75900 52.06200 26.54600
C  14.04200 52.36300 27.71600
C  12.80100 52.92200 27.32400
C  12.80200 53.07200 25.93700
C  14.10300 52.50700 25.46900
C  11.64400 53.18100 28.38100
C  11.75100 53.54900 24.91900
O  11.98800 53.59000 23.72400
C  10.38900 53.94900 25.38400
N  16.75900 51.15200 24.31200
C  15.81100 51.82300 23.59700
C  16.25900 51.95400 22.13300
C  17.74500 51.35600 22.11400
C  17.84700 50.83100 23.55400
C  15.28200 51.14100 21.15800
C  18.80700 52.42100 21.72200
C  19.53800 52.17800 20.48700
N  18.52300 50.28100 26.27900
C  19.41200 49.91300 25.27000
C  20.53600 49.22600 25.75500
C  20.41200 49.30600 27.09900
C  19.10700 49.84600 27.37300
C  21.75800 48.63700 25.00400
C  21.02700 48.85500 28.33400
O  22.03300 48.18000 28.60500
C  20.14300 49.39000 29.44400
C  19.84200 48.40500 30.55100
O  19.44500 47.25400 30.38100
O  20.45400 48.88300 31.67100
C  20.65400 47.82000 32.64400
H  13.93900 52.54000 29.79600
H  14.13400 53.07500 23.43900
H  19.84200 50.01800 23.28300
H  17.83300 49.98500 31.20300
H  15.86400 52.16700 31.35900
H  15.85200 49.28100 31.71900
H  14.63100 49.66600 30.57700
H  14.67900 50.44700 32.25100
H  17.99800 53.03800 31.17900
H  19.41100 52.02400 30.68500
H  19.14400 53.00300 33.09300
H  19.74900 51.37900 32.86500
H  11.33400 54.22600 28.35800
H  12.04400 52.87900 29.34900
H  10.71400 52.63600 28.22000
H  9.71000 54.01300 24.53300
H  10.51100 54.96000 25.77200
H  10.01300 53.20900 26.09100
H  16.09400 53.02600 22.03100
H  17.73100 50.50500 21.43300
H  15.01300 50.23200 21.69600
H  15.91300 50.90700 20.30100
H  14.42000 51.73600 20.85500
H  19.47300 52.80400 22.49500
H  18.23300 53.34300 21.61700
H  19.39700 52.97000 19.75100
H  19.22200 51.23500 20.04100
H  20.58700 52.07800 20.76400
H  21.70800 47.63100 24.58800
H  22.66700 48.68500 25.60400
H  21.85600 49.31400 24.15600
H  20.71900 50.19200 29.90600
H  21.18500 48.14000 33.54000
H  21.18300 46.98800 32.17800
H  19.71900 47.42500 33.04100

