158

Mg 17.51000 -0.30000 27.41000
C  16.41800 1.53300 30.22700
C  19.54400 -2.11300 29.66000
C  18.97300 -1.60000 24.83300
C  15.79700 1.99300 25.42900
N  17.82000 -0.44200 29.74500
C  17.25000 0.43800 30.62700
C  17.58700 0.05200 32.02200
C  18.70500 -1.02000 31.84200
C  18.73600 -1.25900 30.34200
C  20.07200 -0.78400 32.50100
C  16.39400 -0.44900 32.89900
C  16.40300 -0.05800 34.43400
H  17.72400 0.47100 35.07700
N  18.92100 -1.73700 27.23500
C  19.55700 -2.46200 28.26800
C  20.44600 -3.45100 27.71200
C  20.43900 -3.31200 26.27000
C  19.41300 -2.21300 26.05300
C  21.22600 -4.48500 28.58400
C  21.06000 -4.05800 25.21500
O  20.87900 -3.84300 24.01300
C  21.98400 -5.12000 25.50700
N  17.36300 0.09600 25.38100
C  18.15300 -0.56200 24.50600
C  17.86700 -0.03700 23.03300
C  16.60700 0.96900 23.24200
C  16.54700 1.03200 24.77000
C  19.06400 0.57000 22.27300
C  15.29200 0.59800 22.58100
C  14.41800 -0.38500 23.45500
N  16.21900 1.35200 27.67100
C  15.61100 2.18400 26.73800
C  14.86200 3.23400 27.39400
C  15.16200 2.99300 28.80000
C  16.02600 1.84600 28.89000
C  14.06000 4.35300 26.87300
C  14.98700 3.50800 30.16300
O  14.34400 4.46800 30.51300
C  15.76700 2.56200 31.06200
C  16.70700 3.32500 32.02200
O  17.89600 3.58400 31.96000
O  15.89100 3.66300 33.08700
C  16.39200 4.60600 34.12800
H  20.10000 -2.77200 30.33000
H  19.43700 -1.99500 23.92700
H  15.28800 2.72600 24.79900
H  18.07700 0.89600 32.50500
H  18.34900 -1.87700 32.41300
H  20.05400 0.18300 33.00300
H  20.89900 -0.89900 31.80000
H  20.39400 -1.44700 33.30400
H  16.29100 -1.52500 32.75500
H  15.48900 -0.00600 32.48500
H  16.10900 -0.95300 34.98300
H  15.60400 0.67000 34.57400
H  21.40600 -5.43900 28.08900
H  20.63900 -4.78000 29.45400
H  22.17800 -4.05000 28.89100
H  22.83000 -4.79400 26.11100
H  22.52400 -5.48100 24.63100
H  21.39200 -5.90100 25.98600
H  17.52000 -0.95300 22.55500
H  16.90500 1.96300 22.90900
H  19.85100 1.12100 22.78800
H  18.67200 1.20300 21.47600
H  19.66200 -0.21800 21.81700
H  15.47400 0.07400 21.64200
H  14.81700 1.55500 22.36600
H  14.25500 0.20400 24.35800
H  15.00500 -1.28900 23.61500
H  13.45800 -0.59500 22.98200
H  12.98200 4.18700 26.86600
H  14.31000 4.66600 25.86000
H  14.31500 5.17300 27.54500
H  15.11100 2.03000 31.75100
H  15.77100 4.48300 35.01600
H  16.27000 5.67500 33.95500
H  17.43400 4.41700 34.38800
Mg -10.83300 17.24200 41.08800
C  -7.25500 17.13800 40.89500
C  -10.60400 20.50000 40.30900
C  -13.94100 17.03400 40.01100
C  -10.72000 13.73500 41.18300
N  -9.09500 18.55300 40.38600
C  -7.75900 18.37700 40.60300
C  -6.96900 19.56900 40.14900
C  -8.02600 20.68300 40.42500
C  -9.34700 19.86700 40.37600
C  -7.82200 21.56100 41.75600
C  -6.54400 19.40000 38.60400
C  -5.08000 19.08400 38.43200
H  -4.76500 17.93500 37.49300
N  -12.13600 18.61100 40.20800
C  -11.89400 19.93800 40.15100
C  -13.05100 20.65400 39.81200
C  -14.08700 19.66200 39.77900
C  -13.44000 18.33300 40.04500
C  -12.99300 22.13700 39.47000
C  -15.59700 19.92500 39.28300
O  -15.95300 21.08100 38.94300
C  -16.59200 18.76600 39.16600
N  -12.14300 15.48400 40.48400
C  -13.38800 15.72700 40.20200
C  -14.24300 14.46100 40.25800
C  -13.21900 13.35400 40.70500
C  -12.00300 14.22900 40.86500
C  -15.57200 14.52900 41.02500
C  -12.95700 12.03800 39.93900
C  -13.60100 10.82600 40.58500
N  -9.42400 15.67600 41.40500
C  -9.50200 14.33000 41.48800
C  -8.15300 13.80400 41.74300
C  -7.31300 14.86900 41.51900
C  -8.08700 16.01300 41.27300
C  -7.74100 12.38700 41.94400
C  -5.83700 15.20000 41.50200
O  -4.84500 14.46600 41.59000
C  -5.76300 16.76200 41.17200
C  -5.15200 17.53400 42.36200
O  -3.96100 17.72100 42.41400
O  -6.12100 17.95600 43.27100
C  -5.53800 18.72900 44.38100
H  -10.62100 21.58400 40.17700
H  -15.02800 17.10200 40.08900
H  -10.68400 12.67600 41.44400
H  -6.05800 19.61500 40.74500
H  -8.03600 21.35600 39.56700
H  -6.87300 21.33600 42.24300
H  -8.59600 21.34000 42.49100
H  -7.88600 22.63200 41.56600
H  -6.70700 20.32300 38.04900
H  -7.08800 18.58800 38.12200
H  -4.66300 19.08000 39.43900
H  -4.57000 19.93800 37.98700
H  -13.01400 22.65500 40.42900
H  -13.86700 22.53700 38.95600
H  -12.10000 22.40400 38.90500
H  -16.26000 17.98400 38.48200
H  -17.49200 19.08200 38.64000
H  -16.95700 18.47600 40.15100
H  -14.51400 14.26900 39.22000
H  -13.50100 13.05900 41.71600
H  -16.32800 14.25200 40.29000
H  -15.85900 15.46500 41.50400
H  -15.56300 13.71700 41.75200
H  -11.88500 11.88600 39.81100
H  -13.40200 12.24600 38.96600
H  -14.40800 10.41300 39.98000
H  -13.86100 11.01300 41.62700
H  -12.76900 10.12300 40.62200
H  -8.62100 11.75800 41.81000
H  -7.45300 12.29700 42.99200
H  -6.93100 11.93900 41.36800
H  -5.05700 16.87800 40.35000
H  -6.33800 18.83800 45.11300
H  -5.15500 19.69900 44.06200
H  -4.68100 18.23200 44.83600

