158

Mg -1.49400 16.99200 26.04600
C  -1.79600 15.02400 28.92600
C  -1.86400 19.82500 28.10500
C  -1.67300 18.90600 23.33100
C  -1.55900 14.18800 24.11300
N  -1.78900 17.33900 28.27800
C  -1.92400 16.32500 29.23400
C  -2.32800 16.93000 30.59800
C  -2.35100 18.48800 30.29600
C  -2.00000 18.57400 28.79300
C  -3.78900 19.24000 30.47800
C  -1.41500 16.50300 31.71200
C  -1.83000 17.04800 33.04700
H  -1.63400 16.28100 34.33200
N  -1.49900 19.10000 25.81100
C  -1.68300 20.12000 26.77600
C  -1.63600 21.36400 26.05500
C  -1.34600 21.14100 24.70000
C  -1.57300 19.65100 24.55700
C  -1.71500 22.68300 26.77800
C  -0.95700 22.11000 23.65900
O  -0.97200 21.86000 22.46900
C  -0.58200 23.47600 23.98000
N  -1.76000 16.62000 24.03500
C  -1.65300 17.59300 23.09700
C  -1.81100 17.01000 21.70800
C  -1.30800 15.51100 21.97300
C  -1.59600 15.39900 23.45300
C  -3.27500 17.04800 21.10400
C  0.18500 15.25800 21.57000
C  0.44200 15.12300 20.09500
N  -1.57800 15.03500 26.40200
C  -1.68200 14.01500 25.49000
C  -1.92000 12.79200 26.17100
C  -1.88100 13.13400 27.50600
C  -1.68600 14.54400 27.62800
C  -2.22700 11.53800 25.50300
C  -2.06500 12.51000 28.78000
O  -2.14300 11.32100 29.15300
C  -2.04500 13.77300 29.75700
C  -0.90900 13.33700 30.60800
O  0.18600 13.77300 30.46200
O  -1.39400 12.59900 31.68300
C  -0.47400 12.32100 32.79600
H  -2.05700 20.72900 28.68800
H  -1.57000 19.59600 22.49100
H  -1.53400 13.35100 23.41200
H  -3.30500 16.62200 30.97000
H  -1.62400 19.08900 30.84300
H  -3.52100 20.21600 30.88100
H  -4.61200 18.79800 31.04000
H  -4.25800 19.28900 29.49600
H  -0.41100 16.67000 31.32000
H  -1.49000 15.42900 31.88300
H  -2.87100 17.33600 32.90400
H  -1.23400 17.96000 33.07300
H  -2.12500 22.55300 27.77900
H  -2.36800 23.37800 26.25100
H  -0.72300 23.11100 26.92500
H  -1.15900 24.07000 24.69000
H  -0.29000 24.04500 23.09700
H  0.35900 23.17800 24.44100
H  -1.16600 17.58300 21.04200
H  -1.90900 14.82900 21.37200
H  -3.75800 16.07300 21.04700
H  -3.14400 17.53900 20.13900
H  -3.92300 17.72600 21.66000
H  0.56700 14.44000 22.18200
H  0.74200 16.13500 21.90000
H  1.41800 15.58400 19.94500
H  -0.32100 15.59600 19.47700
H  0.40000 14.05700 19.87100
H  -1.35000 10.89200 25.45700
H  -2.52400 11.73700 24.47300
H  -2.92000 10.91400 26.06700
H  -2.95300 13.79000 30.36000
H  0.57200 12.23000 32.50500
H  -0.86900 11.46000 33.33600
H  -0.53500 13.21200 33.42200
Mg 35.30400 0.90400 29.36200
C  33.35700 2.11200 32.01800
C  37.94700 0.92000 31.58000
C  37.18200 -0.40300 26.97000
C  32.66600 1.48800 27.13700
N  35.55000 1.31700 31.61800
C  34.61700 1.76200 32.45700
C  35.08700 1.79100 33.93100
C  36.66900 1.79800 33.75400
C  36.76700 1.32500 32.24300
C  37.41000 3.13600 34.08500
C  34.50000 0.54800 34.64400
C  34.08400 0.67400 36.13500
H  35.03200 1.48700 37.04900
N  37.32900 0.28800 29.27600
C  38.18500 0.30000 30.32500
C  39.45900 -0.33100 29.88800
C  39.26900 -0.72000 28.58900
C  37.90000 -0.28200 28.17000
C  40.69000 -0.47900 30.88100
C  40.19400 -1.51600 27.64200
O  39.99100 -1.55400 26.43700
C  41.51000 -2.07600 28.05400
N  34.90500 0.43400 27.36600
C  35.89200 -0.00600 26.53100
C  35.39000 -0.12400 25.06700
C  33.86300 0.27700 25.18400
C  33.78100 0.74200 26.65500
C  36.24500 0.85900 24.11400
C  32.86000 -0.86400 24.75500
C  32.37100 -0.64000 23.31700
N  33.41100 1.65700 29.50300
C  32.39700 1.78600 28.52900
C  31.21600 2.37400 29.17300
C  31.63400 2.56300 30.54100
C  32.91600 2.07000 30.66700
C  29.95800 2.58900 28.48300
C  31.10800 3.03400 31.83900
O  29.99200 3.54100 32.13200
C  32.17800 2.63800 32.91900
C  32.56000 3.85300 33.68800
O  33.49800 4.57100 33.48800
O  31.83300 3.96500 34.86500
C  32.37300 4.60100 36.04100
H  38.83300 0.93200 32.21800
H  37.80400 -0.79700 26.16300
H  31.90400 1.52000 26.35500
H  34.71500 2.62300 34.53000
H  37.07700 0.91300 34.24300
H  37.82900 3.55600 33.17000
H  38.20500 2.84300 34.77100
H  36.65000 3.76700 34.54700
H  35.26900 -0.22500 34.66700
H  33.56200 0.29200 34.15300
H  34.06400 -0.33800 36.54000
H  33.05000 0.97900 36.29900
H  41.44100 -1.22400 30.61900
H  40.47500 -0.62400 31.94000
H  41.33100 0.39800 30.78300
H  42.16600 -1.22800 28.25300
H  41.81600 -2.68100 27.20000
H  41.35100 -2.61400 28.98800
H  35.52300 -1.15900 24.75200
H  33.60100 1.11800 24.54200
H  37.07300 0.98000 24.81200
H  35.75900 1.83400 24.14000
H  36.56900 0.37900 23.19100
H  31.99500 -0.72300 25.40400
H  33.11200 -1.91100 24.92500
H  31.33200 -0.92400 23.14800
H  32.84100 -1.26600 22.55900
H  32.56300 0.36500 22.94300
H  29.82100 1.84700 27.69600
H  29.89400 3.58500 28.04600
H  29.16100 2.43900 29.21100
H  31.95400 1.89000 33.67900
H  31.63300 5.25000 36.51000
H  33.15400 5.34700 35.89400
H  32.70000 3.84100 36.75000

