158

Mg 2.23900 -3.04800 44.95900
C  5.36100 -1.82100 44.00600
C  0.76800 -0.73300 42.81300
C  -0.76700 -4.54700 45.64000
C  3.86000 -5.75900 46.49200
N  3.08400 -1.56700 43.31200
C  4.37600 -1.15400 43.33600
C  4.53800 0.02100 42.25700
C  3.10600 0.42100 42.11000
C  2.24600 -0.70000 42.75300
C  2.87400 1.72200 42.85400
C  5.33100 -0.56800 40.97600
C  6.69000 -0.03100 40.58700
H  7.08400 0.23000 39.15900
N  0.27300 -2.64100 44.35600
C  -0.12600 -1.71100 43.39500
C  -1.58600 -1.65500 43.50100
C  -2.05700 -2.76500 44.22000
C  -0.84500 -3.38300 44.84500
C  -2.36400 -0.63700 42.64700
C  -3.48500 -3.12700 44.51200
O  -4.43100 -2.57900 43.92100
C  -3.86000 -4.19400 45.56800
N  1.59300 -4.88500 46.01100
C  0.34600 -5.32000 46.07500
C  0.24800 -6.70600 46.61100
C  1.69800 -7.08400 46.79000
C  2.47000 -5.81300 46.47000
C  -0.75500 -6.89100 47.78200
C  2.17500 -8.20200 45.77200
C  3.19300 -9.19000 46.37100
N  4.12900 -3.68000 45.27000
C  4.64000 -4.75600 45.95700
C  6.08300 -4.69100 46.03800
C  6.43400 -3.52200 45.37400
C  5.19700 -3.02700 44.79400
C  7.00300 -5.56100 46.80800
C  7.55000 -2.65900 44.94800
O  8.78700 -2.77800 45.05500
C  6.87600 -1.49100 44.08900
C  7.11700 -0.25300 44.93200
O  6.33400 0.21400 45.72500
O  8.35300 0.26800 44.69400
C  8.67800 1.60300 45.22400
H  0.29300 0.17300 42.43000
H  -1.57600 -5.24600 45.86100
H  4.42900 -6.61400 46.86500
H  5.14000 0.78000 42.75600
H  2.83600 0.49000 41.05600
H  3.20200 1.66800 43.89200
H  1.80300 1.85500 42.69900
H  3.41600 2.53800 42.37800
H  4.69300 -0.33500 40.12400
H  5.51800 -1.64200 40.98900
H  7.40600 -0.75500 40.97600
H  6.97300 0.78100 41.25800
H  -2.81400 0.06300 43.35100
H  -3.17700 -1.12700 42.11200
H  -1.73800 -0.05900 41.96700
H  -3.70400 -5.15400 45.07600
H  -4.90900 -3.93100 45.70200
H  -3.28400 -3.98900 46.47000
H  -0.20300 -7.21200 45.75800
H  1.90300 -7.34400 47.82800
H  -1.27300 -5.96900 48.04500
H  -0.19800 -7.18600 48.67100
H  -1.44700 -7.63100 47.38100
H  2.68500 -7.89600 44.85800
H  1.36600 -8.85900 45.45100
H  2.77700 -10.16700 46.61700
H  3.68100 -8.77800 47.25500
H  3.89900 -9.31300 45.55000
H  7.66800 -6.10200 46.13400
H  6.57900 -6.22000 47.56700
H  7.63300 -4.87100 47.36900
H  7.41100 -1.38200 43.14600
H  7.82100 2.20300 45.53200
H  9.30500 2.16200 44.52900
H  9.30000 1.36800 46.08700
Mg 30.11100 58.72500 39.48300
C  27.39700 56.45900 38.54200
C  32.27800 56.23000 38.43900
C  32.47800 60.97600 39.22900
C  27.59800 61.23500 39.77200
N  29.81500 56.57900 38.68500
C  28.67200 55.97200 38.27600
C  28.98900 54.66000 37.49600
C  30.52800 54.46600 37.73100
C  30.89500 55.85300 38.25400
C  30.97200 53.28400 38.66500
C  28.58800 54.86300 36.00500
C  27.75300 53.75200 35.29300
H  27.63900 53.85800 33.78900
N  32.12100 58.62600 39.02900
C  32.83100 57.44000 38.74800
C  34.22800 57.77000 38.73100
C  34.32500 59.16800 38.97100
C  32.96800 59.68800 39.03800
C  35.32100 56.70400 38.43800
C  35.59300 60.00100 39.04800
O  36.68700 59.49700 38.97200
C  35.59600 61.46500 39.10200
N  30.03500 60.85800 39.60200
C  31.19400 61.59600 39.50600
C  30.86900 63.10800 39.53800
C  29.42400 63.07400 40.02000
C  28.92200 61.63800 39.78400
C  31.82400 63.95100 40.42200
C  28.58900 64.22100 39.34300
C  27.50800 64.79800 40.26500
N  27.87500 58.85800 39.34200
C  27.07200 59.95500 39.47000
C  25.63700 59.55800 39.29300
C  25.73100 58.16900 38.97600
C  27.13400 57.81900 38.95600
C  24.35700 60.46000 39.49500
C  24.92100 56.97800 38.74900
O  23.68400 56.81800 38.71000
C  26.03400 55.88800 38.43600
C  25.88600 54.73300 39.37700
O  26.08600 54.72700 40.61300
O  25.26800 53.76300 38.63800
C  24.62900 52.67100 39.40900
H  32.95600 55.43700 38.11700
H  33.13100 61.85000 39.17700
H  26.82100 62.00200 39.80000
H  28.38900 53.89100 37.98200
H  31.17800 54.34400 36.86500
H  31.46800 53.72300 39.53000
H  31.66700 52.55300 38.25000
H  30.18300 52.61800 39.01400
H  29.44700 55.02700 35.35500
H  27.96000 55.75100 35.94200
H  26.72800 53.92300 35.62100
H  28.01400 52.74700 35.62600
H  36.19200 57.24800 38.07300
H  34.95100 55.91200 37.78700
H  35.58000 56.31300 39.42200
H  35.14600 61.83800 40.02200
H  34.98800 61.78500 38.25600
H  36.58500 61.88700 38.92400
H  30.91600 63.60700 38.57000
H  29.52500 63.18400 41.09900
H  32.63800 64.50500 39.95400
H  32.35300 63.14900 40.93600
H  31.33600 64.62700 41.12300
H  28.09900 63.84000 38.44700
H  29.25200 65.03400 39.04700
H  27.64100 64.40500 41.27300
H  26.48700 64.63300 39.92000
H  27.65600 65.86400 40.43900
H  24.24400 60.61900 40.56800
H  23.55100 60.00000 38.92300
H  24.37000 61.49200 39.14600
H  25.78700 55.49400 37.45100
H  25.34100 52.04500 39.94700
H  24.17600 51.93500 38.74500
H  23.86100 53.10600 40.04900

