158

Mg 8.77000 3.33800 27.83000
C  10.11500 2.01300 30.66500
C  7.22100 5.75300 29.70200
C  7.04500 4.34100 25.05400
C  10.06300 0.65500 26.01800
N  8.79100 3.88100 29.93900
C  9.47100 3.25700 30.92400
C  9.26900 3.83400 32.35800
C  8.31900 5.01300 32.05900
C  8.10500 4.93800 30.49100
C  7.03200 5.13700 32.88700
C  10.63600 4.22400 33.07300
C  10.51100 5.26600 34.19400
H  11.22800 4.87700 35.50400
N  7.40800 4.92900 27.40200
C  6.88400 5.76200 28.34600
C  6.05400 6.74900 27.69600
C  5.98600 6.41900 26.32500
C  6.78400 5.16100 26.16000
C  5.43800 7.99800 28.28900
C  5.16700 7.03500 25.24500
O  5.34400 6.77200 24.06100
C  4.08500 8.15600 25.58000
N  8.53200 2.61300 25.84400
C  7.79900 3.21900 24.89500
C  7.89400 2.42300 23.59400
C  9.05300 1.50700 23.81700
C  9.24900 1.55700 25.34900
C  6.58300 1.62600 23.15800
C  10.36200 1.88700 23.02000
C  11.32600 0.72400 22.82500
N  10.04000 1.73800 28.17100
C  10.38300 0.71200 27.39300
C  11.16400 -0.24400 28.18400
C  11.07700 0.25900 29.43900
C  10.31200 1.41400 29.38000
C  11.75900 -1.56300 27.78100
C  11.57200 -0.02200 30.78700
O  12.40100 -0.81200 31.17400
C  10.94100 1.11600 31.60200
C  10.25900 0.51800 32.80300
O  9.21300 -0.12200 32.73200
O  11.09800 0.84200 33.89400
C  10.50000 0.23700 35.10100
H  6.80100 6.62800 30.20300
H  6.45200 4.65500 24.19200
H  10.44800 -0.24100 25.52700
H  8.74600 3.07300 32.93800
H  8.77800 5.99000 32.20900
H  6.14700 5.01200 32.26400
H  7.00600 6.13200 33.33100
H  6.87300 4.43300 33.70400
H  11.27400 4.59800 32.27100
H  11.08000 3.36300 33.57100
H  9.45500 5.33300 34.45700
H  10.78300 6.20800 33.71800
H  6.04400 8.34900 29.12400
H  4.41800 7.74900 28.58000
H  5.41900 8.90700 27.68900
H  3.62900 7.89400 26.53500
H  3.55700 8.31900 24.64000
H  4.70900 9.04300 25.68200
H  8.11200 3.19200 22.85200
H  8.88000 0.47400 23.51400
H  5.74700 2.25200 22.84500
H  6.26600 0.92900 23.93300
H  6.78100 0.96700 22.31200
H  10.92400 2.62400 23.59500
H  10.18200 2.38300 22.06600
H  12.00300 0.70800 23.67900
H  11.87700 0.95900 21.91400
H  10.73400 -0.19000 22.78600
H  11.43100 -1.97000 26.82500
H  11.58900 -2.37500 28.48900
H  12.83900 -1.42500 27.73500
H  11.73000 1.77100 31.97100
H  9.88800 -0.63300 34.86600
H  9.98300 0.98000 35.70800
H  11.26500 -0.20000 35.74400
Mg 8.59800 47.73800 25.08700
C  6.49200 47.78600 27.88900
C  11.16100 48.82200 27.21000
C  10.68400 47.95500 22.38700
C  5.94000 47.31000 22.98000
N  8.74200 48.31700 27.38500
C  7.76800 48.12400 28.30400
C  8.32500 48.42400 29.75300
C  9.78600 48.88400 29.43700
C  9.93900 48.71900 27.88400
C  10.18600 50.25300 30.06700
C  8.10900 47.24500 30.74900
C  9.10000 47.02500 31.94300
H  8.41100 46.42000 33.22300
N  10.65200 48.30300 24.78900
C  11.53000 48.67500 25.75100
C  12.82600 48.74300 25.15700
C  12.74600 48.43200 23.80600
C  11.28200 48.27500 23.59900
C  14.03700 49.13000 26.03700
C  13.80600 48.48100 22.80900
O  13.62700 48.21700 21.62800
C  15.30800 48.45400 23.19800
N  8.29700 47.77200 22.87600
C  9.36300 47.69400 22.00600
C  8.83400 47.23800 20.61000
C  7.27800 47.00800 20.85000
C  7.11900 47.33000 22.30900
C  9.40300 48.13900 19.43100
C  6.93000 45.61400 20.43400
C  5.50300 45.36300 19.88200
N  6.68900 47.46800 25.34500
C  5.66100 47.43300 24.39900
C  4.34400 47.43700 25.04100
C  4.68500 47.38700 26.37900
C  6.08900 47.43500 26.52100
C  2.94800 47.46600 24.36000
C  4.07800 47.35200 27.71100
O  2.87800 47.27700 27.98600
C  5.23600 47.58400 28.74300
C  5.16100 46.42400 29.72700
O  5.41900 45.25600 29.47200
O  4.65100 46.84800 30.94500
C  4.26400 45.75300 31.84300
H  11.93700 49.15700 27.90100
H  11.38100 47.78300 21.56400
H  5.03400 47.16700 22.38700
H  7.79600 49.29500 30.14000
H  10.48900 48.12500 29.77900
H  9.31100 50.86500 30.28300
H  10.83800 50.75100 29.35000
H  10.81800 49.94500 30.90000
H  8.14100 46.31000 30.19000
H  7.12200 47.45800 31.16000
H  9.53400 48.00300 32.15300
H  9.96400 46.42500 31.65700
H  13.86600 49.33800 27.09300
H  14.37400 50.09700 25.66200
H  14.86300 48.43700 26.19300
H  15.72200 49.29100 23.76200
H  15.91400 48.27100 22.31100
H  15.46400 47.59200 23.84700
H  9.34100 46.29400 20.41000
H  6.73300 47.67600 20.18300
H  8.57900 48.76600 19.08900
H  9.73800 47.50000 18.61400
H  10.32800 48.61400 19.75900
H  6.86000 44.97400 21.31300
H  7.60700 45.26200 19.65600
H  5.51700 44.52300 19.18800
H  4.98400 46.23300 19.48200
H  4.95900 45.04400 20.77200
H  2.43400 46.57300 24.71500
H  3.06500 47.31000 23.28800
H  2.37400 48.38000 24.51500
H  5.13500 48.54700 29.24200
H  3.67300 46.18900 32.64900
H  5.08100 45.25800 32.36700
H  3.56500 45.06700 31.36400

