158

Mg 36.92600 49.36100 25.64700
C  36.77100 47.62400 28.77100
C  35.33000 51.92600 27.20500
C  36.53200 50.79000 22.60000
C  38.00500 46.47000 24.12600
N  36.03700 49.67200 27.70300
C  36.24400 48.91100 28.86400
C  35.98500 49.70200 30.14900
C  35.23700 50.94900 29.57800
C  35.67100 50.91200 28.11300
C  33.71000 50.95800 29.84800
C  37.31700 49.96000 30.99800
C  37.34500 49.40200 32.40200
H  36.05900 49.19500 33.15000
N  36.04500 51.11500 24.99900
C  35.45800 51.99800 25.78600
C  34.92500 53.05500 24.96900
C  35.26700 52.78100 23.59700
C  36.03300 51.52800 23.68600
C  34.21100 54.22500 25.50200
C  34.95400 53.60400 22.37800
O  35.37900 53.32200 21.26300
C  34.22000 54.90000 22.44600
N  37.52600 48.91500 23.71500
C  37.18500 49.61700 22.62200
C  37.31200 48.73500 21.28900
C  38.21400 47.62100 21.81600
C  37.83600 47.64100 23.29100
C  36.00200 48.29100 20.56100
C  39.70100 47.73000 21.45900
C  40.42000 48.97700 21.96900
N  37.37200 47.46100 26.26900
C  37.82100 46.39700 25.49100
C  38.02800 45.28400 26.38700
C  37.74600 45.72300 27.63200
C  37.27400 47.05400 27.56200
C  38.54200 43.92100 26.00300
C  37.68100 45.32700 28.97600
O  37.95500 44.26200 29.49100
C  37.25900 46.55600 29.74900
C  36.04700 46.14800 30.62900
O  34.89400 46.49400 30.39000
O  36.37300 45.33700 31.68500
C  35.30800 44.85400 32.52800
H  34.96100 52.82200 27.70700
H  36.20900 51.16500 21.62700
H  38.23800 45.46700 23.76300
H  35.27600 49.04000 30.64600
H  35.61700 51.79900 30.14400
H  33.53100 51.93600 30.29600
H  33.38200 50.10300 30.43900
H  33.11500 50.87000 28.93900
H  37.69100 50.96400 30.79800
H  38.04200 49.41700 30.39200
H  38.05800 50.02300 32.94500
H  37.84800 48.43500 32.38600
H  34.90900 55.06100 25.51600
H  33.85400 54.04500 26.51600
H  33.27400 54.42500 24.98300
H  34.17700 55.39800 21.47700
H  34.70800 55.56200 23.16100
H  33.18800 54.81000 22.78800
H  37.91000 49.31800 20.58900
H  37.84100 46.63100 21.55400
H  35.72400 47.27100 20.29500
H  35.96000 48.76800 19.58200
H  35.17100 48.77200 21.07600
H  39.85200 47.57900 20.39000
H  40.21100 46.88000 21.91100
H  39.68800 49.78500 22.00900
H  41.18300 49.18400 21.21900
H  40.85300 48.69100 22.92800
H  39.35900 43.70500 26.69100
H  38.97500 43.96500 25.00300
H  37.69200 43.23900 25.98700
H  38.07100 46.72100 30.45700
H  34.47900 45.55400 32.42300
H  35.72100 45.17800 33.48300
H  34.91200 43.84200 32.43600
Mg 0.66200 42.34200 25.46400
C  1.57600 42.44100 28.91800
C  -2.28200 40.92600 26.45700
C  -0.03300 41.67500 22.27200
C  3.93300 43.19200 24.70200
N  -0.13800 41.70500 27.50400
C  0.30700 41.99300 28.73200
C  -0.82800 41.70000 29.80600
C  -1.88100 40.91500 29.03200
C  -1.41200 41.12700 27.60800
C  -1.89300 39.43700 29.44300
C  -1.37900 42.97400 30.51000
C  -1.16400 43.04800 32.06800
H  -1.65700 41.97700 32.99500
N  -1.04800 41.64600 24.47900
C  -2.16900 41.03100 25.06600
C  -3.10600 40.78800 24.00500
C  -2.42000 40.99000 22.73900
C  -1.10400 41.47900 23.10000
C  -4.45600 40.41900 24.32000
C  -2.98600 40.86400 21.31500
O  -2.32100 41.22000 20.37300
C  -4.20400 39.93900 21.05700
N  1.82300 42.38200 23.83400
C  1.28300 42.02900 22.61500
C  2.33000 42.27900 21.46500
C  3.45000 43.08000 22.20000
C  3.05500 42.92700 23.63500
C  2.59900 40.95300 20.66100
C  3.51400 44.62200 21.75600
C  4.66600 44.95700 20.79700
N  2.39800 42.78400 26.56800
C  3.68600 43.14700 26.09300
C  4.53200 43.48000 27.22300
C  3.77600 43.21900 28.33500
C  2.47300 42.76900 27.87300
C  5.98500 43.92600 27.29500
C  3.73100 43.16200 29.79500
O  4.60200 43.42800 30.59100
C  2.29900 42.72800 30.21200
C  2.42500 41.48900 31.08400
O  3.02000 40.40800 30.85100
O  1.84500 41.73800 32.30100
C  2.19100 40.80700 33.28900
H  -3.21200 40.38700 26.65000
H  -0.18700 41.44200 21.21600
H  4.94600 43.42600 24.36900
H  -0.30900 41.11500 30.56500
H  -2.88500 41.33300 29.10200
H  -2.93400 39.11700 29.48800
H  -1.40900 39.24300 30.40000
H  -1.52600 38.79500 28.64300
H  -2.44700 43.04200 30.30700
H  -0.98100 43.87100 30.03600
H  -1.65900 43.97100 32.36900
H  -0.15400 43.28900 32.39900
H  -4.83800 41.18200 24.99900
H  -4.56800 39.46600 24.83500
H  -5.19500 40.44800 23.51900
H  -4.29200 39.10400 21.75200
H  -4.02500 39.48200 20.08400
H  -5.20800 40.35000 20.95500
H  1.89400 42.93500 20.71200
H  4.46100 42.69800 22.05800
H  1.99400 40.90100 19.75700
H  2.42500 40.03500 21.22200
H  3.66900 40.96000 20.45000
H  3.43500 45.25200 22.64200
H  2.55800 44.80600 21.26600
H  5.13400 44.08200 20.34600
H  5.43100 45.58900 21.24900
H  4.42600 45.65100 19.99100
H  6.54900 43.05000 27.61600
H  6.27000 44.72700 27.97700
H  6.45200 44.15700 26.33800
H  1.84300 43.64500 30.58800
H  1.56800 41.02700 34.15500
H  3.24500 40.95800 33.52000
H  1.92700 39.77600 33.05100

