158

Mg 0.33200 7.59500 25.59000
C  0.88600 9.43800 28.52300
C  0.18700 4.72100 27.47600
C  0.35200 5.91600 22.69100
C  0.68300 10.58000 23.73500
N  0.49300 7.18100 27.79000
C  0.50500 8.11700 28.78500
C  0.46000 7.42100 30.16600
C  0.45100 5.87300 29.80300
C  0.35600 5.92000 28.23800
C  1.59000 5.02800 30.42700
C  -0.67800 7.84900 31.06300
C  -0.45700 7.92300 32.58600
H  0.71700 7.19400 33.28700
N  0.20300 5.59800 25.21700
C  0.08600 4.51900 26.08800
C  0.13300 3.25600 25.29100
C  0.20500 3.67100 23.90900
C  0.23800 5.10600 23.86000
C  0.27600 1.92300 25.79900
C  0.18700 2.84200 22.60900
O  -0.04000 3.25600 21.49000
C  0.29300 1.32500 22.73600
N  0.31600 8.17400 23.44200
C  0.43500 7.29300 22.46700
C  0.34700 8.03300 21.09900
C  0.43200 9.54900 21.40800
C  0.44800 9.45300 22.94000
C  1.36100 7.47400 20.07200
C  -0.66700 10.46600 20.82400
C  -1.90000 10.83900 21.63000
N  0.76600 9.51500 25.96800
C  0.92400 10.62400 25.08500
C  1.21700 11.80300 25.80800
C  1.32100 11.40700 27.19600
C  0.95000 9.98300 27.22900
C  1.47200 13.18500 25.29300
C  1.64500 11.85800 28.52000
O  1.97000 12.99300 28.91000
C  1.27400 10.58100 29.45700
C  2.42900 10.39600 30.36200
O  3.32400 9.58100 30.21300
O  2.31500 11.25600 31.45900
C  3.18300 10.93300 32.54400
H  0.09200 3.74700 27.96000
H  0.28900 5.45800 21.70200
H  0.61900 11.55000 23.23800
H  1.38900 7.48400 30.73200
H  -0.47100 5.42400 30.17300
H  1.13200 4.53700 31.28600
H  2.47500 5.54900 30.79200
H  1.93000 4.24000 29.75500
H  -1.51700 7.16500 30.94100
H  -1.00900 8.77200 30.58600
H  -1.32400 7.59800 33.15900
H  -0.34600 8.93600 32.97400
H  1.24000 1.50400 25.50800
H  -0.52400 1.25400 25.48300
H  0.18200 1.90900 26.88400
H  1.23200 1.06100 23.22300
H  0.43000 0.85700 21.76200
H  -0.57600 0.87600 23.21700
H  -0.63400 7.83300 20.66900
H  1.38400 9.89700 21.00600
H  2.06900 6.81700 20.57900
H  1.79600 8.36200 19.61200
H  0.90800 6.82900 19.32000
H  -0.87300 10.05200 19.83800
H  -0.18600 11.43600 20.69500
H  -2.69900 10.54900 20.94700
H  -2.06700 11.87700 21.91600
H  -2.04100 10.24200 22.53100
H  2.26200 13.08900 24.54800
H  1.92400 13.67100 26.15800
H  0.60700 13.76000 24.96500
H  0.45100 10.89200 30.09900
H  2.98200 11.44000 33.48700
H  4.17200 11.36100 32.37500
H  3.21900 9.87900 32.82000
Mg 42.75600 3.32300 46.19000
C  40.91000 6.27200 46.49400
C  39.92700 1.61100 46.27000
C  44.55800 0.70100 45.18900
C  45.54900 5.43500 45.61200
N  40.64200 3.94100 46.30600
C  40.12100 5.18400 46.57000
C  38.56500 5.08200 46.88900
C  38.40500 3.54500 46.97600
C  39.73600 2.98000 46.47800
C  37.97000 3.05100 48.35100
C  37.63000 5.85500 45.81500
C  38.02400 5.53900 44.45500
H  38.44200 6.56400 43.40400
N  42.30200 1.38000 45.92500
C  41.05000 0.89200 46.07600
C  41.07500 -0.53000 45.78800
C  42.36100 -0.78100 45.18500
C  43.14600 0.45000 45.43700
C  39.92600 -1.43500 46.03700
C  42.81700 -2.06000 44.56100
O  41.92200 -2.92300 44.51800
C  44.13200 -2.17800 43.79500
N  44.72400 3.11300 45.10900
C  45.28100 1.91800 45.11000
C  46.80700 2.06400 45.05300
C  47.05700 3.57900 44.90000
C  45.66800 4.12800 45.14900
C  47.64900 1.30400 46.20300
C  47.46200 4.00500 43.40500
C  48.86600 4.00700 43.04200
N  43.20700 5.40200 45.99900
C  44.37400 6.09200 45.93300
C  44.14800 7.52200 46.16100
C  42.81300 7.60500 46.33800
C  42.27400 6.32200 46.21800
C  45.13500 8.58500 46.07600
C  41.77200 8.51500 46.69000
O  41.78600 9.70300 46.95500
C  40.51100 7.71700 46.74600
C  39.86300 7.88300 48.10200
O  40.27100 7.74700 49.24100
O  38.56600 8.28700 47.81400
C  37.64900 8.41800 48.90700
H  39.02600 0.99400 46.28400
H  45.31500 -0.07400 45.04900
H  46.40500 6.11200 45.63900
H  38.42300 5.63300 47.81900
H  37.64200 3.33400 46.22700
H  37.15800 2.32900 48.26600
H  37.66700 3.94200 48.90100
H  38.74500 2.47900 48.86100
H  37.68700 6.94200 45.88700
H  36.57400 5.65600 46.00000
H  37.04000 5.26400 44.07400
H  38.52900 4.59500 44.25400
H  39.26400 -1.14800 46.85400
H  40.08600 -2.50600 46.16600
H  39.44900 -1.31900 45.06400
H  44.84000 -2.36500 44.60300
H  44.25500 -1.18400 43.36600
H  44.06700 -2.95600 43.03500
H  47.01900 1.65000 44.06700
H  47.68000 4.03200 45.67100
H  47.14900 0.96300 47.11000
H  48.32500 2.05400 46.61300
H  48.15900 0.40400 45.85900
H  47.13800 5.03600 43.26700
H  46.95100 3.36300 42.68700
H  49.32800 3.46900 43.87000
H  49.17100 5.05300 43.06600
H  49.12600 3.43600 42.15100
H  44.76500 9.22000 45.27100
H  46.05000 8.19700 45.62900
H  45.20300 9.12000 47.02300
H  39.84500 7.98200 45.92500
H  38.04300 8.97800 49.75600
H  37.38900 7.43300 49.29300
H  36.79600 8.91100 48.44200

