158

Mg 53.97500 24.21200 45.40400
C  51.36500 26.46500 44.38800
C  51.96600 21.69500 44.05400
C  56.74100 22.42800 45.01300
C  55.77600 26.97000 46.45900
N  51.81500 24.14000 44.43800
C  51.04500 25.14000 44.06900
C  49.68300 24.55100 43.46500
C  49.77500 23.10300 44.03600
C  51.30600 22.96200 44.13300
C  49.07100 22.94800 45.45600
C  49.62000 24.68300 41.90800
C  51.00900 24.60600 41.15900
H  51.80600 23.27200 41.06500
N  54.34700 22.24400 44.65600
C  53.33000 21.40300 44.26500
C  53.99800 20.22300 43.98900
C  55.40800 20.36600 44.14900
C  55.56600 21.68700 44.60000
C  53.32000 19.00400 43.45900
C  56.41900 19.28200 43.97100
O  56.02800 18.18000 43.72400
C  57.91500 19.49900 44.08100
N  56.01500 24.77300 45.36100
C  56.97600 23.80300 45.39100
C  58.30700 24.22900 45.88800
C  57.98900 25.66300 46.34200
C  56.51500 25.78200 46.05900
C  58.83800 23.26700 46.99200
C  58.85300 26.79500 45.79800
C  59.91500 27.40900 46.77300
N  53.57200 26.31000 45.60300
C  54.40700 27.25800 46.13900
C  53.72200 28.52900 46.17300
C  52.53400 28.27400 45.42900
C  52.54300 26.90200 45.00700
C  54.19500 29.87600 46.66400
C  51.32400 28.84600 44.88700
O  50.85400 29.92500 44.98000
C  50.64300 27.73700 44.06100
C  50.62400 28.06200 42.55700
O  51.64300 28.20300 41.91000
O  49.38700 28.33900 42.10500
C  49.18700 28.48700 40.61300
H  51.37100 20.90900 43.58400
H  57.64900 21.82200 44.99400
H  56.34400 27.83100 46.81900
H  49.08400 25.33300 43.93200
H  49.40000 22.35100 43.34100
H  49.77600 22.45000 46.12100
H  48.23800 22.27100 45.26500
H  48.63600 23.81700 45.95000
H  49.15900 25.64300 41.67200
H  48.99900 23.82800 41.64200
H  51.56600 25.49000 41.47000
H  50.71700 24.78400 40.12400
H  53.43800 18.95700 42.37700
H  52.28000 19.08600 43.77600
H  53.58700 18.07400 43.96200
H  58.35200 18.64100 43.57200
H  58.31300 19.61800 45.08900
H  58.15200 20.33400 43.42200
H  59.00100 24.18700 45.04800
H  58.06700 25.64700 47.42900
H  57.97300 23.05700 47.62100
H  59.57800 23.61300 47.71400
H  59.14600 22.24900 46.75400
H  58.27500 27.66400 45.48300
H  59.45000 26.45000 44.95400
H  60.85100 27.60800 46.25100
H  60.18800 26.73200 47.58300
H  59.44400 28.29000 47.20900
H  55.20900 29.85900 47.06300
H  53.48800 30.17500 47.43700
H  54.18300 30.63300 45.88000
H  49.61600 27.61200 44.40300
H  49.00500 27.49400 40.20200
H  50.13700 28.78800 40.17300
H  48.38400 29.20900 40.46800
Mg -5.58600 24.96800 25.38000
C  -3.84800 26.37700 28.24500
C  -7.32500 22.98300 27.65900
C  -6.99400 23.47300 22.80400
C  -3.52200 26.81600 23.26800
N  -5.50600 24.73300 27.66900
C  -4.91400 25.52000 28.63500
C  -5.33800 25.11000 30.08600
C  -6.17400 23.81000 29.81200
C  -6.32700 23.80600 28.27200
C  -5.68900 22.45000 30.44900
C  -6.07400 26.34500 30.70800
C  -5.80500 26.51000 32.24200
H  -5.56200 25.33100 33.22900
N  -7.02800 23.50800 25.28000
C  -7.66600 22.93300 26.34300
C  -8.80900 22.18200 25.81500
C  -8.68900 22.23500 24.42000
C  -7.57600 23.13700 24.08700
C  -9.72600 21.21100 26.77100
C  -9.49800 21.43400 23.41200
O  -9.17800 21.35100 22.21700
C  -10.61900 20.57600 23.95200
N  -5.18100 24.95800 23.27400
C  -5.99400 24.32900 22.40200
C  -5.63600 24.64800 21.00000
C  -4.69500 25.94200 21.15800
C  -4.38400 25.90200 22.64000
C  -5.06100 23.33200 20.38600
C  -5.38100 27.26200 20.59900
C  -4.50100 28.02200 19.64500
N  -3.91600 26.28800 25.61600
C  -3.25300 26.99800 24.68100
C  -2.28300 27.81600 25.34200
C  -2.50300 27.60400 26.77300
C  -3.49000 26.63000 26.86400
C  -1.35000 28.79000 24.68200
C  -2.14100 28.04100 28.08100
O  -1.46100 28.96900 28.45400
C  -2.89700 27.18700 29.07200
C  -2.05000 26.34400 29.92300
O  -1.29900 25.47100 29.45100
O  -2.13500 26.72700 31.26800
C  -1.54700 25.73800 32.10700
H  -7.68400 22.28100 28.41400
H  -7.43200 23.04500 21.89900
H  -3.05000 27.56300 22.62600
H  -4.43500 24.91000 30.66300
H  -7.17000 23.95900 30.22700
H  -4.95000 22.66600 31.22100
H  -5.25800 21.79000 29.69800
H  -6.53300 21.90800 30.87500
H  -7.11900 26.18900 30.44100
H  -5.64800 27.23100 30.23700
H  -6.73400 26.99500 32.54000
H  -5.01800 27.25700 32.35500
H  -9.83800 20.20700 26.36300
H  -10.68200 21.73500 26.77300
H  -9.25700 21.19400 27.75500
H  -11.12900 20.28500 23.03400
H  -11.16800 21.26400 24.59500
H  -10.25900 19.70300 24.49700
H  -6.53900 24.87700 20.43400
H  -3.79400 25.76500 20.57000
H  -3.97300 23.28000 20.40700
H  -5.46300 23.19400 19.38300
H  -5.40300 22.45800 20.94000
H  -5.72500 27.93700 21.38300
H  -6.21500 26.89900 19.99900
H  -4.59200 29.10100 19.76700
H  -4.96600 27.78000 18.68900
H  -3.44900 27.73600 19.64100
H  -2.00200 29.54700 24.24500
H  -0.75000 28.17500 24.01100
H  -0.82800 29.27000 25.51000
H  -3.48000 27.90200 29.65300
H  -1.70400 24.74100 31.69400
H  -2.09800 25.76100 33.04700
H  -0.47500 25.86400 32.25900

