158

Mg 0.35300 7.85300 25.23600
C  1.16700 10.04300 27.87500
C  0.36600 5.12400 27.39300
C  -0.61600 5.95100 22.77100
C  0.60900 10.66400 23.03200
N  0.90200 7.61000 27.29700
C  1.00500 8.68100 28.20200
C  1.13600 8.04600 29.62700
C  0.98200 6.57200 29.46700
C  0.68600 6.42400 27.97700
C  2.20300 5.64300 29.92300
C  0.17600 8.57600 30.69100
C  0.53400 8.68100 32.16800
H  1.74900 7.92600 32.70300
N  -0.00200 5.80700 25.03200
C  0.01700 4.81900 26.02800
C  -0.37100 3.55500 25.51100
C  -0.65000 3.72200 24.11600
C  -0.50900 5.22800 23.91600
C  -0.48300 2.34600 26.40800
C  -0.85000 2.71700 23.09000
O  -0.98800 3.03900 21.93100
C  -0.83600 1.26300 23.35300
N  -0.03400 8.33200 23.24100
C  -0.37600 7.28500 22.48100
C  -0.55500 7.74300 21.01100
C  -0.28200 9.30800 21.10400
C  0.08900 9.44700 22.54700
C  0.21100 7.01400 19.93700
C  -1.45600 10.14500 20.66500
C  -1.17000 11.14100 19.55600
N  0.83100 9.92000 25.33700
C  0.96600 10.93800 24.34200
C  1.30300 12.19200 25.05800
C  1.36000 11.93000 26.44100
C  1.11600 10.47500 26.55800
C  1.43700 13.48100 24.41600
C  1.68400 12.38900 27.74800
O  2.12200 13.55800 28.06100
C  1.46300 11.20400 28.78700
C  2.66700 11.15600 29.65500
O  3.63000 10.45300 29.41100
O  2.46500 11.91000 30.80900
C  3.69300 12.01900 31.71600
H  0.25600 4.33000 28.13500
H  -0.97000 5.37500 21.91400
H  0.60300 11.49000 22.31800
H  2.12600 8.20800 30.05400
H  0.10300 6.28400 30.04500
H  2.89300 6.21600 30.54100
H  2.73900 5.20100 29.08200
H  1.88500 4.85700 30.60800
H  -0.81700 8.15200 30.53900
H  0.00300 9.60600 30.37900
H  -0.34000 8.28800 32.68800
H  0.53900 9.72100 32.49600
H  -1.49400 1.93700 26.40800
H  -0.32500 2.58000 27.46100
H  0.28400 1.58900 26.25100
H  -1.57100 0.99700 24.11200
H  0.09300 0.89900 23.79200
H  -0.96500 0.65600 22.45600
H  -1.62700 7.58600 20.89700
H  0.61600 9.53400 20.52900
H  -0.37200 6.18300 19.53900
H  1.14400 6.61900 20.33900
H  0.38000 7.76500 19.16500
H  -1.76600 10.76600 21.50500
H  -2.28300 9.51900 20.33000
H  -0.54400 10.80000 18.73200
H  -0.57900 11.82400 20.16600
H  -2.02200 11.71900 19.19600
H  0.68200 13.44400 23.63000
H  2.36100 13.47000 23.83800
H  1.40400 14.38500 25.02400
H  0.63000 11.51100 29.42000
H  4.58000 11.82500 31.11300
H  3.69300 11.38000 32.59900
H  3.90400 13.01400 32.10900
Mg 48.25000 35.13600 27.82700
C  46.43000 33.68200 30.42200
C  48.72000 37.81200 29.67500
C  49.50400 36.54200 25.02900
C  47.82000 32.12800 25.91900
N  47.66500 35.71800 29.83800
C  46.99200 34.90700 30.74800
C  46.99800 35.68400 32.09900
C  47.26200 37.19400 31.72800
C  47.81800 36.96800 30.31500
C  45.98600 38.06900 31.68600
C  48.29200 35.07800 32.77000
C  48.19300 34.93100 34.32100
H  47.42300 35.92600 35.08600
N  49.00700 36.94200 27.42500
C  49.21800 37.92000 28.29200
C  49.98100 39.01500 27.68100
C  50.29600 38.62900 26.33300
C  49.61300 37.34000 26.20100
C  50.42400 40.19100 28.50400
C  51.09800 39.36000 25.32500
O  51.14400 39.01400 24.16500
C  51.73400 40.60500 25.66900
N  48.47800 34.44700 25.66000
C  49.05900 35.30400 24.71700
C  49.34800 34.55100 23.39500
C  49.02000 33.02600 23.79100
C  48.45100 33.13700 25.19600
C  48.55200 35.15800 22.21500
C  50.28500 32.12800 23.69100
C  50.86600 32.00600 22.26200
N  47.27300 33.32700 28.05400
C  47.18300 32.18900 27.20000
C  46.40600 31.10700 27.82700
C  46.08700 31.69900 29.04000
C  46.63400 33.01900 29.16000
C  46.13200 29.70900 27.38400
C  45.37400 31.48100 30.26500
O  44.75200 30.47200 30.53900
C  45.54900 32.70300 31.22500
C  45.97400 32.34600 32.59600
O  46.99800 31.73200 32.91000
O  45.04100 32.76700 33.46200
C  45.07800 32.48000 34.82000
H  48.99800 38.70900 30.23200
H  49.98300 37.00100 24.16200
H  47.64200 31.18700 25.39500
H  46.15400 35.58700 32.78200
H  47.88500 37.80000 32.38400
H  45.14600 37.67500 32.25800
H  45.65500 38.13700 30.64900
H  46.24600 39.05300 32.07500
H  49.24000 35.56000 32.53200
H  48.26800 34.02600 32.48500
H  49.20300 35.02400 34.72000
H  47.77400 33.96700 34.61000
H  51.44400 40.16300 28.88700
H  49.66100 40.58800 29.17400
H  50.16200 40.98500 27.80400
H  52.17900 40.51800 26.66000
H  50.97500 41.37700 25.53900
H  52.45300 40.95600 24.92800
H  50.40700 34.65400 23.15900
H  48.29200 32.55500 23.13100
H  49.30900 35.41000 21.47400
H  47.99200 36.05400 22.48100
H  47.85100 34.44800 21.77500
H  49.96800 31.13600 24.01400
H  51.00600 32.51700 24.41000
H  50.17400 32.45700 21.55100
H  50.78600 30.95600 21.98100
H  51.88100 32.40400 22.25000
H  46.49600 29.41900 26.39800
H  45.08400 29.45300 27.53700
H  46.70400 29.14500 28.12100
H  44.53500 33.10200 31.23000
H  44.34000 31.72700 35.09400
H  44.79100 33.41600 35.29800
H  46.08000 32.17000 35.11700

