158

Mg 49.03600 35.16200 27.11700
C  47.17000 33.66300 29.73300
C  49.34500 37.94300 29.06700
C  50.60700 36.56700 24.47600
C  48.54500 32.28800 25.27800
N  48.58700 35.64500 29.35700
C  47.79000 34.86900 30.16500
C  47.91300 35.50900 31.58000
C  48.30500 36.99400 31.25100
C  48.73000 36.91200 29.80200
C  47.09400 38.08600 31.35600
C  48.95000 34.70100 32.34700
C  49.02100 34.97200 33.92800
H  48.08400 35.97100 34.69900
N  49.89300 36.97600 26.82000
C  49.92900 37.94800 27.76300
C  50.79100 39.02500 27.18600
C  51.10100 38.74500 25.86600
C  50.58500 37.34600 25.65900
C  51.03700 40.23900 28.03200
C  51.88100 39.61100 24.79500
O  52.21300 39.14100 23.72700
C  52.16600 41.08600 24.95400
N  49.29900 34.63300 25.05800
C  50.09500 35.31000 24.20900
C  50.64900 34.46100 23.01900
C  49.90500 33.08200 23.25700
C  49.31200 33.28300 24.68800
C  50.41800 35.07500 21.60000
C  50.80400 31.80000 23.14200
C  50.58400 30.85900 22.01300
N  48.08700 33.32200 27.43400
C  48.03600 32.29400 26.58900
C  47.27600 31.23500 27.24200
C  46.86000 31.70700 28.53100
C  47.38500 32.97500 28.53000
C  46.98700 29.83300 26.63700
C  46.12000 31.49300 29.78400
O  45.49300 30.47500 30.02600
C  46.20200 32.74200 30.64200
C  46.44100 32.38500 32.06300
O  47.36400 31.80400 32.55300
O  45.30900 32.56000 32.72300
C  45.33100 32.61100 34.16400
H  49.31800 38.91400 29.56700
H  51.19200 37.00700 23.66600
H  48.45000 31.42500 24.61400
H  46.90300 35.48600 31.99100
H  49.18300 37.26700 31.83700
H  46.65500 38.24000 30.37000
H  47.54000 39.06700 31.51700
H  46.33900 37.74600 32.06500
H  49.95600 35.02000 32.07300
H  48.84300 33.64000 32.12400
H  50.04600 35.32100 34.05800
H  49.08500 33.96600 34.34100
H  51.76800 40.10900 28.83000
H  50.29400 40.51500 28.78000
H  51.12100 41.17600 27.48100
H  52.77900 41.31100 25.82700
H  51.24500 41.66700 24.99700
H  52.72400 41.47300 24.10000
H  51.73500 34.42200 23.10200
H  49.09100 32.92500 22.55000
H  51.37800 35.06400 21.08400
H  49.92500 36.04300 21.50900
H  49.74000 34.39700 21.08100
H  50.68300 31.17400 24.02600
H  51.82300 32.18700 23.12400
H  50.29900 29.89100 22.42600
H  51.54000 30.61100 21.55200
H  49.85200 31.21300 21.28700
H  46.13700 29.93200 25.96200
H  46.76700 29.11900 27.43100
H  47.88800 29.42700 26.17800
H  45.26000 33.28200 30.74300
H  46.21900 33.09000 34.57600
H  45.36200 31.64300 34.66400
H  44.46800 33.19400 34.48500
Mg 29.55300 57.99800 41.16700
C  26.74600 56.32000 39.93600
C  31.48800 55.36800 39.95800
C  32.12000 60.02300 41.26500
C  27.35400 60.83300 41.93600
N  29.12900 56.05800 40.08400
C  27.92600 55.58700 39.68600
C  28.15500 54.33100 38.91800
C  29.57000 53.76300 39.33100
C  30.09600 55.13500 39.88600
C  29.60500 52.69600 40.35100
C  28.04300 54.69500 37.41100
C  26.96200 53.86000 36.62300
H  26.24100 54.62400 35.45700
N  31.56100 57.72600 40.73700
C  32.15000 56.60000 40.21500
C  33.58400 56.80200 40.15900
C  33.78300 58.12800 40.75300
C  32.44300 58.70200 40.87600
C  34.48700 55.64200 39.72000
C  35.15700 58.64800 40.92800
O  36.24400 58.13000 40.57400
C  35.29800 60.04500 41.65000
N  29.69000 60.07300 41.52800
C  30.92600 60.66800 41.57000
C  30.84900 62.02400 42.23400
C  29.31200 62.38200 42.19200
C  28.72700 61.04700 41.88800
C  31.50900 62.09100 43.67100
C  29.03900 63.51500 41.13400
C  27.66700 64.13700 41.31400
N  27.49400 58.46100 41.08800
C  26.76300 59.60200 41.58800
C  25.38200 59.33800 41.41100
C  25.29400 58.06100 40.72700
C  26.60600 57.56500 40.58800
C  24.29500 60.37600 41.58800
C  24.41800 57.04300 40.19400
O  23.18400 57.06100 40.21800
C  25.28100 55.89900 39.56000
C  25.04300 54.59100 40.26600
O  25.26000 54.43500 41.41500
O  24.33900 53.71600 39.42700
C  23.92800 52.48700 40.05500
H  32.04600 54.46000 39.72400
H  32.94400 60.72600 41.40700
H  26.72300 61.68800 42.18700
H  27.37300 53.59300 39.09600
H  30.14700 53.44300 38.46300
H  29.71000 53.10000 41.35800
H  30.44900 52.03100 40.16900
H  28.64400 52.21900 40.15800
H  29.04200 54.57900 36.99100
H  27.73200 55.72600 37.24500
H  26.16100 53.39200 37.19700
H  27.43000 52.95000 36.25000
H  34.25500 55.03000 38.84900
H  34.43700 54.99500 40.59600
H  35.50700 56.01300 39.61700
H  34.98500 60.88000 41.02400
H  36.26300 60.29200 42.09300
H  34.64500 59.95200 42.51800
H  31.39600 62.64600 41.52600
H  28.83200 62.75700 43.09600
H  31.54900 61.07900 44.07500
H  30.82800 62.57900 44.36800
H  32.54400 62.41900 43.58300
H  29.06400 63.03300 40.15700
H  29.76300 64.31300 41.30200
H  27.10100 64.02400 40.39000
H  27.68300 65.17400 41.65000
H  27.09200 63.69500 42.12800
H  23.37800 59.83500 41.35600
H  24.47800 61.24800 40.96100
H  24.27300 60.74100 42.61500
H  25.11200 56.05400 38.49500
H  24.67900 52.06500 40.72200
H  23.55200 51.79200 39.30300
H  23.01300 52.72100 40.59900

