158

Mg 47.64100 25.61500 27.72500
C  48.99800 27.61500 30.16700
C  46.64200 23.27200 30.07300
C  46.48700 23.69300 25.20500
C  49.02700 27.86400 25.22400
N  47.89500 25.43800 29.88300
C  48.28800 26.45600 30.71700
C  47.90100 26.20000 32.15400
C  47.40100 24.71000 32.07000
C  47.33100 24.42400 30.58100
C  48.30300 23.78300 32.93600
C  46.88000 27.20900 32.71400
C  47.15500 27.39700 34.27200
H  45.97600 28.01800 35.11000
N  46.68700 23.71700 27.65600
C  46.36100 22.97800 28.77600
C  45.81700 21.69400 28.30900
C  45.59500 21.84500 26.87000
C  46.27300 23.12100 26.46200
C  45.52400 20.56900 29.22900
C  44.80400 20.90700 25.98100
O  44.71200 21.08300 24.74500
C  44.12200 19.73300 26.55800
N  47.77500 25.78900 25.51200
C  47.23900 24.75600 24.76100
C  47.67100 24.89500 23.34800
C  48.43100 26.22700 23.32100
C  48.38200 26.68100 24.72600
C  48.57400 23.74300 22.86500
C  47.74500 27.33000 22.32500
C  48.27300 27.53700 20.85200
N  48.74500 27.38800 27.65300
C  49.25700 28.19200 26.62600
C  50.09800 29.21800 27.12400
C  49.92600 29.05300 28.51000
C  49.13000 27.94400 28.78000
C  50.86600 30.25700 26.44300
C  50.22400 29.66200 29.73900
O  50.93300 30.61700 29.93400
C  49.60600 28.82700 30.87200
C  50.49200 28.53300 31.96200
O  51.60900 27.95500 31.92200
O  49.91200 29.02700 33.09900
C  50.62600 28.91100 34.31400
H  46.34600 22.54700 30.83500
H  46.16000 23.03800 24.39400
H  49.58000 28.46100 24.49600
H  48.86200 26.19600 32.66800
H  46.41200 24.71200 32.52800
H  48.99000 23.01400 32.58200
H  47.59700 23.23500 33.56000
H  48.93900 24.35600 33.61000
H  45.84200 26.88300 32.64400
H  47.02600 28.15900 32.20000
H  48.02000 28.06000 34.30600
H  47.44900 26.47300 34.76900
H  44.48900 20.61300 29.56600
H  46.24200 20.65000 30.04600
H  45.73300 19.62300 28.73000
H  44.82800 18.90400 26.49400
H  43.32800 19.48600 25.85300
H  43.67500 20.13500 27.46700
H  46.78500 25.02100 22.72600
H  49.43900 26.16800 22.91200
H  48.67500 22.96200 23.61800
H  49.61600 24.05500 22.79100
H  48.19500 23.35600 21.91900
H  47.74300 28.30200 22.81700
H  46.71900 27.06400 22.06900
H  47.43700 27.19100 20.24300
H  49.17700 26.93100 20.80100
H  48.59200 28.57100 20.71600
H  51.40100 31.00500 27.02800
H  50.26000 30.66600 25.63400
H  51.63700 29.71200 25.89700
H  48.79800 29.50800 31.13800
H  50.45200 27.95500 34.80700
H  50.24100 29.64600 35.02100
H  51.64400 29.28800 34.22100
Mg 49.91200 46.56900 43.59400
C  46.76300 46.90900 42.05900
C  50.26500 43.45600 41.92700
C  53.33300 46.80500 43.93500
C  49.58700 49.91000 44.51500
N  48.64200 45.38200 42.16500
C  47.38500 45.70300 41.71100
C  46.76900 44.53600 40.85400
C  47.97000 43.49500 40.92100
C  49.04000 44.15000 41.76900
C  47.68900 42.00800 41.45600
C  46.30100 44.94200 39.41500
C  44.87400 44.58600 39.07200
H  44.71900 43.38800 38.11300
N  51.53800 45.28600 43.07700
C  51.50500 44.05700 42.44900
C  52.75000 43.39100 42.44500
C  53.68600 44.34300 42.89200
C  52.87700 45.56600 43.37800
C  53.07900 42.08500 41.72400
C  55.14100 44.16400 42.92300
O  55.74000 43.11500 42.63100
C  56.10700 45.28200 43.34300
N  51.23700 48.00400 44.22600
C  52.58300 47.93600 44.26900
C  53.24800 49.21900 44.85300
C  51.99100 50.09200 45.12600
C  50.86800 49.26500 44.59100
C  54.11900 48.89600 46.11600
C  52.11500 51.50500 44.47300
C  51.72500 52.73600 45.38800
N  48.30900 48.05800 43.61600
C  48.37900 49.41200 43.99800
C  47.13500 50.06300 43.73200
C  46.48600 49.12400 42.88800
C  47.27800 47.98000 42.85600
C  46.62300 51.35800 44.12500
C  45.26200 48.94300 42.07400
O  44.29600 49.66700 41.80400
C  45.36000 47.38800 41.66600
C  44.25100 46.61800 42.31500
O  44.36500 45.85800 43.25300
O  43.08000 46.84400 41.62800
C  41.93600 46.09600 42.14600
H  50.28800 42.46900 41.46200
H  54.35700 47.16600 44.05600
H  49.46800 50.89600 44.97000
H  45.93100 44.17800 41.45100
H  48.51500 43.44200 39.97800
H  46.62900 41.79700 41.59800
H  48.02800 41.89900 42.48600
H  48.27100 41.35500 40.80600
H  46.99300 44.55700 38.66600
H  46.44100 46.01600 39.29600
H  44.25000 45.36600 38.63700
H  44.33500 44.44000 40.00800
H  53.62300 42.46600 40.85900
H  52.18900 41.61400 41.30700
H  53.81900 41.41600 42.16200
H  57.09400 44.98500 42.99000
H  56.00700 45.32600 44.42800
H  55.97800 46.21100 42.78800
H  53.94900 49.63900 44.13100
H  51.74600 50.23000 46.17900
H  55.16900 48.93200 45.82400
H  53.93700 47.88200 46.47000
H  53.92500 49.48700 47.01100
H  51.52200 51.50900 43.55900
H  53.14100 51.68400 44.15200
H  51.33800 53.52600 44.74500
H  52.72200 53.02400 45.72100
H  51.07200 52.42200 46.20300
H  46.28000 52.04300 43.35100
H  47.39400 51.90100 44.67200
H  45.65700 51.15600 44.58700
H  45.13600 47.41500 40.60000
H  41.17300 46.01800 41.37200
H  41.54500 46.63100 43.01200
H  42.15800 45.07000 42.44000

