158

Mg 0.24800 8.73800 26.65700
C  0.85600 10.86300 29.63900
C  0.06900 6.15600 28.84300
C  0.28000 6.81600 23.95000
C  0.56000 11.64300 24.77200
N  0.62800 8.58400 29.03900
C  0.74900 9.50000 30.01700
C  0.42300 8.93100 31.37000
C  0.43000 7.41100 31.11000
C  0.35700 7.37100 29.57100
C  1.69700 6.61100 31.65200
C  -0.97300 9.43500 31.92400
C  -1.09700 9.88800 33.37300
H  -0.05900 9.66400 34.38300
N  0.24800 6.68600 26.43200
C  0.06900 5.77900 27.46300
C  -0.28800 4.51000 26.89100
C  -0.12400 4.60900 25.47500
C  0.16300 6.07200 25.21500
C  -0.79000 3.35000 27.76300
C  -0.20400 3.58800 24.43700
O  0.02500 3.82900 23.25300
C  -0.51400 2.14000 24.88500
N  0.37300 9.18000 24.72800
C  0.43100 8.21200 23.77100
C  0.38700 8.82900 22.35800
C  0.22800 10.37300 22.58000
C  0.42400 10.43500 24.09300
C  1.75600 8.58100 21.63300
C  -1.11100 11.04300 22.15800
C  -0.95300 12.10600 20.97900
N  0.55000 10.84100 27.06100
C  0.71400 11.88700 26.17100
C  1.01400 13.11100 26.82800
C  1.07600 12.74300 28.19800
C  0.80300 11.37100 28.33000
C  1.32200 14.41600 26.19300
C  1.22700 13.26100 29.47800
O  1.30200 14.48400 29.79500
C  1.06400 12.06000 30.51300
C  2.33400 11.84400 31.20400
O  3.18300 10.97700 31.04500
O  2.35700 12.70900 32.26600
C  3.41800 12.59500 33.21800
H  -0.04400 5.25400 29.44800
H  0.14200 6.18500 23.07000
H  0.63400 12.51200 24.11500
H  1.21700 9.26300 32.03900
H  -0.42800 6.94300 31.59200
H  2.30000 7.26500 32.28200
H  2.39700 6.36900 30.85200
H  1.33900 5.67900 32.09000
H  -1.72000 8.66400 31.73600
H  -1.21900 10.31800 31.33400
H  -1.94600 9.33500 33.77400
H  -1.50000 10.90100 33.39100
H  -1.77300 3.04300 27.40800
H  -1.19900 3.74900 28.69200
H  -0.07700 2.52600 27.78600
H  0.37400 1.82000 25.42900
H  -0.73300 1.54400 23.99900
H  -1.35300 1.97700 25.56200
H  -0.45200 8.37000 21.83500
H  1.01700 11.00000 22.16600
H  2.48100 8.30700 22.39900
H  1.98100 9.48100 21.06200
H  1.75500 7.59400 21.17000
H  -1.38200 11.73900 22.95200
H  -1.90100 10.30000 22.05100
H  -1.57100 11.77700 20.14300
H  0.08100 12.28700 20.68600
H  -1.40600 13.02900 21.34000
H  0.45700 14.79400 25.64800
H  2.10900 14.32400 25.44400
H  1.57700 15.18700 26.92000
H  0.30600 12.23700 31.27500
H  3.30400 13.20100 34.11700
H  4.37600 12.97100 32.85900
H  3.59400 11.58300 33.58300
Mg -5.71300 25.61900 26.16300
C  -4.78800 27.20800 29.22400
C  -7.67800 23.61900 27.96600
C  -6.44700 24.11000 23.37600
C  -3.35400 27.64000 24.55300
N  -6.11200 25.45200 28.29900
C  -5.69100 26.17800 29.37600
C  -6.37400 25.73900 30.65900
C  -7.05600 24.34300 30.32600
C  -6.92600 24.40700 28.71900
C  -6.41600 23.12300 30.93600
C  -7.35800 26.68700 31.34700
C  -7.09800 26.97800 32.84200
H  -6.49000 25.92200 33.74900
N  -6.90700 24.05300 25.71300
C  -7.76300 23.43200 26.58400
C  -8.74400 22.56100 25.87900
C  -8.28100 22.68700 24.53900
C  -7.17400 23.63200 24.48200
C  -10.06400 21.96500 26.42500
C  -8.81500 21.99800 23.31700
O  -8.36700 22.23800 22.16900
C  -10.06500 21.13400 23.40300
N  -4.92400 25.79400 24.30200
C  -5.42600 25.08800 23.26700
C  -4.68200 25.30600 21.96900
C  -3.58200 26.43700 22.30000
C  -3.92100 26.63000 23.83600
C  -4.12000 24.03600 21.37600
C  -3.79600 27.69700 21.34800
C  -3.13300 27.46900 19.96900
N  -4.32900 27.14000 26.64600
C  -3.44400 27.94100 25.88900
C  -2.92700 28.97500 26.73900
C  -3.39200 28.77300 28.08300
C  -4.23600 27.61900 28.02000
C  -1.98000 30.12400 26.30100
C  -3.29000 29.14200 29.51500
O  -2.54800 29.99300 30.02400
C  -4.25800 28.25500 30.26300
C  -3.41200 27.65800 31.37400
O  -2.48300 26.87000 31.19200
O  -3.85100 28.10900 32.60000
C  -2.91700 27.75700 33.68400
H  -8.33500 22.92800 28.49800
H  -6.63400 23.74400 22.36400
H  -2.67100 28.38900 24.14700
H  -5.55800 25.69100 31.38000
H  -8.10000 24.22000 30.61300
H  -6.28700 22.46800 30.07400
H  -7.13100 22.80100 31.69300
H  -5.42700 23.26100 31.37300
H  -8.36700 26.28900 31.23700
H  -7.27900 27.56500 30.70600
H  -8.04200 27.27800 33.29800
H  -6.43700 27.83300 32.98300
H  -10.96900 22.35400 25.95800
H  -10.31900 22.21400 27.45500
H  -9.99700 20.87800 26.44800
H  -9.82400 20.43700 24.20600
H  -10.21600 20.64500 22.44100
H  -11.02600 21.52500 23.73500
H  -5.43400 25.84200 21.39000
H  -2.61600 25.93400 22.25000
H  -3.07400 24.26000 21.16400
H  -4.61600 23.74400 20.45000
H  -4.19500 23.19100 22.05900
H  -3.44300 28.57600 21.88600
H  -4.86000 27.89200 21.21500
H  -3.36500 28.38800 19.43000
H  -3.69600 26.64000 19.54200
H  -2.04900 27.37500 19.89800
H  -2.12600 30.32100 25.23900
H  -1.00000 29.65000 26.34900
H  -2.02700 30.99700 26.95200
H  -5.06000 28.91600 30.59400
H  -2.39900 26.80000 33.62000
H  -3.45300 27.91500 34.62000
H  -2.12500 28.50500 33.66000

