158

Mg 42.46200 41.85200 25.66000
C  42.03900 44.01200 28.30300
C  43.57100 39.49000 27.96200
C  43.10000 39.81600 23.07800
C  41.97400 44.54700 23.41600
N  42.69400 41.74800 27.88100
C  42.37800 42.73900 28.77200
C  42.58700 42.29600 30.27300
C  43.05800 40.78500 30.08300
C  43.08600 40.62100 28.54900
C  44.34300 40.40500 30.84400
C  41.31200 42.64800 31.07700
C  41.00400 41.73700 32.31600
H  40.54900 42.44300 33.57400
N  43.24800 39.91000 25.53300
C  43.60500 39.15600 26.57700
C  43.99100 37.83800 26.11200
C  43.82500 37.85200 24.67400
C  43.35500 39.22500 24.35900
C  44.54500 36.72300 27.02400
C  43.98900 36.82800 23.63100
O  43.80000 37.03700 22.46900
C  44.48700 35.49300 24.08600
N  42.60500 42.17000 23.60200
C  42.77600 41.14800 22.71000
C  42.66000 41.62700 21.21800
C  41.96200 43.00500 21.39300
C  42.15800 43.30400 22.89800
C  43.97300 41.65300 20.37700
C  40.40300 43.08100 20.99100
C  39.27200 42.79400 22.10100
N  42.12200 43.86500 25.77600
C  41.95900 44.83100 24.80300
C  41.65100 46.10000 25.49000
C  41.70300 45.82800 26.85200
C  41.96800 44.44100 26.97600
C  41.21900 47.33400 24.85400
C  41.43600 46.40900 28.23400
O  41.00700 47.47100 28.61600
C  41.81800 45.32200 29.17200
C  42.95700 45.77700 29.97000
O  44.11400 45.34800 29.87200
O  42.47500 46.54200 30.99400
C  43.56800 46.86200 31.92500
H  43.80200 38.64300 28.61200
H  43.12800 39.17500 22.19400
H  41.79300 45.34000 22.68800
H  43.38700 42.84500 30.77100
H  42.27300 40.12000 30.44200
H  45.27100 40.57600 30.29700
H  44.22400 39.34900 31.08700
H  44.43300 40.92300 31.79900
H  40.43000 42.66700 30.43600
H  41.44700 43.66800 31.43600
H  41.80800 41.04800 32.57700
H  40.21200 41.13400 31.87000
H  45.24000 37.13400 27.75500
H  45.03800 35.95700 26.42500
H  43.81900 36.33200 27.73800
H  43.76100 34.97100 24.71000
H  45.51100 35.38800 24.44300
H  44.47700 35.03000 23.10000
H  41.92800 41.05700 20.64600
H  42.54000 43.74200 20.83600
H  43.97400 40.65900 19.92800
H  44.70500 41.85000 21.16000
H  43.98700 42.47900 19.66600
H  40.17600 42.38700 20.18100
H  40.29300 44.12200 20.68800
H  39.78500 42.72900 23.06100
H  38.87700 41.78600 21.97400
H  38.47600 43.53900 22.09200
H  41.75200 47.42000 23.90700
H  41.51700 48.13400 25.53200
H  40.14800 47.30000 24.65200
H  40.98100 45.11800 29.84100
H  44.26900 47.60800 31.55100
H  44.23800 46.04500 32.19100
H  43.26900 47.27600 32.88900
Mg 9.56100 48.07000 26.18000
C  7.74300 48.25100 29.23100
C  12.41600 49.04600 27.77900
C  11.16700 47.99400 23.19400
C  6.54500 47.57800 24.54400
N  10.00900 48.61300 28.28700
C  9.15400 48.50600 29.32500
C  9.95400 48.86700 30.67300
C  11.23000 49.56300 30.14200
C  11.24300 49.06900 28.67200
C  11.27600 51.10700 30.11300
C  10.22000 47.63600 31.57700
C  10.03500 47.95400 33.10000
H  10.14200 46.76600 34.08300
N  11.54200 48.37300 25.64800
C  12.61500 48.74800 26.39700
C  13.77500 48.72700 25.60400
C  13.44300 48.37000 24.26300
C  11.93800 48.19800 24.33800
C  15.18600 48.99300 26.18700
C  14.36400 48.16100 23.01900
O  13.96100 47.87700 21.88500
C  15.80000 48.37200 23.18500
N  8.92800 48.05400 24.13400
C  9.76800 48.05800 23.05500
C  9.08400 47.77200 21.67400
C  7.68800 47.25500 22.21600
C  7.69500 47.59400 23.77800
C  8.89400 49.06200 20.80700
C  7.36800 45.77400 21.93000
C  6.51100 45.35400 20.72200
N  7.53600 47.85200 26.73000
C  6.42400 47.73200 25.90900
C  5.29500 47.45700 26.77100
C  5.74400 47.85200 28.05000
C  7.12400 47.95600 27.99900
C  3.98600 46.90400 26.39500
C  5.33900 47.95000 29.43300
O  4.24400 47.94700 29.97900
C  6.65700 48.11000 30.29500
C  6.77800 46.78900 30.96100
O  6.91500 45.69700 30.36000
O  6.57600 46.89300 32.30500
C  6.38000 45.60000 32.97600
H  13.27400 49.49800 28.28200
H  11.65300 47.75600 22.24500
H  5.63400 47.17400 24.09800
H  9.53000 49.66300 31.28500
H  12.14100 49.09200 30.51100
H  12.04600 51.57300 30.72900
H  10.34300 51.56200 30.44400
H  11.51800 51.37400 29.08400
H  11.23900 47.27400 31.43800
H  9.42100 46.91200 31.41800
H  8.98400 48.24300 33.13500
H  10.68400 48.73700 33.49200
H  15.09900 49.15900 27.26100
H  15.80800 49.77800 25.75700
H  15.81100 48.11600 26.02200
H  16.06200 49.25200 23.77400
H  16.22500 48.51200 22.19100
H  16.12300 47.48600 23.73300
H  9.54300 46.95700 21.11500
H  6.93600 47.89400 21.75200
H  9.70900 49.02000 20.08500
H  9.02700 49.84000 21.55900
H  7.92000 49.20800 20.33900
H  7.00300 45.43200 22.89800
H  8.30900 45.26500 21.71900
H  6.21100 46.28400 20.23800
H  5.64400 44.72600 20.92600
H  7.14800 44.88800 19.97100
H  3.93000 46.40100 25.43000
H  3.19500 47.65300 26.36800
H  3.74800 46.15300 27.14800
H  6.61000 48.91400 31.03000
H  6.12000 45.91100 33.98800
H  7.26300 44.96200 32.95800
H  5.46900 45.16100 32.56900

