158

Mg 47.41600 25.79300 29.30800
C  48.29300 28.10500 31.95700
C  46.24500 23.76800 31.77900
C  46.96100 23.55100 27.06300
C  48.94600 27.92600 27.12100
N  47.21300 26.03500 31.72500
C  47.68600 26.97000 32.52100
C  47.47500 26.61800 33.97200
C  46.90200 25.15300 33.82400
C  46.82000 24.89900 32.37000
C  47.67700 23.96200 34.62300
C  46.31800 27.59800 34.50100
C  46.10800 27.80300 35.97600
H  46.72400 26.99700 37.10500
N  46.57200 23.94300 29.38400
C  46.07000 23.32400 30.46700
C  45.41500 22.11100 30.10100
C  45.53600 22.05200 28.65700
C  46.36300 23.20500 28.31000
C  44.72500 21.06400 31.07700
C  45.08500 20.99600 27.63200
O  45.41100 21.02700 26.43000
C  44.22600 19.89800 28.00200
N  48.12600 25.62000 27.40700
C  47.77200 24.59600 26.63700
C  48.34500 24.77100 25.24200
C  48.76300 26.25900 25.18200
C  48.53900 26.69200 26.65500
C  49.54700 23.81900 24.86200
C  48.02300 27.15700 24.15600
C  48.80700 28.19600 23.43100
N  48.28200 27.77000 29.44700
C  48.97000 28.46500 28.40600
C  49.50000 29.71600 28.90600
C  49.25500 29.62600 30.35900
C  48.51300 28.39700 30.58500
C  50.11200 30.78000 28.16500
C  49.51300 30.21300 31.62700
O  50.14000 31.20100 31.91300
C  48.89500 29.29200 32.68500
C  49.95600 28.93500 33.71500
O  51.06200 28.62800 33.46300
O  49.46200 29.09900 34.99600
C  50.44500 28.94800 36.06700
H  45.69800 23.27600 32.58700
H  46.64800 23.02600 26.15800
H  49.39900 28.57400 26.36900
H  48.35900 26.66800 34.60900
H  45.86700 25.08700 34.16100
H  48.26500 23.35800 33.93200
H  47.00600 23.23400 35.08000
H  48.28000 24.40600 35.41500
H  45.38000 27.20100 34.11300
H  46.44000 28.52200 33.93600
H  45.02300 27.69800 35.97500
H  46.18400 28.86800 36.19900
H  44.79600 21.49400 32.07500
H  45.20300 20.08400 31.06800
H  43.70100 20.83900 30.77600
H  44.65300 19.30900 28.81200
H  44.04800 19.18300 27.19800
H  43.25200 20.28400 28.30500
H  47.46600 24.54000 24.63900
H  49.81900 26.40500 24.95400
H  50.40500 24.32300 24.41900
H  49.18100 23.07600 24.15400
H  49.98900 23.36800 25.75100
H  47.29400 27.69200 24.76600
H  47.47100 26.58100 23.41300
H  48.43800 28.28400 22.40900
H  49.88700 28.04700 23.44900
H  48.82500 29.16400 23.93300
H  49.39500 31.58800 28.01800
H  50.39400 30.51700 27.14500
H  50.93100 31.12700 28.79400
H  48.11600 29.85500 33.19800
H  51.19800 29.72000 35.90700
H  50.76800 27.90800 36.03500
H  49.89500 29.21700 36.96900
Mg -11.53800 16.31700 40.53100
C  -8.39300 14.95700 39.91200
C  -10.24200 19.37500 39.62600
C  -14.64100 17.55100 40.19600
C  -12.83300 13.10800 40.81900
N  -9.51100 17.05700 39.80500
C  -8.39900 16.35800 39.68200
C  -7.13300 17.21700 39.40000
C  -7.75700 18.65000 39.57000
C  -9.26900 18.36400 39.74500
C  -7.21600 19.57200 40.69500
C  -6.61400 16.86600 37.93600
C  -5.16500 17.22700 37.61000
H  -4.81000 17.70600 36.21200
N  -12.29000 18.27100 40.18300
C  -11.58300 19.37000 39.74000
C  -12.51000 20.46800 39.54400
C  -13.80800 20.01600 39.95900
C  -13.64200 18.54500 40.11600
C  -12.05300 21.87300 39.26600
C  -15.01200 20.90500 40.01900
O  -14.96200 22.12300 39.75800
C  -16.26400 20.29500 40.62900
N  -13.44300 15.43300 40.38900
C  -14.55600 16.15700 40.23700
C  -15.81900 15.24700 40.16100
C  -15.21200 13.76200 40.28500
C  -13.76400 14.10100 40.52800
C  -16.88700 15.55900 41.30800
C  -15.28900 12.87400 38.95700
C  -16.00200 11.53600 39.08400
N  -10.83700 14.39800 40.61400
C  -11.44300 13.19100 40.80000
C  -10.45800 12.15700 40.71200
C  -9.21500 12.80300 40.39100
C  -9.51300 14.16000 40.32300
C  -10.81800 10.69800 40.89200
C  -7.84700 12.57400 40.13500
O  -7.24300 11.52000 40.08700
C  -7.23100 13.93200 39.80300
C  -6.23900 14.10000 40.92800
O  -6.52700 14.52600 42.01400
O  -4.98000 13.96800 40.40200
C  -3.85600 14.51600 41.20100
H  -9.89500 20.41000 39.63000
H  -15.66300 17.89400 40.01900
H  -13.26700 12.11200 40.92400
H  -6.38400 17.03300 40.17000
H  -7.74500 19.13500 38.59400
H  -6.25300 19.16700 41.00600
H  -7.84800 19.60200 41.58300
H  -7.23400 20.57800 40.27500
H  -7.26800 17.29100 37.17500
H  -6.68100 15.77900 37.91000
H  -4.54800 16.36300 37.85400
H  -4.92600 18.07000 38.25800
H  -12.54700 22.25400 38.37200
H  -11.00000 21.89200 38.98400
H  -12.33400 22.50300 40.11100
H  -16.90600 21.15400 40.82300
H  -16.06100 19.71000 41.52600
H  -16.74400 19.63800 39.90400
H  -16.28500 15.39300 39.18700
H  -15.70200 13.19000 41.07300
H  -17.17800 14.66800 41.86500
H  -17.74600 15.85700 40.70600
H  -16.48100 16.23200 42.06400
H  -14.30100 12.78700 38.50500
H  -15.79100 13.43900 38.17000
H  -15.41600 10.72600 38.65200
H  -17.05200 11.63100 38.80600
H  -16.20800 11.20300 40.10100
H  -9.84700 10.21300 40.79700
H  -11.50500 10.35100 40.12000
H  -11.19500 10.47600 41.89100
H  -6.72600 13.83600 38.84200
H  -3.06500 14.85400 40.53100
H  -3.42300 13.78700 41.88600
H  -4.14600 15.46000 41.66300

