158

Mg 8.33900 3.39500 27.36900
C  9.95000 1.81900 30.13500
C  6.66900 5.42400 29.49900
C  6.56400 4.44800 24.76600
C  9.80900 0.82300 25.31900
N  8.37300 3.61200 29.59600
C  9.12800 2.86900 30.51300
C  8.75700 3.38000 31.89100
C  7.54400 4.37300 31.65700
C  7.53700 4.46500 30.15400
C  6.14600 3.92700 32.07800
C  10.02400 3.98400 32.63900
C  10.40000 3.49800 34.04700
H  10.61500 4.46800 35.21000
N  6.83800 4.76900 27.15200
C  6.34300 5.51800 28.12000
C  5.35600 6.40100 27.53500
C  5.40300 6.29700 26.05600
C  6.34100 5.15500 25.90800
C  4.50000 7.36500 28.31900
C  4.67400 7.14300 24.91200
O  4.65500 6.84600 23.73900
C  4.04300 8.42800 25.27300
N  8.18000 2.66200 25.36200
C  7.40300 3.34400 24.51000
C  7.55400 2.81900 23.12200
C  8.68400 1.70800 23.24400
C  8.93400 1.69600 24.72800
C  6.23400 2.29200 22.43500
C  10.01700 2.08200 22.52500
C  10.93000 3.14300 23.16300
N  9.63200 1.69700 27.57200
C  10.03200 0.76300 26.67800
C  10.92500 -0.22300 27.36900
C  10.89300 0.16800 28.75300
C  10.15000 1.38400 28.80000
C  11.82400 -1.22200 26.84000
C  11.31900 -0.20800 30.11000
O  12.01800 -1.16500 30.47600
C  10.79000 0.87800 31.00100
C  9.95400 0.17100 32.03900
O  8.94700 -0.45100 31.67000
O  10.31000 0.30400 33.41600
C  9.34500 -0.06100 34.46900
H  6.39400 6.31300 30.07100
H  6.18500 4.84000 23.82000
H  10.24600 0.00500 24.74400
H  8.33700 2.51500 32.40500
H  7.89100 5.28600 32.14200
H  5.43000 4.09600 31.27400
H  5.79600 4.57500 32.88100
H  5.98800 2.87800 32.32900
H  9.89700 5.06700 32.66000
H  10.94200 3.86500 32.06400
H  11.30900 2.89700 34.02600
H  9.63400 2.77900 34.34100
H  4.49000 8.40100 27.98100
H  4.79500 7.51700 29.35700
H  3.48300 7.01800 28.13400
H  3.75400 9.03800 24.41800
H  4.85500 8.99700 25.72600
H  3.32500 8.30400 26.08500
H  7.88200 3.66200 22.51300
H  8.28900 0.78300 22.82400
H  6.06800 2.94400 21.57700
H  5.38100 2.49000 23.08300
H  6.11200 1.22300 22.25900
H  9.78400 2.39100 21.50600
H  10.64800 1.19500 22.55600
H  11.23600 3.80500 22.35300
H  11.83700 2.66600 23.53300
H  10.50000 3.79600 23.92200
H  12.24500 -1.04500 25.85100
H  11.32600 -2.19000 26.89300
H  12.63800 -1.27700 27.56400
H  11.61500 1.44100 31.43700
H  8.33800 0.29500 34.25300
H  9.70200 0.32300 35.42500
H  9.27500 -1.14800 34.48100
Mg 24.22100 -4.78700 45.48100
C  26.34400 -2.47000 44.02800
C  21.75600 -3.65500 43.45000
C  22.40600 -7.56300 46.08600
C  26.92100 -6.27800 47.04200
N  24.14400 -3.32700 43.82600
C  25.04000 -2.40800 43.53800
C  24.66000 -1.53900 42.32200
C  23.05100 -1.76600 42.37600
C  22.94100 -2.97600 43.33600
C  22.16700 -0.55800 42.82500
C  25.34000 -2.12200 41.04500
C  26.14800 -1.15500 40.20200
H  25.74400 -1.21500 38.66800
N  22.25300 -5.42200 45.02400
C  21.40800 -4.81300 44.13500
C  20.12300 -5.53400 44.05500
C  20.28200 -6.63100 44.90400
C  21.68700 -6.55800 45.42400
C  18.95700 -4.99200 43.33100
C  19.21400 -7.61000 45.19900
O  18.13900 -7.64100 44.70300
C  19.40300 -8.67700 46.28600
N  24.69100 -6.75200 46.42600
C  23.69700 -7.64000 46.59900
C  24.24800 -8.91600 47.32900
C  25.64100 -8.41500 47.84200
C  25.79700 -7.12700 47.01000
C  23.40600 -9.37300 48.54300
C  26.83500 -9.36000 47.62500
C  27.90300 -9.49300 48.72300
N  26.22800 -4.43500 45.59800
C  27.19600 -5.04200 46.35800
C  28.43300 -4.25800 46.26500
C  28.16800 -3.21200 45.39700
C  26.82300 -3.38700 45.02900
C  29.61100 -4.48300 47.12200
C  28.60500 -1.95800 44.78200
O  29.64300 -1.39500 44.92100
C  27.46600 -1.63700 43.73800
C  27.10400 -0.25800 44.02500
O  26.43000 0.14300 44.99400
O  27.58900 0.54600 43.02000
C  27.39500 1.96700 43.17200
H  20.96100 -3.23600 42.83100
H  21.87900 -8.51700 46.01600
H  27.73200 -6.72500 47.62000
H  24.75800 -0.46100 42.45300
H  22.73200 -2.12600 41.39800
H  21.37900 -0.42100 42.08500
H  22.70900 0.38000 42.70800
H  21.76200 -0.64100 43.83300
H  24.59800 -2.63700 40.43600
H  25.94900 -2.98800 41.30300
H  27.18200 -1.43500 40.40200
H  26.08200 -0.16500 40.65200
H  19.36200 -4.47000 42.46300
H  18.47000 -4.21500 43.91900
H  18.23800 -5.76300 43.05700
H  19.92600 -9.58000 45.97200
H  18.41200 -8.97300 46.63000
H  19.90400 -8.34000 47.19300
H  24.23900 -9.71900 46.59200
H  25.52500 -8.04100 48.86000
H  23.78400 -9.16000 49.54300
H  23.44200 -10.45500 48.42000
H  22.38900 -9.04900 48.32100
H  27.31500 -9.07100 46.68900
H  26.46500 -10.36300 47.41500
H  28.91000 -9.40700 48.31400
H  27.90700 -10.53800 49.03200
H  27.80500 -8.79900 49.55800
H  30.12000 -5.20300 46.48200
H  29.25700 -4.79700 48.10400
H  30.27100 -3.61700 47.18200
H  27.79900 -1.82600 42.71700
H  27.28100 2.33000 42.15100
H  28.21000 2.52100 43.63800
H  26.53900 2.24800 43.78600

