158

Mg 16.74600 -2.50200 27.48000
C  15.54700 -0.33100 30.08800
C  19.18600 -3.46500 29.64900
C  18.16100 -4.21700 24.91300
C  14.60900 -0.92700 25.32100
N  17.21300 -1.89500 29.60800
C  16.57200 -1.14800 30.53800
C  17.14700 -1.30300 32.00100
C  18.44900 -2.15800 31.63500
C  18.27300 -2.58700 30.17700
C  19.74000 -1.30000 31.78400
C  16.21100 -1.86900 33.02900
C  16.49000 -1.56200 34.49400
H  17.75500 -0.84700 34.91700
N  18.43000 -3.65500 27.32400
C  19.29800 -3.98100 28.32600
C  20.28300 -4.91000 27.85300
C  20.02200 -5.01800 26.50800
C  18.81200 -4.28800 26.18400
C  21.32500 -5.62200 28.77300
C  20.84800 -5.77300 25.45500
O  20.59200 -5.75400 24.26900
C  22.21500 -6.34800 25.78300
N  16.53900 -2.52000 25.48300
C  17.06800 -3.38600 24.59100
C  16.62100 -3.23700 23.13900
C  15.42300 -2.22600 23.32000
C  15.51900 -1.86600 24.83100
C  17.84900 -2.71800 22.29700
C  14.08800 -2.93700 22.87500
C  13.38900 -2.32900 21.69400
N  15.21100 -1.02100 27.62600
C  14.44400 -0.53600 26.65800
C  13.50600 0.34000 27.28900
C  13.86700 0.44200 28.67700
C  14.99000 -0.37400 28.80300
C  12.47200 1.12300 26.68000
C  13.57100 1.15600 29.85800
O  12.75500 2.02900 30.13900
C  14.65300 0.69300 30.85400
C  15.42000 1.88000 31.24100
O  16.17700 2.43200 30.49200
O  15.21000 2.19700 32.54900
C  15.85600 3.42600 32.86400
H  19.97700 -3.78200 30.33200
H  18.48200 -4.78100 24.03400
H  13.83400 -0.51800 24.67000
H  17.39500 -0.27300 32.25800
H  18.53300 -3.00300 32.31800
H  19.61400 -0.46400 32.47100
H  20.04800 -0.81600 30.85700
H  20.50700 -2.01800 32.07500
H  16.29900 -2.95500 33.01400
H  15.19500 -1.58600 32.75200
H  16.55800 -2.44900 35.12400
H  15.63700 -1.04800 34.93600
H  22.31900 -5.63900 28.32500
H  21.03100 -6.56100 29.24100
H  21.38700 -5.09200 29.72400
H  22.01400 -7.16700 26.47300
H  22.84700 -5.56500 26.20200
H  22.66400 -6.65100 24.83700
H  16.34100 -4.24600 22.83800
H  15.51000 -1.34400 22.68500
H  18.69100 -2.52900 22.96400
H  17.54700 -1.76800 21.85700
H  17.94300 -3.43400 21.48000
H  13.32200 -2.99000 23.64900
H  14.23300 -3.97300 22.56800
H  12.36600 -2.21100 22.05100
H  13.29600 -3.02200 20.85800
H  13.89100 -1.46200 21.26500
H  12.00400 0.78900 25.75400
H  12.86300 2.13400 26.56800
H  11.60200 1.17800 27.33400
H  14.09400 0.26700 31.68800
H  15.50600 3.76500 33.83900
H  15.64400 4.18800 32.11300
H  16.92900 3.23800 32.89300
Mg 43.69200 4.38600 46.46600
C  41.96400 7.46000 46.83500
C  40.80900 2.60800 46.34900
C  45.57100 1.70000 45.86600
C  46.65500 6.46400 46.28500
N  41.64300 5.03300 46.56200
C  41.14400 6.27400 46.78100
C  39.61600 6.17800 46.83900
C  39.29200 4.63100 46.86300
C  40.66300 4.01500 46.64600
C  38.60200 4.12300 48.18800
C  38.85300 7.06300 45.78100
C  39.42000 7.40000 44.40600
H  38.76600 6.58000 43.17000
N  43.25700 2.43700 46.14000
C  42.01300 1.87300 46.08400
C  42.05700 0.43200 45.84300
C  43.43800 0.12700 45.81400
C  44.16600 1.44800 45.89200
C  40.79500 -0.35900 45.66300
C  44.03000 -1.31700 45.66200
O  43.22500 -2.27100 45.64300
C  45.46500 -1.52000 45.46300
N  45.81700 4.17600 45.99100
C  46.32000 2.83000 46.00300
C  47.87900 2.83200 46.07300
C  48.17500 4.37700 46.01100
C  46.82100 5.10700 46.11400
C  48.39300 1.91000 47.22900
C  48.88900 4.88000 44.74100
C  50.42000 4.83500 44.95300
N  44.30000 6.53900 46.52300
C  45.46900 7.18400 46.48500
C  45.27200 8.63700 46.67800
C  43.87200 8.68000 46.83100
C  43.33500 7.44400 46.73800
C  46.21800 9.72900 46.75300
C  42.78400 9.58200 47.07700
O  42.82800 10.80500 47.38400
C  41.49100 8.82300 47.06000
C  40.93500 8.93600 48.47600
O  41.24300 8.26800 49.45500
O  40.01700 9.93500 48.38100
C  39.34300 10.37700 49.60900
H  39.78700 2.22200 46.31800
H  46.10800 0.75300 45.77100
H  47.51000 7.13000 46.42100
H  39.40000 6.53300 47.84700
H  38.51800 4.38200 46.13600
H  38.43400 5.00100 48.81100
H  39.30900 3.50800 48.74400
H  37.65800 3.60400 48.02400
H  38.61000 8.04400 46.18900
H  37.89300 6.63800 45.48700
H  40.49700 7.50400 44.27500
H  39.08900 8.41400 44.18300
H  40.56000 -0.66800 46.68100
H  41.05600 -1.17200 44.98500
H  40.00900 0.32300 45.34000
H  45.45200 -2.60500 45.35800
H  46.04100 -1.29900 46.36200
H  45.84200 -1.07400 44.54200
H  48.29100 2.31900 45.20400
H  48.67500 4.73100 46.91300
H  48.96100 1.04400 46.89000
H  47.53200 1.51700 47.77000
H  49.07400 2.45100 47.88700
H  48.50000 5.88300 44.56600
H  48.70600 4.39700 43.78100
H  51.00100 4.60000 44.06000
H  50.61800 4.07000 45.70300
H  50.85900 5.81000 45.16700
H  46.70300 9.78100 47.72800
H  45.57600 10.59100 46.57300
H  46.95000 9.75600 45.94700
H  40.79300 9.25800 46.34400
H  39.73400 10.01500 50.56000
H  38.31100 10.04900 49.48500
H  39.45900 11.45400 49.73200

