158

Mg 1.86400 8.58000 26.61400
C  2.03500 10.77000 29.45400
C  1.55600 5.99700 28.78200
C  1.74200 6.62200 23.97100
C  1.91500 11.45500 24.64600
N  1.94300 8.43700 28.72000
C  1.91300 9.44800 29.65700
C  1.75100 8.84500 31.08500
C  2.01500 7.36500 30.84900
C  1.84100 7.23300 29.38600
C  3.35300 6.80100 31.44800
C  0.25300 9.10500 31.56800
C  0.16900 9.59700 33.03300
H  1.14800 8.93800 33.91900
N  1.54300 6.54700 26.41900
C  1.39400 5.65400 27.44900
C  1.25900 4.36100 26.88200
C  1.54000 4.49300 25.49600
C  1.64400 5.94100 25.25800
C  0.86800 3.09800 27.64800
C  1.50300 3.42900 24.39200
O  1.72900 3.73900 23.22600
C  1.32400 1.93600 24.72300
N  1.94500 9.02400 24.61900
C  1.77700 7.99400 23.67700
C  1.97900 8.56600 22.27700
C  1.86600 10.12600 22.46800
C  1.95400 10.24500 24.00600
C  3.18000 8.10800 21.47100
C  0.52700 10.66100 21.90500
C  0.35300 12.14400 21.59800
N  2.09000 10.72500 26.90500
C  2.08200 11.75700 26.03000
C  2.20600 12.99100 26.66500
C  2.08100 12.68800 28.01700
C  2.04300 11.25100 28.10500
C  2.35000 14.35100 26.06700
C  2.05600 13.24600 29.39200
O  2.07400 14.40200 29.80800
C  1.86600 11.98200 30.36300
C  2.91200 12.06500 31.49300
O  4.12200 12.01100 31.33200
O  2.22600 12.25600 32.64900
C  3.08300 12.62400 33.81800
H  1.44800 5.22300 29.54600
H  1.56900 6.04300 23.06200
H  1.94500 12.28900 23.94200
H  2.56800 9.19600 31.71500
H  1.26400 6.74600 31.33900
H  3.74900 6.03500 30.78200
H  3.25700 6.48300 32.48700
H  3.94400 7.71700 31.42200
H  -0.28200 8.16600 31.42700
H  -0.32800 9.83500 31.00400
H  -0.81000 9.23400 33.34500
H  0.05900 10.67300 33.17000
H  -0.10400 2.67600 27.39300
H  0.86500 3.33700 28.71200
H  1.56800 2.31900 27.34700
H  2.04100 1.35500 25.30400
H  1.29000 1.42000 23.76300
H  0.37600 1.76100 25.23200
H  1.05900 8.19800 21.82300
H  2.70100 10.65400 22.00700
H  3.70300 7.49200 22.20300
H  3.87800 8.88900 21.16900
H  2.80400 7.39200 20.74100
H  -0.28600 10.41000 22.58600
H  0.35000 10.08200 20.99900
H  -0.30700 12.21400 20.73300
H  1.31700 12.64800 21.53300
H  -0.05700 12.69400 22.44500
H  1.63300 15.04100 26.51200
H  2.27100 14.39600 24.98100
H  3.33400 14.73600 26.33800
H  0.85300 11.92900 30.76100
H  3.64600 13.53800 33.63000
H  3.80000 11.85500 34.10400
H  2.36500 12.95400 34.56900
Mg 47.67400 24.97600 28.66900
C  48.35900 27.47100 31.04100
C  47.16900 22.79500 31.25800
C  46.79500 22.72000 26.39900
C  48.53800 27.21000 26.08800
N  47.90500 25.13700 30.85000
C  48.03800 26.29000 31.65000
C  47.82900 26.02700 33.20700
C  47.63800 24.46300 33.23500
C  47.61100 24.08000 31.70000
C  48.63300 23.79400 34.18100
C  46.70600 26.92900 33.84500
C  45.84800 26.42100 35.11700
H  45.85500 27.24900 36.44800
N  47.05600 23.02500 28.77700
C  46.92400 22.32100 29.97300
C  46.46900 20.94400 29.59500
C  46.26900 20.89400 28.16800
C  46.73800 22.23700 27.72200
C  46.27000 19.97100 30.65400
C  45.90900 19.76500 27.23800
O  45.89900 19.80500 25.99700
C  45.62500 18.51900 27.92500
N  47.95200 24.84900 26.42500
C  47.24500 23.95100 25.76700
C  47.08500 24.22800 24.30600
C  47.54800 25.68000 24.26900
C  48.10300 25.92000 25.71300
C  47.93000 23.30100 23.39100
C  46.58900 26.74800 23.78700
C  47.15200 27.99800 23.26000
N  48.23000 26.91300 28.53900
C  48.54600 27.70500 27.42400
C  49.00800 28.97300 27.83500
C  48.83900 29.01600 29.24400
C  48.40400 27.67200 29.64200
C  49.52300 29.92500 26.82200
C  48.94800 29.82800 30.41800
O  49.38600 30.97300 30.54900
C  48.65200 28.89500 31.60700
C  49.67700 28.89600 32.64300
O  50.81500 28.49100 32.42000
O  49.21900 29.32000 33.87300
C  50.32600 29.44700 34.92700
H  46.89300 22.09000 32.04400
H  46.35300 22.03200 25.67500
H  48.82800 27.98100 25.37100
H  48.78100 26.28900 33.66800
H  46.66600 24.17100 33.63300
H  48.13100 23.70500 35.14400
H  49.60100 24.27700 34.31000
H  48.95500 22.84200 33.75800
H  46.04800 27.35100 33.08600
H  47.19400 27.82400 34.23200
H  46.10400 25.38100 35.31900
H  44.78400 26.43300 34.88000
H  45.33500 19.47000 30.40400
H  46.20700 20.27800 31.69800
H  47.04900 19.21000 30.62900
H  44.56400 18.62300 28.15500
H  46.24600 18.38600 28.81100
H  45.82600 17.70100 27.23400
H  46.00700 24.21200 24.14400
H  48.43300 25.64100 23.63400
H  47.69600 23.50900 22.34700
H  47.70200 22.30400 23.76800
H  48.95500 23.58500 23.63000
H  45.93000 27.04800 24.60200
H  45.93300 26.27800 23.05400
H  48.23600 27.97800 23.15100
H  46.79600 28.82500 23.87500
H  46.70700 28.31900 22.31800
H  48.63800 30.38300 26.38100
H  50.20800 29.38900 26.16600
H  50.02900 30.72200 27.36600
H  47.85800 29.26700 32.25400
H  51.35100 29.32900 34.57700
H  50.06700 28.76700 35.74000
H  50.08800 30.39600 35.40700

