158

Mg 1.03700 8.28300 26.83400
C  1.80900 10.50900 29.35400
C  1.44500 5.70300 29.29700
C  0.72400 6.00900 24.44600
C  1.06800 10.88500 24.57000
N  1.52100 8.15600 29.05200
C  1.61900 9.23600 29.84000
C  1.38000 8.77100 31.32100
C  1.58400 7.26000 31.29000
C  1.47600 7.03200 29.81200
C  2.95700 6.77600 31.81700
C  -0.04400 9.31400 31.72600
C  -0.19100 9.31000 33.28500
H  0.98500 8.78300 34.18600
N  1.05600 6.16600 26.81500
C  1.17500 5.28900 27.87700
C  1.05300 3.91000 27.47100
C  1.01900 4.02700 26.01400
C  0.90900 5.46000 25.68500
C  1.09100 2.74600 28.41400
C  1.19000 2.93400 24.95900
O  1.26700 3.14100 23.76900
C  1.38400 1.50700 25.43700
N  1.10800 8.44500 24.74000
C  0.73900 7.34800 23.97500
C  0.39100 7.76500 22.52800
C  0.30800 9.36200 22.64300
C  0.86500 9.59600 24.05500
C  1.39000 7.31400 21.42400
C  -1.04400 10.03000 22.34000
C  -0.92500 11.16500 21.25800
N  1.48600 10.29500 26.92000
C  1.50600 11.19800 25.94900
C  1.93900 12.51600 26.47500
C  2.08200 12.32500 27.90400
C  1.79700 10.92100 28.03300
C  2.29200 13.78900 25.65900
C  2.49000 12.85700 29.16300
O  2.96300 13.93600 29.45400
C  2.16800 11.68400 30.18500
C  3.32300 11.51400 31.04900
O  4.35500 10.91700 30.80400
O  3.14700 12.24500 32.21300
C  4.18600 12.29600 33.28600
H  1.34600 4.91000 30.04100
H  0.39700 5.29500 23.68700
H  0.97000 11.67600 23.82300
H  2.10700 9.30600 31.93300
H  0.84800 6.70400 31.87100
H  2.80400 6.09500 32.65500
H  3.56800 7.65400 32.02900
H  3.47900 6.20300 31.05100
H  -0.72800 8.52300 31.41800
H  -0.41800 10.25900 31.33200
H  -1.03900 8.67900 33.55200
H  -0.42200 10.35900 33.47000
H  1.10100 3.08200 29.45100
H  2.03900 2.21900 28.31100
H  0.25900 2.06600 28.23200
H  0.43500 0.99400 25.59400
H  2.09200 1.58700 26.26100
H  1.92700 0.92700 24.69100
H  -0.58600 7.38600 22.22900
H  1.12700 9.74600 22.03500
H  2.34800 7.10400 21.89800
H  1.64500 8.00000 20.61700
H  0.90800 6.45900 20.95000
H  -1.25900 10.61400 23.23500
H  -1.85100 9.34900 22.06900
H  -0.88200 12.05900 21.88000
H  -1.71000 11.26200 20.50800
H  -0.02600 11.04200 20.65300
H  3.14000 14.33300 26.07700
H  1.51500 14.54900 25.57800
H  2.44000 13.51700 24.61400
H  1.31000 12.08200 30.72600
H  4.08400 13.20900 33.87200
H  5.17600 12.23600 32.83300
H  4.03600 11.49200 34.00600
Mg 49.56400 34.42500 27.77100
C  47.24800 33.69800 30.41100
C  50.23100 37.44400 29.48000
C  51.25800 35.23600 25.16000
C  48.40700 31.49600 26.07100
N  48.92000 35.36900 29.76800
C  47.95000 34.91300 30.62900
C  47.91700 35.75700 31.91400
C  48.62300 37.09000 31.39200
C  49.34200 36.56100 30.13800
C  47.75700 38.32300 31.12800
C  48.69800 35.14800 33.12400
C  47.90800 35.23600 34.43500
H  48.39300 36.20900 35.47100
N  50.62500 36.08700 27.39400
C  50.86300 37.18800 28.18800
C  51.76800 38.07100 27.52000
C  52.03500 37.52300 26.32100
C  51.34100 36.21300 26.28000
C  51.94200 39.45500 28.00900
C  52.62900 38.19400 25.04900
O  52.73200 37.55200 23.99200
C  53.12300 39.58700 25.07500
N  49.73700 33.54500 25.82800
C  50.56200 34.06900 24.92500
C  50.55900 33.28600 23.53700
C  49.90400 31.99100 23.98300
C  49.34300 32.29300 25.42000
C  49.81400 34.14700 22.48000
C  50.96500 30.80200 23.93000
C  50.52800 29.45300 23.30800
N  48.10300 32.89600 28.04600
C  47.75400 31.79300 27.23400
C  46.69300 31.02200 27.99000
C  46.43500 31.83400 29.12000
C  47.36300 32.86400 29.17700
C  46.09100 29.76700 27.65900
C  45.57500 31.86300 30.33900
O  44.74400 31.01800 30.71100
C  46.01600 33.17600 31.13300
C  46.29000 32.56200 32.52900
O  47.39600 32.41600 32.92200
O  45.12200 32.35900 33.24400
C  45.34900 31.87600 34.64100
H  50.29100 38.45900 29.87800
H  51.77900 35.49200 24.23500
H  47.99100 30.57500 25.65700
H  46.85900 35.91300 32.12300
H  49.37000 37.45900 32.09500
H  47.92300 38.70800 30.12200
H  47.91800 39.17800 31.78500
H  46.68300 38.15600 31.20900
H  49.55300 35.79300 33.32600
H  49.02200 34.12700 32.91800
H  48.08200 34.27500 34.91800
H  46.82700 35.35100 34.36200
H  51.49800 39.63900 28.98800
H  51.44500 40.19900 27.38700
H  53.02500 39.56000 27.94300
H  52.28300 40.25000 25.28000
H  53.28500 39.83100 24.02500
H  53.97300 39.74500 25.73800
H  51.56300 33.30600 23.11100
H  49.03300 31.79800 23.35700
H  50.48400 34.63200 21.77000
H  49.22900 34.93200 22.96100
H  49.03300 33.61200 21.94000
H  51.37200 30.60000 24.92100
H  51.82900 31.17300 23.37900
H  49.54500 29.50000 22.83900
H  50.35400 28.67600 24.05300
H  51.25300 29.16900 22.54500
H  45.81800 29.83600 26.60600
H  45.15900 29.71100 28.22200
H  46.88800 29.04700 27.84200
H  45.11400 33.78400 31.20000
H  45.89600 30.93600 34.56700
H  44.43400 31.67200 35.19700
H  46.03400 32.58300 35.10900

