158

Mg 29.90800 58.62500 39.67700
C  27.19100 56.51600 38.70900
C  31.98500 56.22100 38.47700
C  32.44100 60.95600 39.91800
C  27.55600 61.32500 39.99700
N  29.56600 56.66600 38.56200
C  28.43800 55.91900 38.47000
C  28.71300 54.41800 38.08300
C  30.26400 54.54600 37.89300
C  30.65300 55.89900 38.40300
C  31.04200 53.34100 38.52900
C  27.87300 53.86300 36.91400
C  27.75800 54.66000 35.66200
H  28.09600 54.11500 34.30100
N  31.96700 58.47300 39.53500
C  32.63300 57.45000 38.90200
C  33.97900 57.79500 38.86900
C  34.17200 59.09100 39.46700
C  32.82500 59.56100 39.71300
C  35.02800 56.78500 38.50300
C  35.49800 59.74600 39.73600
O  36.50500 59.14700 39.44100
C  35.62400 61.03100 40.59400
N  29.88700 60.80100 39.88900
C  31.12800 61.45500 40.05500
C  30.92100 63.00600 40.25000
C  29.34800 63.09700 40.11300
C  28.86600 61.64000 39.96700
C  31.39200 63.61600 41.52700
C  28.86400 63.99700 38.93600
C  27.68500 64.92500 39.22000
N  27.79400 58.84300 39.54600
C  27.04300 60.00100 39.83500
C  25.63900 59.61500 39.66500
C  25.65500 58.22500 39.29900
C  27.02100 57.86700 39.14200
C  24.45600 60.60200 39.68700
C  24.78100 57.15600 38.88400
O  23.55600 57.16000 38.71900
C  25.75300 55.98000 38.56400
C  25.47700 54.93600 39.59000
O  26.08400 54.95100 40.65900
O  24.49000 54.08900 39.13200
C  24.03700 53.04000 40.02600
H  32.52300 55.35000 38.09700
H  33.18300 61.72800 40.13200
H  26.83300 62.13600 39.88100
H  28.49900 53.94100 39.03900
H  30.50000 54.47900 36.83000
H  31.93700 53.00800 38.00300
H  30.33600 52.51800 38.64300
H  31.31600 53.63800 39.54200
H  26.89400 53.85400 37.39400
H  28.19700 52.86000 36.63900
H  28.62900 55.31100 35.74000
H  26.88600 55.31100 35.61300
H  35.74000 57.24200 37.81700
H  34.58900 55.85200 38.14700
H  35.50200 56.53100 39.45100
H  34.92700 61.13500 41.42500
H  35.42700 61.83800 39.88800
H  36.68500 61.15900 40.80700
H  31.39100 63.54300 39.42700
H  28.82500 63.50300 40.97900
H  31.66700 62.89600 42.29800
H  30.59700 64.25700 41.90700
H  32.31900 64.11000 41.23700
H  28.41600 63.27700 38.25100
H  29.67300 64.47700 38.38600
H  26.95900 64.44400 39.87600
H  27.09800 65.06800 38.31200
H  28.05700 65.83200 39.69500
H  24.74200 61.45400 39.07100
H  24.20500 60.88100 40.71100
H  23.65800 60.15000 39.09800
H  25.48100 55.58600 37.58500
H  24.04800 53.43400 41.04200
H  24.81100 52.28600 39.88200
H  23.09000 52.69400 39.61300
Mg -6.14900 25.85800 26.21800
C  -4.26300 27.30500 28.80200
C  -7.51100 23.76200 28.33500
C  -7.42600 24.48500 23.47000
C  -4.03400 27.92100 24.03100
N  -5.81300 25.51800 28.31000
C  -5.07900 26.26900 29.19600
C  -5.42300 25.87800 30.67200
C  -6.27300 24.50600 30.44900
C  -6.55600 24.61100 28.90500
C  -5.45900 23.34400 30.97100
C  -6.21200 27.05900 31.39800
C  -5.91500 27.26500 32.87100
H  -5.38500 26.12400 33.76700
N  -7.48000 24.34000 25.96100
C  -7.93500 23.59300 26.96300
C  -8.88400 22.62200 26.44900
C  -8.91600 22.84300 24.98100
C  -7.98400 23.97200 24.77000
C  -9.64700 21.54300 27.30900
C  -9.73500 22.20200 23.89100
O  -9.71600 22.57200 22.75000
C  -10.67800 21.15800 24.37500
N  -5.69800 26.13800 24.05000
C  -6.48200 25.40500 23.13500
C  -6.00600 25.61000 21.69000
C  -5.02500 26.84500 21.88200
C  -4.89500 27.02200 23.40400
C  -5.45500 24.38600 20.95500
C  -5.64900 28.06900 21.11800
C  -5.70500 27.93000 19.61700
N  -4.50600 27.29800 26.31300
C  -3.82100 28.07500 25.41400
C  -2.91000 29.01300 26.07400
C  -3.08500 28.75100 27.41600
C  -4.00000 27.66400 27.49400
C  -1.92100 29.93200 25.26200
C  -2.61500 29.11500 28.72200
O  -1.74700 29.85000 29.10500
C  -3.35400 28.14600 29.73200
C  -2.41400 27.28400 30.45100
O  -1.78800 26.33800 29.95800
O  -2.32800 27.71700 31.69900
C  -1.40900 27.17200 32.72700
H  -7.82600 23.03800 29.08900
H  -7.79300 23.93100 22.60300
H  -3.50800 28.64200 23.40200
H  -4.57200 25.65100 31.31500
H  -7.24300 24.62800 30.93200
H  -5.01300 22.71500 30.20100
H  -6.23500 22.86000 31.56300
H  -4.67300 23.57700 31.69000
H  -7.28900 26.91000 31.31400
H  -6.01500 28.00300 30.88900
H  -6.84700 27.64200 33.29200
H  -5.22300 28.10000 32.97600
H  -10.69300 21.37900 27.05000
H  -9.58000 21.80100 28.36600
H  -9.05000 20.63200 27.28600
H  -10.30000 20.27500 24.89000
H  -11.17200 20.79000 23.47700
H  -11.47500 21.60600 24.96800
H  -6.87600 26.04300 21.19600
H  -4.00500 26.61200 21.57600
H  -5.57900 23.50900 21.59000
H  -4.43000 24.49900 20.60300
H  -6.01500 24.21100 20.03600
H  -4.98600 28.93400 21.13200
H  -6.60800 28.43600 21.48400
H  -5.26100 26.96300 19.37900
H  -5.25700 28.74600 19.05100
H  -6.75700 27.93700 19.33200
H  -2.33400 30.93900 25.20200
H  -1.60700 29.41500 24.35500
H  -1.00400 30.14000 25.81300
H  -3.96900 28.74800 30.40200
H  -1.74400 27.06600 33.75800
H  -0.50700 27.78500 32.73100
H  -1.18800 26.12700 32.51000

