158

Mg 41.39300 7.60300 29.16400
C  43.08600 9.08800 31.79700
C  39.22300 6.10900 31.39500
C  39.98700 5.94200 26.52300
C  44.06100 8.52700 27.06100
N  41.23700 7.59200 31.30100
C  41.86400 8.46900 32.19100
C  41.21600 8.53200 33.55200
C  40.18200 7.30300 33.40300
C  40.25200 6.90100 31.95800
C  40.60600 6.03400 34.30600
C  40.60100 9.93800 33.86300
C  40.18900 10.16300 35.32200
H  40.92400 11.04800 36.23500
N  39.67200 6.36600 28.98900
C  38.96000 5.90300 30.00900
C  37.84900 5.13000 29.48000
C  37.94900 5.14800 28.01100
C  39.24800 5.76100 27.74600
C  36.78900 4.53300 30.38400
C  37.00900 4.64900 26.91000
O  37.24200 4.70800 25.69400
C  35.68200 4.26300 27.29800
N  41.89400 7.29600 27.06300
C  41.16700 6.58200 26.19600
C  41.74700 6.71600 24.71600
C  42.93400 7.70500 24.92100
C  42.94100 7.91800 26.46000
C  42.08300 5.27100 24.24300
C  42.71500 9.03800 24.11900
C  41.68600 10.04300 24.60500
N  43.16700 8.57500 29.26500
C  44.19400 8.81000 28.34500
C  45.27700 9.61300 28.96200
C  44.90700 9.74700 30.30300
C  43.67900 9.04900 30.44700
C  46.51200 10.10800 28.33900
C  45.22700 10.34200 31.59300
O  46.14000 11.08000 31.86400
C  44.03400 9.87300 32.61200
C  44.64900 9.11800 33.71900
O  44.67000 7.89600 33.84500
O  45.04100 10.01900 34.71200
C  45.33800 9.39200 36.03400
H  38.69600 5.59800 32.20300
H  39.59700 5.51300 25.59700
H  44.75400 8.99500 26.35900
H  41.90600 8.24800 34.34700
H  39.16800 7.68900 33.50900
H  41.06900 6.26900 35.26500
H  41.27800 5.37700 33.75300
H  39.72800 5.46600 34.61300
H  39.70500 10.02800 33.24800
H  41.32200 10.74800 33.75000
H  40.22800 9.19000 35.81100
H  39.14300 10.46800 35.34600
H  37.03300 4.53900 31.44600
H  36.60000 3.47000 30.23500
H  35.91500 5.16300 30.22100
H  35.16300 5.12400 27.71900
H  35.58600 3.43000 27.99400
H  35.20900 3.96200 26.36300
H  40.90000 7.14400 24.18000
H  43.92900 7.27100 24.82200
H  41.60300 4.53300 24.88600
H  43.15600 5.14400 24.38700
H  41.96700 5.07100 23.17700
H  42.48000 8.78200 23.08600
H  43.69300 9.51200 24.03800
H  40.80300 9.94200 23.97400
H  42.09700 11.04400 24.47900
H  41.33400 10.00500 25.63700
H  46.17100 10.23000 27.31100
H  47.31900 9.37800 28.40600
H  46.64600 11.06900 28.83400
H  43.53700 10.74800 33.03200
H  46.15700 8.68800 35.89400
H  44.56300 8.80400 36.52700
H  45.70800 10.19300 36.67500
Mg 48.31500 14.28700 27.21900
C  46.36300 14.38300 30.26300
C  50.68300 16.23000 28.79400
C  50.09700 14.05900 24.48300
C  45.49000 13.00000 25.67800
N  48.41700 15.23600 29.29200
C  47.49900 15.20900 30.32800
C  48.03100 15.96700 31.52600
C  49.29700 16.70000 30.91200
C  49.52800 16.00700 29.59100
C  48.83100 18.20500 30.66500
C  48.28300 15.04200 32.72000
C  47.59600 15.31000 34.16200
H  48.45600 15.09900 35.42200
N  50.13500 15.04600 26.66600
C  50.97500 15.76100 27.52500
C  52.23200 15.97300 26.83000
C  52.20900 15.18900 25.63000
C  50.76400 14.72000 25.54400
C  53.36900 16.69000 27.50000
C  53.34800 14.83400 24.71700
O  53.17100 14.13700 23.73700
C  54.82100 15.29300 24.99000
N  47.80000 13.79600 25.28700
C  48.72200 13.83900 24.32900
C  48.21300 13.16800 22.98400
C  46.69500 12.80100 23.37900
C  46.59600 13.33400 24.82900
C  48.48000 14.11700 21.79400
C  46.36200 11.29800 23.20700
C  47.02200 10.34300 24.09900
N  46.36600 13.81100 27.82600
C  45.38200 13.20300 27.02400
C  44.30400 12.76300 27.85200
C  44.73100 13.22300 29.06600
C  45.91500 13.90100 29.01800
C  43.13600 11.88700 27.51300
C  44.21900 13.27200 30.40300
O  43.12900 12.98700 30.85900
C  45.28100 14.11600 31.26200
C  44.43200 15.28600 31.81600
O  44.30800 16.34500 31.32700
O  43.87600 14.87400 32.99500
C  42.98200 15.79800 33.72600
H  51.50000 16.77600 29.27000
H  50.76400 13.84700 23.64500
H  44.62100 12.53200 25.21300
H  47.27900 16.71300 31.78200
H  50.16000 16.64000 31.57400
H  49.50700 18.91800 31.13700
H  47.82100 18.39200 31.03000
H  48.95300 18.42000 29.60300
H  49.34400 14.90700 32.93000
H  48.03400 14.01100 32.46600
H  46.73400 14.64400 34.19700
H  47.35300 16.37200 34.15900
H  53.09600 17.68700 27.84600
H  54.27400 16.70700 26.89300
H  53.63600 16.08900 28.36900
H  55.22400 14.91500 25.93000
H  54.85100 16.37600 24.87400
H  55.34500 14.84700 24.14500
H  48.78100 12.24700 22.85500
H  46.05700 13.47000 22.80200
H  49.19600 13.72100 21.07400
H  49.02300 14.95900 22.22200
H  47.55900 14.53000 21.38200
H  46.72100 11.05700 22.20600
H  45.28700 11.13000 23.14900
H  47.52900 10.88500 24.89700
H  47.65900 9.64400 23.55600
H  46.26800 9.70200 24.55600
H  42.72500 11.37000 28.38000
H  43.52800 11.20300 26.76000
H  42.32000 12.46300 27.07600
H  45.57800 13.54400 32.14100
H  43.63300 16.64800 33.93200
H  42.56200 15.23200 34.55700
H  42.24900 16.15700 33.00300

