158

Mg -1.74200 17.39400 26.06200
C  -1.81700 15.27200 28.84300
C  -2.34500 20.12100 28.08200
C  -1.42800 19.35000 23.28300
C  -0.91700 14.60200 24.06100
N  -2.30200 17.62200 28.21600
C  -2.16700 16.64100 29.20900
C  -2.45100 17.24100 30.56900
C  -2.87000 18.70200 30.20300
C  -2.47100 18.87200 28.73200
C  -4.40100 18.95700 30.43400
C  -1.26300 17.21300 31.63400
C  -1.62100 16.63600 32.99300
H  -2.30200 17.58600 34.07700
N  -1.93100 19.45600 25.74800
C  -2.15000 20.42300 26.69300
C  -2.17800 21.69000 26.01400
C  -1.87500 21.49500 24.59200
C  -1.72000 20.04200 24.46500
C  -2.38800 23.01700 26.81500
C  -1.77700 22.44200 23.44300
O  -1.42400 22.08200 22.27600
C  -1.88400 23.97700 23.68400
N  -1.34600 16.96000 23.97300
C  -1.37100 17.96100 23.01900
C  -0.97200 17.44800 21.57800
C  -0.47500 15.91700 21.95100
C  -0.92100 15.84100 23.43000
C  -2.17100 17.43800 20.58700
C  1.00100 15.62000 21.68100
C  2.09300 16.60900 22.18100
N  -1.75200 15.38500 26.26200
C  -1.40700 14.36200 25.38500
C  -1.45000 13.10400 26.10000
C  -1.60700 13.42600 27.43300
C  -1.70900 14.78700 27.51300
C  -1.23800 11.76600 25.47300
C  -1.67400 12.80300 28.71500
O  -1.57900 11.61900 29.05800
C  -1.94200 13.99800 29.68100
C  -0.94000 13.83400 30.76500
O  0.21200 14.19200 30.70900
O  -1.54900 13.22900 31.88900
C  -0.66000 13.01600 33.07100
H  -2.55000 21.02900 28.65400
H  -1.21000 19.90800 22.37100
H  -0.56200 13.73900 23.49400
H  -3.32100 16.82800 31.08100
H  -2.38600 19.45800 30.82100
H  -4.84400 19.42100 29.55300
H  -4.51100 19.62900 31.28500
H  -4.92200 18.01000 30.57300
H  -0.94300 18.23600 31.82800
H  -0.37400 16.70600 31.25900
H  -0.69400 16.16000 33.31400
H  -2.35400 15.84100 32.85600
H  -2.38300 22.89400 27.89800
H  -3.39400 23.29600 26.50100
H  -1.72700 23.83600 26.53300
H  -2.11200 24.45600 22.73200
H  -0.98800 24.39800 24.13900
H  -2.73900 24.06800 24.35400
H  -0.16400 18.04700 21.15600
H  -0.98200 15.10200 21.43600
H  -2.91100 18.11600 21.01200
H  -2.72000 16.49800 20.53900
H  -1.78200 17.70800 19.60600
H  1.01800 15.66500 20.59200
H  1.14300 14.58800 22.00100
H  1.57000 17.47100 22.59600
H  2.68400 16.76100 21.27700
H  2.73200 16.17900 22.95200
H  -1.14300 11.01500 26.25700
H  -0.41500 11.80500 24.75900
H  -2.18500 11.47500 25.01800
H  -2.84800 13.89000 30.27700
H  0.41100 12.97700 32.87100
H  -1.04700 12.13000 33.57300
H  -0.82300 13.85200 33.75200
Mg 46.95600 35.31600 28.35100
C  45.53900 33.52800 31.05700
C  47.43200 37.94200 30.50400
C  48.04000 37.19800 25.74100
C  46.23900 32.78900 26.22800
N  46.85000 35.53700 30.64200
C  46.10200 34.73800 31.45800
C  46.21400 35.33600 32.86700
C  46.37500 36.85200 32.57900
C  46.90000 36.81500 31.15600
C  45.11300 37.71600 32.81900
C  47.49600 34.72100 33.55300
C  47.46900 34.54800 35.03600
H  46.50100 35.29900 35.87100
N  47.68200 37.21400 28.15400
C  47.93100 38.10500 29.18200
C  48.64700 39.23600 28.68900
C  48.67600 39.13700 27.25300
C  48.13400 37.78700 27.00800
C  49.12100 40.42700 29.60500
C  49.20900 40.14200 26.23600
O  49.22200 39.91700 24.99700
C  49.60600 41.49000 26.74900
N  46.84200 35.19200 26.17100
C  47.44300 36.01700 25.32300
C  47.43900 35.54300 23.86600
C  47.10400 34.03900 24.17100
C  46.67800 33.98300 25.56500
C  46.51700 36.36600 22.82100
C  48.36900 33.12700 23.90700
C  48.59800 32.70300 22.50200
N  46.04800 33.57400 28.49900
C  45.92600 32.61100 27.57500
C  45.37100 31.39000 28.15900
C  45.07800 31.82800 29.43500
C  45.62300 33.05200 29.67000
C  44.94000 30.11700 27.40500
C  44.47800 31.36600 30.71600
O  43.93100 30.37200 30.99400
C  44.54000 32.57800 31.68400
C  44.92400 32.06200 33.00800
O  46.07600 31.95400 33.44700
O  43.85800 31.82000 33.78400
C  44.18500 31.54800 35.15000
H  47.51500 38.76500 31.21700
H  48.18800 37.87500 24.89700
H  46.01000 31.92000 25.60800
H  45.31400 35.01700 33.39200
H  47.12000 37.31100 33.22900
H  44.83800 38.22700 31.89600
H  45.41000 38.41800 33.59800
H  44.28300 37.12600 33.20700
H  48.33500 35.38400 33.34100
H  47.58400 33.69200 33.20400
H  48.40900 34.95200 35.41200
H  47.45900 33.51300 35.38000
H  49.17800 40.16100 30.66100
H  48.35800 41.19900 29.51100
H  50.14600 40.72300 29.38100
H  50.49200 41.64300 27.36500
H  48.77500 42.05800 27.16800
H  49.80600 42.15100 25.90600
H  48.43000 35.57500 23.41400
H  46.25100 33.66300 23.60500
H  45.44900 36.15000 22.82400
H  46.85700 36.31300 21.78700
H  46.52800 37.37700 23.22800
H  48.17200 32.19400 24.43500
H  49.28600 33.56900 24.29700
H  49.66000 32.91400 22.37200
H  48.04300 33.33800 21.81100
H  48.40100 31.64300 22.33900
H  44.07700 30.50300 26.86300
H  44.67700 29.41300 28.19500
H  45.72500 29.86900 26.69100
H  43.62000 33.10900 31.92800
H  43.29900 31.19900 35.68100
H  44.49900 32.49400 35.59200
H  44.90000 30.72500 35.16900

