158

Mg 7.33500 3.21300 28.27100
C  8.81100 1.46400 30.80400
C  5.39700 4.87800 30.51300
C  5.86600 4.78200 25.70000
C  9.23200 1.28100 25.98100
N  6.99100 3.01400 30.38600
C  7.87000 2.37300 31.25600
C  7.59900 2.79600 32.74500
C  6.43100 3.82800 32.55500
C  6.23800 3.89600 31.07800
C  5.19800 3.48200 33.47300
C  8.89000 3.32900 33.49600
C  8.61600 4.31700 34.73100
H  9.48500 4.03800 35.89900
N  5.84000 4.59700 28.10000
C  5.16600 5.16100 29.14400
C  4.26500 6.22100 28.66200
C  4.34800 6.18400 27.23400
C  5.36100 5.14000 26.91200
C  3.24500 6.92500 29.54800
C  3.51500 6.93400 26.23700
O  3.65500 6.88600 24.96900
C  2.39800 7.87800 26.73400
N  7.38800 2.98200 26.07600
C  6.80600 3.81200 25.29500
C  7.25800 3.52300 23.86000
C  8.45800 2.62100 23.96200
C  8.30900 2.18400 25.45900
C  6.09800 3.08100 22.94500
C  9.87300 3.32000 23.63500
C  10.54800 4.13900 24.72700
N  8.62100 1.56400 28.29200
C  9.35600 0.93500 27.33500
C  10.35000 0.07500 27.95000
C  10.21400 0.30600 29.31200
C  9.10400 1.10900 29.46000
C  11.15000 -0.91600 27.13000
C  10.62100 -0.14600 30.60400
O  11.49800 -0.93800 30.94100
C  9.85100 0.78300 31.60500
C  9.25300 -0.03600 32.65000
O  8.34700 -0.82500 32.52000
O  9.88400 0.19200 33.86100
C  9.35000 -0.46700 35.11600
H  5.02600 5.59500 31.24800
H  5.51400 5.32500 24.82000
H  9.89300 0.74200 25.29900
H  7.36600 1.89300 33.30900
H  6.83900 4.79400 32.85400
H  5.48300 2.81000 34.28300
H  4.40900 2.92400 32.97000
H  4.74900 4.35600 33.94500
H  9.37000 3.99000 32.77400
H  9.66300 2.60000 33.73800
H  7.57100 4.30100 35.03900
H  8.69300 5.32700 34.32900
H  2.23000 6.74200 29.19700
H  3.36400 8.00100 29.42400
H  3.21400 6.52900 30.56300
H  1.62700 7.44000 27.36800
H  1.78200 8.08400 25.85800
H  2.75900 8.86300 27.03000
H  7.68100 4.43800 23.44700
H  8.24900 1.68100 23.45100
H  5.33400 2.60600 23.56100
H  6.49400 2.28400 22.31500
H  5.73100 3.83400 22.24800
H  9.75700 3.84400 22.68600
H  10.57200 2.52400 23.37900
H  10.65500 5.14300 24.31700
H  11.54500 3.69700 24.73600
H  10.05000 4.05800 25.69300
H  10.52500 -1.31100 26.32900
H  11.36700 -1.69600 27.86000
H  11.95800 -0.24300 26.84100
H  10.54900 1.48800 32.05700
H  9.23300 -1.53900 34.95200
H  8.53400 0.04300 35.62800
H  10.16700 -0.34900 35.82700
Mg 17.10200 52.36200 25.94400
C  19.04900 51.17400 28.53000
C  14.60900 52.97700 28.19400
C  15.41700 53.61900 23.39400
C  19.65900 51.38500 23.74800
N  16.83300 52.07900 28.10100
C  17.84600 51.72800 28.95800
C  17.39100 51.95000 30.44300
C  15.81800 52.12300 30.18900
C  15.70200 52.35300 28.71400
C  14.92100 51.07600 30.70100
C  17.90600 53.30100 30.99300
C  17.89500 53.55400 32.49300
H  16.70100 53.11100 33.41700
N  15.28500 53.20000 25.79300
C  14.40700 53.32500 26.82000
C  13.26700 54.10100 26.31600
C  13.46600 54.25500 24.94900
C  14.75400 53.66600 24.63900
C  12.16100 54.49900 27.20000
C  12.51800 54.86400 23.91600
O  12.84200 54.98400 22.73500
C  11.20300 55.35500 24.33600
N  17.39300 52.33000 23.83600
C  16.60700 52.98800 22.94200
C  17.11100 52.95800 21.53400
C  18.50500 52.22100 21.71800
C  18.58700 52.05600 23.24800
C  16.09900 52.31400 20.57100
C  19.68300 52.93900 21.03000
C  20.09800 54.22800 21.72600
N  18.81800 51.37100 26.02000
C  19.82600 51.02900 25.06100
C  20.92300 50.33800 25.65500
C  20.64700 50.39300 27.00000
C  19.38100 51.01400 27.18700
C  22.03800 49.63800 24.93500
C  21.26200 49.98000 28.23400
O  22.28900 49.36000 28.55800
C  20.30600 50.59500 29.31200
C  19.80400 49.60400 30.25300
O  19.24400 48.57600 29.93100
O  20.03100 50.04800 31.51700
C  19.49500 49.22600 32.57600
H  13.87300 53.35000 28.90900
H  14.95100 54.02700 22.49500
H  20.45400 51.10700 23.05300
H  17.57000 51.08800 31.08600
H  15.42900 53.01200 30.68400
H  15.46500 50.42500 31.38600
H  14.63800 50.48200 29.83200
H  14.04800 51.40800 31.26400
H  17.32000 54.14200 30.62300
H  18.94600 53.33500 30.66700
H  18.21300 54.55000 32.80100
H  18.64700 52.90400 32.94100
H  12.30600 54.16700 28.22800
H  11.19600 54.19400 26.79500
H  12.18200 55.56400 27.43000
H  10.58500 55.51300 23.45200
H  11.22800 56.33900 24.80400
H  10.64400 54.54300 24.80100
H  17.32600 53.95700 21.15700
H  18.60400 51.21600 21.30800
H  15.57100 53.15000 20.11300
H  15.39200 51.65400 21.07300
H  16.64400 51.71000 19.84500
H  19.28700 53.24700 20.06300
H  20.50400 52.25300 20.82000
H  21.18000 54.33200 21.81100
H  19.66900 54.23000 22.72800
H  19.54400 54.99500 21.18500
H  22.06300 48.56600 24.74000
H  22.90200 49.66600 25.59900
H  22.12600 50.06500 23.93600
H  20.82700 51.33500 29.92000
H  19.11100 49.79600 33.42200
H  20.42000 48.76200 32.91700
H  18.78500 48.41800 32.39700

