158

Mg 26.13000 1.56900 29.39900
C  28.21200 1.22400 32.15400
C  23.54500 2.05800 31.39100
C  24.12500 1.58500 26.61000
C  28.81300 0.58100 27.25500
N  25.92600 1.56100 31.53600
C  26.90500 1.51000 32.49500
C  26.41700 1.80800 33.90200
C  24.89300 1.86400 33.58700
C  24.73300 1.86500 32.05800
C  23.80700 0.84000 34.15100
C  27.00800 3.13100 34.57300
C  27.66200 2.90400 35.87300
H  27.28600 3.81500 37.03300
N  24.12100 1.85000 29.03700
C  23.25500 1.99900 29.96900
C  21.99500 2.32200 29.38000
C  22.14200 2.05200 28.00100
C  23.48500 1.79400 27.82200
C  20.76100 2.60500 30.15200
C  21.06100 2.03700 26.96400
O  21.25500 1.74500 25.80200
C  19.65700 2.20500 27.39600
N  26.45300 1.03600 27.26900
C  25.47500 1.20800 26.30200
C  26.01400 1.22500 24.82900
C  27.47000 0.77700 25.06700
C  27.64400 0.94500 26.56100
C  25.25800 0.25300 23.86800
C  28.56600 1.53700 24.28100
C  28.52200 1.53800 22.71700
N  28.16600 1.01100 29.55300
C  29.13300 0.65200 28.68300
C  30.37800 0.43700 29.41800
C  29.99000 0.57900 30.73500
C  28.64700 1.00200 30.80600
C  31.79600 0.05900 28.95300
C  30.63000 0.59800 32.01500
O  31.81300 0.31800 32.37900
C  29.43700 0.92900 33.01500
C  29.23100 -0.30700 33.84600
O  29.30600 -1.49300 33.51200
O  29.10000 0.07600 35.12000
C  29.02500 -0.85700 36.22000
H  22.73300 2.21000 32.10500
H  23.51000 1.69500 25.71500
H  29.69000 0.29300 26.67100
H  26.63300 0.91700 34.49200
H  24.50900 2.83100 33.91400
H  23.46900 0.19400 33.34100
H  22.97800 1.34800 34.64300
H  24.29400 0.24900 34.92600
H  26.20600 3.80900 34.86400
H  27.67300 3.65400 33.88500
H  28.73500 2.98900 35.69800
H  27.58500 1.88500 36.25100
H  20.85100 2.72500 31.23200
H  20.19100 1.67600 30.12600
H  20.23800 3.48800 29.78500
H  19.08800 1.94300 26.50400
H  19.56000 3.28200 27.53300
H  19.40200 1.54800 28.22800
H  26.13000 2.25300 24.48500
H  27.52100 -0.30500 24.95000
H  24.89500 -0.56300 24.49300
H  25.87800 -0.18900 23.08800
H  24.45700 0.73000 23.30300
H  29.54600 1.20800 24.62800
H  28.43200 2.59100 24.52400
H  29.42300 1.90700 22.22600
H  27.73900 2.22900 22.40600
H  28.21800 0.54700 22.37900
H  31.89200 0.14500 27.87100
H  32.09900 -0.92600 29.30900
H  32.54500 0.73300 29.37000
H  29.69800 1.81400 33.59600
H  29.37300 -1.86000 35.97100
H  27.95500 -0.86400 36.42800
H  29.69700 -0.50800 37.00400
Mg -11.49100 17.32700 41.06500
C  -7.93800 16.88600 41.01700
C  -10.95100 20.77100 40.51100
C  -14.66300 17.72900 40.06600
C  -11.76600 13.82400 40.70900
N  -9.66000 18.64200 40.94200
C  -8.32000 18.24300 40.79500
C  -7.31600 19.45000 40.54900
C  -8.33100 20.65200 40.80000
C  -9.78300 19.99500 40.83500
C  -8.12500 21.46100 42.11300
C  -6.73700 19.36300 39.06800
C  -5.16600 19.03600 38.91200
H  -4.85500 18.00900 37.78200
N  -12.68200 19.00900 40.38600
C  -12.29500 20.32000 40.32900
C  -13.41600 21.17000 39.90900
C  -14.63000 20.29300 39.93400
C  -14.01700 18.98200 40.17100
C  -13.39200 22.56700 39.47100
C  -16.02000 20.72100 39.71400
O  -16.26800 21.91900 39.64000
C  -17.26800 19.84400 39.70200
N  -12.97800 15.92100 40.54100
C  -14.20400 16.37000 40.17300
C  -15.24700 15.26000 39.91700
C  -14.25400 14.08700 39.83600
C  -12.91800 14.63000 40.41600
C  -16.36800 14.96400 40.95200
C  -14.04700 13.51600 38.43100
C  -14.98800 12.35200 37.92000
N  -10.20100 15.66200 41.16100
C  -10.47400 14.33300 41.01900
C  -9.21200 13.55800 41.18800
C  -8.19400 14.56900 41.16600
C  -8.84400 15.84300 41.09200
C  -9.16400 12.07900 41.08400
C  -6.72000 14.76100 41.03500
O  -5.91300 13.89400 40.99800
C  -6.54000 16.29800 40.95500
C  -5.68100 16.69100 42.15800
O  -4.61100 16.09800 42.54300
O  -6.24600 17.65900 42.96400
C  -5.67600 18.04000 44.20000
H  -10.72800 21.82400 40.32600
H  -15.71000 17.75300 39.75700
H  -11.83000 12.75200 40.51400
H  -6.45100 19.41900 41.21100
H  -8.34900 21.38600 39.99500
H  -9.02900 21.23800 42.68000
H  -7.97700 22.52500 41.92800
H  -7.30500 21.00700 42.67000
H  -6.90400 20.40400 38.78800
H  -7.21400 18.56300 38.50300
H  -4.78100 18.70900 39.87800
H  -4.65000 19.97200 38.70200
H  -14.14200 22.71000 38.69300
H  -12.39300 22.80500 39.10500
H  -13.50100 23.22100 40.33600
H  -17.06500 19.01600 39.02400
H  -18.12600 20.36500 39.27800
H  -17.35000 19.55600 40.75000
H  -15.61600 15.49700 38.91900
H  -14.58100 13.27900 40.49000
H  -15.99800 15.48700 41.83400
H  -16.38600 13.89600 41.16800
H  -17.34600 15.27800 40.58600
H  -13.05500 13.06600 38.37700
H  -14.10200 14.34700 37.72700
H  -14.43500 11.56600 37.40600
H  -15.66300 12.79100 37.18400
H  -15.63300 11.99000 38.72100
H  -8.28100 11.79200 41.65500
H  -9.07500 11.77600 40.04100
H  -9.98300 11.49200 41.50000
H  -6.06700 16.66700 40.04500
H  -4.58800 18.04600 44.13300
H  -5.86000 17.34800 45.02100
H  -6.12300 18.98900 44.49900

