158

Mg 42.99300 42.11800 25.76600
C  42.55600 44.11000 28.69700
C  44.50600 39.81800 27.95200
C  43.93200 40.33300 23.15300
C  41.94300 44.77100 23.83100
N  43.39300 41.99800 28.09800
C  43.11100 42.85300 29.04700
C  43.56900 42.46100 30.48100
C  44.43800 41.24900 30.13200
C  44.13400 40.96800 28.66600
C  45.93800 41.42100 30.45100
C  42.34700 42.14300 31.38300
C  42.24000 42.96100 32.70400
H  40.83100 43.43200 33.14400
N  43.88800 40.16400 25.57600
C  44.33900 39.40700 26.61500
C  44.85200 38.15200 26.12600
C  44.71600 38.20800 24.65600
C  44.22400 39.59300 24.35400
C  45.22000 36.95500 27.00200
C  44.88200 37.17100 23.63000
O  44.60800 37.40300 22.45400
C  45.40900 35.72900 23.92400
N  42.95200 42.50200 23.88700
C  43.40400 41.61100 22.93800
C  43.19700 42.01100 21.46800
C  42.30800 43.21400 21.68300
C  42.39200 43.56700 23.25100
C  44.44700 42.21000 20.62700
C  40.85400 43.04000 21.18600
C  39.92200 42.08900 21.97600
N  42.27800 44.03400 26.15900
C  41.93700 45.02900 25.18900
C  41.46400 46.22900 25.94700
C  41.78300 45.92200 27.31500
C  42.22800 44.53800 27.35500
C  41.22800 47.58000 25.43600
C  41.58600 46.39900 28.65800
O  41.12900 47.44900 29.09200
C  42.05200 45.29700 29.60200
C  43.10900 45.76400 30.47500
O  44.28700 45.63700 30.24600
O  42.64200 46.22400 31.67000
C  43.65500 46.67500 32.63400
H  44.98700 39.11400 28.63400
H  44.20800 39.80700 22.23700
H  41.62300 45.53700 23.12300
H  44.08300 43.27100 31.00100
H  44.14400 40.43800 30.79800
H  46.39500 40.45100 30.64200
H  46.05200 42.01500 31.35800
H  46.49900 41.84400 29.61700
H  42.34000 41.10900 31.72700
H  41.37900 42.22300 30.88800
H  42.97700 43.76400 32.69200
H  42.53600 42.33700 33.54800
H  46.30600 36.86500 27.00700
H  44.64800 36.09900 26.64300
H  44.96900 37.01000 28.06200
H  45.63100 35.11400 23.05200
H  44.53500 35.25800 24.37500
H  46.27400 35.77500 24.58600
H  42.59900 41.27700 20.92800
H  42.74300 44.11900 21.25900
H  45.28600 41.85300 21.22400
H  44.78000 43.22300 20.40200
H  44.35800 41.66600 19.68700
H  40.92700 42.67900 20.16000
H  40.42900 44.04400 21.15600
H  39.15400 41.65000 21.33900
H  39.53900 42.66900 22.81500
H  40.52000 41.31300 22.45500
H  40.97000 47.52600 24.37900
H  42.05300 48.27500 25.59400
H  40.30400 47.90900 25.91200
H  41.26800 44.88200 30.23500
H  44.00300 45.84100 33.24300
H  43.07700 47.34700 33.27000
H  44.39100 47.40100 32.28800
Mg 9.95600 47.60900 25.63700
C  8.09300 47.42900 28.52800
C  12.38200 49.23600 27.29200
C  11.71300 47.48900 22.84600
C  7.17300 46.56700 23.83000
N  10.07100 48.43000 27.67400
C  9.32600 48.11300 28.80000
C  9.88900 48.75700 30.09400
C  10.98400 49.75000 29.45000
C  11.18600 49.12100 28.03700
C  10.73300 51.31300 29.40800
C  10.53200 47.73200 31.01700
C  10.60000 47.98000 32.58300
H  10.12500 46.89800 33.60700
N  11.77100 48.21700 25.16500
C  12.67500 48.76900 26.02000
C  13.97400 48.68200 25.38200
C  13.79100 48.29400 24.04000
C  12.34500 48.02500 23.95000
C  15.30100 48.84900 26.19400
C  14.86700 47.96300 22.99300
O  14.62500 47.47100 21.88800
C  16.27600 48.31800 23.28000
N  9.40800 47.29400 23.55600
C  10.40400 47.18100 22.66600
C  9.84300 46.62200 21.30600
C  8.36900 46.29000 21.61800
C  8.28800 46.76200 23.06600
C  9.92300 47.72000 20.19700
C  8.00000 44.84600 21.41300
C  8.62800 43.86000 22.40100
N  7.93900 47.18700 26.03600
C  6.93300 46.71500 25.25700
C  5.87700 46.40600 26.02600
C  6.26600 46.61300 27.34400
C  7.56000 47.06600 27.30800
C  4.46900 46.02100 25.38200
C  5.92100 46.44500 28.76000
O  4.90000 46.00900 29.30000
C  7.10000 46.91800 29.48500
C  7.55600 45.87000 30.44300
O  8.25700 44.99600 30.01700
O  7.03100 45.95800 31.70300
C  7.39300 44.86800 32.63000
H  13.18400 49.88300 27.65600
H  12.22200 47.37700 21.88600
H  6.38200 46.21400 23.16400
H  9.16200 49.36900 30.62800
H  11.90700 49.74400 30.02900
H  11.37900 51.85600 30.09700
H  9.67200 51.49900 29.57600
H  11.02500 51.73200 28.44600
H  11.53700 47.49200 30.66800
H  9.95500 46.80900 30.96100
H  9.97000 48.81200 32.89800
H  11.62500 48.30200 32.76100
H  15.22300 48.81000 27.28100
H  15.69400 49.83500 25.94600
H  16.01800 48.04700 26.01500
H  16.25100 49.25300 23.84100
H  16.70400 48.55200 22.30600
H  16.75500 47.51900 23.84600
H  10.34000 45.67400 21.10000
H  7.59800 46.75100 21.00100
H  10.73500 48.39200 20.47600
H  8.94900 48.13600 19.94000
H  10.22000 47.19800 19.28700
H  8.45200 44.58500 20.45600
H  6.91400 44.80300 21.33900
H  9.49200 44.29700 22.90200
H  8.89300 42.95400 21.85600
H  7.75100 43.56400 22.97600
H  4.06500 46.86900 24.82900
H  3.78200 45.66900 26.15100
H  4.47900 45.25000 24.61200
H  6.84800 47.77700 30.10700
H  6.52500 44.25900 32.88200
H  7.64700 45.38400 33.55600
H  8.22400 44.18100 32.47200

