158

Mg 49.51400 46.86500 43.18000
C  46.21000 47.30600 42.18900
C  49.47400 43.78200 41.51100
C  52.82500 46.75700 43.29700
C  49.47300 49.98600 44.62000
N  47.95100 45.62800 42.06000
C  46.70300 46.02800 41.68000
C  45.97100 44.88600 40.89400
C  46.97500 43.71200 41.07600
C  48.24900 44.41500 41.64300
C  46.51900 42.47400 41.95600
C  45.61300 45.35000 39.41900
C  44.20400 45.01700 39.03200
H  43.87100 44.09700 37.82200
N  50.99700 45.49100 42.47100
C  50.81500 44.30100 41.80700
C  52.06700 43.67400 41.56600
C  53.08300 44.48400 42.06800
C  52.33400 45.65200 42.65500
C  52.26800 42.25900 40.83100
C  54.58600 44.16900 42.09600
O  55.05000 43.21500 41.46500
C  55.57100 44.99300 42.82100
N  50.94700 48.10500 44.03000
C  52.28600 47.91300 43.88200
C  53.04900 49.00600 44.67300
C  51.89100 49.87000 45.23300
C  50.70200 49.29500 44.60300
C  54.07000 48.40400 45.76500
C  52.01400 51.45100 45.24100
C  53.30700 52.16100 45.72800
N  48.18500 48.33500 43.39100
C  48.25700 49.58400 43.97800
C  47.00600 50.28500 43.86400
C  46.18900 49.41000 43.15300
C  46.89900 48.22700 42.97200
C  46.77900 51.76100 44.30400
C  44.86600 49.26400 42.63500
O  43.90700 50.00700 42.70000
C  44.83200 47.87300 41.98000
C  43.75600 47.05300 42.67400
O  43.88800 46.38200 43.70500
O  42.53600 47.02300 41.97300
C  41.45100 46.18400 42.48800
H  49.54400 42.76300 41.12500
H  53.91000 46.86700 43.35500
H  49.33400 50.92600 45.15700
H  45.13500 44.70000 41.56900
H  47.27300 43.29700 40.11300
H  46.71900 41.59200 41.34700
H  45.47800 42.65200 42.22600
H  47.07700 42.30000 42.87600
H  46.23700 44.87900 38.66000
H  45.69800 46.43500 39.48500
H  43.52600 45.86700 38.96000
H  43.84700 44.37000 39.83200
H  52.70700 42.30900 39.83400
H  51.32800 41.71100 40.89200
H  53.01500 41.75100 41.44200
H  56.48500 44.40900 42.92800
H  55.21300 45.19000 43.83100
H  55.84600 45.90800 42.29600
H  53.69300 49.50400 43.94800
H  51.72900 49.56100 46.26600
H  53.57900 47.50600 46.14000
H  54.18600 49.05600 46.63100
H  55.04800 48.16800 45.34600
H  51.20300 51.88500 45.82700
H  51.81900 51.70100 44.19800
H  54.12100 51.49600 46.01400
H  53.11200 52.93900 46.46600
H  53.57000 52.65300 44.79100
H  47.68400 52.08400 44.81900
H  45.93000 52.06200 44.91900
H  46.68400 52.36400 43.40100
H  44.60600 48.03100 40.92600
H  41.65600 45.11900 42.38000
H  40.57100 46.50500 41.93000
H  41.28100 46.35600 43.55000
Mg -4.72400 25.28800 26.31600
C  -3.55700 26.75800 29.25600
C  -6.92100 23.44300 28.07600
C  -5.69200 23.99400 23.36800
C  -2.31500 27.23400 24.52900
N  -5.14100 25.12600 28.41900
C  -4.58700 25.80300 29.44700
C  -5.17300 25.45500 30.77900
C  -5.83800 24.08700 30.30400
C  -6.02800 24.21800 28.84300
C  -5.11800 22.81400 30.66100
C  -6.10700 26.61500 31.39100
C  -6.21700 26.66600 32.96200
H  -5.64900 25.46800 33.72300
N  -6.09000 23.84200 25.82800
C  -6.99300 23.31600 26.66500
C  -7.96500 22.60200 25.89200
C  -7.61700 22.70600 24.50500
C  -6.44200 23.61700 24.52600
C  -9.02600 21.83700 26.59800
C  -8.34200 22.12900 23.30100
O  -7.96900 22.42200 22.19900
C  -9.55000 21.22800 23.39600
N  -3.99000 25.57800 24.14600
C  -4.54900 24.74500 23.17200
C  -4.01400 25.23000 21.77200
C  -2.97400 26.32400 22.15900
C  -3.01500 26.36500 23.66900
C  -3.49600 23.99700 20.95900
C  -3.25800 27.64100 21.39200
C  -2.17100 28.27400 20.61400
N  -3.28800 26.78500 26.75000
C  -2.36900 27.41200 25.96600
C  -1.57200 28.24200 26.78300
C  -2.00500 28.03100 28.11000
C  -2.95600 27.07600 28.03500
C  -0.60600 29.23900 26.20400
C  -1.88400 28.51500 29.44500
O  -1.17300 29.39200 29.95200
C  -2.87900 27.66100 30.26800
C  -2.05200 26.81600 31.15000
O  -1.41900 25.85100 30.85400
O  -2.06900 27.36700 32.39200
C  -1.14200 26.92400 33.41500
H  -7.57700 22.74700 28.60300
H  -5.92600 23.48200 22.43200
H  -1.52500 27.91100 24.19800
H  -4.25400 25.25300 31.32700
H  -6.85100 24.09200 30.70700
H  -5.13500 22.20600 29.75700
H  -5.68900 22.30200 31.43500
H  -4.06800 23.00900 30.88300
H  -7.12400 26.37300 31.08200
H  -5.88000 27.61600 31.02400
H  -7.20600 26.90600 33.35100
H  -5.60800 27.52700 33.23900
H  -9.99500 21.80300 26.10000
H  -9.31600 22.11400 27.61200
H  -8.63800 20.81900 26.59000
H  -9.48700 20.53800 24.23800
H  -9.49700 20.66800 22.46200
H  -10.38300 21.92700 23.48000
H  -4.93000 25.70800 21.42700
H  -1.95200 26.10800 21.84700
H  -2.43100 24.08500 20.74300
H  -4.17800 23.83000 20.12500
H  -3.65000 23.03700 21.45100
H  -3.66700 28.37100 22.09100
H  -4.08200 27.51400 20.69000
H  -1.88700 27.66700 19.75400
H  -1.36600 28.63500 21.25300
H  -2.49800 29.20200 20.14500
H  0.30800 28.78600 25.81800
H  -0.41600 29.82700 27.10200
H  -1.05000 29.82400 25.39900
H  -3.59800 28.31700 30.76000
H  -1.38300 25.88600 33.64600
H  -1.39600 27.49500 34.30800
H  -0.06700 26.97800 33.24700

