158

Mg 39.99600 9.82400 29.88300
C  41.87600 11.04700 32.73400
C  37.55200 8.71900 32.06600
C  38.41800 8.49100 27.26200
C  42.72400 10.68600 27.89300
N  39.88800 9.63400 32.20300
C  40.65500 10.40900 33.14400
C  40.02200 10.32100 34.55900
C  38.70800 9.50500 34.26100
C  38.65100 9.31400 32.74100
C  38.58400 8.16800 35.01400
C  39.77000 11.79200 35.15400
C  40.67500 12.19500 36.35800
H  40.12100 12.60300 37.69800
N  38.14800 8.77300 29.66500
C  37.33900 8.43800 30.69300
C  36.21700 7.76900 30.14200
C  36.47100 7.64600 28.78300
C  37.67000 8.36000 28.45600
C  35.11200 7.24000 30.99000
C  35.60800 6.97100 27.69000
O  35.92500 6.78300 26.53100
C  34.32300 6.42200 28.05500
N  40.45800 9.71100 27.81400
C  39.68200 9.03000 26.93300
C  40.23000 9.02800 25.47800
C  41.64600 9.65700 25.74100
C  41.67600 9.99600 27.26800
C  40.40000 7.52500 24.99600
C  41.97500 10.90800 24.87100
C  41.18000 12.18400 25.25400
N  41.95700 10.69400 30.14400
C  42.90200 11.06100 29.20800
C  43.98600 11.74000 29.91400
C  43.60100 11.79800 31.29800
C  42.34100 11.06600 31.38400
C  45.18000 12.38400 29.30700
C  44.01800 12.31000 32.60100
O  45.12100 12.79300 32.91500
C  42.90800 11.78100 33.59500
C  43.63000 10.84100 34.59300
O  43.80700 9.63600 34.50300
O  44.14400 11.61600 35.59600
C  44.56600 10.98200 36.84500
H  36.72400 8.59100 32.76700
H  37.93900 8.06800 26.37700
H  43.71400 10.88900 27.48100
H  40.81500 9.87200 35.15800
H  37.79700 10.09100 34.38000
H  38.51500 7.37400 34.27000
H  37.62300 8.25500 35.52100
H  39.38000 7.98500 35.73500
H  38.73700 11.89000 35.48900
H  39.82500 12.55200 34.37500
H  41.36800 12.97300 36.03800
H  41.24000 11.28400 36.55400
H  34.21200 7.78100 30.69700
H  35.31400 7.23800 32.06100
H  35.07400 6.17600 30.75900
H  34.45900 5.72900 28.88600
H  33.83300 5.97000 27.19200
H  33.65200 7.20100 28.41800
H  39.57100 9.50300 24.75100
H  42.37100 8.86900 25.53700
H  39.98100 6.74800 25.63700
H  41.44900 7.25300 24.88000
H  39.88400 7.27400 24.06900
H  41.88700 10.49800 23.86400
H  43.04900 11.09200 24.85300
H  41.86000 12.97000 25.58400
H  40.50000 11.98500 26.08200
H  40.56200 12.47900 24.40700
H  44.99500 12.74900 28.29800
H  45.94400 11.60800 29.25700
H  45.43600 13.17400 30.01300
H  42.48200 12.65700 34.08400
H  44.21000 11.55600 37.70100
H  45.64300 11.15000 36.86800
H  44.32400 9.92000 36.88200
Mg 51.05500 46.26700 42.66700
C  48.10000 47.76800 41.63300
C  50.17800 43.53100 40.74100
C  54.13400 44.95100 43.14000
C  52.12700 49.30200 44.11000
N  49.30200 45.73200 41.33300
C  48.26800 46.48300 41.03800
C  47.23300 45.85600 40.16700
C  47.84300 44.45500 39.93900
C  49.14300 44.51600 40.71600
C  46.97800 43.17400 40.27900
C  47.02600 46.71700 38.87100
C  45.60000 46.91600 38.41600
H  45.21400 46.38500 37.00200
N  51.96400 44.39800 42.07800
C  51.46200 43.46100 41.30500
C  52.37600 42.33100 41.28000
C  53.52700 42.67700 41.98900
C  53.25200 44.05800 42.38100
C  52.12000 40.98700 40.53800
C  54.74400 41.92700 42.11000
O  54.83700 40.86400 41.52800
C  55.80900 42.34500 42.94900
N  52.86900 46.99500 43.51800
C  54.00800 46.30300 43.55000
C  55.10200 47.11200 44.20800
C  54.48900 48.54600 44.41500
C  53.07300 48.31000 43.95200
C  55.63700 46.37500 45.45500
C  55.10500 49.80600 43.74900
C  54.72800 50.10500 42.27400
N  50.30900 48.19000 42.89200
C  50.82100 49.38300 43.41100
C  49.83800 50.38400 43.30000
C  48.71300 49.81000 42.75900
C  49.05400 48.46900 42.47200
C  49.94500 51.84800 43.51000
C  47.31100 50.08000 42.35300
O  46.64900 51.04900 42.46000
C  46.94900 48.75500 41.48700
C  45.63000 48.29900 41.97900
O  45.57900 47.63600 42.96500
O  44.64900 48.67200 41.15800
C  43.26700 48.41500 41.52800
H  49.88600 42.60000 40.25100
H  55.14700 44.57600 43.30200
H  52.21400 50.27800 44.59200
H  46.28100 45.75600 40.68800
H  47.90900 44.36400 38.85500
H  45.92000 43.43300 40.24900
H  47.22500 43.00300 41.32700
H  47.17200 42.28500 39.68000
H  47.46600 46.12300 38.07000
H  47.62300 47.62800 38.82300
H  45.39400 47.98400 38.49300
H  44.93300 46.39100 39.10000
H  52.13900 41.14100 39.46000
H  51.20800 40.57300 40.96900
H  52.78200 40.12200 40.50900
H  56.53300 41.54000 43.07000
H  55.40500 42.62000 43.92300
H  56.43500 43.16100 42.58700
H  55.99100 47.19000 43.58400
H  54.38500 48.70000 45.48900
H  55.58200 46.93700 46.38700
H  56.66800 46.02600 45.40200
H  55.12500 45.43900 45.67800
H  56.19000 49.69900 43.73200
H  54.76900 50.65000 44.35100
H  53.91200 50.82400 42.20900
H  54.44300 49.22500 41.69800
H  55.56200 50.57200 41.74900
H  49.65100 52.17500 44.50800
H  49.22000 52.24500 42.80000
H  50.96900 52.07800 43.21700
H  46.83200 48.88400 40.41100
H  43.00300 47.36400 41.40700
H  42.54100 49.04600 41.01600
H  43.14600 48.70800 42.57100

