158

Mg 24.63600 -5.53200 46.12200
C  26.71700 -3.18300 44.37700
C  22.03400 -4.36800 44.36100
C  23.12500 -8.44000 46.80300
C  27.63700 -6.69200 47.68000
N  24.44300 -3.97900 44.62400
C  25.39800 -3.23500 43.91600
C  24.82900 -2.38300 42.83500
C  23.29400 -2.50500 43.01100
C  23.26400 -3.69900 44.09100
C  22.61800 -1.16100 43.57500
C  25.48900 -2.74300 41.45900
C  25.88000 -1.63200 40.49500
H  25.38000 -1.74400 39.03300
N  22.74200 -6.22100 45.83600
C  21.80800 -5.54600 45.12700
C  20.57300 -6.29900 45.12200
C  20.95000 -7.59600 45.66000
C  22.29900 -7.46900 46.21100
C  19.31100 -5.85500 44.43000
C  19.97800 -8.82200 45.66900
O  18.75000 -8.80500 45.37000
C  20.44000 -10.14500 46.15300
N  25.31200 -7.24800 47.13800
C  24.47300 -8.36100 47.18500
C  25.24700 -9.49000 47.84300
C  26.63600 -8.91300 48.31400
C  26.53000 -7.52600 47.69500
C  24.43300 -10.26300 49.00000
C  27.91400 -9.71500 47.93100
C  28.85400 -9.85200 49.14800
N  26.77900 -5.10300 46.07100
C  27.82200 -5.50000 46.90500
C  28.97900 -4.67800 46.73800
C  28.63500 -3.77800 45.68900
C  27.29100 -4.11900 45.31900
C  30.38200 -4.88500 47.33500
C  29.14300 -2.66600 44.91800
O  30.16700 -2.07100 44.91800
C  27.90700 -2.29500 43.95600
C  27.63200 -0.84800 44.16700
O  27.01800 -0.33000 45.07300
O  28.14600 -0.13600 43.16700
C  28.32800 1.27900 43.50700
H  21.18100 -4.14000 43.71900
H  22.81000 -9.47500 46.95100
H  28.47900 -6.94300 48.32900
H  24.95000 -1.30000 42.85600
H  22.73100 -2.78000 42.11900
H  23.16300 -0.24700 43.34100
H  22.46300 -1.16800 44.65400
H  21.67100 -0.92900 43.08800
H  24.79200 -3.41900 40.96400
H  26.34900 -3.37600 41.67900
H  26.96000 -1.54700 40.37900
H  25.69700 -0.63400 40.89500
H  18.36200 -6.38900 44.39300
H  19.50000 -5.78000 43.35900
H  19.07100 -4.84300 44.75900
H  19.64500 -10.88800 46.08400
H  20.74100 -10.00600 47.19100
H  21.25400 -10.37400 45.46500
H  25.53600 -10.25400 47.12100
H  26.58900 -8.75900 49.39200
H  24.17900 -11.28900 48.73600
H  23.49100 -9.72400 49.10600
H  25.01600 -10.14200 49.91400
H  28.46600 -9.26400 47.10700
H  27.83500 -10.77400 47.68600
H  29.72200 -9.21800 48.96900
H  29.16000 -10.89700 49.21600
H  28.42900 -9.52700 50.09800
H  30.86100 -5.85400 47.19400
H  30.18400 -4.70300 48.39100
H  30.95200 -4.14100 46.77700
H  28.28600 -2.39600 42.93900
H  29.33200 1.60400 43.23400
H  28.35800 1.49000 44.57700
H  27.55200 1.90800 43.07000
Mg 10.19100 47.51400 25.83000
C  8.30600 47.33600 28.63900
C  12.75500 48.96800 27.53700
C  11.94900 47.58700 22.93100
C  7.29400 46.69400 23.88900
N  10.61600 47.76200 27.93900
C  9.62400 47.68300 28.90800
C  10.20300 48.23400 30.24900
C  11.42300 49.10300 29.71500
C  11.62100 48.65800 28.30500
C  11.31600 50.66300 29.68100
C  10.64800 47.14800 31.26800
C  9.96900 47.44100 32.63900
H  9.78600 46.21200 33.55700
N  12.10500 48.16700 25.26500
C  13.03800 48.66700 26.12700
C  14.27300 48.89100 25.48300
C  14.05200 48.46700 24.09900
C  12.66400 48.04600 24.01900
C  15.60800 49.22100 26.22800
C  14.99400 48.34900 22.96200
O  14.67800 48.01000 21.84500
C  16.41500 48.74800 23.18200
N  9.70800 47.29500 23.80000
C  10.65000 47.23100 22.84500
C  10.09000 46.73900 21.53300
C  8.68500 46.32800 21.88100
C  8.52200 46.81200 23.29100
C  10.09800 47.71200 20.37700
C  8.37800 44.76300 21.68200
C  8.77400 43.76100 22.80200
N  8.15800 47.02500 26.14900
C  7.11200 46.86400 25.25400
C  5.89000 46.94000 26.05200
C  6.34600 47.00300 27.37400
C  7.69800 47.07400 27.36100
C  4.52600 46.69000 25.47300
C  5.86600 46.88700 28.71400
O  4.77200 46.62500 29.11000
C  7.14800 47.09500 29.63600
C  7.18700 45.82400 30.48300
O  7.70600 44.75300 30.23600
O  6.42400 46.02200 31.64100
C  6.14200 44.84700 32.54100
H  13.52400 49.53500 28.06400
H  12.55400 47.35600 22.05200
H  6.48300 46.42600 23.20900
H  9.43700 48.93200 30.58700
H  12.33800 48.75000 30.19200
H  10.44000 51.04900 30.20300
H  11.31200 51.04500 28.66000
H  12.19900 51.10200 30.14500
H  11.72200 47.32800 31.29200
H  10.47100 46.14600 30.87700
H  8.94300 47.78800 32.51300
H  10.54100 48.18800 33.19000
H  15.49500 49.11400 27.30700
H  16.20600 50.09400 25.96600
H  16.32100 48.40400 26.11200
H  16.95700 48.04300 23.81200
H  16.42400 49.69800 23.71800
H  16.92800 48.82200 22.22300
H  10.71400 45.86800 21.33300
H  7.94200 46.88100 21.30500
H  10.41700 48.74300 20.52700
H  9.24500 47.52200 19.72600
H  10.85700 47.34900 19.68500
H  9.02400 44.35800 20.90300
H  7.35900 44.73600 21.29400
H  8.73600 44.17800 23.80800
H  9.78000 43.38600 22.61300
H  8.24400 42.80800 22.78600
H  4.49900 47.44700 24.69000
H  3.69700 46.72700 26.17900
H  4.55900 45.68600 25.05200
H  6.90000 47.89600 30.33200
H  7.03600 44.72400 33.15200
H  5.94900 43.94200 31.96500
H  5.22500 45.04900 33.09600

