158

Mg 1.52800 -1.71300 42.61700
C  4.80400 -0.87600 42.06500
C  0.55100 1.15100 40.98600
C  -1.75900 -2.78000 42.62600
C  2.50800 -4.93200 43.74000
N  2.62400 -0.15800 41.50300
C  3.92900 0.11700 41.59900
C  4.32000 1.42100 40.95100
C  2.89200 2.18400 40.87900
C  1.95700 0.97600 41.17600
C  2.76200 3.26400 41.98500
C  4.73100 0.98600 39.52400
C  6.11600 1.46400 39.04900
H  6.21300 2.35500 37.85600
N  -0.29600 -0.97900 41.89600
C  -0.50900 0.28700 41.28900
C  -1.89700 0.52100 41.04600
C  -2.57000 -0.69500 41.44000
C  -1.49300 -1.61500 42.02600
C  -2.40600 1.79100 40.38600
C  -4.08600 -0.88000 41.29000
O  -4.76600 0.08500 40.87000
C  -4.77400 -2.12000 41.59000
N  0.53800 -3.54200 43.05600
C  -0.84400 -3.70600 43.07800
C  -1.28700 -5.12500 43.42800
C  0.07300 -5.80500 43.76100
C  1.11400 -4.65000 43.62400
C  -2.40800 -5.36900 44.44500
C  0.39600 -7.02000 42.87000
C  -0.14100 -8.32400 43.42800
N  3.29600 -2.72700 42.91800
C  3.53300 -4.01600 43.37400
C  4.94000 -4.22400 43.42100
C  5.52900 -2.90500 43.03800
C  4.47200 -2.12100 42.64100
C  5.63500 -5.46400 43.90800
C  6.77200 -2.20000 42.77500
O  7.95400 -2.43300 42.95000
C  6.30600 -0.79900 42.20000
C  6.70500 0.37600 43.01500
O  6.05400 0.86500 43.92000
O  7.85900 0.88400 42.55000
C  8.49100 1.89500 43.32200
H  0.37000 2.16600 40.62400
H  -2.82100 -3.02800 42.68000
H  2.76800 -5.91600 44.13500
H  5.12300 1.83200 41.56300
H  2.65400 2.75300 39.98000
H  3.76000 3.55600 42.31100
H  2.35700 2.67600 42.80800
H  2.17200 4.11700 41.65100
H  4.04000 1.53600 38.88600
H  4.69900 -0.08100 39.30400
H  6.62300 0.51100 38.89700
H  6.54700 2.03600 39.87000
H  -2.78600 2.52100 41.10100
H  -3.11800 1.66800 39.57000
H  -1.55100 2.26200 39.90200
H  -5.80200 -1.99900 41.24700
H  -4.82400 -2.13700 42.67900
H  -4.23400 -2.92800 41.09700
H  -1.64400 -5.44800 42.45000
H  0.04500 -6.16700 44.78900
H  -3.34600 -5.61500 43.94700
H  -2.42200 -4.48000 45.07600
H  -2.21300 -6.24900 45.05700
H  1.42600 -7.25000 42.59800
H  -0.11200 -6.93400 41.90900
H  -1.12800 -8.12900 43.84800
H  0.51300 -8.70800 44.21100
H  -0.15400 -9.11400 42.67800
H  5.11500 -6.38700 43.65300
H  5.54200 -5.39300 44.99200
H  6.70900 -5.37600 43.74300
H  6.69800 -0.63600 41.19600
H  9.40000 2.20100 42.80400
H  8.73500 1.52300 44.31600
H  7.99300 2.84200 43.52700
Mg -5.40900 25.94000 26.46500
C  -4.27000 27.56100 29.24800
C  -7.28400 23.89500 28.39200
C  -6.28800 24.13600 23.63400
C  -3.32600 27.96900 24.45900
N  -5.69700 25.79400 28.55200
C  -5.19700 26.55600 29.55500
C  -5.74300 26.14800 30.90900
C  -6.46000 24.83200 30.60400
C  -6.42100 24.76000 29.09100
C  -5.89800 23.57400 31.24700
C  -6.66700 27.20900 31.50500
C  -6.72000 27.36000 33.03100
H  -6.22400 26.26600 33.93300
N  -6.68000 24.37000 26.05500
C  -7.33900 23.66400 26.98600
C  -8.20700 22.65400 26.35500
C  -7.93100 22.72600 24.95400
C  -6.84800 23.74900 24.80600
C  -9.17200 21.75000 27.20200
C  -8.46100 21.87100 23.80800
O  -8.11900 22.08000 22.68400
C  -9.48300 20.89600 24.07900
N  -4.78100 25.98900 24.36300
C  -5.31800 25.16400 23.37900
C  -4.79500 25.54900 21.97600
C  -4.14400 26.95600 22.17400
C  -4.09900 27.03000 23.76400
C  -3.85800 24.48600 21.32000
C  -4.83000 28.15300 21.39500
C  -3.86500 29.12500 20.63900
N  -4.05700 27.45500 26.73800
C  -3.25300 28.23300 25.84400
C  -2.51600 29.19900 26.62900
C  -2.95500 29.03300 27.94500
C  -3.84400 27.95900 27.97300
C  -1.52300 30.23700 26.09900
C  -2.74800 29.53100 29.28000
O  -2.02300 30.43700 29.71000
C  -3.56400 28.59400 30.22200
C  -2.65700 27.80100 31.13700
O  -2.05800 26.80000 30.84200
O  -2.63000 28.35300 32.43800
C  -1.72300 27.84900 33.47100
H  -7.93100 23.27200 29.01400
H  -6.52100 23.76200 22.63500
H  -2.75500 28.64600 23.82000
H  -4.92800 25.98800 31.61500
H  -7.48200 24.90100 30.97600
H  -5.16600 23.77900 32.02800
H  -5.49100 22.88600 30.50600
H  -6.63300 23.04300 31.85200
H  -7.66100 26.99300 31.11200
H  -6.32400 28.15600 31.08900
H  -7.77800 27.55700 33.20000
H  -6.17900 28.28900 33.21200
H  -10.20200 22.10800 27.19800
H  -8.79100 21.66500 28.22000
H  -9.19300 20.76600 26.73400
H  -9.15800 19.96800 24.54800
H  -9.90900 20.64500 23.10800
H  -10.27600 21.27100 24.72600
H  -5.71000 25.72200 21.41000
H  -3.12600 26.91800 21.78600
H  -2.83100 24.72300 21.04100
H  -4.40200 24.03400 20.49100
H  -3.69700 23.72800 22.08500
H  -5.42700 28.78200 22.05500
H  -5.53500 27.70000 20.69800
H  -4.24800 30.14500 20.59500
H  -3.55000 28.81100 19.64400
H  -2.96500 29.32800 21.21800
H  -0.97600 30.01000 25.18400
H  -0.86300 30.45400 26.93900
H  -1.97700 31.15500 25.72600
H  -4.16800 29.20500 30.89300
H  -0.81500 27.42700 33.04100
H  -2.17600 27.18800 34.20900
H  -1.29600 28.67900 34.03300

