158

Mg 42.91500 42.21100 25.75800
C  42.07500 44.58200 28.36800
C  43.76500 40.02300 28.29100
C  43.94000 40.12600 23.32900
C  42.31300 44.63200 23.45100
N  42.87400 42.29400 28.13000
C  42.41600 43.32500 28.90600
C  42.49200 42.90700 30.41700
C  43.13800 41.50700 30.34300
C  43.25100 41.20800 28.81200
C  44.47100 41.29000 31.08600
C  41.11400 42.96700 30.99600
C  40.85500 42.27400 32.36100
H  41.25800 43.09200 33.59700
N  43.76500 40.33200 25.78600
C  44.01200 39.57900 26.97700
C  44.46800 38.23900 26.55400
C  44.56700 38.24800 25.08200
C  44.08900 39.59800 24.67600
C  45.00100 37.15700 27.38400
C  44.93700 37.11600 24.13500
O  45.19600 37.31800 23.01800
C  45.16800 35.73100 24.63600
N  43.07900 42.45300 23.71000
C  43.43000 41.35500 22.91000
C  43.28800 41.73300 21.45100
C  42.52200 42.98700 21.51300
C  42.56100 43.38600 23.00200
C  44.66600 41.86000 20.70700
C  41.05600 42.88200 20.95600
C  40.00900 42.34200 22.06000
N  42.50100 44.29100 25.84500
C  42.21300 45.06600 24.79500
C  41.84000 46.37300 25.27100
C  41.70300 46.18900 26.62900
C  42.06900 44.90700 26.95900
C  41.51500 47.45800 24.35200
C  41.29900 46.80400 27.83900
O  40.88800 47.93700 28.06700
C  41.54100 45.80200 29.09500
C  42.58100 46.41200 29.95600
O  43.64400 46.82800 29.49900
O  42.10400 46.62500 31.23200
C  42.95500 47.51700 32.03600
H  44.12400 39.31900 29.04500
H  44.27300 39.46500 22.52600
H  41.94800 45.41500 22.78300
H  43.01800 43.65600 31.00900
H  42.42300 40.80100 30.76600
H  45.23600 41.30800 30.31000
H  44.36100 40.31900 31.57000
H  44.66800 42.17300 31.69300
H  40.41100 42.45300 30.34000
H  40.69600 43.94500 31.23400
H  41.34100 41.30300 32.45700
H  39.78400 42.08800 32.44900
H  45.25100 37.58300 28.35600
H  45.99900 36.81300 27.11200
H  44.41600 36.24500 27.49700
H  44.99200 34.97100 23.87500
H  44.31500 35.50400 25.27600
H  46.16200 35.62700 25.07100
H  42.71500 41.02800 20.84900
H  42.92100 43.76500 20.86100
H  45.36600 41.17300 21.18300
H  45.09500 42.85600 20.81400
H  44.59700 41.65900 19.63800
H  41.01600 42.19300 20.11200
H  40.78300 43.86600 20.57500
H  40.55800 41.66000 22.70900
H  39.31400 41.62800 21.61600
H  39.38600 43.06300 22.58800
H  42.41200 47.80100 23.83600
H  41.17500 48.33600 24.90000
H  40.74800 47.24800 23.60700
H  40.57800 45.58700 29.55700
H  43.47300 46.84500 32.72100
H  42.34700 48.22500 32.60000
H  43.75800 47.94000 31.43300
Mg -12.24400 16.04700 41.32900
C  -9.17800 14.29600 40.96400
C  -10.96600 18.62600 39.39200
C  -15.39900 17.24300 41.10700
C  -13.53300 12.96900 42.57800
N  -10.35900 16.39500 40.35200
C  -9.23400 15.55400 40.32800
C  -8.01200 16.31200 39.70800
C  -8.60100 17.69500 39.33600
C  -10.07700 17.56100 39.66000
C  -7.94100 18.90800 40.06800
C  -7.63300 15.53900 38.41300
C  -6.13800 15.15700 38.35600
H  -5.38100 15.73400 37.19400
N  -13.11000 17.76000 40.37400
C  -12.36600 18.68500 39.68000
C  -13.24600 19.73100 39.29900
C  -14.56300 19.42300 39.83300
C  -14.42400 18.09800 40.47500
C  -12.86900 20.99800 38.48000
C  -15.84100 20.36200 39.66700
O  -15.79600 21.46900 39.17200
C  -17.25100 20.00100 40.18500
N  -14.19900 15.15500 41.65700
C  -15.24600 15.90400 41.62200
C  -16.51200 15.08500 42.02500
C  -15.90800 13.88400 42.81700
C  -14.46600 13.96200 42.31500
C  -17.66100 15.88900 42.66700
C  -16.69300 12.57300 42.68000
C  -17.22900 11.99300 44.05300
N  -11.48100 14.05300 41.80000
C  -12.15500 12.88200 42.36000
C  -11.21500 11.89700 42.64400
C  -9.98600 12.45400 42.18700
C  -10.27900 13.70400 41.58500
C  -11.33600 10.61000 43.42600
C  -8.53200 12.19200 42.09200
O  -7.83600 11.24900 42.57100
C  -7.95500 13.38700 41.22200
C  -6.93200 14.14100 42.00400
O  -7.00000 14.45400 43.15600
O  -5.80300 14.20900 41.28000
C  -4.58700 14.66200 41.93800
H  -10.49500 19.53600 39.01600
H  -16.39100 17.69800 41.06400
H  -13.97500 12.15600 43.15700
H  -7.14100 16.43800 40.35100
H  -8.71700 17.88200 38.26900
H  -7.04700 18.54700 40.57700
H  -8.62300 19.27400 40.83600
H  -7.73100 19.63700 39.28500
H  -7.86600 16.13400 37.53000
H  -8.25500 14.67400 38.18200
H  -6.16100 14.06700 38.37100
H  -5.62200 15.42500 39.27800
H  -13.19100 21.88000 39.03400
H  -13.34300 21.02200 37.49900
H  -11.80400 21.12800 38.28900
H  -17.24000 19.81200 41.25800
H  -17.71200 19.28100 39.50900
H  -17.92800 20.85200 40.11500
H  -16.84500 14.62500 41.09400
H  -15.88200 14.26900 43.83600
H  -17.91100 15.36800 43.59200
H  -18.57200 15.89700 42.06900
H  -17.40500 16.92800 42.87000
H  -16.11200 11.78900 42.19400
H  -17.51700 12.82000 42.01100
H  -18.28300 12.21700 43.89000
H  -16.77300 12.43700 44.93900
H  -17.04500 10.91900 44.06200
H  -10.31500 10.31200 43.65900
H  -11.66900 9.76700 42.82000
H  -11.98500 10.71600 44.29500
H  -7.43100 13.03100 40.33500
H  -3.77700 14.01400 41.60400
H  -4.64800 14.58500 43.02300
H  -4.43900 15.70100 41.64300

