158

Mg 25.46100 1.00400 30.04100
C  27.73700 1.11100 32.88400
C  22.90600 1.69000 32.17600
C  23.34200 0.48800 27.54300
C  28.09300 0.15900 27.97100
N  25.39800 1.47300 32.27500
C  26.37800 1.48200 33.20300
C  25.81200 1.84800 34.64600
C  24.25900 1.88000 34.40400
C  24.18300 1.60900 32.86600
C  23.38500 0.97100 35.28800
C  26.33000 3.17200 35.29300
C  27.19600 3.17500 36.51000
H  26.97400 4.17500 37.65300
N  23.45200 1.08400 29.91000
C  22.56800 1.37500 30.90200
C  21.20400 1.25000 30.42400
C  21.31600 0.85900 29.04100
C  22.74700 0.73800 28.81000
C  20.05100 1.72700 31.36600
C  20.18100 0.80400 28.01800
O  20.42200 0.60000 26.81600
C  18.69500 0.95900 28.47400
N  25.64800 0.46400 28.05600
C  24.66400 0.42400 27.20000
C  25.18500 0.31500 25.72500
C  26.72600 0.18100 25.84600
C  26.84900 0.30200 27.39500
C  24.47200 -0.74600 24.83200
C  27.74200 1.22900 25.15800
C  27.74100 2.68500 25.60300
N  27.50200 0.70200 30.30300
C  28.43800 0.38500 29.36700
C  29.79000 0.50100 29.96800
C  29.54800 0.70800 31.33700
C  28.15700 0.80400 31.49500
C  31.04700 0.25600 29.19900
C  30.15900 0.88400 32.62400
O  31.36400 0.92600 32.85600
C  29.00100 1.14000 33.71400
C  28.93200 0.15700 34.81700
O  28.27900 -0.90000 34.80100
O  29.74900 0.65200 35.86600
C  29.64700 0.03100 37.21500
H  22.10800 1.96100 32.87000
H  22.60200 0.40000 26.74500
H  29.02000 -0.20900 27.52600
H  25.92100 1.01400 35.34000
H  23.81300 2.87400 34.44800
H  22.58100 1.53100 35.76500
H  23.95900 0.48600 36.07800
H  22.90200 0.23200 34.65000
H  25.48300 3.83400 35.47600
H  26.87300 3.67700 34.49400
H  28.21200 3.31400 36.14100
H  27.15200 2.15700 36.89700
H  19.22300 1.02600 31.26600
H  19.74200 2.68700 30.95200
H  20.25600 1.73600 32.43700
H  18.07800 1.11200 27.58800
H  18.80400 1.88200 29.04400
H  18.33900 0.07200 28.99800
H  24.92300 1.27100 25.27100
H  27.10600 -0.83400 25.73200
H  25.09800 -1.63700 24.88000
H  24.31400 -0.42800 23.80100
H  23.45100 -0.87300 25.19200
H  27.45900 1.17700 24.10700
H  28.75300 0.84300 25.29000
H  27.16900 2.89700 26.50700
H  27.45400 3.33100 24.77300
H  28.77500 2.91400 25.86000
H  31.19400 -0.82200 29.12100
H  31.90500 0.59700 29.77800
H  31.12400 0.51000 28.14200
H  29.19900 2.11200 34.16600
H  30.60300 -0.12600 37.71500
H  29.29400 -0.99300 37.09500
H  28.89900 0.49600 37.85800
Mg 6.00400 54.09200 40.75400
C  5.40500 50.77700 40.19200
C  9.25800 53.70400 39.69500
C  6.33800 57.43600 40.77300
C  2.62900 54.45100 41.79800
N  7.12300 52.44900 39.80900
C  6.72600 51.17700 39.81500
C  7.86900 50.28500 39.19400
C  9.12600 51.15000 39.58500
C  8.46300 52.52600 39.68700
C  9.85300 50.78600 40.91300
C  7.65500 50.16100 37.65400
C  7.75500 48.85600 36.94000
H  6.75000 48.62200 35.79300
N  7.55300 55.38200 40.21400
C  8.78100 55.02200 39.81700
C  9.59800 56.21600 39.55700
C  8.77600 57.33700 39.86200
C  7.49400 56.76900 40.26200
C  11.06800 56.13300 39.17200
C  9.20000 58.81600 39.87600
O  10.30000 59.13300 39.42700
C  8.36700 59.96500 40.24000
N  4.63500 55.66400 41.09300
C  5.02800 56.97800 41.07800
C  3.91100 57.93100 41.57800
C  2.75100 56.97700 41.86600
C  3.33000 55.63800 41.52500
C  4.43400 58.91700 42.73900
C  1.29500 57.29200 41.14600
C  0.20200 58.03700 41.98600
N  4.20700 52.91300 40.97500
C  3.02100 53.12900 41.56500
C  2.32000 51.87700 41.62900
C  3.18100 50.98900 41.10000
C  4.36000 51.61300 40.76200
C  0.97800 51.57800 42.36600
C  3.32900 49.55700 40.83200
O  2.53200 48.66600 41.06800
C  4.85700 49.37000 40.35900
C  4.93800 48.50500 39.10900
O  4.11300 48.31400 38.17400
O  5.87700 47.49000 39.46000
C  5.64600 46.14600 39.00800
H  10.31200 53.43300 39.61200
H  6.46500 58.51900 40.82600
H  1.59600 54.55700 42.13600
H  7.73800 49.32100 39.68600
H  9.79500 51.20100 38.72600
H  9.33400 50.00100 41.46300
H  10.05500 51.56600 41.64700
H  10.82400 50.40100 40.60100
H  8.51600 50.63200 37.18100
H  6.74500 50.63700 37.28900
H  7.65300 48.07300 37.69200
H  8.73600 48.73400 36.48100
H  11.69200 55.30700 39.51400
H  11.67900 57.01400 39.36700
H  10.97900 56.15700 38.08600
H  8.95700 60.87700 40.32800
H  8.18400 59.81900 41.30500
H  7.57200 60.00100 39.49600
H  3.67900 58.64900 40.79200
H  2.56900 57.00000 42.94000
H  3.76100 58.75700 43.58200
H  4.28000 59.97700 42.53600
H  5.48200 58.72700 42.96700
H  0.98700 56.27000 40.92200
H  1.52000 57.73600 40.17700
H  0.26100 57.88100 43.06400
H  -0.78900 57.70100 41.68000
H  0.28000 59.12200 41.90800
H  0.90700 50.61000 42.86200
H  0.11400 51.82500 41.75000
H  0.84200 52.17100 43.27100
H  5.25300 48.83900 41.22500
H  4.71200 45.82200 39.46700
H  6.45500 45.53600 39.40900
H  5.48100 46.10000 37.93100

