158

Mg 47.37000 16.16800 28.19200
C  45.22700 16.16100 31.09900
C  49.57300 18.01300 30.09100
C  48.98500 16.73500 25.34300
C  44.76100 14.73100 26.50000
N  47.28900 17.06900 30.23500
C  46.44700 16.79100 31.27100
C  47.00900 17.16800 32.64400
C  48.35200 17.88800 32.31900
C  48.43000 17.68800 30.75200
C  48.48100 19.30200 32.82300
C  47.15600 16.00600 33.66500
C  46.51300 16.17500 35.11200
H  46.18600 17.54700 35.58200
N  49.13400 17.07200 27.80100
C  49.89000 17.76600 28.69800
C  51.03100 18.39300 28.04300
C  50.90600 17.95500 26.64100
C  49.69100 17.15500 26.56300
C  52.01800 19.26500 28.66100
C  51.84000 18.23800 25.48900
O  51.60600 18.01500 24.30900
C  53.17200 18.77600 25.78100
N  47.01700 15.71700 26.20000
C  47.74500 16.13200 25.13500
C  47.11100 15.68000 23.82100
C  45.95300 14.72600 24.28400
C  45.90200 15.06100 25.76000
C  46.63300 16.81200 22.91500
C  46.16300 13.18700 23.90900
C  45.21800 12.57300 22.88000
N  45.39500 15.47500 28.65500
C  44.54900 14.87900 27.86200
C  43.36500 14.40300 28.69100
C  43.56200 14.88400 29.94700
C  44.84600 15.48500 29.89100
C  42.11500 13.78300 28.26300
C  43.08200 14.98200 31.33800
O  42.12800 14.48500 31.89600
C  44.14700 15.84300 32.13800
C  43.45700 16.95800 32.81100
O  43.34200 18.11300 32.37600
O  42.86200 16.44200 33.94800
C  41.93200 17.36900 34.62500
H  50.37700 18.45600 30.68200
H  49.47700 17.02000 24.41100
H  44.10000 14.04800 25.96200
H  46.29400 17.91700 32.98700
H  49.21600 17.39200 32.76300
H  49.27600 19.35900 33.56700
H  47.50200 19.60800 33.19100
H  48.76000 19.96800 32.00700
H  48.23200 15.91100 33.81100
H  46.76000 15.11700 33.17400
H  47.30700 15.76600 35.73600
H  45.72200 15.42500 35.12100
H  52.21400 20.24900 28.23400
H  52.98600 18.76600 28.62300
H  51.83900 19.47800 29.71500
H  53.04000 19.62000 26.45800
H  53.58400 19.10100 24.82600
H  53.88100 18.01600 26.11000
H  47.92300 15.25200 23.23400
H  45.08900 15.10900 23.74100
H  45.75200 16.68200 22.28700
H  47.28100 16.80400 22.03900
H  46.55800 17.74700 23.47100
H  46.08500 12.52700 24.77300
H  47.14000 13.07500 23.43800
H  44.32600 13.17900 22.71700
H  44.74000 11.67800 23.27900
H  45.64200 12.27600 21.92100
H  41.86600 14.14600 27.26600
H  41.28100 14.10800 28.88400
H  42.26100 12.70300 28.25000
H  44.45100 15.11600 32.89200
H  42.16400 17.45900 35.68600
H  40.90700 17.02400 34.48600
H  41.85300 18.32800 34.11300
Mg 48.76400 44.59200 43.24600
C  45.59600 44.93600 42.23000
C  48.83200 41.30700 42.03100
C  52.14600 44.82000 42.91700
C  48.80500 48.16500 43.76800
N  47.41600 43.27300 42.27700
C  46.13600 43.63000 41.99500
C  45.35900 42.50600 41.25200
C  46.26000 41.30000 41.66400
C  47.60900 41.98800 41.96100
C  45.77400 40.30300 42.79400
C  45.29900 42.70000 39.74000
C  43.88300 42.34600 39.11000
H  43.86700 41.47700 37.73000
N  50.23600 43.20300 42.72200
C  50.05800 41.88400 42.29700
C  51.32600 41.28300 42.13500
C  52.34100 42.26700 42.47400
C  51.59800 43.51400 42.70300
C  51.53900 39.71500 41.84500
C  53.86300 41.97000 42.47600
O  54.27700 40.86400 42.17400
C  54.74800 43.07100 42.97000
N  50.28000 46.30900 43.26400
C  51.61200 46.08100 43.25500
C  52.38300 47.37400 43.43000
C  51.31600 48.38500 43.73800
C  50.04200 47.58600 43.63800
C  53.42900 47.17100 44.51300
C  51.28100 49.50000 42.67000
C  51.09800 50.98200 43.17000
N  47.49300 46.17100 43.34300
C  47.56700 47.50500 43.58100
C  46.26200 48.14200 43.33500
C  45.45400 47.16000 42.78500
C  46.27900 45.99300 42.86800
C  46.05800 49.64200 43.53400
C  44.16100 46.97500 42.14200
O  43.24200 47.76200 41.87200
C  44.20100 45.40200 41.92200
C  43.15400 44.74900 42.77500
O  42.35600 43.93000 42.34400
O  43.08300 45.32300 44.05000
C  41.91500 44.90600 44.78800
H  48.85300 40.28700 41.64200
H  53.23100 44.86500 42.80500
H  48.87800 49.21800 44.04600
H  44.34500 42.43900 41.64600
H  46.57000 40.73900 40.78200
H  46.38700 40.36300 43.69400
H  46.00300 39.27600 42.50700
H  44.73200 40.44200 43.08200
H  46.11800 42.16400 39.26200
H  45.39900 43.76500 39.52900
H  43.45400 43.32400 38.89300
H  43.20900 42.00100 39.89400
H  52.40600 39.59000 41.19600
H  50.70400 39.18800 41.38500
H  51.71200 39.20000 42.79000
H  55.66400 42.61600 43.34600
H  54.21500 43.45700 43.83900
H  54.99500 43.74400 42.14900
H  52.82100 47.43700 42.43500
H  51.35600 48.83000 44.73200
H  53.56100 46.14200 44.84500
H  53.22300 47.84100 45.34800
H  54.36500 47.38900 43.99900
H  50.38200 49.26900 42.09900
H  52.21100 49.37200 42.11600
H  51.18700 51.05500 44.25400
H  50.12800 51.43300 42.96100
H  51.88300 51.57700 42.70300
H  45.88400 49.85100 44.59000
H  45.16000 49.93700 42.99200
H  46.87900 50.23700 43.13600
H  44.01700 45.25400 40.85800
H  40.96200 45.36600 44.52600
H  41.92700 44.98400 45.87500
H  41.72400 43.83900 44.66900

