158

Mg 9.33900 4.05400 27.36400
C  10.40600 2.66900 30.41900
C  7.35100 6.28500 29.12900
C  7.69200 4.96000 24.50900
C  10.66400 1.32900 25.68600
N  8.80300 4.30100 29.48000
C  9.46700 3.74200 30.54800
C  9.04000 4.28200 31.81300
C  8.03900 5.49000 31.42700
C  8.11600 5.41100 29.91300
C  6.67600 5.32500 32.08500
C  10.22800 4.69300 32.70300
C  10.45200 4.34700 34.22100
H  10.42700 5.36700 35.37600
N  7.89300 5.53200 26.91000
C  7.24100 6.35500 27.74400
C  6.44200 7.31700 26.95500
C  6.58300 7.00100 25.58200
C  7.37300 5.75900 25.60000
C  5.57300 8.34500 27.56800
C  5.97400 7.65300 24.42600
O  5.90700 7.19700 23.29700
C  5.47100 9.08600 24.60400
N  8.98500 3.07600 25.32500
C  8.36900 3.70900 24.33600
C  8.42800 2.92600 22.96800
C  9.51300 1.82400 23.37700
C  9.80200 2.13800 24.88500
C  7.01900 2.36300 22.55000
C  10.73900 1.74500 22.37800
C  10.29100 0.92200 21.16100
N  10.45400 2.48700 27.85300
C  10.89100 1.41800 27.08700
C  11.61700 0.52200 27.90400
C  11.50700 0.98700 29.22800
C  10.74400 2.18900 29.13200
C  12.35900 -0.71800 27.54100
C  11.87300 0.69000 30.57400
O  12.48200 -0.29800 30.95700
C  11.23100 1.82000 31.40400
C  10.50500 1.25700 32.51900
O  9.33900 0.95500 32.46100
O  11.30700 1.01200 33.61800
C  10.63500 0.30000 34.74800
H  6.76100 7.05200 29.63600
H  7.32000 5.41800 23.59000
H  11.06000 0.50200 25.09400
H  8.61500 3.46000 32.38800
H  8.51300 6.37600 31.84800
H  6.40600 6.13900 32.75800
H  6.58100 4.43800 32.71200
H  5.93300 5.26700 31.28900
H  10.13300 5.76700 32.86600
H  11.16400 4.53400 32.16700
H  11.39800 3.82300 34.36200
H  9.64700 3.65700 34.47200
H  5.87800 9.38800 27.48200
H  5.55500 8.07100 28.62300
H  4.57600 8.29000 27.13200
H  5.21600 9.46100 23.61300
H  6.33500 9.60300 25.02100
H  4.58500 9.13600 25.23700
H  8.87300 3.54800 22.19100
H  8.94600 0.90300 23.51100
H  7.00500 1.33200 22.19400
H  6.54100 3.08500 21.88900
H  6.46200 2.27900 23.48300
H  11.59500 1.27500 22.86400
H  11.09400 2.73200 22.08300
H  10.73300 1.22700 20.21200
H  9.22600 0.81800 20.95400
H  10.65700 -0.09000 21.33200
H  13.44800 -0.72900 27.58100
H  12.05500 -1.07400 26.55700
H  12.10300 -1.45000 28.30700
H  11.88600 2.49200 31.95700
H  9.90700 0.97200 35.20400
H  11.23900 -0.17700 35.52000
H  10.16900 -0.63700 34.44400
Mg 24.45500 -6.77500 47.95500
C  26.87700 -4.30300 47.12200
C  22.43800 -5.55800 45.33900
C  22.41400 -9.30500 48.60100
C  27.05400 -8.47300 49.79300
N  24.73600 -5.21700 46.28600
C  25.75700 -4.29600 46.26900
C  25.45600 -3.32700 45.16600
C  23.93200 -3.59200 44.73200
C  23.70900 -4.91700 45.48000
C  22.97100 -2.48900 45.06300
C  26.48200 -3.50400 44.00500
C  27.20600 -2.24600 43.50000
H  26.86400 -1.71600 42.11300
N  22.65900 -7.33300 47.22700
C  22.00100 -6.70900 46.12200
C  20.71500 -7.34500 46.08400
C  20.61500 -8.43800 46.97700
C  21.88500 -8.38200 47.70800
C  19.65700 -6.88200 45.07400
C  19.39800 -9.39400 47.13300
O  18.38500 -9.18200 46.45700
C  19.46800 -10.66300 47.99000
N  24.84200 -8.81600 48.77800
C  23.69900 -9.48600 49.15000
C  23.98100 -10.57200 50.21400
C  25.50300 -10.49100 50.38800
C  25.85500 -9.19600 49.62500
C  23.18000 -10.24100 51.49600
C  26.27300 -11.67700 49.88200
C  26.96800 -12.60900 50.88600
N  26.50400 -6.45900 48.49800
C  27.40600 -7.24300 49.28600
C  28.65100 -6.49700 49.40400
C  28.46800 -5.34600 48.66000
C  27.13600 -5.35300 48.10900
C  29.88700 -6.77400 50.26600
C  29.05800 -3.97600 48.28200
O  30.06800 -3.35500 48.63600
C  28.04000 -3.35800 47.24700
C  27.59600 -1.98700 47.75900
O  27.32100 -1.77200 48.94300
O  27.51800 -1.03000 46.76400
C  27.08600 0.24500 47.32000
H  21.72700 -5.24900 44.57000
H  21.69900 -10.03700 48.98200
H  27.88300 -8.85700 50.39300
H  25.59900 -2.32200 45.56400
H  23.81300 -3.68000 43.65200
H  23.38300 -1.59300 45.52800
H  22.15100 -2.90300 45.64800
H  22.60200 -2.07100 44.12600
H  25.95700 -3.92600 43.14900
H  27.22900 -4.28300 44.15800
H  28.28600 -2.39500 43.50100
H  27.01200 -1.35800 44.10200
H  19.82000 -5.82500 44.86500
H  18.69600 -7.03200 45.56600
H  19.67600 -7.41200 44.12200
H  20.42400 -11.11500 47.72500
H  18.59800 -11.28500 47.78100
H  19.55500 -10.38200 49.04000
H  23.71100 -11.53100 49.77200
H  25.63600 -10.24800 51.44300
H  22.52100 -9.38800 51.33600
H  23.75500 -10.23100 52.42300
H  22.48400 -11.07700 51.56000
H  27.01800 -11.23000 49.22400
H  25.69000 -12.42400 49.34300
H  26.24000 -13.38600 51.12100
H  27.16300 -12.05900 51.80700
H  27.85900 -13.15500 50.57800
H  30.78200 -6.68000 49.65100
H  29.99300 -7.79300 50.63900
H  30.04800 -6.08800 51.09800
H  28.40400 -3.28700 46.22200
H  26.56500 0.30800 48.27500
H  26.39900 0.62300 46.56300
H  27.90800 0.95400 47.41700

