158

Mg 47.28000 17.26100 28.26500
C  45.43600 16.82000 31.36500
C  49.58900 18.99400 30.14800
C  48.97000 17.74500 25.36300
C  44.62000 15.84400 26.61900
N  47.49000 17.68600 30.53800
C  46.68600 17.44900 31.55000
C  47.17100 18.08400 32.89200
C  48.32800 18.95900 32.38600
C  48.44200 18.62200 30.93200
C  48.08000 20.46800 32.54600
C  47.74600 16.93500 33.86800
C  47.42800 17.28900 35.33300
H  47.31600 18.75200 35.76500
N  49.01400 18.31500 27.80800
C  49.85300 18.90200 28.74900
C  51.06900 19.32200 28.05600
C  50.91700 18.95700 26.64800
C  49.60000 18.34200 26.53000
C  52.30200 19.83500 28.79100
C  51.83900 19.14300 25.46000
O  51.49000 18.82700 24.35000
C  53.20900 19.68200 25.63400
N  46.81300 16.92700 26.27900
C  47.66200 17.15800 25.27200
C  46.94100 16.96000 23.92200
C  45.63500 16.13700 24.28500
C  45.66200 16.31600 25.80500
C  46.78700 18.22200 23.07700
C  45.72600 14.56900 23.91100
C  45.05100 14.19600 22.59900
N  45.43600 16.44700 28.77500
C  44.52600 15.86100 27.98300
C  43.47400 15.38100 28.77400
C  43.81200 15.66700 30.18000
C  44.97700 16.42300 30.05000
C  42.24700 14.63300 28.21300
C  43.38800 15.56400 31.52600
O  42.42300 14.96500 31.97800
C  44.44500 16.33300 32.37000
C  43.83400 17.43300 33.12700
O  43.30600 18.47200 32.68700
O  43.80100 16.98600 34.39500
C  43.22800 17.95600 35.32200
H  50.29600 19.58200 30.73700
H  49.45100 17.89000 24.39300
H  43.75000 15.35900 26.17000
H  46.38300 18.58100 33.45800
H  49.24300 18.80600 32.95900
H  47.22500 20.63800 33.20100
H  47.84500 20.86700 31.55900
H  48.94400 20.92400 33.02800
H  48.83100 16.99300 33.78400
H  47.29900 16.02200 33.47400
H  48.28700 16.89000 35.87400
H  46.52300 16.74900 35.61300
H  52.11900 20.90100 28.92900
H  53.25200 19.64500 28.29100
H  52.34800 19.39900 29.78900
H  53.68000 19.82400 24.66100
H  53.96700 18.99300 26.00600
H  53.27700 20.64600 26.13700
H  47.58200 16.40700 23.23500
H  44.74000 16.62500 23.90000
H  47.45900 18.10500 22.22600
H  46.99600 19.16700 23.57700
H  45.73000 18.35100 22.84400
H  45.58500 13.84300 24.71100
H  46.79500 14.53300 23.69800
H  45.79700 13.80700 21.90600
H  44.57000 15.08900 22.19700
H  44.23400 13.49000 22.74500
H  41.58200 14.54000 29.07100
H  42.41000 13.64900 27.77400
H  41.69900 15.18800 27.45200
H  44.89800 15.58800 33.02500
H  43.58500 18.96000 35.09200
H  43.50500 17.77600 36.36100
H  42.13900 18.00400 35.31800
Mg 17.50000 51.88300 26.09800
C  19.34100 50.57400 28.77200
C  14.87200 52.54200 28.37100
C  15.68000 53.16400 23.57800
C  19.86800 50.80600 23.94000
N  17.20900 51.62600 28.30000
C  18.14700 51.21900 29.21300
C  17.64600 51.42000 30.65300
C  16.18100 51.79400 30.49100
C  16.09500 52.12000 28.97600
C  15.29100 50.56600 30.77300
C  18.48900 52.57500 31.35600
C  18.76800 52.44400 32.87500
H  17.76600 51.72300 33.74500
N  15.60500 52.88400 26.03100
C  14.66800 52.96100 27.01800
C  13.44700 53.52500 26.43300
C  13.75300 53.97100 25.15300
C  15.08500 53.34000 24.83200
C  12.25800 53.96600 27.40400
C  12.89500 54.83900 24.26600
O  13.32900 55.25400 23.20500
C  11.51700 55.32200 24.65200
N  17.76400 52.04100 24.00800
C  16.87300 52.62500 23.14300
C  17.40100 52.53100 21.69700
C  18.84100 51.97500 21.92400
C  18.80000 51.57400 23.38400
C  16.45900 51.66300 20.74100
C  19.96900 52.91100 21.63100
C  21.13100 52.29500 20.76600
N  19.21900 50.80000 26.22600
C  20.10900 50.40600 25.25400
C  21.18000 49.69800 25.87400
C  20.95100 49.71700 27.23900
C  19.74100 50.44200 27.45500
C  22.34800 49.00600 25.20800
C  21.52700 49.41800 28.57900
O  22.54600 48.75800 28.78100
C  20.47600 49.91900 29.63900
C  19.92200 48.77200 30.40600
O  19.25800 47.86100 29.93100
O  20.15300 48.98200 31.74500
C  19.62400 47.95300 32.63400
H  14.09700 52.80700 29.09300
H  14.94100 53.54900 22.87200
H  20.65500 50.45400 23.26900
H  17.72400 50.45500 31.15400
H  15.84000 52.68000 31.02800
H  15.88600 49.65500 30.83600
H  14.47100 50.48800 30.05900
H  14.85400 50.76300 31.75200
H  17.98200 53.53600 31.28100
H  19.45500 52.65600 30.85700
H  18.95700 53.44300 33.26700
H  19.70200 51.88300 32.88800
H  12.51700 54.98700 27.68400
H  12.25800 53.36500 28.31400
H  11.28000 53.87900 26.93200
H  11.38400 55.69500 25.66800
H  10.77100 54.57100 24.39200
H  11.34100 56.19300 24.02100
H  17.49600 53.51600 21.23900
H  18.86600 51.03200 21.37700
H  16.21800 52.33900 19.92100
H  15.59600 51.42300 21.36200
H  16.97700 50.75200 20.44000
H  20.42600 53.33700 22.52300
H  19.54300 53.78900 21.14600
H  21.16500 52.64900 19.73500
H  21.02600 51.21300 20.69000
H  22.05300 52.49700 21.31200
H  22.33200 47.94000 25.43200
H  23.18000 49.49400 25.71500
H  22.32500 49.15700 24.12800
H  20.88800 50.67800 30.30400
H  20.56000 47.39600 32.66900
H  18.83800 47.37400 32.14900
H  19.47300 48.31000 33.65300

