158

Mg 48.02300 36.12800 28.31500
C  46.03800 34.73400 30.84800
C  48.79500 38.69700 30.56100
C  49.79800 37.61100 25.95000
C  47.25000 33.36600 26.30600
N  47.54200 36.55900 30.54500
C  46.70600 35.82200 31.36700
C  46.73500 36.33300 32.84400
C  47.26200 37.79100 32.57500
C  47.95900 37.70400 31.19500
C  46.07000 38.78600 32.45100
C  47.67400 35.48900 33.83900
C  48.85600 36.06500 34.71400
H  48.50400 36.64200 36.04000
N  49.08000 37.92400 28.26400
C  49.28200 38.83500 29.29600
C  50.09000 39.90500 28.76900
C  50.39100 39.58800 27.47800
C  49.77300 38.32200 27.19500
C  50.67700 41.09200 29.67800
C  51.25600 40.43200 26.51200
O  51.73700 39.96200 25.51300
C  51.63300 41.80900 26.84700
N  48.39700 35.64300 26.36200
C  49.28500 36.34900 25.57900
C  49.43200 35.70400 24.18700
C  48.89000 34.28200 24.38800
C  48.20400 34.33800 25.79600
C  48.84100 36.61800 23.08300
C  49.93200 33.14600 24.38300
C  50.81700 32.95000 23.21800
N  46.74400 34.49600 28.39200
C  46.61200 33.39100 27.57300
C  45.72600 32.38500 28.13200
C  45.41500 32.89600 29.39200
C  46.10800 34.12600 29.52500
C  45.33600 31.07000 27.45300
C  44.72800 32.61100 30.66900
O  44.04100 31.65900 30.98300
C  45.02400 33.86800 31.56200
C  45.20300 33.49100 32.91600
O  46.00600 32.74600 33.35300
O  44.26200 34.07500 33.69500
C  44.05200 33.65900 35.12000
H  49.00200 39.48900 31.28400
H  50.45700 38.04000 25.19200
H  47.31200 32.42800 25.75100
H  45.71000 36.37600 33.21400
H  47.97700 38.07800 33.34700
H  45.91600 39.34600 33.37300
H  45.15200 38.23900 32.23500
H  46.39600 39.55200 31.74700
H  47.95400 34.61400 33.25300
H  46.91400 35.21500 34.57200
H  49.35500 36.86700 34.17100
H  49.59700 35.26800 34.76900
H  51.75900 41.22400 29.64700
H  50.52000 40.93300 30.74500
H  50.21400 42.03100 29.37500
H  50.72500 42.26700 27.23900
H  51.95500 42.35000 25.95700
H  52.45200 41.76000 27.56400
H  50.51000 35.58300 24.07600
H  48.10400 34.01000 23.68300
H  48.07000 36.04700 22.56600
H  49.66700 36.87200 22.41800
H  48.43800 37.50700 23.56800
H  49.43000 32.19300 24.55400
H  50.48500 33.34600 25.30100
H  51.84700 32.95500 23.57300
H  50.87400 33.79600 22.53300
H  50.72300 31.97500 22.73900
H  44.34300 31.07600 27.00300
H  45.64100 30.23600 28.08600
H  46.06700 30.98900 26.64900
H  44.08700 34.40700 31.41900
H  43.47800 32.73400 35.18100
H  43.42700 34.39600 35.62400
H  44.97500 33.57100 35.69300
Mg -5.84500 24.37000 25.51200
C  -4.35400 25.77000 28.47100
C  -7.64900 22.32700 27.58900
C  -6.76500 22.79700 22.80800
C  -3.72400 26.55300 23.60700
N  -6.10000 24.30500 27.76800
C  -5.42400 24.93400 28.70500
C  -5.84700 24.50800 30.17000
C  -6.76100 23.27900 29.90500
C  -6.87400 23.26800 28.31800
C  -6.30900 21.87800 30.41000
C  -6.49900 25.65500 30.93400
C  -6.10400 25.69700 32.40500
H  -5.57600 24.39600 33.02600
N  -7.05500 22.83700 25.21300
C  -7.78900 22.13900 26.18800
C  -8.71100 21.25200 25.50300
C  -8.27000 21.21100 24.14700
C  -7.32900 22.31500 24.02500
C  -9.78500 20.46800 26.29900
C  -8.90000 20.46200 23.00300
O  -8.53500 20.52200 21.83400
C  -10.00500 19.49700 23.26500
N  -5.39100 24.73700 23.54500
C  -5.89000 23.81300 22.62500
C  -5.21500 24.05900 21.26800
C  -4.36300 25.40200 21.37300
C  -4.49600 25.61300 22.94400
C  -4.50800 22.96600 20.45200
C  -4.91700 26.68600 20.58700
C  -4.03200 27.47000 19.56100
N  -4.44000 25.93900 25.89600
C  -3.60700 26.70600 25.01500
C  -2.63100 27.46000 25.73900
C  -2.85400 27.11600 27.09600
C  -4.00700 26.27400 27.14800
C  -1.60900 28.28300 25.20100
C  -2.24800 27.23000 28.39000
O  -1.20900 27.79200 28.71400
C  -3.32700 26.47800 29.40300
C  -2.48600 25.67200 30.38400
O  -1.84500 24.69100 30.03100
O  -2.58100 26.11100 31.67200
C  -1.61400 25.47400 32.57100
H  -8.21700 21.74800 28.32100
H  -6.97400 22.22100 21.90400
H  -3.09400 27.19600 22.98900
H  -4.97500 24.04400 30.63200
H  -7.79000 23.53600 30.15800
H  -5.47000 22.05100 31.08400
H  -6.00500 21.22800 29.59000
H  -7.10200 21.46300 31.03200
H  -7.58600 25.58200 30.92300
H  -6.18800 26.51400 30.34000
H  -6.90100 26.20800 32.94600
H  -5.22800 26.34500 32.40700
H  -9.33500 19.59800 26.77800
H  -10.60600 20.04400 25.72200
H  -10.17300 21.09600 27.10100
H  -9.68400 18.86900 24.09700
H  -10.27200 18.90600 22.38900
H  -10.79700 20.15100 23.63100
H  -6.08000 24.36700 20.68000
H  -3.31200 25.25900 21.12100
H  -4.30100 22.13000 21.12000
H  -3.51300 23.23400 20.09500
H  -5.13200 22.70100 19.59900
H  -5.34600 27.40100 21.28900
H  -5.79200 26.37600 20.01700
H  -4.31900 27.29500 18.52400
H  -2.99600 27.15700 19.69000
H  -4.04000 28.55500 19.66600
H  -0.82200 28.43200 25.94100
H  -1.99800 29.28700 25.02900
H  -1.23600 27.94400 24.23500
H  -3.94200 27.11800 30.03600
H  -1.60500 24.38500 32.51600
H  -1.91600 25.73600 33.58500
H  -0.60800 25.76600 32.26900

