158

Mg 8.51600 3.76900 27.97000
C  9.53900 2.10100 30.87400
C  6.58100 5.83000 29.88000
C  7.04500 4.84200 25.19200
C  9.87100 1.04100 26.13500
N  8.03800 3.87700 30.11700
C  8.66600 3.12600 31.17200
C  8.32800 3.64500 32.56500
C  7.20500 4.67600 32.15400
C  7.18000 4.78500 30.62900
C  5.85000 4.26100 32.79200
C  9.56700 4.29300 33.38700
C  9.81500 3.61000 34.72700
H  9.94600 4.55800 35.92100
N  7.17700 5.28000 27.62000
C  6.53500 6.06900 28.52100
C  5.70700 7.03300 27.82100
C  5.87500 6.75800 26.42000
C  6.76300 5.56600 26.35300
C  4.95400 8.14200 28.54700
C  5.15200 7.44800 25.33100
O  5.29900 7.13500 24.15100
C  4.30900 8.57400 25.56800
N  8.40200 3.00000 26.01900
C  7.77200 3.71300 25.01900
C  8.06100 3.12100 23.65200
C  8.95400 1.91300 23.99400
C  9.05200 1.95300 25.50100
C  6.71000 2.90800 22.82200
C  10.36700 2.11900 23.27700
C  10.84900 0.80300 22.68100
N  9.64400 2.04900 28.31400
C  10.22500 1.06500 27.45800
C  11.13400 0.23500 28.20900
C  10.86700 0.60300 29.53600
C  9.94500 1.65200 29.58200
C  11.89400 -0.90500 27.69100
C  11.18600 0.27900 30.91500
O  11.96100 -0.54800 31.36400
C  10.32700 1.22700 31.79500
C  9.56300 0.35600 32.66900
O  8.54100 -0.22600 32.42700
O  10.11300 0.39500 33.99100
C  9.41300 -0.19300 35.15900
H  5.98400 6.45500 30.54800
H  6.70400 5.35700 24.29200
H  10.25300 0.27700 25.45400
H  7.86100 2.80700 33.08200
H  7.43900 5.67500 32.52300
H  6.15400 3.99000 33.80300
H  5.39000 3.38800 32.32900
H  5.12100 5.07100 32.79600
H  9.53300 5.38100 33.44900
H  10.38500 4.13200 32.68500
H  10.76700 3.07800 34.73300
H  9.00500 2.93200 34.99300
H  5.26800 8.19400 29.59000
H  3.88700 7.92900 28.48500
H  5.02100 9.11300 28.05600
H  3.98700 8.91100 24.58300
H  4.81400 9.40800 26.05600
H  3.44000 8.29300 26.16300
H  8.56200 3.89500 23.07000
H  8.53600 0.92700 23.79100
H  6.68400 3.65800 22.03100
H  5.85600 2.96600 23.49700
H  6.66900 1.88800 22.43900
H  11.12100 2.28200 24.04700
H  10.30600 2.84100 22.46200
H  11.92700 0.83500 22.52400
H  10.48000 0.72100 21.65800
H  10.50400 -0.07300 23.23000
H  11.89600 -1.10500 26.61900
H  11.50300 -1.85100 28.06600
H  12.93000 -0.79100 28.01000
H  11.14700 1.59000 32.41400
H  8.71700 -1.00600 34.95000
H  8.90300 0.68400 35.55800
H  10.06700 -0.47000 35.98500
Mg 40.50500 9.68300 29.26200
C  42.45300 11.14800 31.90800
C  38.46200 8.41500 31.56000
C  38.96100 8.34900 26.77200
C  43.17800 10.68100 27.07200
N  40.53400 9.71400 31.49200
C  41.26900 10.56900 32.36600
C  40.87700 10.35700 33.88300
C  39.64800 9.31400 33.69500
C  39.55100 9.03100 32.16200
C  39.67900 8.08800 34.65800
C  40.55000 11.64700 34.68100
C  41.12700 11.69600 36.08800
H  40.41200 12.48300 37.20000
N  38.90100 8.54100 29.16200
C  38.04000 8.19300 30.22300
C  36.97100 7.42700 29.74600
C  37.14600 7.37300 28.34400
C  38.36600 8.06900 28.01600
C  35.96400 6.79800 30.68300
C  36.26200 6.62400 27.36000
O  36.68300 6.30100 26.28300
C  34.78600 6.32900 27.75300
N  41.12800 9.28100 27.21800
C  40.17200 8.86600 26.38600
C  40.55800 9.04600 24.88700
C  41.90900 9.83400 25.02800
C  42.08600 9.94600 26.53500
C  40.60200 7.65100 24.16100
C  41.79800 11.23300 24.25800
C  41.42900 12.57000 24.98800
N  42.37900 10.71500 29.34800
C  43.37400 10.96300 28.42200
C  44.54500 11.62400 29.06400
C  44.13700 11.76200 30.39300
C  42.82400 11.17400 30.53300
C  45.84300 12.00900 28.45800
C  44.58000 12.21400 31.68100
O  45.63100 12.79800 32.06500
C  43.51000 11.85500 32.73700
C  44.12300 10.89200 33.68900
O  44.55100 9.78500 33.44300
O  44.31800 11.51300 34.88700
C  44.33100 10.57500 36.01000
H  37.78900 8.03600 32.33100
H  38.42900 7.93100 25.91500
H  43.87100 11.16500 26.38000
H  41.64900 9.90200 34.50300
H  38.67100 9.76900 33.86000
H  39.90100 7.28200 33.95900
H  38.75500 7.75900 35.13300
H  40.52400 8.16900 35.34200
H  39.50900 11.96700 34.67600
H  40.95200 12.49300 34.12300
H  42.07600 12.23300 36.09800
H  41.36500 10.69600 36.45100
H  34.96000 7.16300 30.46600
H  36.07700 6.94600 31.75700
H  35.92400 5.72500 30.49600
H  34.19700 6.06500 26.87400
H  34.32400 7.22200 28.17400
H  34.70400 5.53800 28.49800
H  39.76700 9.61700 24.40200
H  42.82400 9.36200 24.67200
H  41.58600 7.51400 23.71200
H  39.83500 7.77100 23.39600
H  40.32900 6.92900 24.93000
H  41.14900 11.13900 23.38800
H  42.74200 11.45800 23.76200
H  42.34000 13.14300 25.16500
H  40.92500 12.48000 25.95000
H  40.75800 13.19000 24.39400
H  45.84100 11.89500 27.37500
H  46.64400 11.36300 28.81800
H  45.93800 13.07000 28.69300
H  43.22300 12.75300 33.28300
H  43.45900 9.92200 36.06200
H  44.15900 11.17600 36.90300
H  45.23000 9.95900 36.02500

