158

Mg 26.71200 50.02800 26.27000
C  24.90000 51.36300 28.77400
C  28.92600 48.87200 28.82600
C  28.70200 48.83800 23.93200
C  24.83300 51.59500 23.85500
N  26.96100 50.31900 28.52400
C  25.95600 50.71700 29.32000
C  26.15900 50.40900 30.82100
C  27.58000 49.80000 30.73400
C  27.87500 49.68300 29.26600
C  28.75900 50.39600 31.54400
C  25.12500 49.43800 31.49700
C  24.40900 49.88900 32.83200
H  24.65500 49.23500 34.19500
N  28.51400 48.90500 26.38900
C  29.24000 48.44700 27.50000
C  30.41200 47.76000 26.99400
C  30.37300 47.79000 25.57200
C  29.10400 48.50400 25.21000
C  31.37200 47.13600 28.01600
C  31.38300 47.14000 24.56500
O  31.43100 47.32200 23.37000
C  32.43200 46.27900 25.19000
N  26.80300 50.22900 24.16200
C  27.65800 49.58300 23.44000
C  27.24000 49.64000 21.85000
C  25.97700 50.46400 21.91600
C  25.81700 50.77600 23.39800
C  28.23900 50.37500 20.94500
C  24.62900 49.75400 21.36700
C  24.85100 48.94100 20.06600
N  25.21600 51.32900 26.26400
C  24.47400 51.88100 25.22300
C  23.33900 52.59300 25.82600
C  23.36600 52.28300 27.17900
C  24.55500 51.57000 27.39700
C  22.19100 53.37000 25.07900
C  22.81100 52.51200 28.41100
O  21.82600 53.18700 28.64900
C  23.70500 51.94000 29.53500
C  24.09700 52.92200 30.52900
O  24.81300 53.87200 30.41300
O  23.31800 52.69700 31.63800
C  23.28800 53.72000 32.69000
H  29.47900 48.41400 29.64900
H  29.32000 48.37200 23.16200
H  24.17800 52.17200 23.19900
H  26.21500 51.33500 31.39400
H  27.51400 48.74000 30.98000
H  29.53500 50.73300 30.85600
H  29.34400 49.62400 32.04300
H  28.44900 51.21500 32.19400
H  25.52800 48.45100 31.72600
H  24.36400 49.31500 30.72700
H  23.32100 49.88600 32.76500
H  24.58900 50.93500 33.07700
H  32.39800 47.40600 27.76600
H  31.28500 46.05800 28.14900
H  31.32000 47.62900 28.98700
H  31.92600 45.54100 25.81200
H  33.07800 46.93000 25.78000
H  32.97400 45.66500 24.47100
H  27.08300 48.61400 21.51700
H  26.04500 51.45500 21.46700
H  27.91000 51.26700 20.41300
H  28.66900 49.66200 20.24100
H  29.08700 50.58000 21.59800
H  23.97200 50.62400 21.34800
H  24.24500 49.09600 22.14700
H  24.10400 49.28200 19.35000
H  24.61300 47.88500 20.20000
H  25.85400 49.15000 19.69700
H  21.56000 53.93000 25.77000
H  21.75800 52.74400 24.29900
H  22.60500 54.08000 24.36200
H  22.98500 51.29300 30.03600
H  23.67700 54.68800 32.37200
H  23.75000 53.36200 33.61000
H  22.25100 53.80100 33.01800
Mg -2.66900 34.31300 26.44500
C  -4.46200 33.09200 29.12100
C  -1.80300 37.09400 28.29200
C  -1.04800 35.61100 23.69900
C  -3.79300 31.76400 24.48200
N  -3.13900 34.94100 28.46500
C  -3.70700 34.17000 29.44700
C  -3.49500 34.78100 30.85100
C  -2.99400 36.25400 30.48000
C  -2.53600 36.10500 28.92400
C  -3.99800 37.47500 30.67000
C  -2.46700 33.94200 31.65100
C  -2.51200 34.46100 33.17700
H  -2.72400 33.34400 34.25100
N  -1.60200 36.12900 26.10300
C  -1.45100 37.13800 26.93200
C  -0.73300 38.19800 26.31400
C  -0.43700 37.81700 25.00200
C  -1.05800 36.44300 24.89100
C  -0.37900 39.47100 27.06400
C  0.27200 38.50400 23.88100
O  0.22800 38.02500 22.75700
C  0.94400 39.91400 24.06000
N  -2.55100 33.89000 24.31600
C  -1.73500 34.46700 23.43300
C  -1.72700 33.71500 22.12600
C  -2.56400 32.47900 22.37100
C  -3.01500 32.72600 23.83200
C  -2.27400 34.59000 20.99500
C  -1.73500 31.19900 22.19300
C  -2.49900 30.02600 21.52400
N  -4.06900 32.81800 26.62900
C  -4.33500 31.84700 25.80500
C  -5.22800 30.90800 26.41700
C  -5.33200 31.36300 27.71400
C  -4.56200 32.53100 27.82000
C  -5.94600 29.77800 25.80200
C  -5.87900 31.09300 29.02600
O  -6.59900 30.16300 29.41400
C  -5.28400 32.18400 29.94300
C  -6.44800 32.96800 30.51800
O  -6.91700 33.98600 30.07700
O  -6.95400 32.34800 31.64700
C  -7.88300 33.08300 32.55800
H  -1.47300 37.98100 28.83600
H  -0.35600 35.85800 22.89100
H  -4.05200 30.90600 23.85700
H  -4.47400 34.80800 31.32900
H  -2.13300 36.51500 31.09500
H  -4.80100 37.25700 31.37500
H  -4.20000 37.80900 29.65300
H  -3.42600 38.26800 31.15200
H  -1.52900 33.96300 31.09700
H  -2.76600 32.89400 31.63000
H  -3.27700 35.22300 33.32600
H  -1.58900 34.98500 33.42600
H  -0.84800 39.69300 28.02200
H  -0.48600 40.28000 26.34100
H  0.68300 39.42100 27.30100
H  1.65600 39.80300 24.87800
H  0.06900 40.52800 24.27200
H  1.29100 40.25200 23.08400
H  -0.69300 33.41900 21.94800
H  -3.50500 32.45400 21.82200
H  -3.04200 35.21900 21.44500
H  -2.80100 34.00500 20.24100
H  -1.47900 35.15500 20.51000
H  -1.31800 30.88300 23.14900
H  -0.94900 31.35300 21.45400
H  -3.38800 30.44600 21.05400
H  -2.89800 29.31100 22.24300
H  -1.88100 29.51300 20.78700
H  -6.30100 29.95500 24.78700
H  -6.81400 29.49600 26.39900
H  -5.20600 28.98300 25.70100
H  -4.80300 31.65200 30.76400
H  -8.88300 33.28800 32.17800
H  -7.51000 34.10100 32.67400
H  -7.94100 32.53400 33.49800

