158

Mg 8.43400 3.59700 27.32400
C  9.58400 2.26700 30.36000
C  6.50600 5.72600 29.01600
C  7.12300 4.35700 24.40800
C  10.05300 0.73500 25.69900
N  8.06100 3.94100 29.42100
C  8.82500 3.40700 30.47500
C  8.34600 4.00600 31.79900
C  7.22500 5.00900 31.42800
C  7.25200 4.91900 29.87300
C  5.84600 4.58200 31.94900
C  9.43400 4.63900 32.61300
C  9.16600 4.77100 34.11600
H  10.38900 4.88100 35.09800
N  7.21100 4.98400 26.77500
C  6.47400 5.76800 27.59600
C  5.74900 6.67600 26.79900
C  5.85300 6.29700 25.48600
C  6.77400 5.17000 25.48200
C  4.95600 7.76900 27.50300
C  5.21100 6.87800 24.32600
O  5.45700 6.42000 23.20500
C  4.40400 8.07200 24.41900
N  8.76100 2.74700 25.32600
C  8.11300 3.31600 24.28500
C  8.31700 2.49700 22.98300
C  9.19600 1.30400 23.34800
C  9.36700 1.61500 24.87000
C  6.97900 2.13800 22.27900
C  10.61900 1.15200 22.66400
C  10.68900 0.10700 21.53000
N  9.67700 1.94100 27.84000
C  10.28400 0.91000 27.08900
C  11.12300 0.05900 27.94200
C  10.89300 0.59500 29.22800
C  10.00300 1.68300 29.11200
C  11.93900 -1.06600 27.32500
C  11.22600 0.45500 30.65200
O  11.92000 -0.31500 31.27200
C  10.40600 1.58300 31.48400
C  9.72900 0.89700 32.51300
O  8.84800 0.06200 32.24300
O  10.27900 1.16500 33.72300
C  9.72600 0.39600 34.84600
H  5.88700 6.47000 29.52300
H  6.91500 4.61600 23.36800
H  10.59400 -0.07200 25.20000
H  7.84700 3.18200 32.30900
H  7.46900 6.01800 31.75900
H  5.22800 4.10300 31.18900
H  5.22800 5.42300 32.26500
H  5.88700 3.93700 32.82600
H  9.49200 5.68200 32.30200
H  10.43300 4.26500 32.38900
H  8.66900 3.81600 34.28800
H  8.48400 5.57700 34.38900
H  4.93600 8.68200 26.91000
H  5.17300 7.94700 28.55700
H  3.93300 7.39100 27.50100
H  3.96000 8.27800 23.44500
H  5.08200 8.86900 24.72800
H  3.64700 7.79800 25.15400
H  8.72300 3.21600 22.27100
H  8.60000 0.39400 23.27900
H  6.11300 2.36500 22.90000
H  6.92000 1.05600 22.16800
H  6.96400 2.59100 21.28800
H  11.41600 0.90500 23.36600
H  10.82000 2.08900 22.14500
H  9.72000 -0.36800 21.37500
H  11.39500 -0.70000 21.72500
H  10.93600 0.61800 20.60000
H  12.70400 -1.49300 27.97300
H  12.40700 -0.62100 26.44700
H  11.24500 -1.87700 27.10100
H  11.20600 2.18500 31.91600
H  9.36200 -0.60700 34.62200
H  8.89100 0.84900 35.38200
H  10.48700 0.22100 35.60700
Mg -11.74300 38.25600 42.33500
C  -9.53000 35.61900 41.78700
C  -9.23100 40.34600 41.41100
C  -14.02300 40.66700 42.21500
C  -14.25700 35.89100 42.86300
N  -9.61600 37.99200 41.71000
C  -8.91100 36.82200 41.50600
C  -7.48900 37.08800 40.94400
C  -7.28900 38.56900 41.19400
C  -8.78500 39.06000 41.50400
C  -6.27200 39.17200 42.24600
C  -7.27800 36.55900 39.42200
C  -6.32700 35.30400 39.24900
H  -6.54500 34.35600 38.09800
N  -11.67200 40.25800 41.82900
C  -10.53400 40.95600 41.62600
C  -10.89200 42.37900 41.53200
C  -12.29300 42.51500 41.64900
C  -12.73000 41.12800 41.84800
C  -9.87900 43.48600 41.23200
C  -13.11200 43.85700 41.54500
O  -12.55500 44.97200 41.34100
C  -14.55800 43.79600 41.59500
N  -13.80600 38.30600 42.48800
C  -14.47400 39.42400 42.48800
C  -16.06000 39.17700 42.60700
C  -16.00700 37.64700 42.98700
C  -14.63300 37.27500 42.74000
C  -16.61300 40.07600 43.77700
C  -17.14900 36.85800 42.32300
C  -16.81900 36.23700 40.92100
N  -11.94500 36.14500 42.42400
C  -13.02000 35.31200 42.53300
C  -12.61900 33.92200 42.57300
C  -11.22400 33.98300 42.27800
C  -10.89500 35.37200 42.17800
C  -13.57800 32.80700 42.75500
C  -9.98500 33.26200 41.93900
O  -9.89600 32.02500 41.75300
C  -8.86000 34.24200 41.73900
C  -7.71200 34.13800 42.71200
O  -7.70600 34.75000 43.79700
O  -6.72000 33.39000 42.19600
C  -5.46200 33.22300 42.92100
H  -8.40100 41.05300 41.35400
H  -14.80800 41.42300 42.27100
H  -14.97500 35.16300 43.24600
H  -6.82600 36.59700 41.65500
H  -6.94400 38.95900 40.23700
H  -5.74800 38.43600 42.85500
H  -6.80000 39.85500 42.91300
H  -5.51200 39.74300 41.71200
H  -6.81200 37.31100 38.78600
H  -8.21100 36.28500 38.93000
H  -6.15300 34.78400 40.19100
H  -5.35700 35.78000 39.11100
H  -9.98900 43.66800 40.16300
H  -8.92600 43.07100 41.56000
H  -10.04900 44.35900 41.86200
H  -15.02000 43.04500 40.95500
H  -14.92300 44.78300 41.31200
H  -14.88200 43.70800 42.63200
H  -16.49600 39.36200 41.62600
H  -16.10100 37.56800 44.07000
H  -15.81500 40.64400 44.25500
H  -17.12100 39.59100 44.61200
H  -17.39400 40.74800 43.42100
H  -18.03500 37.49200 42.30000
H  -17.28300 36.01700 43.00300
H  -17.65900 36.36900 40.23900
H  -16.68700 35.16200 41.04500
H  -16.01500 36.72100 40.36700
H  -13.92600 32.70900 43.78300
H  -13.05300 31.90000 42.45700
H  -14.39700 32.94400 42.04800
H  -8.51600 34.01000 40.73000
H  -4.70400 32.95700 42.18400
H  -5.41900 32.55200 43.77800
H  -5.13400 34.19400 43.29300

