158

Mg 49.54700 34.74100 26.80900
C  47.44200 33.28200 29.28900
C  49.29500 37.65400 28.52300
C  51.05500 36.10800 24.28700
C  48.97600 31.86200 24.81400
N  48.60300 35.31400 28.86200
C  47.75400 34.55900 29.58800
C  47.25300 35.36300 30.85600
C  47.77400 36.86600 30.48100
C  48.60900 36.59900 29.22500
C  46.67800 37.89000 30.22000
C  47.76900 34.89700 32.24900
C  46.74100 34.98300 33.45300
H  47.26000 35.78500 34.63700
N  50.29700 36.46900 26.55900
C  50.10300 37.60000 27.34400
C  50.82700 38.77600 26.77900
C  51.49300 38.27200 25.59100
C  50.96700 36.89500 25.45900
C  50.91000 40.10900 27.45000
C  52.43900 38.98700 24.65600
O  52.69000 38.41500 23.60100
C  53.24100 40.25600 24.97300
N  49.98000 34.05500 24.86300
C  50.67300 34.80300 24.04000
C  50.98700 34.13500 22.68000
C  50.31100 32.75600 22.81800
C  49.68200 32.89200 24.22900
C  50.44800 35.03000 21.50600
C  51.20000 31.50900 22.50800
C  51.58200 31.27300 21.04500
N  48.57900 32.83000 26.97000
C  48.36800 31.76200 26.05200
C  47.61700 30.70200 26.66900
C  47.22500 31.28200 27.89700
C  47.80100 32.58300 28.04700
C  47.07800 29.31700 26.11600
C  46.32900 31.05200 29.04700
O  45.55600 30.13800 29.32000
C  46.46400 32.35700 29.99000
C  46.93500 31.81300 31.31800
O  48.07700 31.40900 31.53600
O  45.89000 31.74300 32.23100
C  46.22500 31.15700 33.58400
H  49.14000 38.66500 28.90600
H  51.63000 36.53900 23.46600
H  48.75000 30.98300 24.20600
H  46.16400 35.35300 30.81900
H  48.41600 37.30700 31.24300
H  46.87300 38.83800 30.72300
H  45.70000 37.68700 30.65600
H  46.60900 38.05900 29.14600
H  48.45400 35.61600 32.69800
H  48.17200 33.88500 32.21100
H  46.50800 34.03600 33.94000
H  45.80400 35.44500 33.14100
H  51.47300 40.02000 28.37900
H  49.89300 40.48800 27.54500
H  51.46000 40.85300 26.87300
H  52.76100 41.18300 24.65800
H  54.27000 40.22800 24.61600
H  53.36600 40.17100 26.05300
H  52.05900 33.94100 22.71900
H  49.49800 32.74000 22.09200
H  49.79000 34.44100 20.86600
H  51.23100 35.44600 20.87200
H  49.88600 35.80100 22.03300
H  50.66700 30.64900 22.91300
H  52.08800 31.68400 23.11600
H  51.04300 31.94600 20.37800
H  51.46800 30.25100 20.68500
H  52.63800 31.51400 20.92600
H  46.83600 28.63200 26.92900
H  47.97100 28.81600 25.74500
H  46.36400 29.39400 25.29600
H  45.50900 32.85900 30.14500
H  45.45600 31.04400 34.34900
H  46.90200 31.92500 33.95800
H  46.70100 30.19100 33.41900
Mg 26.20200 49.30100 26.38900
C  23.97100 50.68400 28.93400
C  28.29800 48.31700 28.95000
C  28.01700 47.92500 24.12900
C  23.97700 50.60100 24.04400
N  26.09400 49.55400 28.64000
C  25.06400 49.99200 29.45000
C  25.36700 49.86500 30.93400
C  26.80400 49.33300 30.94400
C  27.14800 49.04400 29.38700
C  27.90700 50.25400 31.65600
C  24.30100 48.91100 31.63100
C  24.02200 49.39800 33.04100
H  23.86300 48.31600 34.16100
N  27.99700 48.32900 26.47800
C  28.65500 47.91800 27.60600
C  29.84800 47.09900 27.17200
C  29.86700 47.22300 25.72400
C  28.56300 47.79200 25.39000
C  30.85600 46.60100 28.16200
C  30.91100 46.73500 24.70300
O  30.79700 46.77400 23.50100
C  32.13200 46.11100 25.19700
N  26.18500 49.45800 24.41400
C  26.88500 48.55000 23.70900
C  26.49600 48.42800 22.21200
C  25.32100 49.46800 22.21600
C  25.12500 49.85700 23.70400
C  27.44400 48.54000 20.98500
C  24.11600 48.96000 21.40900
C  23.00800 48.10100 22.12800
N  24.36000 50.40200 26.36900
C  23.62700 50.91300 25.35300
C  22.51700 51.65800 25.89100
C  22.59900 51.54000 27.24800
C  23.74500 50.79800 27.54100
C  21.47700 52.29400 25.09800
C  21.98500 52.05800 28.46400
O  21.10500 52.87400 28.60300
C  22.78300 51.42600 29.65300
C  23.05900 52.48500 30.62200
O  23.89900 53.38600 30.55200
O  22.38100 52.20700 31.78800
C  22.94400 52.90700 32.95700
H  28.98200 47.95400 29.72100
H  28.55000 47.37600 23.35000
H  23.23900 50.88200 23.29000
H  25.39200 50.84000 31.42000
H  26.80200 48.35300 31.42100
H  28.62800 50.46400 30.86700
H  28.30700 49.68100 32.49300
H  27.55700 51.20000 32.06900
H  24.63400 47.87900 31.74100
H  23.39000 48.94100 31.03300
H  23.08200 49.92700 32.88500
H  24.79800 50.08800 33.37200
H  30.70300 45.53000 28.29800
H  30.79500 47.16200 29.09400
H  31.87700 46.83200 27.85600
H  32.69200 45.93900 24.27800
H  31.83300 45.20600 25.72600
H  32.61100 46.90500 25.77100
H  26.07600 47.42500 22.14900
H  25.56600 50.44700 21.80400
H  28.50500 48.60300 21.22600
H  27.15500 49.46100 20.47900
H  27.15200 47.78300 20.25800
H  24.55400 48.41700 20.57100
H  23.60300 49.85400 21.05500
H  22.15800 48.78200 22.16600
H  23.24900 47.86500 23.16400
H  22.78900 47.17400 21.59700
H  21.21400 51.50300 24.39600
H  22.04100 53.12400 24.67200
H  20.62300 52.64400 25.67700
H  22.11900 50.76800 30.21300
H  23.98400 52.62200 33.11700
H  22.41800 52.53700 33.83700
H  22.68900 53.96500 32.91200

