158

Mg 36.43200 49.14800 25.59700
C  36.93300 47.30800 28.27600
C  34.98800 51.52200 27.52400
C  35.54900 50.84700 22.73300
C  37.67400 46.60800 23.45000
N  35.93000 49.30600 27.65800
C  36.23700 48.49300 28.66100
C  35.79800 48.93400 29.96000
C  35.03100 50.26400 29.72600
C  35.33100 50.36100 28.22900
C  33.52800 50.30700 30.09800
C  37.03700 49.06400 30.90600
C  36.69700 48.64400 32.34700
H  35.21100 48.80100 32.83000
N  35.40000 50.94000 25.21200
C  34.93700 51.80600 26.12000
C  34.31400 52.96100 25.50100
C  34.47200 52.78800 24.08800
C  35.12500 51.43500 23.91700
C  33.79100 54.13200 26.38200
C  34.08100 53.78300 22.99100
O  34.29100 53.45400 21.84700
C  33.51000 55.10700 23.27700
N  36.48900 48.74400 23.36900
C  36.13800 49.62200 22.46100
C  36.47800 49.17100 21.06900
C  37.22900 47.79100 21.28100
C  37.11400 47.67500 22.76800
C  35.31000 49.20700 20.03300
C  38.62000 47.76400 20.67900
C  39.73800 48.57400 21.41000
N  37.05500 47.17000 25.71900
C  37.61100 46.27900 24.81800
C  38.08700 45.10400 25.55500
C  37.81800 45.45300 26.96000
C  37.20100 46.68700 26.99200
C  38.74000 43.92800 25.03100
C  37.87700 45.05400 28.32600
O  38.30700 43.98500 28.73800
C  37.26300 46.17000 29.24500
C  36.07700 45.56400 29.93300
O  34.98100 45.53800 29.48600
O  36.48700 45.02700 31.15100
C  35.43200 44.70500 32.11400
H  34.51600 52.22500 28.21300
H  35.28200 51.33400 21.79300
H  38.09200 45.82000 22.82000
H  35.15700 48.21500 30.47000
H  35.62100 51.02700 30.23300
H  33.09000 49.46000 30.62600
H  32.87700 50.52000 29.25000
H  33.48800 51.17000 30.76300
H  37.41500 50.08500 30.87500
H  37.84900 48.45200 30.51300
H  37.33500 49.29100 32.94900
H  37.09100 47.62800 32.35700
H  32.74600 54.34100 26.15200
H  34.36600 55.01400 26.10000
H  33.87500 54.14600 27.46900
H  32.53100 54.86800 23.69400
H  33.38600 55.61500 22.32100
H  34.13700 55.70500 23.93800
H  37.18200 49.89900 20.66600
H  36.61900 47.03700 20.78400
H  34.45100 49.47300 20.64900
H  35.13000 48.30600 19.44600
H  35.55600 49.98900 19.31400
H  38.62600 48.29200 19.72500
H  39.09100 46.78100 20.67600
H  39.82300 48.44500 22.48900
H  39.70800 49.63200 21.15000
H  40.67500 48.21400 20.98400
H  39.67400 43.88300 25.59100
H  38.93100 44.07500 23.96800
H  38.07400 43.09000 25.23800
H  37.93700 46.36500 30.07900
H  35.98600 44.45800 33.02000
H  34.95600 43.75900 31.85700
H  34.65300 45.42000 32.38000
Mg 27.35800 49.73400 26.91700
C  25.49000 50.92800 29.62600
C  29.93800 49.16600 29.03600
C  29.57600 49.33900 24.30600
C  25.01600 51.10600 24.81600
N  27.69500 50.15700 29.10200
C  26.71300 50.30200 30.00000
C  27.19900 50.18300 31.40800
C  28.64300 49.61400 31.28000
C  28.76400 49.64100 29.70800
C  29.81600 50.31300 32.06100
C  26.17900 49.46700 32.44200
C  25.80400 50.31700 33.64500
H  26.48300 50.03400 34.93000
N  29.30800 49.05500 26.71900
C  30.19500 48.93100 27.72600
C  31.40500 48.36000 27.26200
C  31.35200 48.38700 25.87000
C  30.03400 48.95600 25.55100
C  32.53300 47.82400 28.01400
C  32.42100 48.05000 24.88400
O  32.32100 48.29800 23.69300
C  33.72400 47.42200 25.28300
N  27.40400 50.26100 24.83000
C  28.33400 49.91600 23.93600
C  27.83500 50.08600 22.50800
C  26.32500 50.27300 22.70600
C  26.19300 50.64800 24.19200
C  28.57500 51.22900 21.78600
C  25.36200 49.20000 22.22000
C  24.02200 49.69200 21.60000
N  25.58500 50.72400 27.08900
C  24.71600 51.21600 26.14600
C  23.55800 51.80800 26.76000
C  23.75300 51.71900 28.17000
C  25.03500 51.05700 28.28400
C  22.42100 52.45300 26.08500
C  23.25400 51.96400 29.54600
O  22.19300 52.42100 29.94400
C  24.36300 51.45300 30.51000
C  24.78700 52.70200 31.23000
O  25.85000 53.29200 31.04300
O  23.88800 53.09900 32.22400
C  24.42300 54.03500 33.15200
H  30.69900 48.81600 29.73700
H  30.27200 49.15200 23.48600
H  24.19100 51.46800 24.20000
H  27.35100 51.17800 31.82500
H  28.71200 48.55200 31.51700
H  30.52500 50.74100 31.35200
H  30.27400 49.52100 32.65400
H  29.47100 51.06600 32.76900
H  26.64500 48.54100 32.78100
H  25.22400 49.17300 32.00600
H  24.76800 50.02600 33.81600
H  26.00200 51.38100 33.51200
H  32.31100 47.57200 29.05100
H  33.40900 48.47000 28.07700
H  32.84600 46.88200 27.56300
H  33.55100 46.42800 25.69600
H  34.17400 48.10600 26.00300
H  34.29500 47.38400 24.35500
H  28.05100 49.16400 21.97000
H  26.07300 51.27100 22.34800
H  28.98200 50.97600 20.80700
H  29.42400 51.61300 22.35100
H  27.94700 52.11400 21.68100
H  24.94500 48.70200 23.09600
H  25.67700 48.26700 21.75100
H  24.23200 49.99900 20.57500
H  23.67000 50.58600 22.11500
H  23.22600 48.95800 21.72300
H  21.86700 51.81800 25.39400
H  22.87800 53.29000 25.55600
H  21.81900 52.77500 26.93400
H  23.92800 50.72300 31.19200
H  24.87000 53.35600 33.87800
H  23.63100 54.66100 33.56300
H  25.19900 54.74600 32.86900

