158

Mg 40.98400 9.35400 30.07100
C  43.06300 10.42600 32.48100
C  38.67900 8.24200 32.48600
C  39.00800 7.95300 27.69700
C  43.54700 9.68100 27.70100
N  40.98500 9.19900 32.32600
C  41.89700 9.91500 33.02300
C  41.43300 9.93400 34.45000
C  40.13900 8.97000 34.43700
C  39.85800 8.91600 32.99800
C  40.23200 7.58200 35.12400
C  41.08700 11.37000 34.97200
C  40.64000 11.36900 36.40500
H  41.30800 12.37500 37.45600
N  39.02800 8.39500 30.10600
C  38.28200 7.99600 31.17200
C  36.97000 7.56900 30.73300
C  37.03900 7.43500 29.31700
C  38.39700 7.88600 28.98500
C  35.86700 7.15900 31.67200
C  35.97800 7.05900 28.29000
O  36.09300 7.10700 27.00900
C  34.71400 6.45400 28.81000
N  41.27700 8.70300 28.00000
C  40.32800 8.25200 27.24100
C  40.82900 8.12700 25.75400
C  42.15300 8.84600 25.79200
C  42.37600 9.08600 27.25900
C  40.85000 6.71300 25.19700
C  42.15400 10.25100 24.97900
C  41.67300 11.51200 25.66000
N  42.93300 9.91100 30.00900
C  43.87400 10.07700 29.03400
C  45.06400 10.72900 29.53900
C  44.75800 10.95800 30.93700
C  43.48600 10.37500 31.14800
C  46.37600 11.09100 28.88500
C  45.30200 11.52600 32.20200
O  46.34700 12.09200 32.48600
C  44.19500 11.13900 33.22600
C  44.83700 10.20000 34.09100
O  44.95900 8.99800 34.00000
O  45.33400 10.98400 35.13900
C  45.97200 10.27500 36.17800
H  38.00600 7.94600 33.29300
H  38.40900 7.58200 26.86200
H  44.17500 10.13100 26.92900
H  42.22200 9.48400 35.05200
H  39.22800 9.38200 34.87300
H  39.69500 7.56500 36.07200
H  41.25300 7.22700 35.26400
H  39.74700 6.85500 34.47300
H  40.37000 11.82800 34.29100
H  42.03300 11.91200 34.96600
H  40.76000 10.34600 36.76100
H  39.61600 11.74100 36.35500
H  35.63900 6.09300 31.69600
H  34.91800 7.65400 31.46700
H  36.17200 7.39700 32.69100
H  34.87900 5.51200 29.33300
H  34.04300 6.12500 28.01600
H  34.04600 7.16200 29.30000
H  40.06600 8.80400 25.37100
H  42.88000 8.10600 25.45600
H  41.02800 5.97600 25.98100
H  41.60000 6.52800 24.42800
H  39.94600 6.50700 24.62400
H  41.41100 9.97900 24.22900
H  43.15000 10.27600 24.53700
H  41.19700 11.34100 26.62600
H  40.83700 11.83300 25.03800
H  42.44000 12.26400 25.84300
H  46.58300 10.29900 28.16500
H  47.24000 11.13200 29.54700
H  46.18300 11.94100 28.23100
H  43.81700 12.02500 33.73700
H  46.58200 9.38900 36.00300
H  45.25000 9.89300 36.90000
H  46.55500 11.04700 36.67800
Mg -5.62800 25.27100 25.61500
C  -4.16200 26.25100 28.70100
C  -7.54800 22.83900 27.44800
C  -6.76400 23.95000 22.74300
C  -3.48500 27.26200 24.01800
N  -5.70600 24.50200 27.84000
C  -5.03700 25.13000 28.90700
C  -5.54700 24.64100 30.24000
C  -6.49500 23.43300 29.76200
C  -6.57900 23.54100 28.23500
C  -5.89500 22.10200 30.25100
C  -6.35800 25.71200 31.07100
C  -6.13700 25.82600 32.59300
H  -5.23300 24.76500 33.24000
N  -7.13400 23.70900 25.18600
C  -7.85300 22.90800 26.05700
C  -8.90600 22.25900 25.34300
C  -8.68200 22.57600 23.91900
C  -7.40600 23.39700 23.91500
C  -10.00200 21.57600 26.13000
C  -9.46100 22.18400 22.68700
O  -9.18800 22.50200 21.55400
C  -10.57900 21.28700 22.82100
N  -5.08500 25.46300 23.72800
C  -5.67100 24.80200 22.63700
C  -5.06300 25.21500 21.31700
C  -4.19100 26.49100 21.70400
C  -4.24300 26.41500 23.25100
C  -4.20900 23.90700 20.77900
C  -4.63300 27.84100 21.07500
C  -3.45900 28.54500 20.40400
N  -4.19000 26.53200 26.13000
C  -3.46900 27.43200 25.35600
C  -2.62100 28.22600 26.17300
C  -2.85700 27.79900 27.46700
C  -3.84500 26.73200 27.41400
C  -1.64700 29.26500 25.83600
C  -2.45700 28.10300 28.80400
O  -1.72600 28.90500 29.26800
C  -3.34300 27.01700 29.64000
C  -2.46900 26.29400 30.66900
O  -1.80500 25.27500 30.43500
O  -2.46800 27.00300 31.83500
C  -1.39500 26.46200 32.75100
H  -8.16500 22.12300 27.99500
H  -6.96100 23.52300 21.75700
H  -2.83400 27.91400 23.43300
H  -4.63800 24.30500 30.74000
H  -7.51300 23.52900 30.14000
H  -6.64100 21.44600 30.69900
H  -5.10100 22.22800 30.98600
H  -5.59300 21.62600 29.31800
H  -7.43700 25.56600 31.01800
H  -6.23600 26.73800 30.72500
H  -7.01800 25.84000 33.23400
H  -5.68300 26.81000 32.70600
H  -9.75400 20.51400 26.11300
H  -10.96000 21.66000 25.61700
H  -10.14100 21.99400 27.12700
H  -11.12000 21.20000 21.87900
H  -11.30600 21.64100 23.55300
H  -10.20500 20.29000 23.05300
H  -5.80800 25.52000 20.58200
H  -3.20200 26.24000 21.32200
H  -4.75000 23.36400 20.00400
H  -3.97400 23.22100 21.59400
H  -3.25300 24.28000 20.41200
H  -4.94500 28.48000 21.90100
H  -5.49400 27.86400 20.40800
H  -3.72000 29.17500 19.55400
H  -2.63500 27.84400 20.26800
H  -2.99700 29.18700 21.15300
H  -1.75300 29.63200 24.81500
H  -0.66100 28.80600 25.90500
H  -1.82000 30.18900 26.38600
H  -4.11400 27.52000 30.22400
H  -1.32000 27.01000 33.69000
H  -0.41100 26.62100 32.31000
H  -1.53100 25.38100 32.78700

