158

Mg 2.06200 -1.20700 43.58200
C  5.43200 -0.20100 42.75000
C  0.91400 1.62800 42.06100
C  -0.95900 -2.69500 43.52400
C  3.46500 -4.20600 44.88800
N  3.07600 0.41700 42.46800
C  4.44900 0.61900 42.26300
C  4.67800 1.99600 41.62100
C  3.29900 2.67500 41.68400
C  2.32800 1.53500 42.13400
C  3.20400 3.95600 42.63700
C  5.09700 1.79000 40.13900
C  5.94800 2.81900 39.41800
H  5.38300 3.52800 38.24200
N  0.17200 -0.57900 42.98200
C  -0.12000 0.66200 42.44300
C  -1.50400 0.83600 42.37900
C  -2.11600 -0.37600 42.87300
C  -0.99700 -1.33200 43.15000
C  -2.12900 2.14100 41.85300
C  -3.60400 -0.65100 43.06900
O  -4.43000 0.27500 42.78800
C  -4.02000 -1.98900 43.50700
N  1.33100 -3.09900 44.13200
C  0.09800 -3.52800 43.89900
C  -0.14400 -5.01700 44.07500
C  1.23300 -5.40400 44.78900
C  2.07000 -4.16600 44.59500
C  -1.43800 -5.27100 44.90400
C  2.02300 -6.59600 44.19400
C  2.15700 -7.79600 45.11600
N  4.00600 -2.03500 43.95400
C  4.36900 -3.22800 44.58200
C  5.80600 -3.20100 44.77400
C  6.25000 -2.08400 44.01100
C  5.11300 -1.41500 43.51700
C  6.64400 -4.17100 45.43800
C  7.57100 -1.38200 43.58900
O  8.73300 -1.71500 43.71200
C  6.97400 -0.07500 42.89800
C  7.40500 1.09000 43.69300
O  6.79200 1.60800 44.62000
O  8.66300 1.48500 43.24900
C  8.99700 2.88000 43.73300
H  0.69400 2.64700 41.73800
H  -1.86000 -3.30100 43.40700
H  3.94000 -5.07300 45.35200
H  5.38700 2.65600 42.12000
H  3.05600 3.07000 40.69700
H  4.04600 3.96300 43.32900
H  2.29500 3.96200 43.23900
H  3.20400 4.87500 42.05200
H  4.17900 1.51800 39.61800
H  5.59200 0.84200 39.92900
H  6.78800 2.20200 39.10000
H  6.20100 3.60900 40.12600
H  -3.06300 1.84400 41.37700
H  -1.54200 2.58800 41.05100
H  -2.25700 2.95700 42.56500
H  -5.07300 -1.93100 43.78500
H  -3.57800 -2.28100 44.46000
H  -3.80500 -2.60800 42.63600
H  -0.23200 -5.32300 43.03200
H  1.06000 -5.44000 45.86400
H  -1.22000 -6.06300 45.62100
H  -2.26600 -5.54200 44.25000
H  -1.52900 -4.48100 45.65000
H  2.98000 -6.44900 43.69400
H  1.40100 -7.00100 43.39600
H  2.43800 -7.58100 46.14700
H  2.96900 -8.42100 44.74500
H  1.32500 -8.50000 45.09400
H  5.99700 -4.47000 46.26200
H  7.53000 -3.68000 45.84000
H  6.85500 -5.04500 44.82200
H  7.43700 0.06100 41.92000
H  9.75700 3.27100 43.05700
H  9.33100 2.78500 44.76600
H  8.13000 3.54000 43.68400
Mg 28.16000 56.41500 40.28300
C  25.97300 53.84300 39.60200
C  30.91300 54.43300 39.46600
C  30.16400 59.09100 40.42100
C  25.29500 58.49400 40.50800
N  28.33200 54.45000 39.55300
C  27.30400 53.57200 39.32700
C  27.80700 52.26300 38.67200
C  29.37400 52.34700 38.93300
C  29.58300 53.88100 39.39700
C  29.93000 51.32000 39.90600
C  27.46700 52.12500 37.14800
C  26.89800 53.36600 36.39000
H  26.76600 53.21700 34.82900
N  30.26200 56.73000 40.09200
C  31.21200 55.81200 39.77200
C  32.51700 56.45400 39.83200
C  32.38600 57.79000 40.21800
C  30.89500 57.96800 40.31700
C  33.74500 55.64300 39.60500
C  33.54100 58.74200 40.41000
O  34.74000 58.50000 40.28900
C  33.21100 60.04500 40.94800
N  27.75800 58.51600 40.34200
C  28.76600 59.40300 40.52000
C  28.21400 60.83000 40.87600
C  26.70300 60.66300 40.64200
C  26.54600 59.14700 40.56000
C  28.69200 61.30500 42.29500
C  26.10900 61.53100 39.55600
C  26.14400 63.05300 39.83900
N  26.06500 56.23200 40.16400
C  25.04000 57.17000 40.29500
C  23.72300 56.52200 40.13800
C  23.99900 55.19100 39.86100
C  25.45800 55.07800 39.89800
C  22.36900 57.17500 40.06800
C  23.47300 53.85100 39.66300
O  22.31400 53.41700 39.57900
C  24.78100 52.92400 39.50200
C  24.74900 51.83800 40.57300
O  24.13300 50.81300 40.45300
O  25.45400 52.18800 41.68200
C  25.37300 51.32300 42.87500
H  31.78700 53.81000 39.26800
H  30.71500 60.02600 40.53500
H  24.45000 59.16600 40.67100
H  27.38900 51.39200 39.17500
H  29.80700 52.19900 37.94400
H  29.09100 50.83600 40.40700
H  30.46600 51.78400 40.73400
H  30.45500 50.52400 39.37700
H  26.66200 51.39000 37.16800
H  28.36200 51.67100 36.72300
H  27.45000 54.25300 36.70000
H  25.88600 53.51500 36.76600
H  33.57100 55.06900 38.69500
H  33.68600 54.96300 40.45500
H  34.67000 56.21100 39.50600
H  32.62000 60.03900 41.86400
H  32.64000 60.52800 40.15500
H  34.06400 60.71100 41.07400
H  28.62200 61.47000 40.09400
H  26.11700 60.95400 41.51300
H  29.76900 61.42800 42.41300
H  28.41200 60.59200 43.07100
H  28.18200 62.23600 42.54000
H  25.16800 61.11800 39.19400
H  26.72400 61.28700 38.69000
H  26.60400 63.32500 40.78800
H  25.11900 63.42600 39.84000
H  26.74000 63.61500 39.12000
H  21.61400 56.66900 39.46500
H  22.54100 58.13800 39.58700
H  21.93900 57.23200 41.06800
H  24.95800 52.44000 38.54100
H  25.99000 50.47000 42.59200
H  24.41100 50.86100 43.09700
H  25.64200 51.82300 43.80500

