158

Mg 9.03200 48.64100 26.16100
C  7.06300 48.72500 29.11200
C  11.58300 49.65500 28.15800
C  10.93900 48.74300 23.42600
C  6.17300 48.32200 24.27000
N  9.21500 49.24300 28.38200
C  8.35100 49.13800 29.45600
C  8.98900 49.39500 30.82100
C  10.41500 49.93300 30.34800
C  10.35500 49.66700 28.83200
C  10.76900 51.41000 30.74500
C  9.12700 48.15800 31.75800
C  8.40100 48.30300 33.07800
H  8.45100 47.02500 34.01600
N  11.07400 48.98500 25.90200
C  12.00400 49.38700 26.80000
C  13.33400 49.39100 26.18200
C  13.10800 49.02700 24.81800
C  11.64100 48.92100 24.66600
C  14.61200 49.63700 26.98100
C  14.13900 48.68700 23.67400
O  13.89100 48.19700 22.55800
C  15.58200 48.96500 23.92100
N  8.60100 48.76700 24.16900
C  9.57300 48.60600 23.17500
C  8.99800 48.22200 21.74200
C  7.46600 48.14300 22.07800
C  7.41500 48.37000 23.57700
C  9.39600 49.09300 20.52900
C  6.78800 46.78500 21.74600
C  7.01900 46.31600 20.37200
N  7.00500 48.61500 26.49000
C  5.96200 48.43100 25.64900
C  4.73900 48.49700 26.38000
C  5.10100 48.47300 27.73100
C  6.54000 48.55800 27.75800
C  3.41600 48.47900 25.79000
C  4.64100 48.43400 29.07000
O  3.45200 48.45900 29.46300
C  5.92100 48.37600 30.05100
C  5.93100 46.96500 30.58100
O  6.21500 45.95400 29.91500
O  5.39000 46.90000 31.80700
C  5.50100 45.62300 32.54100
H  12.45200 49.89600 28.77500
H  11.50900 48.55900 22.51300
H  5.28200 48.43300 23.64800
H  8.45900 50.20200 31.32600
H  11.24400 49.32600 30.71100
H  11.73200 51.42900 31.25400
H  9.95500 51.81200 31.34800
H  10.76100 51.98700 29.82000
H  10.18900 47.99300 31.94100
H  8.68600 47.31200 31.23100
H  7.32300 48.45600 33.01900
H  8.78100 49.10900 33.70500
H  14.35500 49.48500 28.03000
H  14.99700 50.60800 26.67100
H  15.34700 48.86200 26.76600
H  15.67500 49.84600 24.55600
H  16.12500 49.11300 22.98700
H  15.88800 48.02300 24.37400
H  9.45200 47.25300 21.53400
H  6.82700 48.86800 21.57500
H  9.53700 48.31900 19.77400
H  10.33400 49.61200 20.73000
H  8.57200 49.79000 20.37700
H  5.72100 46.86900 21.95200
H  7.22900 46.03100 22.39600
H  6.22800 45.78800 19.83900
H  7.82200 45.58000 20.32700
H  7.24400 47.20400 19.78200
H  3.00000 47.52200 25.47800
H  3.28900 49.24900 25.02900
H  2.79500 48.73500 26.64800
H  5.71300 48.94200 30.96000
H  5.56400 45.90900 33.59100
H  6.35200 45.00000 32.26800
H  4.55800 45.08700 32.43100
Mg 0.11900 44.27100 25.77400
C  2.30600 43.51300 28.36400
C  -2.54300 43.56100 27.82300
C  -1.95300 44.30400 23.03300
C  2.82800 44.66500 23.69100
N  0.00200 43.55100 27.75000
C  0.96400 43.33900 28.66200
C  0.36700 43.31000 30.09500
C  -1.07400 42.99400 29.78500
C  -1.22600 43.32700 28.33100
C  -1.50700 41.58000 30.17200
C  0.52200 44.67900 30.90400
C  0.54900 44.66700 32.43100
H  0.58600 43.30200 33.14400
N  -1.98100 44.17200 25.50100
C  -2.90700 43.86100 26.46400
C  -4.24100 43.91400 25.96500
C  -4.07800 44.18200 24.54200
C  -2.66100 44.23700 24.30000
C  -5.42300 43.58400 26.76700
C  -5.16800 44.28400 23.45200
O  -4.91200 44.57000 22.25800
C  -6.57600 44.11000 23.79900
N  0.34200 44.43500 23.65600
C  -0.61400 44.50900 22.73200
C  -0.10200 45.06000 21.36900
C  1.43900 45.03500 21.60100
C  1.57200 44.74400 23.06300
C  -0.57900 44.37500 20.03600
C  2.25200 46.24000 20.92800
C  2.45500 47.38900 21.84900
N  2.16900 43.95300 25.92200
C  3.20600 44.17300 24.98500
C  4.47800 44.00400 25.62500
C  4.20200 43.71300 26.93900
C  2.80100 43.75900 27.10000
C  5.73200 44.22500 24.92100
C  4.82300 43.51800 28.26000
O  6.02700 43.41600 28.57600
C  3.57600 43.42400 29.23800
C  3.63700 42.15200 30.11200
O  3.37900 41.06500 29.68800
O  4.15300 42.46600 31.36800
C  4.34800 41.25300 32.21100
H  -3.29800 43.34600 28.58200
H  -2.63700 44.30200 22.18200
H  3.69100 44.95100 23.08600
H  0.83400 42.49100 30.64200
H  -1.77200 43.63200 30.32600
H  -2.03300 41.27700 29.26700
H  -2.15000 41.63700 31.05000
H  -0.64300 40.93900 30.34200
H  -0.22400 45.41100 30.59600
H  1.49100 45.08500 30.61400
H  -0.32700 45.18400 32.82200
H  1.38700 45.25200 32.81100
H  -5.17000 43.13100 27.72500
H  -6.19600 42.97100 26.30300
H  -5.98700 44.46300 27.07700
H  -6.81300 43.09200 24.10800
H  -7.08800 44.31500 22.85800
H  -6.83200 44.88100 24.52600
H  -0.39600 46.10900 21.32800
H  1.86000 44.22600 21.00300
H  0.09500 44.51100 19.19000
H  -1.56000 44.81200 19.85300
H  -0.75700 43.31200 20.19900
H  1.77300 46.65000 20.03800
H  3.25300 45.94600 20.61200
H  2.36100 48.24000 21.17300
H  3.47100 47.60600 22.17700
H  1.69000 47.52600 22.61400
H  6.48800 43.53800 25.30000
H  6.10000 45.21400 25.19500
H  5.76000 43.98300 23.85800
H  3.59500 44.34300 29.82400
H  4.92900 40.43000 31.79600
H  3.43200 40.81900 32.61100
H  4.75700 41.60700 33.15700

