158

Mg 41.10100 8.82700 29.67600
C  42.81500 10.61600 32.08500
C  38.88600 7.79400 32.01600
C  39.85000 7.05300 27.23500
C  43.81600 9.64400 27.41000
N  40.94700 9.22500 31.83700
C  41.64400 10.08700 32.59700
C  41.12800 10.24600 34.01300
C  39.91900 9.21600 33.91500
C  39.82100 8.72900 32.45900
C  39.99400 8.00800 34.86500
C  40.74900 11.70600 34.46300
C  41.53200 12.18500 35.72600
H  40.76000 12.77400 36.84300
N  39.55400 7.66900 29.62300
C  38.75400 7.37900 30.70000
C  37.68900 6.56500 30.22500
C  37.83100 6.39800 28.79500
C  39.13800 7.02900 28.47400
C  36.56100 5.93200 31.13600
C  36.93600 5.71600 27.80200
O  37.25000 5.73500 26.57800
C  35.63800 5.01900 28.17800
N  41.81900 8.35900 27.62900
C  41.02300 7.61400 26.80400
C  41.40400 7.79000 25.35000
C  42.84100 8.42300 25.46900
C  42.86100 8.84100 26.94200
C  41.28000 6.55300 24.33300
C  43.09600 9.66400 24.60100
C  42.61700 11.07200 24.97700
N  42.89900 9.86000 29.70600
C  43.87700 10.09200 28.73500
C  44.90000 10.99000 29.35900
C  44.57900 11.17600 30.66200
C  43.34500 10.46400 30.82900
C  46.02700 11.45800 28.62000
C  44.98300 11.78800 31.89700
O  45.93800 12.54300 32.20700
C  43.86400 11.48800 32.86300
C  44.34400 10.69400 34.03000
O  44.57900 9.49200 33.97300
O  44.69500 11.52200 35.09200
C  45.31300 10.85900 36.23300
H  37.98000 7.66900 32.61300
H  39.28500 6.68500 26.37600
H  44.72400 9.78900 26.82100
H  41.97400 9.87300 34.59100
H  39.02700 9.75500 34.23700
H  40.93200 8.04900 35.41900
H  39.75300 7.00800 34.50500
H  39.29800 8.05600 35.70300
H  39.71000 11.76800 34.78700
H  40.92500 12.27900 33.55300
H  42.23800 12.97100 35.45800
H  42.00300 11.28600 36.12400
H  36.79300 5.96600 32.20000
H  36.51500 4.87900 30.85600
H  35.62000 6.46400 30.99500
H  35.16000 4.54100 27.32300
H  34.97000 5.76900 28.60000
H  35.74600 4.20900 28.90000
H  40.81200 8.57100 24.87300
H  43.65000 7.70000 25.36400
H  40.34500 6.67600 23.78700
H  41.10100 5.63400 24.89200
H  42.20800 6.45400 23.77000
H  42.65600 9.40300 23.63800
H  44.16900 9.75800 24.43700
H  43.38500 11.69200 25.43900
H  41.79100 10.92100 25.67200
H  42.23900 11.57300 24.08500
H  45.66200 12.24200 27.95600
H  46.44300 10.59200 28.10600
H  46.72200 11.84000 29.36800
H  43.45300 12.46300 33.12700
H  45.97500 10.07500 35.86500
H  44.59800 10.43300 36.93700
H  45.96700 11.57700 36.72900
Mg 48.57200 45.08200 43.69000
C  45.18600 45.25700 42.48400
C  48.55100 41.82000 43.06400
C  51.82600 45.24700 44.26000
C  48.33200 48.65400 43.93500
N  46.97800 43.69900 42.77800
C  45.67200 43.94100 42.46000
C  44.90100 42.63200 42.18200
C  45.93600 41.60600 42.78900
C  47.29500 42.39200 42.85300
C  45.51700 41.04300 44.12400
C  44.67600 42.55000 40.68100
C  43.22300 42.25100 40.28300
H  42.80100 42.86800 38.90600
N  50.06300 43.74300 43.44600
C  49.86300 42.41700 43.28400
C  51.08700 41.68700 43.38600
C  52.06700 42.61000 43.81000
C  51.35400 43.95900 43.81500
C  51.21500 40.14400 43.07300
C  53.48200 42.29900 44.00000
O  53.91200 41.18800 43.75100
C  54.49000 43.38800 44.41800
N  49.99200 46.80000 43.74900
C  51.23100 46.53000 44.24000
C  51.97700 47.81900 44.67900
C  50.79700 48.90900 44.67400
C  49.63100 48.13200 44.06600
C  52.63000 47.56800 46.09000
C  50.87500 50.18500 43.77100
C  50.45700 51.51700 44.44100
N  47.09400 46.68500 43.48200
C  47.17100 48.04600 43.56300
C  45.85200 48.67000 43.27600
C  45.03800 47.59000 42.90000
C  45.85900 46.40300 42.98300
C  45.50500 50.13400 43.29300
C  43.70800 47.28900 42.45200
O  42.71800 48.01400 42.43500
C  43.73400 45.76600 42.13500
C  42.69600 45.05000 42.88800
O  41.76400 44.44000 42.36400
O  42.89100 45.15400 44.24900
C  41.85000 44.65000 45.15500
H  48.64300 40.74600 42.89100
H  52.86200 45.28100 44.60300
H  48.30800 49.71500 44.19200
H  43.97800 42.63700 42.76000
H  46.00400 40.81500 42.04100
H  44.70000 41.55000 44.63700
H  46.37300 41.13300 44.79300
H  45.22400 39.99300 44.09300
H  45.29200 41.71800 40.34100
H  45.00300 43.48400 40.22400
H  42.50500 42.62800 41.01200
H  43.08600 41.17300 40.19500
H  50.32900 39.74500 42.58000
H  51.36300 39.70000 44.05800
H  52.03600 39.95700 42.38100
H  54.42800 44.23600 43.73500
H  55.51100 43.01000 44.37500
H  54.17600 43.66200 45.42500
H  52.64700 47.94900 43.82900
H  50.54700 49.26600 45.67300
H  52.25900 46.62800 46.49800
H  52.35400 48.36600 46.77900
H  53.71900 47.57600 46.03600
H  50.19600 49.98400 42.94300
H  51.94800 50.26400 43.59800
H  51.24600 52.22400 44.18500
H  50.23800 51.48400 45.50900
H  49.49600 51.82300 44.02700
H  45.01800 50.40900 42.35700
H  46.46400 50.62800 43.44800
H  44.83500 50.33300 44.12900
H  43.46400 45.65400 41.08400
H  42.15000 44.99200 46.14600
H  41.76100 43.56400 45.14000
H  40.85700 45.07100 45.00000

