158

Mg 1.01500 7.19800 25.74500
C  1.64100 9.20100 28.60000
C  1.38900 4.44500 27.61000
C  0.46300 5.38800 22.95400
C  1.14100 10.17100 23.78300
N  1.59300 6.93800 27.88300
C  1.60400 7.83900 28.86500
C  1.71100 7.06500 30.21600
C  2.03200 5.60900 29.80300
C  1.73400 5.65900 28.28600
C  3.47400 5.08400 30.08800
C  0.47600 7.25300 31.17500
C  0.76400 7.71400 32.61100
H  1.97300 7.12600 33.25900
N  0.79400 5.23100 25.38400
C  0.94100 4.21700 26.28100
C  0.62700 2.92900 25.71100
C  0.41300 3.13800 24.30500
C  0.49600 4.62200 24.17300
C  0.64900 1.61000 26.39400
C  0.09400 2.09500 23.20900
O  -0.13900 2.41500 22.02500
C  0.04400 0.58900 23.49100
N  0.52500 7.77800 23.75100
C  0.59100 6.73900 22.78600
C  0.66700 7.40700 21.34900
C  0.56400 8.93900 21.64100
C  0.71400 9.00600 23.14400
C  1.94100 6.98900 20.59800
C  -0.69500 9.68900 21.06300
C  -0.37600 10.90600 20.20600
N  1.35000 9.20700 26.03000
C  1.45500 10.30400 25.14000
C  1.57500 11.56100 25.89900
C  1.71700 11.13000 27.24100
C  1.52300 9.72700 27.28900
C  1.55600 12.96300 25.42600
C  1.98800 11.59400 28.57600
O  2.30500 12.72200 28.98200
C  1.86000 10.36900 29.53300
C  2.98100 10.19200 30.43100
O  4.06600 9.63200 30.26500
O  2.63900 10.80400 31.61400
C  3.70300 10.80900 32.63600
H  1.44000 3.55500 28.24000
H  0.30600 4.89900 21.99000
H  1.32100 11.05900 23.17200
H  2.55100 7.52200 30.74000
H  1.41800 4.90300 30.36200
H  4.05400 5.87300 30.56600
H  3.98000 4.89100 29.14200
H  3.49300 4.23800 30.77500
H  -0.14200 6.35900 31.26500
H  -0.13300 8.08400 30.82100
H  -0.11200 7.49900 33.22400
H  0.91700 8.79100 32.66400
H  0.41200 1.72900 27.45100
H  1.54900 0.99900 26.32000
H  -0.20000 0.99600 26.09300
H  0.94500 0.16300 23.93300
H  -0.19600 0.17600 22.51200
H  -0.82300 0.49600 24.14400
H  -0.10500 7.05400 20.66500
H  1.44900 9.41100 21.21500
H  2.31700 7.81800 19.99900
H  1.80800 6.11200 19.96500
H  2.74000 6.74300 21.29700
H  -1.32800 10.09200 21.85400
H  -1.19100 8.93700 20.45100
H  -1.27500 11.23100 19.68300
H  0.54200 10.87300 19.61800
H  -0.31000 11.76000 20.88000
H  0.55500 13.16900 25.04700
H  2.50400 13.19300 24.93900
H  1.63600 13.51300 26.36400
H  0.92700 10.52200 30.07500
H  3.61700 9.92100 33.26200
H  3.59300 11.59200 33.38600
H  4.74000 10.85100 32.30300
Mg 35.60500 49.45200 25.48000
C  35.56400 47.46000 28.33700
C  34.34700 52.07000 27.24200
C  35.32100 51.05300 22.54300
C  36.61200 46.65600 23.66500
N  35.05500 49.68000 27.53000
C  35.22400 48.81900 28.58800
C  34.79700 49.39700 29.91300
C  34.42100 50.90700 29.49500
C  34.59900 50.90900 27.94400
C  32.97900 51.36800 29.98800
C  36.00800 49.37600 30.95200
C  35.68800 48.92100 32.37100
H  34.24400 49.12300 32.85800
N  35.04700 51.34800 24.96400
C  34.57500 52.29800 25.86200
C  34.22200 53.49900 25.13400
C  34.53100 53.21800 23.74500
C  35.00400 51.83800 23.69900
C  33.49000 54.70600 25.87900
C  34.34600 54.17300 22.59800
O  34.50800 53.81000 21.50000
C  34.22900 55.64000 22.81900
N  35.85000 48.92100 23.42900
C  35.66400 49.73100 22.38200
C  36.13000 49.10900 20.96000
C  36.69900 47.77000 21.36600
C  36.41500 47.80500 22.93900
C  34.93500 49.06500 19.94100
C  38.24700 47.50900 20.99700
C  38.60500 46.25000 20.28700
N  35.93200 47.42800 25.86500
C  36.37900 46.46500 25.05300
C  36.52000 45.18400 25.81100
C  36.30300 45.55400 27.12100
C  35.90000 46.94200 27.10700
C  37.01500 43.84000 25.22500
C  36.29000 45.13100 28.48400
O  36.59300 44.03800 28.90800
C  35.70400 46.28400 29.34400
C  34.41600 45.91300 29.99800
O  33.30900 45.98800 29.53400
O  34.66600 45.46700 31.30500
C  33.46200 45.02700 32.08100
H  33.95600 52.85900 27.88900
H  35.44400 51.48600 21.54800
H  36.89700 45.72900 23.16200
H  33.90700 48.85600 30.23600
H  35.17300 51.61800 29.83800
H  32.17200 51.55400 29.27900
H  32.98600 52.16400 30.73200
H  32.59500 50.53100 30.57100
H  36.20000 50.43500 31.12600
H  36.92300 48.89800 30.60200
H  36.49000 49.45800 32.87900
H  36.08700 47.90700 32.35400
H  33.80600 55.67000 25.48000
H  33.68500 54.67700 26.95100
H  32.41800 54.56200 25.73900
H  33.27300 56.06600 23.12200
H  34.48400 56.15900 21.89600
H  35.00300 56.00100 23.49700
H  36.85100 49.87200 20.66600
H  35.97300 47.02700 21.03700
H  35.36100 49.47300 19.02400
H  34.07000 49.64700 20.25900
H  34.62200 48.04100 19.74200
H  38.96400 47.82400 21.75500
H  38.38100 48.14800 20.12500
H  39.30800 45.70000 20.91300
H  39.01100 46.39300 19.28600
H  37.70800 45.63100 20.26200
H  37.52900 43.29900 26.01900
H  37.62600 44.00200 24.33800
H  36.18700 43.27900 24.79100
H  36.40400 46.42000 30.16700
H  33.81300 44.47100 32.95000
H  32.80400 44.39900 31.48000
H  32.92100 45.80800 32.61400

