158

Mg 40.21100 8.13800 28.80900
C  42.08800 9.35100 31.64700
C  38.33400 6.30100 31.15600
C  38.62400 6.65600 26.25800
C  42.41900 9.56400 26.72000
N  40.24600 7.81200 31.17200
C  40.97600 8.58000 32.03100
C  40.48900 8.35800 33.51000
C  39.35200 7.27900 33.30800
C  39.24200 7.11400 31.78500
C  39.60600 5.88100 33.98900
C  40.01600 9.66000 34.25100
C  39.60600 9.51900 35.72000
H  40.40200 10.42100 36.64500
N  38.61800 6.73600 28.71000
C  38.00800 6.09000 29.81000
C  37.02300 5.18700 29.24900
C  37.04800 5.25500 27.78400
C  38.11600 6.25600 27.50600
C  36.12000 4.40400 30.03100
C  36.17400 4.61200 26.70900
O  36.38100 4.84400 25.54200
C  35.17300 3.56900 27.06800
N  40.42000 8.17200 26.76600
C  39.71900 7.48500 25.88900
C  40.04500 7.87000 24.45100
C  41.21800 8.91800 24.66800
C  41.35200 8.91700 26.12000
C  40.42200 6.78800 23.47000
C  40.98600 10.30600 24.06600
C  40.20900 11.46500 24.86600
N  41.96400 9.14600 29.10600
C  42.78800 9.75900 28.12200
C  43.84200 10.45600 28.78400
C  43.52900 10.39600 30.15500
C  42.41000 9.56500 30.30000
C  45.05500 11.12300 28.17900
C  44.06600 10.81900 31.41600
O  45.08200 11.44600 31.66000
C  43.13800 10.12100 32.46600
C  43.94400 9.19300 33.39000
O  44.70300 8.32300 33.03800
O  43.59000 9.41100 34.68600
C  44.44500 8.69200 35.60200
H  37.59000 5.93900 31.86900
H  38.14200 6.28900 25.34900
H  43.08700 10.05900 26.01200
H  41.32100 7.98700 34.10900
H  38.35500 7.62100 33.58700
H  39.68400 5.12300 33.21000
H  38.70500 5.64200 34.55400
H  40.47200 5.79300 34.64600
H  39.11400 9.98200 33.73100
H  40.78500 10.41000 34.06600
H  39.82500 8.51800 36.09100
H  38.53300 9.69600 35.80300
H  36.10900 4.44700 31.12000
H  36.32600 3.35600 29.81200
H  35.10200 4.63900 29.72100
H  34.19700 3.86300 27.45400
H  35.57100 2.89000 27.82200
H  35.13200 3.04000 26.11600
H  39.19700 8.41900 24.04100
H  42.11600 8.50800 24.20600
H  41.03200 7.28700 22.71600
H  39.59400 6.23900 23.02100
H  41.05700 6.05600 23.96800
H  40.47900 10.19200 23.10700
H  41.98500 10.65600 23.80700
H  39.51700 11.91000 24.15200
H  40.84100 12.24000 25.30000
H  39.52500 11.07900 25.62200
H  44.83100 11.43700 27.15900
H  45.90900 10.45000 28.25300
H  45.16900 12.01200 28.79900
H  42.76100 10.94000 33.07700
H  43.94900 8.75400 36.57100
H  45.48500 9.01300 35.64500
H  44.44100 7.62100 35.40300
Mg -11.57300 16.97100 41.79400
C  -8.28200 15.49900 41.35300
C  -10.21500 19.96500 40.44600
C  -14.67500 18.16700 41.38100
C  -12.71000 13.86400 42.27600
N  -9.46000 17.57700 40.87000
C  -8.34100 16.77300 40.90400
C  -7.21300 17.63600 40.35400
C  -7.76000 19.14000 40.25500
C  -9.23200 18.91600 40.51900
C  -7.19000 20.26100 41.23400
C  -6.60500 17.02100 39.07400
C  -5.17800 17.55500 38.77000
H  -5.00100 18.56000 37.61300
N  -12.36000 18.79600 41.12600
C  -11.61900 19.88500 40.68200
C  -12.51900 21.08900 40.57800
C  -13.83900 20.62300 40.93400
C  -13.70400 19.12400 41.16700
C  -12.11200 22.48700 40.16900
C  -15.04700 21.41200 41.00900
O  -14.97900 22.64000 40.84600
C  -16.40400 20.89300 41.42000
N  -13.43800 16.12500 41.87900
C  -14.56200 16.84000 41.76500
C  -15.84600 16.00000 42.10300
C  -15.22200 14.55900 42.18100
C  -13.68500 14.80600 42.14000
C  -16.58900 16.34700 43.38400
C  -15.55300 13.65200 40.92600
C  -16.20900 12.26900 41.33200
N  -10.67000 15.05500 41.97500
C  -11.30600 13.87000 42.14800
C  -10.23900 12.90100 42.43000
C  -9.05100 13.47700 42.12800
C  -9.31800 14.78500 41.83000
C  -10.52000 11.43900 42.83300
C  -7.59300 13.27100 42.04100
O  -6.82000 12.34300 42.25900
C  -7.03700 14.59200 41.53000
C  -6.05500 15.17100 42.54800
O  -6.38100 15.94700 43.42800
O  -4.74300 14.70700 42.26900
C  -3.62700 15.35400 42.99300
H  -9.74400 20.89100 40.11100
H  -15.70900 18.51800 41.38100
H  -13.05300 12.86200 42.53800
H  -6.49500 17.64100 41.17500
H  -7.68200 19.57400 39.25800
H  -7.93400 20.31900 42.02900
H  -7.18800 21.17800 40.64400
H  -6.16300 20.07900 41.55000
H  -7.34000 17.37800 38.35300
H  -6.62200 15.93300 39.00100
H  -4.62200 16.73600 38.31400
H  -4.68400 17.87600 39.68700
H  -12.30200 23.16700 41.00000
H  -12.61400 22.76200 39.24100
H  -11.06200 22.42800 39.88100
H  -17.14800 21.67300 41.58200
H  -16.31400 20.39300 42.38500
H  -16.67300 20.26000 40.57500
H  -16.59000 16.07200 41.31000
H  -15.57900 14.08600 43.09500
H  -17.67700 16.38800 43.32000
H  -16.22000 17.32600 43.69000
H  -16.35700 15.54900 44.08900
H  -14.66500 13.45500 40.32600
H  -16.30600 14.17800 40.33900
H  -17.17900 12.08800 40.87000
H  -16.24800 12.07300 42.40400
H  -15.48100 11.54500 40.96500
H  -11.26800 10.94900 42.21000
H  -10.96500 11.36600 43.82500
H  -9.62200 10.84000 42.67800
H  -6.46300 14.41600 40.62000
H  -2.96700 15.93100 42.34600
H  -3.13600 14.49100 43.44400
H  -3.94300 15.99700 43.81400

