158

Mg 25.68100 -0.75900 29.16400
C  27.61900 -1.12900 32.05100
C  23.02400 -0.02900 31.21000
C  23.74100 -0.83500 26.40800
C  28.44500 -1.60400 27.29300
N  25.44100 -0.45700 31.33300
C  26.37600 -0.61600 32.33100
C  25.80300 -0.27400 33.73900
C  24.32100 0.06400 33.43900
C  24.18600 -0.21200 31.90100
C  23.42800 -0.79200 34.40900
C  26.58400 0.88300 34.48100
C  27.08800 0.53500 35.91000
H  26.45200 1.29400 37.06100
N  23.73800 -0.39800 28.86900
C  22.78100 -0.04100 29.80300
C  21.52500 0.21900 29.13400
C  21.67900 0.05500 27.70900
C  23.10600 -0.47600 27.60800
C  20.26100 0.50100 29.88600
C  20.65500 0.19300 26.55900
O  20.96400 -0.01500 25.42300
C  19.29100 0.80900 26.76900
N  26.00900 -1.30300 27.16200
C  25.09500 -1.08600 26.22900
C  25.62200 -1.68300 24.93500
C  27.13700 -1.63300 25.10000
C  27.20600 -1.48000 26.62000
C  25.08900 -3.13100 24.51500
C  27.90700 -0.59000 24.32000
C  29.03800 -1.03900 23.43200
N  27.65000 -1.31700 29.53200
C  28.65900 -1.62700 28.68400
C  29.85300 -1.96700 29.45000
C  29.46300 -1.74200 30.77800
C  28.13200 -1.33100 30.77700
C  31.16600 -2.34800 29.00100
C  29.94900 -1.70900 32.16600
O  31.06000 -1.82000 32.70600
C  28.78300 -1.29300 33.03800
C  28.51800 -2.35100 34.03900
O  27.93300 -3.37100 33.76700
O  29.00400 -2.02000 35.30400
C  28.69700 -2.98200 36.39800
H  22.27400 0.31800 31.92500
H  23.12400 -1.07300 25.53900
H  29.29500 -1.79100 26.63300
H  25.94800 -1.23400 34.23600
H  24.10700 1.12200 33.59300
H  23.95900 -0.88500 35.35600
H  23.16900 -1.71800 33.89600
H  22.53500 -0.20700 34.62400
H  25.90600 1.73600 34.51300
H  27.37800 1.31900 33.87300
H  28.09400 0.94000 35.80200
H  26.96500 -0.54000 36.03900
H  20.34500 0.61300 30.96700
H  19.52700 -0.27300 29.66400
H  19.78700 1.38700 29.46300
H  19.40400 1.86100 27.03100
H  18.69000 0.26000 27.49400
H  18.76100 0.62000 25.83600
H  25.33500 -1.01700 24.12200
H  27.53000 -2.61100 24.82000
H  25.79700 -3.78900 25.02000
H  25.04900 -3.32100 23.44200
H  24.12800 -3.32200 24.99100
H  28.28000 0.08600 25.09000
H  27.20200 -0.00900 23.72600
H  29.17200 -0.49500 22.49600
H  28.81000 -2.07600 23.18500
H  29.99500 -1.14000 23.94300
H  31.62900 -3.04300 29.70200
H  31.69000 -1.39300 29.03400
H  31.21500 -2.76400 27.99500
H  29.07200 -0.38100 33.56000
H  27.88100 -2.69900 37.06400
H  29.54400 -2.93700 37.08200
H  28.60700 -4.02900 36.10600
Mg -5.21300 25.55100 26.77300
C  -3.74200 27.33500 29.55300
C  -6.73500 23.47300 29.10400
C  -5.99500 23.55900 24.14100
C  -3.28500 27.57600 24.59700
N  -5.24300 25.48900 29.02000
C  -4.62300 26.28400 29.93900
C  -4.85700 25.73400 31.43300
C  -5.72700 24.50900 31.28800
C  -5.91600 24.44500 29.71500
C  -5.10700 23.15900 31.89500
C  -5.36800 26.99400 32.17000
C  -6.46600 26.82800 33.26400
H  -6.14500 25.92800 34.48900
N  -6.17700 23.79300 26.65700
C  -6.80300 23.16100 27.70100
C  -7.61700 22.03700 27.13800
C  -7.38300 22.01100 25.73900
C  -6.45900 23.16600 25.46100
C  -8.45100 21.22100 28.06000
C  -7.96500 21.02800 24.64200
O  -7.57700 20.99500 23.48500
C  -8.86100 19.95700 25.14300
N  -4.75800 25.59800 24.65900
C  -5.29000 24.75300 23.73300
C  -4.95100 25.16000 22.30400
C  -4.04400 26.42600 22.49700
C  -4.04000 26.57600 23.99200
C  -4.23700 24.06400 21.49300
C  -4.64200 27.75700 21.88700
C  -3.57500 28.66200 21.31200
N  -3.77400 27.09600 26.93800
C  -3.15500 27.84000 26.00200
C  -2.26400 28.73200 26.68000
C  -2.52200 28.59200 28.07400
C  -3.44000 27.58200 28.19500
C  -1.23100 29.61600 26.04500
C  -2.09700 29.20000 29.36100
O  -1.31600 30.04800 29.62200
C  -2.83700 28.32800 30.39300
C  -1.77000 27.63300 31.05600
O  -0.95700 26.94000 30.51400
O  -1.93400 27.75000 32.43500
C  -1.34500 26.76400 33.34200
H  -7.19400 22.77100 29.80200
H  -6.25100 23.04600 23.21200
H  -2.70800 28.23800 23.94800
H  -3.87000 25.42800 31.77800
H  -6.67500 24.62300 31.81300
H  -4.46700 23.47900 32.71800
H  -4.47400 22.64100 31.17400
H  -5.82000 22.41100 32.24400
H  -5.64600 27.75700 31.44300
H  -4.54100 27.40500 32.74800
H  -7.41200 26.45300 32.87500
H  -6.39900 27.86500 33.59400
H  -9.38500 20.92900 27.58000
H  -8.82400 21.75300 28.93600
H  -7.90300 20.30700 28.28600
H  -8.79200 19.09900 24.47500
H  -9.82400 20.45900 25.22700
H  -8.45000 19.57100 26.07600
H  -5.84600 25.38700 21.72500
H  -3.00700 26.19900 22.25000
H  -4.84800 23.66100 20.68500
H  -4.15900 23.17500 22.11900
H  -3.18100 24.30300 21.36700
H  -5.17800 28.30800 22.65900
H  -5.42100 27.55000 21.15300
H  -3.78100 28.87500 20.26300
H  -2.62400 28.12900 21.28600
H  -3.52600 29.58100 21.89700
H  -1.73400 30.54800 25.78800
H  -0.99400 29.24200 25.04900
H  -0.32300 29.80100 26.61800
H  -3.39800 28.89700 31.13400
H  -1.01200 25.83400 32.88200
H  -2.16100 26.47500 34.00400
H  -0.52100 27.25500 33.86100

