158

Mg 54.50900 24.59500 44.69200
C  51.91200 26.80900 43.84000
C  52.32400 21.98300 43.85900
C  57.01200 22.39100 45.17400
C  56.64000 27.24300 45.50000
N  52.42100 24.44300 43.72700
C  51.47100 25.49300 43.61800
C  49.98500 25.00800 43.37700
C  50.26500 23.44800 43.76900
C  51.80100 23.27200 43.82600
C  49.43000 22.80400 44.94400
C  49.50400 25.17200 41.88800
C  48.20800 24.53000 41.44600
H  48.27500 23.68700 40.21900
N  54.71100 22.46500 44.43200
C  53.64500 21.61900 44.15800
C  54.15900 20.28100 44.15200
C  55.55900 20.34800 44.48300
C  55.83200 21.79700 44.74800
C  53.24100 19.09000 43.92600
C  56.52200 19.10400 44.63800
O  56.09600 17.94600 44.42600
C  57.99200 19.24500 44.97000
N  56.60500 24.77900 45.22400
C  57.41900 23.72600 45.40400
C  58.75300 24.11000 45.94200
C  58.66500 25.64900 46.07500
C  57.21600 25.92900 45.58100
C  59.29100 23.48200 47.31500
C  59.58000 26.54500 45.12600
C  60.08300 27.77900 45.90000
N  54.33400 26.59200 44.55400
C  55.26800 27.56100 45.09200
C  54.60800 28.88300 45.06800
C  53.30200 28.58000 44.66000
C  53.14500 27.24000 44.33000
C  55.18000 30.19400 45.42400
C  51.93700 29.15900 44.42700
O  51.68700 30.34100 44.56400
C  51.10800 28.09500 43.73800
C  51.09000 28.53600 42.36300
O  52.07600 28.82800 41.68600
O  49.77400 28.79100 42.00000
C  49.52700 29.36400 40.70400
H  51.60700 21.17700 43.69300
H  57.92100 21.80600 45.33000
H  57.25800 28.11500 45.72400
H  49.35600 25.42700 44.16300
H  49.86900 22.89400 42.91800
H  48.60700 22.21500 44.54100
H  49.02800 23.69300 45.43100
H  50.07600 22.19200 45.57400
H  50.39000 24.82900 41.35200
H  49.26300 26.23000 41.79300
H  47.56800 25.37900 41.20300
H  47.81700 23.87700 42.22700
H  53.37500 18.85800 42.86900
H  52.17100 19.19200 44.10600
H  53.56800 18.16000 44.39100
H  58.41700 19.94400 44.25000
H  58.48000 18.27200 44.92600
H  58.13000 19.66600 45.96600
H  59.55200 23.99800 45.20900
H  58.73600 25.97100 47.11400
H  60.37900 23.43700 47.36100
H  59.02200 22.43500 47.45100
H  59.02600 24.13000 48.15000
H  59.05400 26.86900 44.22900
H  60.49300 26.02700 44.83200
H  61.17100 27.76900 45.95800
H  59.64600 27.86000 46.89500
H  59.71100 28.66100 45.37800
H  55.56600 30.21400 46.44300
H  54.35300 30.90300 45.39500
H  55.94200 30.37800 44.66700
H  50.07700 28.04100 44.08600
H  49.58000 28.52000 40.01600
H  50.40300 29.94800 40.42300
H  48.65400 30.01500 40.72800
Mg 49.76500 35.33800 25.73700
C  47.55500 34.43500 28.20800
C  50.26200 38.41200 27.41100
C  51.75400 36.39400 23.14700
C  49.38500 32.24500 24.36200
N  48.79600 36.42700 27.47900
C  48.08400 35.68300 28.44000
C  48.04200 36.43800 29.78000
C  48.49100 37.88300 29.34400
C  49.22700 37.59600 27.99400
C  47.45000 39.02300 29.07000
C  48.94600 35.80300 31.00000
C  48.35300 35.63200 32.39500
H  47.09600 36.40800 32.86100
N  50.79200 37.15800 25.30000
C  50.99500 38.15900 26.17400
C  52.08100 39.05800 25.67300
C  52.33100 38.63300 24.37400
C  51.62100 37.37900 24.20300
C  52.67400 40.20800 26.46500
C  53.16300 39.32100 23.32000
O  53.26700 38.85400 22.19900
C  54.01400 40.41500 23.75800
N  50.52200 34.43500 24.06800
C  51.15200 35.08100 23.00000
C  51.21900 34.21900 21.70600
C  50.69400 32.84400 22.21400
C  50.19300 33.15100 23.68300
C  50.55200 34.83400 20.48700
C  51.61400 31.56800 22.15800
C  51.70500 30.80300 20.81600
N  48.60500 33.67100 26.07800
C  48.61200 32.44500 25.45700
C  47.59800 31.63200 26.04500
C  47.09400 32.32800 27.12600
C  47.80700 33.59800 27.08200
C  46.99800 30.44200 25.40500
C  46.27100 32.34500 28.25900
O  45.49500 31.50300 28.64500
C  46.59200 33.66500 29.04100
C  47.09300 33.10000 30.33500
O  48.15100 32.57300 30.47100
O  46.09700 33.10200 31.31800
C  46.37500 32.23700 32.48800
H  50.29000 39.32500 28.01000
H  52.50000 36.61500 22.38100
H  49.27300 31.29600 23.83500
H  47.01200 36.52700 30.12500
H  49.27500 38.16700 30.04600
H  47.62100 39.86200 29.74500
H  46.44400 38.60800 29.13100
H  47.53100 39.44000 28.06600
H  49.91200 36.26300 31.21100
H  49.25500 34.78900 30.74600
H  49.08200 35.83400 33.17900
H  48.30500 34.55500 32.55500
H  53.67000 39.97100 26.84000
H  52.13400 40.29000 27.40900
H  52.70900 41.19000 25.99300
H  54.70100 40.68800 22.95700
H  54.62900 40.06600 24.58700
H  53.44700 41.31700 23.98800
H  52.27100 34.13100 21.43500
H  49.84200 32.64500 21.56300
H  49.80600 35.54200 20.84900
H  49.95100 34.15300 19.88400
H  51.27600 35.34500 19.85300
H  51.31900 30.81800 22.89100
H  52.58000 32.00500 22.41200
H  52.74600 31.00500 20.56400
H  51.09000 31.12000 19.97300
H  51.54600 29.74600 21.03000
H  46.69700 29.64000 26.07900
H  47.72700 29.94600 24.76400
H  46.20000 30.79700 24.75200
H  45.70500 34.28500 29.16800
H  45.47600 32.13400 33.09600
H  47.16600 32.70800 33.07300
H  46.62000 31.22100 32.18000

