158

Mg 2.37000 -1.73400 43.34300
C  5.82000 -0.93200 42.73800
C  1.47800 1.04300 41.66600
C  -0.71700 -2.85200 43.48800
C  3.53600 -4.87700 44.61900
N  3.56200 -0.21600 42.16800
C  4.92600 0.03600 42.24600
C  5.32200 1.37000 41.65000
C  3.87500 2.05600 41.44700
C  2.90000 0.89500 41.83500
C  3.69600 3.39700 42.34500
C  6.09700 1.24600 40.30800
C  7.43600 2.00200 40.21000
H  8.05600 2.32900 38.79700
N  0.58500 -1.04800 42.59000
C  0.40300 0.17900 42.04400
C  -0.98100 0.34300 41.66600
C  -1.66000 -0.68600 42.32300
C  -0.61100 -1.61800 42.82000
C  -1.56800 1.41200 40.80600
C  -3.21700 -0.82500 42.30800
O  -3.87000 0.08400 41.86300
C  -3.91100 -2.05100 42.89900
N  1.53000 -3.61000 44.04400
C  0.20200 -3.80200 43.97900
C  -0.16300 -5.19200 44.47300
C  1.21600 -5.81600 44.89800
C  2.11300 -4.70500 44.43400
C  -1.30700 -5.11800 45.60400
C  1.61800 -7.14300 44.27000
C  1.54400 -8.41200 45.15100
N  4.24600 -2.77100 43.62500
C  4.49300 -3.96900 44.24500
C  5.88100 -4.08900 44.49600
C  6.45800 -2.93400 43.92500
C  5.42400 -2.20600 43.31600
C  6.59700 -5.18900 45.24600
C  7.72900 -2.17500 43.73500
O  8.89000 -2.36600 44.09500
C  7.32700 -0.80200 43.04300
C  7.57100 0.38000 43.92000
O  6.82500 0.79400 44.82500
O  8.63400 1.04900 43.44400
C  8.86100 2.40300 43.96300
H  1.18500 2.01200 41.25500
H  -1.77500 -3.12000 43.51200
H  3.88600 -5.74400 45.18200
H  5.88900 1.86200 42.44000
H  3.63500 2.27800 40.40700
H  4.70400 3.68300 42.64400
H  3.16100 3.00900 43.21200
H  3.22400 4.21500 41.80200
H  5.53600 1.52600 39.41700
H  6.49700 0.25100 40.11400
H  8.29300 1.53100 40.69000
H  7.26200 2.94500 40.72800
H  -2.25700 0.94500 40.10200
H  -0.76400 1.86500 40.22500
H  -1.97600 2.20700 41.42900
H  -4.92400 -1.65600 42.81500
H  -3.62700 -1.98300 43.94900
H  -3.82100 -2.93000 42.26100
H  -0.53700 -5.75900 43.62000
H  1.27800 -5.81500 45.98600
H  -2.23500 -5.60600 45.30700
H  -1.67600 -4.11600 45.82400
H  -0.92800 -5.51400 46.54700
H  2.60600 -7.09600 43.81400
H  0.86500 -7.27600 43.49300
H  2.34000 -9.09700 44.85900
H  0.64300 -8.96200 44.88000
H  1.49900 -8.18200 46.21600
H  7.16800 -5.81600 44.56200
H  5.99000 -5.89000 45.81900
H  7.29500 -4.64900 45.88600
H  7.81600 -0.59200 42.09200
H  8.50400 3.23600 43.35800
H  9.94800 2.44500 44.03300
H  8.48400 2.53800 44.97800
Mg 16.63700 51.45600 26.32100
C  18.50500 49.97700 28.89900
C  14.45900 52.63600 28.78100
C  14.78300 52.71800 23.92600
C  18.97900 50.18000 24.03800
N  16.35700 51.07200 28.50000
C  17.32800 50.60200 29.33100
C  17.06600 50.98300 30.85200
C  15.56400 51.41400 30.77400
C  15.44100 51.71400 29.24200
C  14.50100 50.38500 31.23500
C  18.05900 52.11400 31.33100
C  18.59600 51.96700 32.78300
H  17.75600 51.12700 33.74600
N  14.83200 52.44700 26.33300
C  14.09500 52.92400 27.42500
C  12.91700 53.66900 26.95100
C  13.05000 53.75600 25.59700
C  14.28700 52.94000 25.23800
C  12.01800 54.33700 27.97500
C  12.10800 54.39600 24.60600
O  12.37200 54.39500 23.41200
C  10.84900 54.91300 25.01300
N  16.78200 51.36700 24.26300
C  15.98300 52.15100 23.50300
C  16.39700 52.08000 22.05600
C  17.83400 51.41900 22.11200
C  17.90000 50.95100 23.55900
C  15.39800 51.42400 21.02100
C  19.06200 52.37800 21.78400
C  20.35700 51.68400 21.34400
N  18.34200 50.17800 26.32000
C  19.18100 49.77400 25.35200
C  20.30400 49.04200 25.93500
C  20.01700 49.03600 27.31400
C  18.82800 49.74600 27.51200
C  21.53200 48.51900 25.21600
C  20.47700 48.51600 28.58400
O  21.46800 47.78300 28.82700
C  19.49600 49.24000 29.71400
C  19.03900 48.33100 30.84000
O  18.22300 47.41700 30.75900
O  19.87200 48.52400 31.89700
C  19.99100 47.49600 32.87900
H  13.90200 52.94800 29.66700
H  14.29400 53.35200 23.18400
H  19.76600 49.94800 23.31800
H  17.12700 50.09700 31.48400
H  15.45200 52.31600 31.37500
H  13.85400 50.83100 31.99100
H  14.93500 49.54900 31.78400
H  13.97200 49.93200 30.39700
H  17.52000 53.06100 31.33000
H  18.81200 52.10900 30.54300
H  18.67300 53.01700 33.06200
H  19.63400 51.63200 32.80800
H  12.28800 53.97500 28.96700
H  10.98800 54.03600 27.78500
H  12.09600 55.42200 27.92200
H  11.04300 55.81600 25.59100
H  10.35900 54.34200 25.80200
H  10.18500 54.93400 24.14900
H  16.69400 53.08600 21.75900
H  17.83300 50.47600 21.56500
H  15.04400 50.45700 21.37900
H  16.10800 51.20000 20.22500
H  14.65300 52.05900 20.54100
H  19.28500 52.87400 22.72900
H  18.75800 53.05400 20.98400
H  21.07000 51.84100 22.15300
H  20.71100 52.15200 20.42600
H  20.30600 50.61000 21.16500
H  21.82200 49.15900 24.38300
H  21.28700 47.48900 24.95700
H  22.33800 48.52200 25.95000
H  20.15100 50.01500 30.11300
H  20.46500 46.54600 32.63200
H  19.02900 47.19800 33.29500
H  20.51400 47.96200 33.71400

