158

Mg 47.64500 34.94700 28.06300
C  45.95500 33.31500 30.64500
C  47.81500 37.75800 30.04700
C  48.69700 36.70500 25.42000
C  46.84800 32.24300 25.87500
N  46.95800 35.38700 30.06100
C  46.47400 34.48600 31.01600
C  46.43200 35.21700 32.42200
C  46.65300 36.68500 31.96100
C  47.17000 36.62600 30.56000
C  45.27100 37.48500 32.11000
C  47.53500 34.45800 33.38100
C  48.75400 35.18200 33.84700
H  48.52600 36.16400 35.05500
N  48.35600 36.85200 27.76000
C  48.31700 37.91200 28.68600
C  48.89900 39.14900 28.15300
C  49.16000 38.80200 26.73500
C  48.75800 37.42500 26.58100
C  48.89100 40.48900 28.84900
C  49.61100 39.77600 25.67700
O  49.54100 39.57200 24.47900
C  50.23300 41.11000 25.96000
N  47.91000 34.43200 26.00000
C  48.18100 35.40100 25.10900
C  48.14700 34.93900 23.62700
C  47.89900 33.40500 23.83600
C  47.44500 33.36900 25.30200
C  47.05200 35.64400 22.79600
C  49.14700 32.55800 23.54300
C  50.25600 32.38800 24.61400
N  46.57400 33.07200 28.17900
C  46.43300 32.10500 27.23000
C  45.61600 31.08000 27.87900
C  45.40500 31.49100 29.21000
C  45.97900 32.72200 29.36700
C  45.13600 29.83700 27.12400
C  44.84600 31.08700 30.48400
O  44.27400 30.10600 30.95000
C  44.99100 32.38800 31.33100
C  45.18900 32.11600 32.86900
O  46.15400 31.49400 33.32000
O  44.19100 32.65900 33.58200
C  44.28700 32.59700 35.05800
H  47.70800 38.60100 30.73300
H  49.11800 37.19900 24.54100
H  46.58100 31.45400 25.16900
H  45.50800 35.04200 32.97500
H  47.47200 37.11100 32.54100
H  44.76500 37.47300 33.07500
H  44.64400 37.21200 31.26100
H  45.52600 38.54000 32.00900
H  47.87600 33.62200 32.77000
H  47.01000 34.10700 34.27000
H  49.30200 35.76500 33.10800
H  49.52300 34.44900 34.08900
H  47.94900 40.98100 28.60300
H  49.77700 41.12200 28.80400
H  49.07100 40.28000 29.90300
H  49.44100 41.84100 26.12300
H  50.62500 41.43600 24.99600
H  51.03100 41.06400 26.70100
H  49.12300 35.29600 23.29700
H  47.07300 32.99200 23.25700
H  47.51300 35.96000 21.86000
H  46.72300 36.57400 23.26100
H  46.17500 35.00700 22.69100
H  49.55900 33.00000 22.63600
H  48.73000 31.60300 23.22300
H  49.99200 32.89800 25.54000
H  51.24300 32.71100 24.28300
H  50.46100 31.33300 24.80000
H  45.97300 29.14600 27.02300
H  44.85300 30.22300 26.14400
H  44.23300 29.37000 27.51700
H  44.00900 32.86200 31.32200
H  45.26800 32.89600 35.42500
H  44.02300 31.61200 35.44500
H  43.55200 33.25600 35.52000
Mg 27.13100 50.68500 26.69800
C  24.99500 51.47000 29.51800
C  29.39800 49.76000 29.01500
C  28.97900 49.97500 24.13500
C  24.60300 51.93300 24.60300
N  27.17600 50.52800 29.03600
C  26.18400 50.91900 29.94700
C  26.72400 50.82700 31.39200
C  28.21600 50.34100 31.17300
C  28.27800 50.15100 29.67900
C  29.36900 51.35600 31.60200
C  25.94600 49.80800 32.36300
C  25.64400 50.27700 33.79000
H  25.67000 49.20700 34.89400
N  28.97400 50.02500 26.55900
C  29.73400 49.58800 27.65400
C  31.02600 49.09000 27.15200
C  30.94700 49.14500 25.71500
C  29.61100 49.69300 25.36900
C  32.18000 48.61700 28.06900
C  32.06100 48.87600 24.73900
O  31.85200 49.08300 23.55600
C  33.40100 48.29400 25.18500
N  26.85200 51.00000 24.72300
C  27.81100 50.56900 23.77600
C  27.24800 50.66300 22.31000
C  25.75400 51.23700 22.45700
C  25.67100 51.37600 24.04500
C  28.04500 51.54700 21.42500
C  24.60400 50.38700 21.94600
C  23.89000 50.81700 20.58600
N  25.21400 51.57700 26.98700
C  24.34200 52.06200 25.99900
C  23.16100 52.52400 26.70400
C  23.40900 52.39800 28.05100
C  24.61800 51.77200 28.17400
C  22.00500 53.22700 26.18400
C  22.91000 52.72300 29.42900
O  21.90500 53.22900 29.84700
C  23.94300 52.03900 30.35700
C  24.38900 53.20100 31.03400
O  25.22700 53.96400 30.63500
O  23.89500 53.26500 32.28800
C  24.53400 54.11200 33.27200
H  30.08900 49.28200 29.71300
H  29.48100 49.74200 23.19400
H  23.80400 52.27000 23.93900
H  26.71000 51.83600 31.80500
H  28.38600 49.36200 31.61900
H  28.92400 52.35000 31.55800
H  30.17700 51.50500 30.88600
H  29.70800 51.09300 32.60300
H  26.49800 48.88600 32.54700
H  24.97900 49.54100 31.93700
H  24.63400 50.68600 33.78000
H  26.38800 51.01800 34.08300
H  31.85200 48.51800 29.10400
H  32.96600 49.36000 27.92800
H  32.50100 47.63900 27.71100
H  33.21600 47.27200 25.51700
H  33.73500 48.91900 26.01300
H  34.08700 48.36400 24.34100
H  27.18500 49.66100 21.88500
H  25.71300 52.25300 22.06500
H  28.44300 52.41000 21.96000
H  27.48400 51.85000 20.54100
H  28.84500 50.89900 21.06600
H  23.81900 50.33600 22.70100
H  24.92200 49.34900 21.85600
H  24.15500 50.06900 19.83900
H  24.06600 51.84200 20.25700
H  22.80500 50.83200 20.68700
H  21.58400 52.62600 25.37800
H  22.21800 54.14100 25.63000
H  21.28200 53.40300 26.98100
H  23.39100 51.23900 30.85000
H  24.50800 55.10300 32.81900
H  25.56500 53.76700 33.34500
H  24.10200 54.02000 34.26900

