158

Mg 6.99100 52.93700 40.33000
C  6.83100 49.45800 39.98900
C  10.39400 52.71100 39.78900
C  7.09400 56.36500 39.68500
C  3.61400 53.01600 40.54300
N  8.38600 51.24900 39.64600
C  8.13200 49.86100 39.68000
C  9.35500 49.06300 39.50900
C  10.46300 50.07200 40.00600
C  9.70000 51.47500 39.70100
C  10.97700 50.02400 41.48600
C  9.55400 48.55400 38.03800
C  8.98800 49.39000 36.87900
H  7.68800 48.97200 36.20500
N  8.48900 54.37000 39.83400
C  9.87000 54.03300 39.66000
C  10.63100 55.21300 39.57700
C  9.68000 56.29600 39.46200
C  8.32300 55.71600 39.60800
C  12.08800 55.24400 39.39500
C  10.00200 57.80700 39.38900
O  11.19000 58.16400 39.49300
C  9.03200 58.90000 39.14400
N  5.53500 54.50400 40.14600
C  5.75800 55.83600 40.01400
C  4.41500 56.66800 40.02300
C  3.36400 55.59800 40.30300
C  4.19800 54.24600 40.32300
C  4.49900 57.75500 41.07000
C  2.34100 55.52100 39.06000
C  0.85300 55.59900 39.51700
N  5.55200 51.54700 40.46600
C  4.14700 51.73500 40.58500
C  3.50700 50.45000 40.81900
C  4.57500 49.56000 40.61000
C  5.79600 50.25900 40.39700
C  2.02800 50.15700 40.97700
C  4.82300 48.17700 40.63600
O  4.08400 47.23900 40.88400
C  6.25000 48.04600 40.07900
C  6.21400 47.28100 38.77400
O  5.48500 47.50300 37.82000
O  7.00500 46.18100 38.93600
C  6.75900 45.14900 37.93500
H  11.47400 52.65600 39.93600
H  7.08800 57.37300 39.26500
H  2.56400 53.05100 40.84000
H  9.42500 48.24300 40.22400
H  11.36800 50.04700 39.39900
H  10.53900 50.80300 42.10900
H  12.03500 50.27200 41.39600
H  10.76800 49.04100 41.90900
H  8.98600 47.63000 37.93200
H  10.62100 48.51900 37.82000
H  9.79400 49.57800 36.17000
H  8.75300 50.40800 37.19100
H  12.27200 55.88900 38.53500
H  12.57100 54.30000 39.14300
H  12.50200 55.73200 40.27700
H  8.22200 58.96500 39.87100
H  8.53200 58.60700 38.22100
H  9.47700 59.87900 38.96700
H  4.25200 57.09800 39.03500
H  2.79900 55.65100 41.23400
H  3.84400 57.68500 41.93900
H  4.23400 58.66500 40.53000
H  5.49500 57.86800 41.49900
H  2.40500 54.56300 38.54500
H  2.39800 56.26400 38.26400
H  0.75700 55.47900 40.59600
H  0.34900 54.73100 39.09200
H  0.39500 56.51700 39.14700
H  1.61700 50.09100 39.97000
H  1.41400 50.91000 41.47200
H  1.93700 49.21300 41.51400
H  6.66200 47.36300 40.82200
H  7.44100 44.33100 38.16900
H  6.78600 45.45000 36.88800
H  5.79500 44.66400 38.08900
Mg 17.32400 51.42600 26.62700
C  19.01000 50.02200 29.35500
C  14.82100 52.26900 28.79300
C  15.50600 52.31000 23.87200
C  19.82300 50.30900 24.53400
N  16.98900 51.31000 28.87700
C  17.84000 50.71300 29.78700
C  17.48000 51.08900 31.21500
C  15.99700 51.52400 31.02100
C  15.95500 51.76200 29.46700
C  14.97200 50.45500 31.48500
C  18.36300 52.30600 31.68700
C  18.41100 52.59400 33.23700
H  17.58700 51.78600 34.24700
N  15.44200 52.22300 26.33500
C  14.57700 52.50700 27.34800
C  13.30400 53.01100 26.77400
C  13.44500 52.97500 25.34300
C  14.87300 52.51800 25.11100
C  12.20800 53.48100 27.61700
C  12.40900 53.15300 24.32000
O  12.68800 52.89100 23.14300
C  11.07000 53.75900 24.72600
N  17.62300 51.40800 24.59600
C  16.79900 51.84400 23.63700
C  17.40500 51.76000 22.20900
C  18.86400 51.33400 22.43200
C  18.82700 51.05500 23.95000
C  16.60500 50.80000 21.29700
C  19.91400 52.43600 22.00600
C  21.32400 51.93500 21.63900
N  19.06300 50.40300 26.84300
C  20.02400 50.06500 25.87000
C  21.13200 49.38700 26.51500
C  20.73900 49.29800 27.86000
C  19.49200 49.94600 27.97600
C  22.38100 48.85900 25.87100
C  21.07400 48.84700 29.16600
O  22.06600 48.18300 29.49600
C  19.98600 49.30700 30.20900
C  19.49400 48.18800 31.13000
O  18.48900 47.52800 30.92600
O  20.26600 48.21300 32.29200
C  19.84700 47.17700 33.24700
H  14.03800 52.41800 29.53900
H  14.96900 52.58200 22.96100
H  20.65600 49.95300 23.92500
H  17.66800 50.23900 31.87000
H  15.73300 52.43500 31.55700
H  15.29500 49.80100 32.29500
H  14.55200 49.90100 30.64500
H  14.17600 51.10200 31.85200
H  17.96900 53.06400 31.00900
H  19.36400 52.00600 31.37600
H  18.26200 53.67200 33.28300
H  19.44200 52.48700 33.57400
H  11.90500 54.50900 27.41600
H  12.27600 53.31400 28.69200
H  11.31500 52.90400 27.37500
H  10.36900 53.06200 25.18500
H  10.59200 54.13500 23.82200
H  11.15700 54.61800 25.39300
H  17.32000 52.73800 21.73500
H  19.15200 50.42500 21.90400
H  16.56000 51.36300 20.36500
H  15.62900 50.62500 21.75100
H  17.20500 49.91700 21.07900
H  20.00200 53.18900 22.78900
H  19.48300 52.98300 21.16800
H  22.04000 52.25500 22.39600
H  21.76200 52.25700 20.69500
H  21.31500 50.85300 21.50800
H  22.40300 49.00200 24.79100
H  22.38900 47.80800 26.15900
H  23.29100 49.31500 26.26000
H  20.33800 50.04700 30.92800
H  20.77300 46.97600 33.78500
H  19.53400 46.26100 32.74600
H  19.03500 47.61300 33.82900

