158

Mg 9.00600 4.13500 27.97500
C  10.31700 2.44300 30.70300
C  7.00400 6.03300 30.01000
C  7.57700 5.60700 25.25100
C  10.53000 1.79900 25.77200
N  8.75000 4.15500 30.10200
C  9.41000 3.47200 31.08200
C  8.97300 3.76200 32.46100
C  7.86700 4.87600 32.19400
C  7.84500 5.06200 30.66700
C  6.46900 4.60700 32.83200
C  10.11200 4.15000 33.40600
C  9.61600 4.78100 34.75000
H  10.73700 5.04100 35.79100
N  7.66100 5.68400 27.65800
C  6.95800 6.34100 28.65500
C  6.13100 7.42700 28.12900
C  6.30100 7.41100 26.64200
C  7.17100 6.16700 26.45500
C  5.30200 8.42100 28.87200
C  5.77700 8.32900 25.55000
O  5.99300 8.18700 24.34500
C  5.14700 9.46300 25.93500
N  9.02200 3.70100 25.76100
C  8.44900 4.50700 24.87700
C  8.51900 3.92100 23.43200
C  9.58900 2.76200 23.70600
C  9.73300 2.75500 25.21300
C  7.07500 3.42100 22.92100
C  10.89900 2.80700 22.87200
C  11.43800 1.59800 22.14800
N  10.22700 2.44800 28.15300
C  10.73200 1.61900 27.17600
C  11.58900 0.66900 27.91200
C  11.40700 0.87200 29.28200
C  10.62800 2.05300 29.33300
C  12.31100 -0.50800 27.26800
C  11.79600 0.48800 30.60500
O  12.46300 -0.52300 30.88600
C  11.05000 1.43500 31.58000
C  10.01000 0.68400 32.31400
O  8.94600 0.30400 31.88800
O  10.54600 0.47500 33.58000
C  9.47600 -0.06100 34.48000
H  6.51600 6.66900 30.75200
H  7.04100 5.97600 24.37400
H  11.03700 1.10600 25.09700
H  8.53500 2.82500 32.80200
H  8.28500 5.76100 32.67400
H  6.38500 5.33700 33.63700
H  6.45700 3.59700 33.24100
H  5.60100 4.64400 32.17400
H  10.78000 4.78800 32.82700
H  10.63800 3.22900 33.65700
H  8.81900 4.21000 35.22600
H  9.26100 5.79600 34.57300
H  5.62300 9.45700 28.76000
H  5.39800 8.16100 29.92600
H  4.23700 8.44000 28.64100
H  4.12000 9.24600 26.23000
H  4.96800 10.15400 25.11100
H  5.67300 9.94100 26.76100
H  9.03700 4.50600 22.67200
H  9.21900 1.73900 23.63500
H  7.00900 2.33800 23.02800
H  6.76800 3.78000 21.93900
H  6.36100 3.81900 23.64200
H  11.69600 3.17800 23.51600
H  10.81200 3.54600 22.07600
H  12.46500 1.58700 22.51300
H  11.38200 1.69400 21.06400
H  10.99300 0.70400 22.58500
H  12.12400 -0.59100 26.19800
H  12.03300 -1.45800 27.72500
H  13.39700 -0.48300 27.35600
H  11.80300 1.92600 32.19700
H  8.88300 0.84600 34.59800
H  9.89300 -0.30300 35.45700
H  8.90600 -0.92600 34.14300
Mg -10.52500 17.45900 40.99800
C  -6.93500 16.81700 41.05000
C  -10.00500 20.58700 40.14900
C  -13.74700 17.51500 40.14300
C  -10.82400 13.91400 41.54300
N  -8.66600 18.53900 40.55800
C  -7.34900 18.20300 40.75800
C  -6.40700 19.41800 40.42400
C  -7.43900 20.57300 40.58400
C  -8.77500 19.87900 40.39800
C  -7.22600 21.36600 41.95700
C  -5.76800 19.32400 39.02000
C  -4.17900 19.06600 38.99800
H  -3.71300 18.08400 37.90200
N  -11.79900 18.94000 40.49800
C  -11.42100 20.24100 40.25100
C  -12.55900 21.01100 40.00500
C  -13.67300 20.09600 39.91100
C  -13.09600 18.77700 40.10200
C  -12.48000 22.48300 39.82500
C  -15.08900 20.49200 39.79300
O  -15.38200 21.64000 39.68900
C  -16.23800 19.50100 39.85800
N  -12.10700 15.83700 40.56400
C  -13.37200 16.20200 40.48100
C  -14.27900 15.01800 40.61900
C  -13.36700 13.91600 41.28800
C  -11.99600 14.53000 41.10900
C  -15.60100 15.38000 41.35900
C  -13.55400 12.47500 40.73700
C  -12.56400 11.91300 39.67800
N  -9.24500 15.75200 41.28100
C  -9.55600 14.38700 41.57400
C  -8.36400 13.66700 41.73300
C  -7.31700 14.60900 41.70500
C  -7.85800 15.81900 41.25000
C  -8.24000 12.13200 41.92500
C  -5.87700 14.67800 41.84200
O  -5.08400 13.80300 42.19500
C  -5.56900 16.14200 41.32000
C  -4.66200 16.97900 42.26000
O  -3.43500 17.09500 42.20000
O  -5.42600 17.56200 43.11900
C  -4.70200 18.33600 44.14300
H  -9.94100 21.67000 40.02600
H  -14.82500 17.48600 39.97300
H  -10.92500 12.93400 42.01500
H  -5.70500 19.40000 41.25700
H  -7.25000 21.25100 39.75200
H  -6.66300 22.28900 41.81800
H  -6.67800 20.66900 42.59000
H  -8.12900 21.65500 42.49500
H  -5.94500 20.13800 38.31700
H  -6.29500 18.49000 38.55600
H  -3.79600 18.68400 39.94400
H  -3.62900 20.00300 38.92300
H  -12.51400 22.66600 38.75200
H  -11.64600 23.01900 40.27700
H  -13.31900 22.98100 40.31100
H  -16.03300 19.04600 38.88900
H  -17.25000 19.89600 39.95200
H  -16.19400 18.72900 40.62700
H  -14.54800 14.64500 39.63100
H  -13.50000 14.05100 42.36200
H  -15.34900 16.20300 42.02700
H  -16.04800 14.59300 41.96700
H  -16.34300 15.61400 40.59500
H  -14.55700 12.37500 40.32100
H  -13.54600 11.83900 41.62200
H  -12.04000 12.67600 39.10100
H  -13.06600 11.32400 38.91100
H  -11.87500 11.27900 40.23500
H  -8.95400 11.82200 42.68700
H  -7.24500 11.86600 42.28200
H  -8.43000 11.54700 41.02400
H  -4.96800 15.92100 40.43800
H  -5.52000 18.85300 44.64300
H  -4.05400 19.02200 43.59700
H  -4.14300 17.65400 44.78400

