158

Mg 42.79700 42.27300 26.13700
C  41.69300 44.52200 28.64400
C  44.35600 40.46600 28.54100
C  43.99500 40.28700 23.74400
C  41.84300 44.62200 23.76300
N  42.79500 42.39800 28.40900
C  42.27400 43.36800 29.21300
C  42.29700 42.93000 30.67000
C  43.29900 41.63700 30.57300
C  43.57800 41.51900 29.06000
C  44.65500 41.85700 31.40500
C  40.85100 42.64900 31.18500
C  40.69800 41.81100 32.43800
H  40.05900 42.68400 33.54900
N  43.89400 40.55700 26.07200
C  44.40100 39.89900 27.25600
C  45.08000 38.72200 26.81600
C  44.99100 38.64900 25.41400
C  44.30100 39.89100 25.03200
C  45.84900 37.82100 27.77000
C  45.49100 37.53300 24.46700
O  45.36900 37.66300 23.23500
C  46.10500 36.29100 25.10900
N  42.89500 42.50300 24.09900
C  43.38200 41.48800 23.29500
C  43.37900 41.82500 21.81700
C  42.55200 43.11300 21.77600
C  42.48800 43.50400 23.27800
C  44.79100 42.09200 21.12500
C  41.03400 42.99000 21.34600
C  40.40300 41.61500 21.58600
N  41.96900 44.23200 26.15000
C  41.63400 45.06300 25.13600
C  41.18300 46.30700 25.64600
C  41.03500 46.12700 26.98100
C  41.65700 44.86500 27.27800
C  40.90100 47.45900 24.73000
C  40.63800 46.74600 28.29600
O  40.10600 47.81200 28.55000
C  40.99100 45.65500 29.38100
C  41.87900 46.34300 30.38400
O  42.92800 46.82200 30.17500
O  41.33100 46.35200 31.65800
C  42.12000 46.94100 32.75300
H  44.72300 39.83700 29.35400
H  44.28000 39.70800 22.86300
H  41.56000 45.35200 23.00200
H  42.74600 43.74800 31.23400
H  42.81800 40.77200 31.03100
H  44.61500 42.79000 31.96700
H  45.48300 42.00000 30.71100
H  44.83200 41.01000 32.06700
H  40.15800 42.30900 30.41500
H  40.45100 43.64700 31.36300
H  41.71600 41.52800 32.70300
H  40.08200 40.97200 32.11400
H  46.88700 37.76600 27.44100
H  45.44800 36.80800 27.74200
H  45.95400 38.25000 28.76600
H  47.06500 36.60500 25.51800
H  46.26100 35.50800 24.36600
H  45.52000 35.87700 25.93000
H  42.78400 41.12900 21.22500
H  42.99400 43.94000 21.22100
H  44.81400 41.60100 20.15200
H  45.42000 41.48500 21.77600
H  45.08100 43.14100 21.06000
H  40.91700 43.42400 20.35300
H  40.49000 43.73900 21.92100
H  39.32400 41.74900 21.51900
H  40.57400 41.21900 22.58800
H  40.74100 40.97600 20.77000
H  40.27900 47.13900 23.89500
H  41.84200 47.76500 24.27400
H  40.48300 48.26900 25.32800
H  40.07600 45.37300 29.90300
H  41.64200 47.90500 32.92600
H  43.12500 47.26200 32.47900
H  42.03500 46.35700 33.67000
Mg 17.31000 52.82600 26.52100
C  19.27200 51.27800 29.01100
C  14.97900 53.51600 29.02300
C  15.28900 53.86500 24.14000
C  19.50100 51.49000 24.05500
N  17.24600 52.41300 28.69400
C  18.19800 51.95300 29.57400
C  17.83500 52.18900 30.98000
C  16.28800 52.46600 30.88300
C  16.14100 52.83200 29.41100
C  15.59600 51.14600 31.24300
C  18.53000 53.30500 31.75500
C  18.55600 53.21300 33.29700
H  17.47100 52.34200 34.00900
N  15.38900 53.63500 26.59300
C  14.66400 53.92300 27.71700
C  13.44600 54.47800 27.32600
C  13.40300 54.54300 25.86500
C  14.72100 53.99300 25.43400
C  12.37400 54.82900 28.42500
C  12.26000 54.97900 24.96800
O  12.29000 54.73600 23.76900
C  11.13700 55.68000 25.49700
N  17.51900 52.87000 24.43500
C  16.50400 53.39400 23.68400
C  16.78500 53.22100 22.10800
C  18.31100 52.60100 22.15600
C  18.41700 52.28300 23.62600
C  15.71000 52.28800 21.45400
C  19.52500 53.48900 21.72400
C  19.35300 54.88600 21.12700
N  19.05400 51.74500 26.45100
C  19.82500 51.27100 25.40700
C  20.89800 50.48600 25.98200
C  20.68900 50.47500 27.38100
C  19.59600 51.27500 27.65400
C  21.93300 49.87400 25.13800
C  21.34200 49.95400 28.58800
O  22.33000 49.25800 28.83900
C  20.39400 50.53000 29.74600
C  19.79100 49.45000 30.54000
O  19.10600 48.55800 30.08800
O  20.32200 49.36200 31.79200
C  19.80000 48.19300 32.58800
H  14.28900 53.85700 29.79700
H  14.61900 54.06600 23.30200
H  20.01500 50.97500 23.24100
H  18.09500 51.29700 31.55100
H  15.97300 53.34100 31.45200
H  15.77200 50.34900 30.52000
H  14.54300 51.36600 31.42200
H  16.04500 50.84500 32.18900
H  18.04700 54.25700 31.53300
H  19.54300 53.23100 31.35900
H  18.55900 54.22400 33.70300
H  19.52900 52.80300 33.56700
H  11.35800 54.84600 28.03200
H  12.73500 55.72500 28.93000
H  12.45900 53.96300 29.08200
H  11.62000 56.50300 26.02600
H  10.61200 54.93200 26.09100
H  10.52800 56.15100 24.72600
H  16.65000 54.17000 21.58800
H  18.12700 51.64800 21.66000
H  14.92000 52.95900 21.11800
H  15.38400 51.65500 22.27900
H  16.13600 51.70000 20.64000
H  20.04500 52.99700 20.90100
H  20.17900 53.50400 22.59600
H  18.86800 54.77300 20.15700
H  20.27300 55.46900 21.08200
H  18.70000 55.45400 21.78900
H  22.62300 50.59200 24.69300
H  21.44400 49.30800 24.34500
H  22.43600 49.19300 25.82400
H  20.99000 51.16000 30.40500
H  20.07800 47.22100 32.18200
H  18.71400 48.11800 32.63600
H  20.25000 48.25700 33.57800

