158

Mg 46.39900 34.53100 27.93300
C  44.26700 32.66600 30.19100
C  46.37500 36.98900 30.40600
C  47.91500 36.52500 25.75000
C  45.94600 32.09200 25.53100
N  45.59100 34.74600 30.07700
C  44.75600 33.82900 30.72300
C  44.63300 34.33600 32.17800
C  45.01600 35.85500 32.22700
C  45.72400 35.89700 30.84400
C  43.80800 36.77000 32.31200
C  45.42400 33.37200 33.12600
C  46.30100 33.87000 34.29200
H  45.70600 34.81300 35.36200
N  47.17400 36.47400 28.15300
C  47.11500 37.30400 29.21600
C  47.88100 38.49300 28.88200
C  48.32700 38.38900 27.50000
C  47.79200 37.08600 27.06600
C  47.85600 39.68600 29.81800
C  49.15500 39.30800 26.62800
O  49.50100 39.10700 25.43200
C  49.68300 40.65000 27.24200
N  46.62900 34.40400 25.88200
C  47.41500 35.37800 25.20100
C  47.74100 34.86000 23.78200
C  47.22500 33.37900 23.80500
C  46.48600 33.28700 25.06700
C  46.94600 35.69600 22.73700
C  48.41800 32.41900 23.75600
C  48.36900 31.24700 22.77100
N  45.33400 32.75700 27.89300
C  45.26300 31.88900 26.78600
C  44.56200 30.69400 27.27100
C  44.05500 31.03100 28.55500
C  44.52500 32.26900 28.89100
C  44.45000 29.31900 26.58200
C  43.25000 30.52200 29.59800
O  42.61600 29.45400 29.64900
C  43.17000 31.62500 30.67700
C  43.32100 31.11100 32.04500
O  44.11200 30.27600 32.45700
O  42.31700 31.67800 32.87000
C  42.17600 31.14500 34.23700
H  46.37100 37.85500 31.07100
H  48.50900 37.03600 24.98900
H  45.82700 31.25700 24.83700
H  43.59100 34.20200 32.46600
H  45.72300 36.16800 32.99600
H  43.84200 37.17300 33.32400
H  42.87500 36.22300 32.17400
H  43.78400 37.64200 31.65900
H  46.12200 32.80400 32.51100
H  44.67400 32.72300 33.57800
H  47.08400 34.43700 33.78900
H  46.77000 32.96000 34.66800
H  47.55200 40.62600 29.35900
H  48.85400 39.94900 30.16900
H  47.19900 39.68900 30.68700
H  50.38300 41.13000 26.55800
H  50.15900 40.35200 28.17600
H  48.87900 41.36100 27.43400
H  48.80500 35.02700 23.61600
H  46.53000 33.15600 22.99600
H  47.50000 36.62200 22.58100
H  46.06800 36.00900 23.30200
H  46.77600 35.06500 21.86500
H  48.49600 31.93300 24.72800
H  49.34900 32.98600 23.76900
H  47.47500 31.29300 22.14900
H  48.48200 30.26400 23.22900
H  49.24900 31.45000 22.16100
H  43.81300 28.60400 27.10300
H  45.40000 28.80900 26.41700
H  43.95000 29.49500 25.62900
H  42.17300 32.03300 30.51200
H  42.71800 30.21800 34.42000
H  41.19800 31.04800 34.70900
H  42.66100 31.94200 34.80000
Mg -2.35500 34.49500 27.30300
C  -3.26700 32.39900 29.90700
C  -0.50200 36.35900 29.40000
C  -2.02200 36.75500 24.88000
C  -4.19900 32.48000 25.05600
N  -2.01500 34.34600 29.48700
C  -2.39000 33.36900 30.32900
C  -1.83900 33.67800 31.77100
C  -0.85700 34.96600 31.53800
C  -1.16400 35.30400 30.06500
C  -1.07600 36.09900 32.55100
C  -1.03700 32.52900 32.24200
C  -1.48500 31.93200 33.52000
H  -0.38500 32.03100 34.63000
N  -1.46400 36.30500 27.20200
C  -0.75400 36.95000 28.14100
C  0.00100 38.09000 27.62900
C  -0.60900 38.35000 26.33600
C  -1.40400 37.05000 26.06500
C  0.96300 38.89500 28.47900
C  -0.42800 39.54500 25.31400
O  -0.88800 39.50000 24.20900
C  0.29800 40.75200 25.76300
N  -2.97800 34.58000 25.26300
C  -2.75400 35.66300 24.50400
C  -3.36400 35.46300 23.09900
C  -3.66600 33.97400 23.06400
C  -3.64400 33.63400 24.57200
C  -4.59800 36.35300 22.86700
C  -2.62600 33.09900 22.18600
C  -3.29000 32.24300 21.11300
N  -3.44600 32.70900 27.43900
C  -4.17500 32.04800 26.45600
C  -4.89500 30.94500 27.01800
C  -4.58200 30.99800 28.45200
C  -3.71700 32.11400 28.59900
C  -5.69600 29.87900 26.29000
C  -4.83900 30.48400 29.75600
O  -5.62000 29.58100 30.07400
C  -3.98100 31.35500 30.72200
C  -4.91400 31.97500 31.75500
O  -5.59600 32.98900 31.61700
O  -4.75700 31.31300 32.94000
C  -5.57000 31.75700 34.05200
H  0.25100 36.64900 30.13700
H  -1.95600 37.49700 24.08200
H  -4.65600 31.73600 24.40000
H  -2.68600 33.96500 32.39500
H  0.21600 34.77200 31.51800
H  -0.14700 36.22200 33.10700
H  -1.82100 35.64500 33.20500
H  -1.32500 37.01300 32.01200
H  0.01800 32.79800 32.18800
H  -1.09800 31.74000 31.49200
H  -1.70300 30.88000 33.33800
H  -2.36600 32.48500 33.84800
H  1.48300 38.23600 29.17400
H  0.47900 39.67700 29.06400
H  1.59200 39.36900 27.72500
H  0.18300 41.47900 24.95900
H  1.38200 40.76000 25.88300
H  -0.01600 41.18100 26.71400
H  -2.64200 35.73500 22.32800
H  -4.64600 33.69900 22.67500
H  -5.11200 36.48100 23.82000
H  -5.24200 35.85500 22.14200
H  -4.46500 37.25300 22.26600
H  -2.14400 32.41700 22.88600
H  -1.79100 33.70100 21.82800
H  -4.12300 32.84400 20.75100
H  -3.55300 31.25700 21.49800
H  -2.69400 32.03100 20.22600
H  -5.27000 28.88800 26.44200
H  -5.67400 30.03300 25.21200
H  -6.69700 29.81800 26.71700
H  -3.26100 30.73000 31.25000
H  -4.92500 32.28200 34.75500
H  -5.84000 30.80400 34.50700
H  -6.40200 32.40200 33.77100

