158

Mg 2.06200 -1.20700 43.58200
C  5.43200 -0.20100 42.75000
C  0.91400 1.62800 42.06100
C  -0.95900 -2.69500 43.52400
C  3.46500 -4.20600 44.88800
N  3.07600 0.41700 42.46800
C  4.44900 0.61900 42.26300
C  4.67800 1.99600 41.62100
C  3.29900 2.67500 41.68400
C  2.32800 1.53500 42.13400
C  3.20400 3.95600 42.63700
C  5.09700 1.79000 40.13900
C  5.94800 2.81900 39.41800
H  5.38300 3.52800 38.24200
N  0.17200 -0.57900 42.98200
C  -0.12000 0.66200 42.44300
C  -1.50400 0.83600 42.37900
C  -2.11600 -0.37600 42.87300
C  -0.99700 -1.33200 43.15000
C  -2.12900 2.14100 41.85300
C  -3.60400 -0.65100 43.06900
O  -4.43000 0.27500 42.78800
C  -4.02000 -1.98900 43.50700
N  1.33100 -3.09900 44.13200
C  0.09800 -3.52800 43.89900
C  -0.14400 -5.01700 44.07500
C  1.23300 -5.40400 44.78900
C  2.07000 -4.16600 44.59500
C  -1.43800 -5.27100 44.90400
C  2.02300 -6.59600 44.19400
C  2.15700 -7.79600 45.11600
N  4.00600 -2.03500 43.95400
C  4.36900 -3.22800 44.58200
C  5.80600 -3.20100 44.77400
C  6.25000 -2.08400 44.01100
C  5.11300 -1.41500 43.51700
C  6.64400 -4.17100 45.43800
C  7.57100 -1.38200 43.58900
O  8.73300 -1.71500 43.71200
C  6.97400 -0.07500 42.89800
C  7.40500 1.09000 43.69300
O  6.79200 1.60800 44.62000
O  8.66300 1.48500 43.24900
C  8.99700 2.88000 43.73300
H  0.69400 2.64700 41.73800
H  -1.86000 -3.30100 43.40700
H  3.94000 -5.07300 45.35200
H  5.38700 2.65600 42.12000
H  3.05600 3.07000 40.69700
H  4.04600 3.96300 43.32900
H  2.29500 3.96200 43.23900
H  3.20400 4.87500 42.05200
H  4.17900 1.51800 39.61800
H  5.59200 0.84200 39.92900
H  6.78800 2.20200 39.10000
H  6.20100 3.60900 40.12600
H  -3.06300 1.84400 41.37700
H  -1.54200 2.58800 41.05100
H  -2.25700 2.95700 42.56500
H  -5.07300 -1.93100 43.78500
H  -3.57800 -2.28100 44.46000
H  -3.80500 -2.60800 42.63600
H  -0.23200 -5.32300 43.03200
H  1.06000 -5.44000 45.86400
H  -1.22000 -6.06300 45.62100
H  -2.26600 -5.54200 44.25000
H  -1.52900 -4.48100 45.65000
H  2.98000 -6.44900 43.69400
H  1.40100 -7.00100 43.39600
H  2.43800 -7.58100 46.14700
H  2.96900 -8.42100 44.74500
H  1.32500 -8.50000 45.09400
H  5.99700 -4.47000 46.26200
H  7.53000 -3.68000 45.84000
H  6.85500 -5.04500 44.82200
H  7.43700 0.06100 41.92000
H  9.75700 3.27100 43.05700
H  9.33100 2.78500 44.76600
H  8.13000 3.54000 43.68400
Mg 24.56000 -4.64900 45.73800
C  26.81900 -2.56600 44.32200
C  22.10100 -3.66900 43.62700
C  22.74800 -7.45700 46.55300
C  27.24900 -6.08900 47.74700
N  24.56600 -3.44000 43.96800
C  25.55000 -2.54300 43.70100
C  25.08600 -1.57500 42.61400
C  23.51800 -1.79300 42.52200
C  23.37900 -3.05900 43.43300
C  22.59900 -0.57400 42.81600
C  25.77300 -1.73400 41.18900
C  25.67600 -0.43700 40.33700
H  25.08700 -0.55300 38.89100
N  22.64000 -5.40300 45.24200
C  21.76200 -4.83800 44.39400
C  20.55700 -5.65000 44.29200
C  20.74300 -6.71100 45.20400
C  22.06000 -6.56300 45.70100
C  19.32100 -5.28300 43.41300
C  19.75200 -7.83500 45.55900
O  18.64900 -7.74200 45.01400
C  19.92500 -9.03900 46.44100
N  24.95700 -6.51600 46.89400
C  24.05500 -7.50700 46.99300
C  24.71800 -8.79300 47.41100
C  26.04700 -8.28900 48.11200
C  26.08800 -6.87600 47.58600
C  23.86000 -9.64900 48.34400
C  27.29200 -9.20100 47.96200
C  28.18600 -9.41100 49.19400
N  26.63700 -4.31000 46.15500
C  27.56300 -4.93800 46.96800
C  28.88100 -4.15100 46.90500
C  28.59700 -3.15800 45.85300
C  27.25000 -3.39800 45.36000
C  30.08100 -4.44600 47.80700
C  29.04100 -1.99800 45.08900
O  30.03600 -1.34000 45.18700
C  27.98900 -1.63900 44.06000
C  27.62500 -0.18800 44.25900
O  27.28000 0.26100 45.31700
O  27.64400 0.44200 43.08000
C  27.45500 1.88600 43.16500
H  21.27700 -3.09100 43.20400
H  22.27800 -8.43500 46.67200
H  28.04300 -6.50800 48.36800
H  25.16700 -0.59400 43.08100
H  23.16500 -2.00500 41.51300
H  21.74700 -0.73900 42.15700
H  23.13000 0.26400 42.36200
H  22.39800 -0.46100 43.88100
H  25.17100 -2.51500 40.72400
H  26.79300 -2.12000 41.21200
H  26.69000 -0.11800 40.09800
H  25.26300 0.38500 40.92300
H  18.34200 -5.31000 43.89300
H  19.15800 -5.92400 42.54600
H  19.30400 -4.24200 43.09200
H  19.96900 -8.76900 47.49600
H  20.73200 -9.66800 46.06300
H  19.01100 -9.63000 46.49900
H  24.94500 -9.47600 46.59200
H  25.81700 -8.16400 49.17000
H  24.35200 -9.86600 49.29300
H  23.58400 -10.55300 47.80200
H  22.99900 -9.04400 48.63000
H  27.84300 -8.81600 47.10400
H  26.96100 -10.19700 47.66600
H  29.17400 -9.35400 48.73700
H  27.98200 -10.37500 49.65900
H  28.12600 -8.65200 49.97500
H  30.74100 -5.06700 47.20100
H  29.90400 -4.94400 48.76000
H  30.65600 -3.52400 47.89700
H  28.41200 -1.73300 43.06000
H  27.87900 2.21900 44.11200
H  26.37700 1.99600 43.04700
H  27.80900 2.42400 42.28600

