158

Mg 9.23800 3.79600 27.12200
C  10.29300 2.13700 30.09400
C  6.83100 5.27600 29.10900
C  7.86900 4.97700 24.37300
C  10.96700 1.46800 25.29700
N  8.84500 4.02400 29.40800
C  9.44200 3.18400 30.33100
C  8.88700 3.67000 31.75400
C  7.64700 4.54300 31.40600
C  7.73100 4.64200 29.89200
C  6.31200 4.13800 31.96000
C  10.04300 4.37200 32.57600
C  10.43000 3.68600 33.94200
H  10.77200 4.55500 35.13500
N  7.68400 5.03600 26.74900
C  6.82600 5.54700 27.72600
C  5.80900 6.43000 27.06200
C  6.18900 6.45500 25.69800
C  7.29000 5.49100 25.52400
C  4.58500 7.08000 27.69500
C  5.55200 7.16500 24.59200
O  5.82200 7.07300 23.39400
C  4.42200 8.21100 24.90200
N  9.32200 3.25100 25.12000
C  8.80400 3.94200 24.13600
C  9.38400 3.56200 22.70300
C  10.23200 2.29400 23.03500
C  10.21200 2.38200 24.58700
C  8.33700 3.44700 21.62900
C  11.56400 2.26900 22.39600
C  11.77400 0.89100 21.61900
N  10.36500 2.09000 27.56400
C  11.04300 1.24300 26.68600
C  11.76800 0.25300 27.39100
C  11.47800 0.54200 28.73900
C  10.69200 1.70800 28.79300
C  12.45800 -0.95500 26.78000
C  11.67400 0.11900 30.15200
O  12.23700 -0.84400 30.66700
C  10.91300 1.15700 31.08100
C  9.95600 0.26400 31.75700
O  8.81600 -0.06400 31.35300
O  10.37400 0.08200 33.07300
C  9.36000 -0.57000 33.94600
H  5.99200 5.62000 29.71800
H  7.50500 5.43900 23.45300
H  11.55900 0.66000 24.86100
H  8.74700 2.70600 32.24300
H  7.77400 5.54400 31.81800
H  6.52900 3.48400 32.80500
H  5.81500 3.51900 31.21400
H  5.78700 5.00600 32.35900
H  9.70100 5.36300 32.87200
H  10.87800 4.52700 31.89200
H  11.26500 3.01100 33.74900
H  9.69800 2.90800 34.16000
H  4.78300 8.14600 27.58700
H  4.57000 6.86700 28.76400
H  3.66200 6.86000 27.15900
H  3.53700 7.60000 25.08200
H  4.22400 8.74100 23.97000
H  4.73200 8.91200 25.67800
H  9.93100 4.43200 22.34000
H  9.67800 1.38000 22.81900
H  7.33500 3.51500 22.05400
H  8.45800 2.40700 21.32600
H  8.37700 4.21900 20.86100
H  12.25500 2.54700 23.19100
H  11.64400 3.04300 21.63300
H  11.96500 1.12300 20.57100
H  10.85500 0.30700 21.58300
H  12.55000 0.24000 22.02300
H  11.86600 -1.47400 26.02700
H  12.63000 -1.61100 27.63300
H  13.46400 -0.78100 26.40000
H  11.69800 1.59700 31.69600
H  8.40800 -0.05700 33.81500
H  9.75800 -0.45700 34.95500
H  9.20900 -1.64500 33.84800
Mg 47.90700 16.38600 29.35900
C  45.94800 15.68000 32.10500
C  49.98300 18.18600 31.44900
C  49.63500 17.45100 26.61700
C  45.46400 15.10300 27.21500
N  47.76700 17.00400 31.49800
C  47.03600 16.45900 32.49400
C  47.51200 16.88500 33.92500
C  48.58100 17.92500 33.63700
C  48.79300 17.74500 32.07800
C  48.16200 19.38300 33.93900
C  47.90700 15.69000 34.87500
C  47.12800 15.58000 36.21600
H  46.79800 16.82800 37.01700
N  49.62500 17.57200 29.09700
C  50.46200 18.04600 30.08100
C  51.75600 18.39900 29.51700
C  51.59200 18.21200 28.08800
C  50.23800 17.74600 27.85000
C  52.97400 18.88300 30.28900
C  52.60000 18.50900 27.00400
O  52.43300 18.24200 25.81700
C  53.95400 19.09000 27.44900
N  47.54500 16.26300 27.18500
C  48.39900 16.82700 26.31500
C  48.04300 16.59200 24.84300
C  46.68400 15.77900 25.06100
C  46.55200 15.62000 26.58700
C  47.84100 17.81600 23.99300
C  46.61200 14.40000 24.42000
C  45.13400 13.78100 24.10800
N  46.11800 15.51100 29.58300
C  45.25300 14.97300 28.63300
C  44.18200 14.24000 29.29700
C  44.36000 14.57700 30.65500
C  45.55300 15.37600 30.77800
C  43.02600 13.50100 28.53800
C  43.76800 14.43400 31.96000
O  42.75200 13.83400 32.37300
C  44.78000 15.14800 32.95800
C  43.85300 16.12000 33.78700
O  43.55500 17.23600 33.44900
O  43.55900 15.68600 35.04700
C  42.71400 16.58300 35.86200
H  50.70600 18.69800 32.08700
H  50.20700 17.75200 25.73600
H  44.58300 14.80700 26.64100
H  46.65900 17.46300 34.27800
H  49.55800 17.64500 34.03000
H  48.96100 19.73600 34.59200
H  47.22900 19.53300 34.48200
H  48.04400 19.93500 33.00700
H  48.94400 15.80200 35.19200
H  47.97200 14.76700 34.29900
H  47.75200 14.93900 36.83800
H  46.24700 14.96500 36.02900
H  52.79100 18.94000 31.36200
H  53.23100 19.91100 30.03300
H  53.80000 18.18900 30.13400
H  54.53700 18.43700 28.09900
H  53.83900 20.10400 27.83200
H  54.61000 19.35100 26.61900
H  48.78800 15.86800 24.51100
H  45.79300 16.30900 24.72500
H  48.34700 18.61800 24.53100
H  46.82600 17.94300 23.61600
H  48.49700 17.77200 23.12400
H  47.11200 13.59300 24.95700
H  47.05300 14.50200 23.42900
H  44.98400 12.79100 24.53800
H  44.91400 13.66400 23.04700
H  44.31000 14.34000 24.55200
H  43.15000 12.41900 28.48200
H  42.74700 13.88900 27.55800
H  42.12000 13.57200 29.13800
H  45.08900 14.46500 33.74900
H  41.89100 17.05300 35.32300
H  43.32500 17.33900 36.35400
H  42.28800 15.90900 36.60500

