158

Mg 36.10100 2.79500 30.22200
C  33.65500 3.89400 32.45300
C  38.44900 3.16300 32.86800
C  38.52600 2.02800 28.06800
C  33.78300 2.99600 27.63100
N  36.06200 3.47700 32.40100
C  34.92200 3.75100 33.06800
C  35.15100 3.62200 34.59700
C  36.68000 3.87000 34.66100
C  37.13000 3.47800 33.23500
C  37.12800 5.36300 35.00800
C  34.59600 2.32900 35.24100
C  33.97000 2.41200 36.60600
H  34.62500 3.37200 37.60400
N  38.15600 2.57600 30.42300
C  38.91900 2.76700 31.58900
C  40.31900 2.37200 31.29000
C  40.33100 1.91300 29.91100
C  38.98100 2.19100 29.38400
C  41.43900 2.35100 32.28100
C  41.45400 1.33200 29.09800
O  41.40600 1.15800 27.85500
C  42.78000 1.12500 29.73400
N  36.25900 2.91200 28.14000
C  37.33100 2.37200 27.47700
C  37.07400 2.12200 25.95200
C  35.51300 2.43400 25.85800
C  35.16900 2.84100 27.28100
C  37.91700 3.02200 24.98400
C  34.65000 1.24700 25.39100
C  33.85100 1.37000 24.01000
N  34.17200 3.26000 30.00700
C  33.33700 3.32500 28.89500
C  32.04400 3.70300 29.28300
C  32.10200 3.90600 30.64900
C  33.41600 3.60500 31.03900
C  30.80900 3.85900 28.46600
C  31.28200 4.38300 31.76700
O  30.15000 4.88500 31.82300
C  32.26500 4.13500 33.05700
C  32.20900 5.35400 34.01000
O  32.54400 6.48900 33.74900
O  31.72800 4.93800 35.22500
C  31.47800 5.94900 36.21900
H  39.06900 2.91900 33.73300
H  39.36700 1.62600 27.49800
H  32.99900 3.06200 26.87500
H  34.58000 4.46900 34.97600
H  37.09300 3.18400 35.40000
H  37.85800 5.77400 34.31000
H  37.69100 5.36000 35.94100
H  36.22100 5.96000 34.91500
H  35.42300 1.62800 35.36000
H  33.87300 2.00100 34.49400
H  34.02000 1.43600 37.08800
H  32.91200 2.67400 36.56100
H  42.41700 2.59900 31.86800
H  41.47100 1.39700 32.80600
H  41.21700 3.20100 32.92700
H  43.26100 2.07600 29.96300
H  43.38900 0.58800 29.00700
H  42.63100 0.58100 30.66600
H  37.33600 1.07400 25.81200
H  35.32800 3.27600 25.19200
H  38.12900 3.92100 25.56300
H  37.22100 3.22400 24.17000
H  38.76900 2.43700 24.64000
H  33.93500 0.94700 26.15600
H  35.33000 0.41200 25.22100
H  32.83700 1.70800 24.22400
H  33.91600 0.45300 23.42500
H  34.31100 2.13300 23.38200
H  29.95800 3.76600 29.14000
H  30.70900 3.11700 27.67400
H  30.73800 4.81600 27.94800
H  31.99200 3.20000 33.54500
H  32.26900 5.91000 36.96800
H  30.52500 5.75300 36.71100
H  31.44000 6.95800 35.80900
Mg 35.43200 47.79700 25.13000
C  35.48500 46.13400 28.20600
C  34.47000 50.63900 26.90900
C  35.03700 49.32000 22.22200
C  36.29700 44.90300 23.48200
N  34.92600 48.32800 27.28100
C  35.15400 47.48600 28.39100
C  34.84900 48.25300 29.73800
C  34.26600 49.57100 29.21500
C  34.67900 49.52600 27.71600
C  32.79500 49.74000 29.56900
C  36.17900 48.45800 30.53700
C  36.08600 48.29000 32.03900
H  34.72100 48.25600 32.79300
N  34.84400 49.71000 24.65900
C  34.46500 50.76900 25.54900
C  34.17100 51.95200 24.77200
C  34.38700 51.57800 23.36400
C  34.79200 50.13700 23.34700
C  33.62500 53.31000 25.34300
C  34.22100 52.38000 22.11500
O  34.33400 52.00100 20.93200
C  33.86800 53.82800 22.23800
N  35.78600 47.28200 23.16100
C  35.42700 48.03400 22.11900
C  35.77000 47.44800 20.73600
C  36.43900 46.08000 21.13500
C  36.15000 45.99800 22.66900
C  34.54100 47.28500 19.83400
C  37.93700 46.01100 20.73700
C  38.50100 44.57800 20.71700
N  35.89900 45.92600 25.69300
C  36.17500 44.78200 24.90300
C  36.49500 43.70000 25.74900
C  36.22100 44.16100 27.03600
C  35.87100 45.53500 26.93500
C  36.72700 42.32000 25.31800
C  36.08300 43.78300 28.38400
O  36.28900 42.71600 28.93200
C  35.59100 45.09000 29.21900
C  34.29800 44.70300 29.75600
O  33.28600 44.44100 29.09800
O  34.33700 44.81600 31.06500
C  33.09700 44.36200 31.80800
H  34.20400 51.54900 27.45100
H  34.91400 49.76600 21.23300
H  36.44000 43.92200 23.02400
H  34.14300 47.71700 30.37300
H  34.83900 50.40000 29.63000
H  32.16300 49.86800 28.69100
H  32.61100 50.69500 30.06100
H  32.37600 48.87200 30.07800
H  36.66700 49.42300 30.40600
H  36.82400 47.64900 30.19300
H  36.65100 49.10200 32.49600
H  36.65100 47.41900 32.37300
H  34.46400 53.94000 25.63700
H  32.94500 53.07300 26.16100
H  33.08800 53.93500 24.62800
H  32.84400 53.86800 22.60900
H  33.99700 54.31900 21.27300
H  34.57700 54.29500 22.92200
H  36.45800 48.23000 20.41700
H  35.89400 45.23500 20.71300
H  34.22100 48.29000 19.56000
H  33.73900 46.84500 20.42700
H  34.82800 46.87200 18.86700
H  38.54600 46.56500 21.45100
H  37.96400 46.39300 19.71700
H  39.32400 44.39400 21.40700
H  38.92200 44.56000 19.71200
H  37.70100 43.84400 20.81500
H  36.40800 41.70500 26.16000
H  37.79300 42.28600 25.09600
H  36.10200 42.14400 24.44200
H  36.24300 45.33400 30.05700
H  32.23900 44.95500 31.49000
H  33.11600 44.74500 32.82900
H  32.96400 43.29500 31.63600

