158

Mg 2.96200 -1.80100 45.76100
C  6.26100 -0.72200 44.94900
C  1.69900 0.61000 43.47000
C  0.11700 -3.32100 45.96300
C  4.55700 -4.25400 47.64000
N  3.94400 -0.34000 44.27500
C  5.25700 -0.00600 44.25100
C  5.42700 1.07500 43.24800
C  4.02800 1.72600 43.14300
C  3.16700 0.61000 43.59600
C  3.80400 3.04300 43.97500
C  6.15600 0.58500 41.94800
C  7.55400 1.26900 41.67700
H  7.73000 2.05900 40.42200
N  1.11300 -1.42800 44.84700
C  0.80700 -0.39500 44.01400
C  -0.61900 -0.43900 43.76600
C  -1.16500 -1.51700 44.43700
C  0.01100 -2.18200 45.06800
C  -1.38100 0.54500 42.85800
C  -2.56200 -2.03200 44.27000
O  -3.40800 -1.40200 43.68800
C  -2.98500 -3.32300 44.81300
N  2.43900 -3.60500 46.59300
C  1.13700 -4.01200 46.57500
C  0.90100 -5.31800 47.39300
C  2.31600 -5.57100 48.03400
C  3.16300 -4.44200 47.41800
C  -0.29700 -5.18400 48.43800
C  2.92100 -6.97800 47.91800
C  2.95300 -7.87500 49.20900
N  4.99200 -2.33600 46.32100
C  5.41900 -3.33400 47.08300
C  6.90300 -3.36900 47.23600
C  7.27100 -2.30800 46.44700
C  6.09600 -1.80000 45.81800
C  7.80700 -4.34300 47.93800
C  8.36400 -1.35100 46.10800
O  9.50800 -1.18400 46.55700
C  7.78300 -0.39800 45.05100
C  7.95600 0.99300 45.63500
O  7.22800 1.48800 46.47100
O  9.16200 1.57000 45.10200
C  9.26100 2.98000 45.49900
H  1.29700 1.43300 42.87500
H  -0.83500 -3.83100 46.12300
H  4.97500 -4.88900 48.42300
H  6.05300 1.83900 43.70900
H  3.77100 1.96100 42.11000
H  3.13100 2.85500 44.81200
H  3.33800 3.75400 43.29300
H  4.73600 3.41200 44.40400
H  5.53100 0.48800 41.06100
H  6.32200 -0.48700 42.05900
H  8.19300 0.38600 41.69100
H  7.73500 1.89700 42.54900
H  -0.86900 1.47700 42.61600
H  -2.24400 0.97800 43.36300
H  -1.56900 0.06000 41.90000
H  -2.98100 -3.21700 45.89800
H  -2.21200 -4.01900 44.48800
H  -4.00000 -3.53400 44.47600
H  0.61500 -6.00200 46.59400
H  2.17700 -5.30300 49.08100
H  -0.62500 -4.14500 48.41300
H  0.02200 -5.54300 49.41700
H  -1.08900 -5.75700 47.95600
H  3.90900 -6.90300 47.46400
H  2.23700 -7.51800 47.26300
H  2.45300 -8.78300 48.87200
H  2.34100 -7.63700 50.07900
H  3.97000 -8.13000 49.50800
H  8.27500 -3.81400 48.76800
H  8.49700 -4.71200 47.17900
H  7.19600 -5.11500 48.40600
H  8.24500 -0.54900 44.07500
H  8.97700 3.03400 46.55000
H  8.60000 3.56300 44.85700
H  10.26600 3.39600 45.42700
Mg -5.29600 25.60100 24.83400
C  -3.93300 27.19100 27.72300
C  -6.84600 23.47300 26.96800
C  -6.46600 23.91200 22.12800
C  -3.56500 27.81000 22.82800
N  -5.23200 25.30200 27.10600
C  -4.71900 26.16000 28.05300
C  -5.02400 25.63500 29.47400
C  -5.71500 24.23000 29.21000
C  -6.02100 24.34000 27.64800
C  -4.97000 22.92400 29.61700
C  -5.94800 26.76400 30.22500
C  -6.13500 26.62100 31.72600
H  -5.21500 25.59000 32.44600
N  -6.52500 24.00500 24.59100
C  -7.11400 23.24700 25.61900
C  -7.97300 22.23400 25.01900
C  -7.80100 22.24200 23.56400
C  -6.85000 23.35500 23.36500
C  -8.83200 21.37500 25.88100
C  -8.51200 21.37100 22.52200
O  -8.41200 21.56200 21.35900
C  -9.35600 20.25100 22.97000
N  -4.94700 25.73500 22.71000
C  -5.61500 24.96800 21.75900
C  -5.11000 25.32700 20.32600
C  -4.44800 26.75100 20.60800
C  -4.31400 26.79700 22.13700
C  -4.21900 24.29200 19.61800
C  -5.09400 28.01800 20.04000
C  -6.41500 28.48300 20.62000
N  -3.96400 27.18500 25.13600
C  -3.44500 28.01800 24.23000
C  -2.70700 29.06500 24.99600
C  -2.87700 28.73500 26.28800
C  -3.65400 27.58900 26.39300
C  -1.94100 30.23500 24.44500
C  -2.54600 29.14100 27.58200
O  -1.88400 30.07100 27.94900
C  -3.24300 28.12900 28.59900
C  -2.19100 27.47400 29.42900
O  -1.16400 26.89800 28.97800
O  -2.39200 27.58700 30.79600
C  -1.36000 27.35100 31.79600
H  -7.35400 22.76500 27.62600
H  -7.04700 23.60600 21.25500
H  -3.17200 28.63600 22.23200
H  -4.08800 25.44400 29.99900
H  -6.65200 24.25800 29.76700
H  -4.18700 23.08400 30.35900
H  -4.49800 22.54300 28.71200
H  -5.51900 22.06500 30.00300
H  -6.94300 26.48900 29.87400
H  -5.68300 27.81000 30.06800
H  -7.10700 26.18500 31.96000
H  -6.09600 27.59200 32.22000
H  -9.83700 21.08800 25.57200
H  -9.04800 21.85900 26.83400
H  -8.41700 20.38400 26.06700
H  -8.83400 19.49600 23.55800
H  -9.63000 19.84400 21.99600
H  -10.25200 20.70800 23.38800
H  -6.02400 25.40400 19.73800
H  -3.37800 26.81200 20.40500
H  -3.81300 23.65000 20.39900
H  -3.35300 24.86600 19.28900
H  -4.61300 23.69400 18.79500
H  -5.20800 27.78400 18.98100
H  -4.36300 28.82500 20.09800
H  -6.84200 27.78900 21.34400
H  -7.11300 28.58000 19.78800
H  -6.05200 29.45500 20.95500
H  -1.04400 30.02700 23.86200
H  -1.72500 30.91600 25.26800
H  -2.47300 30.79700 23.67800
H  -3.86800 28.74100 29.24900
H  -1.40200 28.09700 32.59000
H  -0.35200 27.15900 31.42800
H  -1.50900 26.31100 32.08600

