158

Mg 42.89900 4.91000 47.29000
C  41.07000 7.99900 47.33600
C  39.93600 3.27200 46.97400
C  44.63800 2.21700 46.50200
C  45.82200 6.86800 47.24100
N  40.72900 5.62300 47.28300
C  40.21000 6.85400 47.22500
C  38.68300 6.81000 47.22300
C  38.33000 5.30400 47.44300
C  39.72700 4.68900 47.17100
C  37.76700 5.03300 48.85500
C  38.07900 7.46700 45.95600
C  38.93100 7.47500 44.71000
H  38.22600 7.74300 43.37900
N  42.34300 2.96800 46.83300
C  41.06600 2.49400 46.78300
C  41.09400 1.10500 46.43000
C  42.46100 0.67500 46.24900
C  43.22400 1.95500 46.55400
C  39.81400 0.29300 46.36800
C  42.99500 -0.76100 45.81800
O  42.30600 -1.71900 45.37400
C  44.39900 -1.02200 45.88700
N  44.89000 4.64900 46.77000
C  45.34400 3.36900 46.74200
C  46.87700 3.34800 46.80200
C  47.32600 4.84100 47.02800
C  45.95400 5.51400 47.02600
C  47.41600 2.27800 47.86700
C  48.26300 5.21200 45.98000
C  49.78700 5.19600 46.47500
N  43.37200 6.97100 47.28600
C  44.62300 7.60600 47.20000
C  44.42200 8.98500 47.36500
C  43.04600 9.19600 47.46800
C  42.46700 7.96600 47.30800
C  45.59400 9.96800 47.31300
C  42.04100 10.20600 47.55800
O  42.20600 11.39500 47.59500
C  40.63600 9.49700 47.42400
C  39.97300 9.72800 48.71200
O  39.97200 8.92200 49.63400
O  39.28300 10.96500 48.66000
C  38.23200 11.13000 49.70500
H  39.02000 2.68400 46.89200
H  45.27700 1.34500 46.34300
H  46.74700 7.40500 47.46300
H  38.46600 7.43000 48.09300
H  37.79800 4.81100 46.63000
H  37.14600 5.89800 49.08800
H  38.58800 4.98700 49.57000
H  37.23900 4.08300 48.93800
H  38.00900 8.54500 46.09500
H  37.05800 7.10400 45.83700
H  39.31900 6.45800 44.63500
H  39.73300 8.19300 44.88300
H  39.36900 0.28000 45.37300
H  39.16300 0.53400 47.20900
H  40.13100 -0.71400 46.63600
H  44.87900 -0.74500 46.82600
H  44.85600 -0.48800 45.05400
H  44.57900 -2.09600 45.85600
H  47.18000 2.87500 45.86900
H  47.70200 5.12900 48.01000
H  46.94600 2.16600 48.84500
H  48.45400 2.55100 48.05500
H  47.39300 1.24500 47.51800
H  48.11800 6.22800 45.61500
H  48.22500 4.60900 45.07300
H  50.00800 4.57100 47.34000
H  50.22900 6.18700 46.57400
H  50.46900 4.80700 45.71800
H  46.04400 9.75800 46.34300
H  46.28700 9.75400 48.12600
H  45.29400 11.01600 47.31200
H  40.00600 9.91100 46.63700
H  37.93200 10.32300 50.37300
H  37.31800 11.39700 49.17500
H  38.59400 11.79500 50.48900
Mg -11.35400 37.65100 42.73300
C  -9.01900 35.05700 42.00400
C  -9.06700 39.83300 41.64000
C  -13.71200 40.00600 43.00500
C  -13.64800 35.17400 43.75000
N  -9.31400 37.40000 41.78300
C  -8.51300 36.31000 41.63500
C  -7.15100 36.64600 40.98600
C  -7.18600 38.23100 41.02000
C  -8.63500 38.53400 41.47200
C  -6.06400 38.99600 41.71200
C  -6.76400 35.95200 39.65900
C  -5.29900 35.63800 39.48700
H  -4.96300 34.72100 38.32800
N  -11.30200 39.62200 42.57800
C  -10.26100 40.35800 42.14400
C  -10.54600 41.74500 42.34400
C  -11.90500 41.91600 42.69500
C  -12.40200 40.49300 42.71500
C  -9.58500 42.79200 42.27000
C  -12.56300 43.26800 43.05900
O  -11.94800 44.30200 43.06900
C  -13.97600 43.24600 43.52800
N  -13.42000 37.54100 43.13400
C  -14.12400 38.68800 43.27100
C  -15.62600 38.37600 43.69000
C  -15.64700 36.79400 43.93600
C  -14.15900 36.44100 43.59600
C  -16.23400 39.16200 44.94900
C  -16.68900 36.01100 43.11500
C  -16.40600 35.62100 41.62400
N  -11.43300 35.51300 42.78400
C  -12.36100 34.68300 43.38500
C  -11.77800 33.31200 43.51600
C  -10.46800 33.44200 42.96300
C  -10.27500 34.75000 42.60700
C  -12.46900 32.19500 44.27300
C  -9.25300 32.78700 42.65400
O  -8.96900 31.66000 42.92700
C  -8.30700 33.73600 41.89600
C  -7.08600 33.68800 42.73200
O  -6.06800 33.06900 42.46700
O  -7.19700 34.39200 43.89800
C  -6.08700 34.18800 44.89500
H  -8.30400 40.55000 41.32700
H  -14.50500 40.72900 43.20900
H  -14.37700 34.45300 44.12700
H  -6.32600 36.36100 41.63900
H  -7.19000 38.60300 39.99500
H  -5.78300 39.68100 40.91300
H  -5.24700 38.30200 41.90800
H  -6.30000 39.41800 42.68900
H  -6.93100 36.70800 38.89200
H  -7.46800 35.14200 39.47000
H  -5.02500 35.01600 40.33900
H  -4.67000 36.52600 39.41800
H  -9.93400 43.40300 41.43700
H  -8.58100 42.36900 42.24500
H  -9.54100 43.24600 43.26000
H  -14.33200 44.24000 43.80100
H  -14.06300 42.66800 44.44800
H  -14.50400 42.85200 42.66000
H  -16.22100 38.55000 42.79300
H  -15.70600 36.53000 44.99100
H  -17.12600 39.62000 44.52300
H  -15.56400 39.90800 45.37700
H  -16.58500 38.52900 45.76400
H  -17.52800 36.70700 43.14600
H  -16.90800 35.12000 43.70300
H  -17.00900 34.73600 41.42100
H  -15.37100 35.29800 41.52100
H  -16.59500 36.49700 41.00300
H  -13.17300 32.59300 45.00400
H  -11.65800 31.63100 44.73500
H  -13.06500 31.53900 43.63900
H  -8.02400 33.39900 40.89800
H  -5.11200 34.54300 44.56100
H  -6.12400 33.24000 45.43200
H  -6.34000 34.88700 45.69200

