158

Mg 47.72600 15.66200 28.53300
C  45.75700 15.73300 31.35300
C  50.34300 17.20200 30.29500
C  49.45800 15.94700 25.57800
C  44.96400 14.24700 26.80500
N  47.93400 16.47600 30.47200
C  47.01800 16.28600 31.49700
C  47.55900 16.76900 32.82300
C  48.93600 17.45100 32.44900
C  49.13400 16.99100 30.96400
C  48.96200 18.93500 32.72400
C  47.84100 15.52700 33.76300
C  47.27600 15.64400 35.24200
H  47.27000 16.97300 36.07900
N  49.65900 16.44400 28.02600
C  50.60100 16.94600 28.87900
C  51.78800 17.26500 28.16300
C  51.49500 16.99700 26.76000
C  50.13900 16.45200 26.72700
C  53.07600 17.71900 28.84300
C  52.44900 17.14100 25.56600
O  52.04000 16.83700 24.46300
C  53.84600 17.78700 25.71100
N  47.26300 15.10100 26.50200
C  48.14700 15.39100 25.50900
C  47.52800 14.98500 24.10300
C  46.28300 14.15400 24.55500
C  46.10400 14.45700 26.03100
C  47.14900 16.22300 23.26600
C  46.46400 12.61400 24.25300
C  45.52900 12.03200 23.22400
N  45.73000 15.16200 28.93500
C  44.75800 14.57400 28.15900
C  43.54300 14.31600 28.98400
C  43.91800 14.64000 30.26800
C  45.26000 15.21600 30.23300
C  42.23400 13.68800 28.59300
C  43.40500 14.81300 31.64100
O  42.28600 14.57200 32.08700
C  44.63700 15.42900 32.44400
C  43.98700 16.59100 33.15400
O  43.48700 17.58500 32.60200
O  43.95400 16.37700 34.48900
C  43.23300 17.26500 35.35900
H  51.17300 17.55800 30.90900
H  49.96400 15.94600 24.61000
H  44.08100 13.85800 26.29500
H  46.78200 17.39800 33.25900
H  49.75400 17.08700 33.07100
H  49.09900 19.32800 33.73200
H  47.94700 19.29900 32.56400
H  49.64400 19.51300 32.10000
H  48.90600 15.29700 33.79500
H  47.47700 14.60100 33.31800
H  47.74500 14.83900 35.80800
H  46.22500 15.37200 35.14600
H  53.14900 17.26400 29.83100
H  53.10900 18.80600 28.92200
H  54.03100 17.46300 28.38300
H  53.55800 18.64400 26.31900
H  54.16500 18.01300 24.69400
H  54.55700 17.23200 26.32300
H  48.17800 14.31000 23.54700
H  45.44800 14.65100 24.06200
H  46.08600 16.31000 23.04100
H  47.76300 16.10600 22.37300
H  47.37900 17.09900 23.87300
H  46.41700 12.12200 25.22400
H  47.41900 12.37800 23.78300
H  46.15500 11.49900 22.50800
H  44.95700 12.73200 22.61400
H  44.83100 11.42500 23.80100
H  41.99400 13.85500 27.54300
H  41.52400 14.20100 29.24200
H  42.18000 12.60900 28.73200
H  44.88100 14.63200 33.14700
H  43.15000 16.85200 36.36400
H  42.20900 17.49100 35.06400
H  43.84100 18.15700 35.50600
Mg 41.36400 41.60100 26.48700
C  40.76300 43.74200 29.18300
C  42.90200 39.39600 28.75400
C  42.04500 39.48900 23.98900
C  40.67600 44.05200 24.24400
N  41.70700 41.54500 28.72000
C  41.31600 42.48400 29.55500
C  41.48800 42.03600 31.03600
C  42.57300 40.76700 30.89700
C  42.43500 40.53900 29.39000
C  43.99000 41.03500 31.40800
C  40.18500 41.88200 31.90100
C  40.07200 42.72000 33.18900
H  39.83800 41.90700 34.48300
N  42.31500 39.70400 26.41500
C  42.86000 38.98800 27.41000
C  43.37200 37.75200 26.94600
C  43.17800 37.71200 25.54800
C  42.47700 39.02400 25.25400
C  44.08500 36.62800 27.79400
C  43.57200 36.62500 24.52100
O  43.45500 36.80700 23.34200
C  44.13000 35.34000 25.03400
N  41.41400 41.76100 24.39400
C  41.71200 40.70000 23.51900
C  41.31700 41.05100 22.04800
C  41.00600 42.63200 22.18200
C  40.97800 42.83600 23.64700
C  42.33900 40.66700 21.03200
C  39.66900 43.06100 21.49900
C  39.85300 44.29000 20.60200
N  40.80000 43.50400 26.62000
C  40.60700 44.39100 25.58500
C  40.22000 45.61600 26.15100
C  40.23800 45.44500 27.56600
C  40.60600 44.12900 27.81600
C  39.95300 46.82200 25.37000
C  39.96700 46.04800 28.90500
O  39.53200 47.19100 29.19800
C  40.29400 44.99900 29.90300
C  41.41300 45.51800 30.78000
O  42.55500 45.14900 30.74100
O  40.92100 46.41200 31.72900
C  41.81900 46.80600 32.78900
H  43.29900 38.72600 29.52000
H  42.22500 38.80900 23.15300
H  40.32200 44.80000 23.53200
H  42.10400 42.82600 31.46700
H  42.16000 39.90600 31.42100
H  44.18800 42.09700 31.26100
H  44.66800 40.32200 30.93800
H  44.00500 40.88600 32.48800
H  40.09400 40.83100 32.17700
H  39.36800 42.11400 31.21800
H  39.26100 43.43700 33.05700
H  41.00300 43.26600 33.34100
H  45.08200 36.56800 27.35600
H  43.48400 35.71900 27.79500
H  44.08700 36.97900 28.82600
H  43.43700 34.80100 25.68000
H  45.06900 35.51400 25.56000
H  44.47700 34.69000 24.23100
H  40.38100 40.58600 21.73900
H  41.85000 43.21600 21.81400
H  42.81200 41.53600 20.57600
H  41.79600 40.15300 20.23800
H  43.05000 40.14200 21.67000
H  38.93300 43.26700 22.27600
H  39.19900 42.26900 20.91600
H  40.15500 45.12800 21.23000
H  38.94800 44.61500 20.08800
H  40.54800 44.12500 19.77800
H  40.81500 46.82400 24.70300
H  39.99800 47.76700 25.91100
H  39.03600 46.67200 24.80000
H  39.45400 44.73700 30.54700
H  42.24500 47.80000 32.65100
H  42.60400 46.10200 33.06500
H  41.11600 46.99900 33.60000

