158

Mg -1.59700 17.46200 27.63200
C  -1.93700 14.89600 29.95300
C  -2.43600 19.76000 30.17800
C  -1.42400 20.07400 25.41700
C  -1.80600 15.22200 25.07300
N  -2.03300 17.35600 29.83100
C  -2.04500 16.17200 30.63200
C  -2.08200 16.59700 32.13400
C  -2.41000 18.08800 32.06200
C  -2.35300 18.42900 30.58600
C  -3.64500 18.65300 32.91300
C  -0.78800 16.20500 32.80200
C  -0.16400 17.07700 33.94000
H  0.20700 16.33200 35.21200
N  -1.86800 19.59100 27.80400
C  -2.26600 20.31300 28.93400
C  -2.45600 21.69700 28.63900
C  -2.03700 21.80300 27.24900
C  -1.64900 20.48600 26.78100
C  -2.97900 22.62900 29.73800
C  -2.00500 23.09100 26.37900
O  -1.50600 23.20700 25.25600
C  -2.50600 24.36900 27.04300
N  -1.51600 17.55600 25.49000
C  -1.40500 18.73300 24.83000
C  -1.28300 18.45600 23.33300
C  -1.14600 16.88900 23.23400
C  -1.62800 16.50000 24.62800
C  -2.38400 19.04500 22.33700
C  0.23900 16.37200 22.89700
C  1.37700 16.75700 23.90100
N  -1.65800 15.39600 27.45500
C  -1.75500 14.66600 26.31800
C  -1.87700 13.32100 26.72900
C  -1.95000 13.32800 28.11500
C  -1.81000 14.66100 28.57700
C  -1.92100 12.07500 25.91800
C  -1.99000 12.50000 29.33200
O  -1.94500 11.27400 29.51200
C  -1.96100 13.51200 30.50500
C  -0.84100 13.09000 31.31200
O  0.28300 13.49500 31.11500
O  -1.28400 12.28900 32.35700
C  -0.24900 11.76400 33.16600
H  -2.46300 20.43700 31.03500
H  -1.18000 20.80400 24.64300
H  -1.69700 14.43700 24.32200
H  -2.96100 16.07500 32.51200
H  -1.67500 18.82100 32.39300
H  -4.45600 18.80100 32.20000
H  -3.53500 19.55600 33.51400
H  -3.95200 17.92200 33.66100
H  0.10300 16.19100 32.17400
H  -0.94400 15.18600 33.15600
H  -0.48200 18.07300 34.24900
H  0.83100 17.25000 33.53100
H  -2.86500 23.66300 29.41100
H  -2.48700 22.54300 30.70700
H  -4.01400 22.37600 29.96600
H  -3.44400 24.27200 27.59000
H  -2.64500 25.23800 26.40000
H  -1.84100 24.49600 27.89700
H  -0.29900 18.84700 23.07200
H  -1.78500 16.44400 22.47100
H  -3.30500 18.58800 22.69600
H  -2.02500 18.71900 21.36000
H  -2.51200 20.12700 22.37200
H  0.53600 16.65500 21.88700
H  -0.02300 15.32000 22.78500
H  1.00000 16.70600 24.92200
H  1.74500 17.75800 23.67900
H  2.26800 16.13200 23.84500
H  -1.50600 12.20100 24.91800
H  -2.96500 11.86800 25.68400
H  -1.40500 11.21700 26.34800
H  -2.88900 13.36100 31.05500
H  0.04600 10.83500 32.67700
H  -0.65100 11.68600 34.17600
H  0.61200 12.41800 33.30300
Mg -5.87800 25.83600 26.28300
C  -4.27200 26.99600 29.16200
C  -7.61800 23.60000 28.41700
C  -6.86500 24.01700 23.80100
C  -3.56900 27.42900 24.41200
N  -5.96000 25.39100 28.54800
C  -5.36200 26.11000 29.48900
C  -5.82500 25.67800 30.92500
C  -6.76900 24.44800 30.63000
C  -6.75000 24.43600 29.09200
C  -6.65600 23.13400 31.45000
C  -6.67200 26.81500 31.51100
C  -6.51600 26.99800 32.99900
H  -5.91500 25.90400 33.91600
N  -7.15900 24.08000 26.09800
C  -7.82700 23.39000 27.05900
C  -8.76800 22.48900 26.45200
C  -8.57000 22.56200 25.05300
C  -7.51400 23.61900 24.88900
C  -9.67300 21.60600 27.30400
C  -9.17200 21.77600 23.93600
O  -8.99100 22.12200 22.79100
C  -10.06200 20.51400 24.14300
N  -5.28300 25.80600 24.40100
C  -5.81600 24.92900 23.51100
C  -5.41100 25.13500 22.04400
C  -4.37500 26.35600 22.24900
C  -4.40100 26.58900 23.76900
C  -4.76800 23.83400 21.42900
C  -4.69800 27.65800 21.49200
C  -3.48800 28.52800 21.10900
N  -4.30500 27.08200 26.64300
C  -3.50000 27.73100 25.76700
C  -2.59700 28.63000 26.48200
C  -2.84900 28.27100 27.82700
C  -3.88500 27.38600 27.84200
C  -1.66200 29.63000 25.94500
C  -2.41000 28.60200 29.13000
O  -1.48800 29.22700 29.60900
C  -3.35800 27.75800 30.07500
C  -2.49500 26.88200 31.01400
O  -1.96700 25.81900 30.71000
O  -2.29600 27.48200 32.25300
C  -1.52200 26.54300 33.12400
H  -8.22500 22.92700 29.02600
H  -7.15000 23.52000 22.87200
H  -2.92900 28.05000 23.78300
H  -5.05700 25.23900 31.56200
H  -7.78500 24.78800 30.82900
H  -6.21600 22.43500 30.73900
H  -7.69400 23.01000 31.75800
H  -5.98100 23.12200 32.30600
H  -7.71100 26.70600 31.20000
H  -6.21600 27.71600 31.10100
H  -7.47100 27.33000 33.40600
H  -5.89900 27.88800 33.12500
H  -10.49000 21.18100 26.72000
H  -10.12900 22.17600 28.11400
H  -9.08000 20.81300 27.75900
H  -9.68900 19.98500 25.02000
H  -9.98300 19.83500 23.29400
H  -11.05700 20.94500 24.25400
H  -6.30600 25.42800 21.49500
H  -3.39700 25.97200 21.95800
H  -3.74100 24.07700 21.15500
H  -5.24400 23.47000 20.51800
H  -4.72000 22.99300 22.12000
H  -5.33400 28.40100 21.97200
H  -5.19400 27.31200 20.58400
H  -3.34700 29.33500 21.82800
H  -3.58000 28.82800 20.06500
H  -2.64100 27.85800 21.24800
H  -0.67100 29.66600 26.39700
H  -2.13500 30.59800 26.11000
H  -1.52100 29.60100 24.86500
H  -3.90600 28.42000 30.74500
H  -0.51900 26.41500 32.71700
H  -2.14500 25.65100 33.18800
H  -1.27700 27.09800 34.03000

