158

Mg -1.44400 17.69900 27.24500
C  -2.18700 15.55200 29.88400
C  -2.37400 20.35900 29.35900
C  -1.81300 19.80200 24.52300
C  -1.45200 14.94600 25.13200
N  -2.21400 17.93700 29.48400
C  -2.33300 16.88300 30.32900
C  -2.47700 17.45000 31.77400
C  -2.72600 18.99500 31.53700
C  -2.49400 19.14100 29.98500
C  -4.04100 19.60800 32.07700
C  -1.28600 17.02700 32.65100
C  -0.69000 17.98800 33.74300
H  -0.28200 17.39000 35.09100
N  -2.00800 19.73400 26.99200
C  -2.20600 20.64900 27.99000
C  -2.44100 21.96100 27.42000
C  -2.15300 21.88500 26.04000
C  -2.05700 20.41100 25.77200
C  -2.95000 23.19300 28.21200
C  -2.05200 22.96400 24.95600
O  -2.05600 22.71200 23.75500
C  -2.16100 24.43700 25.31600
N  -1.65200 17.41300 25.09500
C  -1.61000 18.45900 24.21200
C  -1.40900 17.96400 22.72100
C  -1.14600 16.42300 22.94300
C  -1.47400 16.25700 24.49900
C  -2.62300 18.36500 21.79500
C  0.26300 15.93100 22.45000
C  1.35900 16.51500 23.40300
N  -1.67800 15.58300 27.39800
C  -1.70100 14.67600 26.45700
C  -1.80800 13.38200 27.02900
C  -2.05300 13.61800 28.40900
C  -1.97100 14.98600 28.60800
C  -1.89400 12.04400 26.36500
C  -2.25300 13.08100 29.73200
O  -2.42300 11.95700 30.14500
C  -2.35700 14.26900 30.68400
C  -1.29300 14.01800 31.72700
O  -0.15000 14.25300 31.60100
O  -1.85600 13.42300 32.83800
C  -0.87600 12.94200 33.78800
H  -2.51600 21.29400 29.90500
H  -1.58700 20.51200 23.72400
H  -1.36300 14.10100 24.44500
H  -3.39000 16.98800 32.14900
H  -1.90600 19.58600 31.94300
H  -4.83200 19.74200 31.33900
H  -3.88400 20.61700 32.45700
H  -4.46900 19.09800 32.94000
H  -0.38100 16.88900 32.06000
H  -1.58000 16.07400 33.09100
H  -1.39000 18.78900 33.98000
H  0.13000 18.46300 33.20500
H  -2.19600 23.96500 28.36100
H  -3.29200 22.93000 29.21300
H  -3.82400 23.49700 27.63500
H  -1.27900 24.64100 25.92300
H  -3.11200 24.68700 25.78600
H  -2.01800 25.05600 24.43000
H  -0.47900 18.37200 22.32500
H  -1.83400 15.73000 22.45900
H  -3.51800 18.33100 22.41500
H  -2.69300 17.61700 21.00500
H  -2.38900 19.35900 21.41500
H  0.44300 16.38500 21.47600
H  0.13800 14.84900 22.47600
H  1.02600 17.16200 24.21500
H  2.07200 17.10300 22.82500
H  1.96200 15.73500 23.86800
H  -1.14500 12.15300 25.58000
H  -2.88500 11.91500 25.92900
H  -1.66100 11.26300 27.08800
H  -3.25700 14.32500 31.29600
H  -0.17700 13.71500 34.10700
H  -0.42500 12.02200 33.41300
H  -1.58800 12.62900 34.55100
Mg -3.08000 34.90400 27.04400
C  -4.89200 33.19900 29.56500
C  -2.19000 37.28300 29.35300
C  -1.61000 36.66900 24.55500
C  -4.25500 32.64200 24.71600
N  -3.74800 35.30300 29.18900
C  -4.29300 34.40700 30.05000
C  -4.10200 34.79400 31.49200
C  -3.32200 36.14400 31.42100
C  -3.04800 36.23600 29.92800
C  -4.04200 37.46900 31.88900
C  -3.46900 33.68900 32.40600
C  -3.84600 33.56800 33.90700
H  -2.76100 33.40500 34.95900
N  -1.95100 36.64400 26.99000
C  -1.74300 37.50000 28.03100
C  -1.07500 38.60700 27.54000
C  -0.83300 38.47900 26.15000
C  -1.44600 37.23600 25.85100
C  -0.66000 39.70400 28.45100
C  -0.15100 39.31900 25.14400
O  -0.18400 39.05500 23.97200
C  0.55400 40.56900 25.56700
N  -2.77600 34.62200 24.96000
C  -2.19200 35.48900 24.13800
C  -2.07600 34.92800 22.67400
C  -2.94800 33.68300 22.74000
C  -3.36400 33.60800 24.23300
C  -2.47800 35.95600 21.51200
C  -2.28300 32.39300 22.24000
C  -3.07700 31.60100 21.26000
N  -4.31100 33.26400 27.05700
C  -4.73000 32.49100 26.01600
C  -5.63500 31.49900 26.53100
C  -5.65100 31.68900 27.94100
C  -4.90900 32.83200 28.21900
C  -6.29100 30.45800 25.74900
C  -6.24200 31.23500 29.12700
O  -7.09800 30.36000 29.29400
C  -5.65500 32.10700 30.33100
C  -6.91900 32.64600 31.02500
O  -7.69700 33.54600 30.72000
O  -7.03100 31.85200 32.13000
C  -7.74300 32.47800 33.26200
H  -1.94000 37.99400 30.14300
H  -1.21600 37.22500 23.70200
H  -4.59400 31.87300 24.01900
H  -5.09800 35.03400 31.86400
H  -2.37800 36.10900 31.96400
H  -4.24400 38.16700 31.07700
H  -3.48700 38.04600 32.62900
H  -5.00200 37.24000 32.35300
H  -2.38700 33.82300 32.39200
H  -3.60300 32.67900 32.01900
H  -4.55500 32.74000 33.88600
H  -4.35700 34.50500 34.12800
H  -0.88800 40.62400 27.91200
H  0.41200 39.64900 28.63700
H  -1.37700 39.76100 29.27000
H  -0.22300 41.32700 25.46900
H  1.35300 40.75600 24.85000
H  1.08100 40.63400 26.51900
H  -1.01100 34.75400 22.52300
H  -3.80900 33.82500 22.08700
H  -2.75500 36.91600 21.95000
H  -3.36800 35.57500 21.01200
H  -1.65600 36.09500 20.81000
H  -2.21600 31.77600 23.13600
H  -1.36300 32.46500 21.65900
H  -2.53800 30.69100 20.99800
H  -3.25700 32.20500 20.37000
H  -4.06300 31.23800 21.55200
H  -6.86900 29.82800 26.42500
H  -5.69300 29.77700 25.14200
H  -7.03800 30.97500 25.14700
H  -5.02800 31.52800 31.00800
H  -8.80600 32.62500 33.07300
H  -7.23400 33.31300 33.74200
H  -7.65000 31.70400 34.02500

