158

Mg 0.89300 -0.63100 43.97900
C  4.19400 0.43500 43.61900
C  -0.06000 2.47800 42.64300
C  -2.07700 -1.97200 43.63100
C  2.14100 -3.87700 44.62100
N  1.96200 1.28300 43.23300
C  3.32700 1.45000 43.21400
C  3.63700 2.71800 42.48400
C  2.30000 3.50200 42.60500
C  1.27400 2.36900 42.87100
C  2.31200 4.69500 43.66900
C  4.22800 2.47700 41.05500
C  5.68000 3.08300 40.93800
H  6.60400 2.19600 40.07500
N  -0.90200 0.18600 43.21400
C  -1.05200 1.49700 42.80800
C  -2.46000 1.55300 42.45900
C  -3.09600 0.28500 42.77700
C  -2.05000 -0.56400 43.21900
C  -3.03400 2.79800 41.82900
C  -4.64000 0.02500 42.57200
O  -5.34800 0.86800 41.99900
C  -5.22200 -1.34500 42.86300
N  0.17600 -2.64100 44.08400
C  -1.12800 -2.86100 43.94200
C  -1.50300 -4.26300 44.45900
C  -0.11800 -4.94700 44.42200
C  0.76700 -3.75100 44.48700
C  -2.35300 -4.25300 45.80100
C  0.14500 -5.80300 43.13700
C  -0.16000 -7.30200 43.29200
N  2.74300 -1.50300 44.30800
C  3.05500 -2.84900 44.51400
C  4.53300 -2.94600 44.57100
C  5.05800 -1.67000 44.30200
C  3.86100 -0.91300 44.03500
C  5.43900 -4.11200 44.94100
C  6.17900 -0.79200 44.16800
O  7.34000 -1.09600 44.32900
C  5.74200 0.61600 43.75400
C  6.15000 1.65400 44.78900
O  5.56600 1.85100 45.80600
O  7.20500 2.40200 44.41700
C  7.86100 3.32400 45.37600
H  -0.42400 3.44000 42.27400
H  -3.06200 -2.44400 43.64300
H  2.32400 -4.92800 44.85700
H  4.34000 3.23500 43.13800
H  2.07200 3.99400 41.65900
H  3.35500 4.77700 43.97600
H  1.77900 4.56600 44.61100
H  2.04700 5.64600 43.20700
H  3.57900 2.90300 40.28900
H  4.24800 1.43400 40.73700
H  6.15700 3.23000 41.90700
H  5.73700 4.05600 40.44900
H  -3.93400 2.59900 41.24800
H  -2.29500 3.30900 41.21200
H  -3.20500 3.44900 42.68700
H  -4.64700 -2.13500 42.37900
H  -6.23700 -1.27900 42.47200
H  -5.27400 -1.51800 43.93800
H  -2.22300 -4.61700 43.72100
H  0.00000 -5.46300 45.37500
H  -1.90400 -4.84200 46.60100
H  -3.34100 -4.63200 45.54000
H  -2.42400 -3.20100 46.07500
H  1.20600 -5.82400 42.88800
H  -0.34800 -5.37600 42.26400
H  0.61100 -8.01100 42.99000
H  -0.96900 -7.43200 42.57300
H  -0.43900 -7.53400 44.31900
H  4.99900 -5.05200 44.60800
H  5.64500 -4.21200 46.00700
H  6.40200 -4.11400 44.43000
H  6.15000 0.87100 42.77500
H  8.30200 2.75800 46.19600
H  7.07300 3.94100 45.80700
H  8.60000 3.94700 44.87200
Mg 49.31600 47.27000 42.98100
C  45.97900 47.59500 42.24000
C  49.21200 44.25400 41.04200
C  52.60900 46.85100 43.36600
C  49.43300 50.61600 44.06300
N  47.71200 46.01200 41.71000
C  46.41700 46.41300 41.58800
C  45.60300 45.45500 40.57300
C  46.74300 44.42500 40.25600
C  47.96400 44.88000 41.07800
C  46.45400 42.89300 40.22700
C  44.89400 46.16200 39.35100
C  43.38500 45.90100 39.29900
H  42.80300 45.76400 37.92500
N  50.69600 45.75000 42.31400
C  50.44100 44.59800 41.66500
C  51.61300 43.78500 41.65400
C  52.66800 44.46700 42.29000
C  52.01700 45.76100 42.67900
C  51.59600 42.37600 41.14200
C  54.10300 43.96000 42.55500
O  54.43200 42.86200 42.15000
C  55.19100 44.78800 43.34900
N  50.85500 48.63700 43.42700
C  52.12500 48.18900 43.69300
C  53.00600 49.31400 44.22900
C  51.98900 50.40900 44.56100
C  50.66100 49.87400 44.03900
C  54.01100 48.93600 45.39300
C  52.42200 51.82400 43.97900
C  52.07800 52.17800 42.58200
N  48.01700 48.84500 43.25900
C  48.16300 50.18400 43.72400
C  46.90600 50.86200 43.76700
C  45.99000 49.89600 43.15600
C  46.72000 48.62700 42.96400
C  46.72400 52.25200 44.29500
C  44.61300 49.70200 42.84200
O  43.58200 50.28600 43.00000
C  44.52700 48.25100 42.25300
C  43.51700 47.41600 43.02000
O  43.75100 46.72200 44.05000
O  42.31600 47.32600 42.33500
C  41.55300 46.10000 42.71800
H  49.32300 43.41900 40.34700
H  53.65100 46.80100 43.68800
H  49.40900 51.63700 44.45100
H  44.86600 44.96000 41.20600
H  47.07400 44.70500 39.25600
H  46.39100 42.40200 39.25600
H  45.65200 42.83100 40.96200
H  47.36700 42.44200 40.61400
H  45.45400 46.08300 38.41900
H  44.99100 47.22700 39.56000
H  43.02200 46.76500 39.85700
H  43.04700 44.99000 39.79300
H  51.74200 42.48200 40.06700
H  50.67900 41.81300 41.31600
H  52.40000 41.76200 41.54800
H  55.42800 45.77000 42.93900
H  56.18300 44.35500 43.47800
H  54.76400 44.89100 44.34600
H  53.59900 49.52100 43.33800
H  51.89400 50.50500 45.64200
H  54.63500 49.81900 45.25500
H  54.62600 48.05900 45.19100
H  53.50100 49.00100 46.35400
H  53.49700 51.91400 44.13700
H  51.89800 52.54200 44.61000
H  51.57300 51.32900 42.12000
H  53.00700 52.32500 42.03200
H  51.51400 53.10600 42.48700
H  45.66100 52.48500 44.36200
H  47.13800 52.92800 43.54800
H  47.13000 52.39500 45.29700
H  43.98300 48.24800 41.30800
H  40.86400 45.75400 41.94700
H  40.94400 46.34600 43.58700
H  42.07700 45.21100 43.06800

