158

Mg 26.18400 1.11900 29.16200
C  28.02600 0.89100 32.15500
C  23.33700 1.34800 31.12900
C  24.39400 0.91000 26.41100
C  29.07100 -0.03200 27.43800
N  25.83700 0.97900 31.44000
C  26.70700 1.16600 32.42500
C  25.97400 1.44600 33.73000
C  24.48600 1.25200 33.37800
C  24.54600 1.04100 31.85700
C  23.81000 0.04100 34.08300
C  26.38900 2.86100 34.30200
C  25.95700 2.98900 35.76600
H  26.98500 2.81200 36.78900
N  24.14200 1.34500 28.74700
C  23.15600 1.41600 29.70500
C  21.90900 1.70000 28.97100
C  22.22900 1.68300 27.55300
C  23.64700 1.31900 27.51300
C  20.66900 1.95000 29.74400
C  21.36000 1.86900 26.31300
O  21.78100 1.99800 25.16800
C  19.92700 2.12000 26.43600
N  26.66300 0.60900 27.19300
C  25.69900 0.60700 26.17800
C  26.36600 0.40100 24.85100
C  27.87700 0.30400 25.20000
C  27.91600 0.28700 26.71400
C  25.78100 -0.84900 24.11900
C  28.72800 1.46600 24.65200
C  29.45400 1.22200 23.27000
N  28.12200 0.54500 29.65900
C  29.16600 0.04300 28.86300
C  30.29000 -0.30700 29.66400
C  29.92400 0.08300 30.97100
C  28.59700 0.57100 30.89300
C  31.38100 -1.17000 29.21800
C  30.43000 0.12300 32.31200
O  31.53500 -0.10900 32.76600
C  29.17400 0.66800 33.17600
C  28.73900 -0.30600 34.23900
O  28.05600 -1.33900 34.05500
O  29.19400 0.17600 35.45800
C  29.07700 -0.70800 36.60600
H  22.43500 1.56900 31.70300
H  23.67900 0.80800 25.59100
H  29.97000 -0.33500 26.89700
H  26.23700 0.71900 34.49800
H  23.79600 2.06600 33.59900
H  23.50000 -0.68500 33.33100
H  23.05300 0.34300 34.80600
H  24.39300 -0.51600 34.81700
H  26.06600 3.64400 33.61600
H  27.45700 2.81400 34.08700
H  25.16200 2.27000 35.96400
H  25.51300 3.96200 35.97600
H  20.40300 3.00100 29.63000
H  20.67400 1.73200 30.81200
H  19.80100 1.39300 29.39100
H  19.63200 2.88900 25.72200
H  19.69300 2.43000 27.45400
H  19.54000 1.11500 26.27000
H  26.26000 1.36200 24.34700
H  28.33100 -0.56200 24.71900
H  26.35600 -1.13200 23.23700
H  24.73100 -0.67800 23.88200
H  25.81400 -1.71100 24.78600
H  29.62500 1.66200 25.24000
H  28.16900 2.39700 24.55900
H  30.42000 1.70600 23.12700
H  28.70000 1.59000 22.57500
H  29.55700 0.15700 23.06400
H  31.71100 -1.76200 30.07200
H  32.22100 -0.74900 28.66700
H  31.01000 -1.87300 28.47200
H  29.45800 1.60500 33.65500
H  30.05200 -0.69400 37.09500
H  28.87800 -1.76000 36.40000
H  28.31500 -0.23300 37.22300
Mg 9.93900 47.90800 26.37800
C  7.93700 48.09200 29.29200
C  12.46000 49.27100 28.19700
C  11.51600 47.95500 23.57900
C  6.80600 47.32000 24.62300
N  10.14400 48.60700 28.59400
C  9.22200 48.51200 29.60200
C  9.82300 48.96000 30.90300
C  11.11400 49.58700 30.43400
C  11.27700 49.19000 28.99200
C  11.17200 51.11000 30.72200
C  10.09600 47.75300 31.88900
C  9.59200 48.08200 33.33800
H  9.48300 46.78100 34.28700
N  11.71100 48.40800 25.92600
C  12.66700 48.79100 26.88200
C  14.01800 48.66700 26.23300
C  13.78400 48.49300 24.88800
C  12.29400 48.23200 24.72000
C  15.38700 48.92100 27.07100
C  14.76300 48.44100 23.76200
O  14.40600 48.27400 22.60900
C  16.24200 48.64000 23.99900
N  9.27300 47.62300 24.36100
C  10.12400 47.68600 23.39300
C  9.52500 47.35200 22.02000
C  8.07300 47.04300 22.38600
C  8.00700 47.26300 23.89000
C  9.77900 48.38700 20.91000
C  7.63000 45.55300 21.99700
C  7.66200 45.22600 20.47900
N  7.83700 47.61700 26.80700
C  6.76900 47.41500 26.01200
C  5.54900 47.27800 26.72500
C  5.92600 47.49800 28.06400
C  7.36300 47.70400 28.04400
C  4.13800 46.99200 26.15800
C  5.46400 47.73800 29.37200
O  4.27900 47.79700 29.78300
C  6.75200 48.02700 30.26300
C  6.84100 46.90400 31.25100
O  7.52700 45.90500 31.24200
O  5.70200 47.05700 32.07400
C  5.45900 46.00000 33.04800
H  13.37800 49.62500 28.67200
H  12.16300 47.53800 22.80400
H  5.86000 47.21700 24.08700
H  9.18100 49.71200 31.36400
H  11.96400 49.05400 30.86200
H  12.07900 51.22900 31.31600
H  10.38100 51.50000 31.36300
H  11.35300 51.68600 29.81400
H  11.17500 47.62900 31.98000
H  9.78800 46.74900 31.59600
H  8.55900 48.42800 33.29500
H  10.14900 48.89900 33.79700
H  15.16400 48.88600 28.13700
H  15.86500 49.88000 26.86800
H  16.10200 48.11400 26.90800
H  16.71600 48.80800 23.03200
H  16.80500 47.85900 24.51100
H  16.32800 49.53900 24.60900
H  9.90400 46.39500 21.66200
H  7.40900 47.64000 21.76100
H  9.83700 49.39800 21.31300
H  9.01200 48.48100 20.14100
H  10.74000 48.29000 20.40400
H  6.68600 45.31000 22.48500
H  8.36800 44.86800 22.41400
H  8.43500 44.49500 20.24400
H  7.87400 46.11400 19.88300
H  6.67600 44.90400 20.14500
H  3.72400 47.88100 25.68200
H  3.45900 46.52800 26.87200
H  4.26300 46.27900 25.34300
H  6.83400 48.93900 30.85300
H  5.70500 46.47500 33.99800
H  6.04200 45.11600 32.79000
H  4.39900 45.75100 32.99600

