158

Mg 24.90800 1.16200 29.94800
C  26.97800 0.68700 32.62400
C  22.30400 1.04500 32.28000
C  22.64200 1.22700 27.39200
C  27.43700 0.63900 27.72000
N  24.71200 0.84500 32.24300
C  25.73300 0.98300 33.06100
C  25.22200 1.15600 34.51100
C  23.72100 0.89800 34.42500
C  23.56700 0.92700 32.86500
C  23.19800 -0.44300 35.02000
C  25.60900 2.42900 35.18600
C  26.20900 2.21400 36.57300
H  26.08600 3.28100 37.69300
N  22.85700 1.10300 29.85600
C  21.94000 1.03300 30.89900
C  20.57100 1.11000 30.37200
C  20.74200 1.15300 28.97500
C  22.14500 1.24400 28.68900
C  19.34500 1.23100 31.26800
C  19.65500 1.06900 27.89300
O  19.81800 0.96500 26.64600
C  18.15700 1.10300 28.30600
N  25.04600 0.94400 27.82500
C  23.99200 1.02500 26.93400
C  24.45000 1.07700 25.43100
C  25.99000 0.91200 25.58100
C  26.19800 0.81600 27.10900
C  23.70400 0.00900 24.57300
C  26.85300 1.97200 24.86700
C  26.60900 3.43200 25.27600
N  26.87200 0.76800 30.14400
C  27.80700 0.62000 29.11400
C  29.15500 0.39500 29.78100
C  28.82700 0.50400 31.14100
C  27.46500 0.66900 31.37800
C  30.51300 0.25300 29.13100
C  29.45800 0.44700 32.50300
O  30.60400 0.35900 32.96000
C  28.28100 0.72100 33.55900
C  28.24300 -0.31300 34.71100
O  27.69800 -1.37400 34.68600
O  29.13900 -0.02500 35.70000
C  29.05800 -0.90600 36.86800
H  21.35200 1.11600 32.81000
H  22.01000 1.50400 26.54600
H  28.24800 0.43500 27.01800
H  25.63200 0.28700 35.02500
H  23.13300 1.71700 34.84100
H  23.84200 -0.91200 35.76400
H  23.10400 -1.12600 34.17600
H  22.22200 -0.35300 35.49800
H  24.73900 3.07600 35.30000
H  26.30100 3.03800 34.60500
H  27.29100 2.10000 36.51100
H  25.77900 1.30000 36.98400
H  18.70000 2.00800 30.85800
H  19.50900 1.64800 32.26100
H  18.77900 0.30000 31.31800
H  17.97900 0.26800 28.98300
H  17.55100 0.97400 27.40900
H  17.84700 2.02600 28.79500
H  24.28900 2.10100 25.09300
H  26.32900 -0.07300 25.26100
H  24.35300 -0.74800 24.13300
H  23.44100 0.47300 23.62200
H  22.94100 -0.50000 25.16100
H  26.68400 1.83500 23.79900
H  27.90800 1.74200 25.01300
H  26.06400 3.39200 26.21900
H  26.06300 3.94100 24.48200
H  27.56400 3.92600 25.45700
H  30.68900 -0.81100 28.97500
H  31.14000 0.68200 29.91200
H  30.56900 0.79500 28.18600
H  28.48900 1.74400 33.87300
H  28.16300 -0.80100 37.48200
H  29.94000 -0.63600 37.44900
H  29.28400 -1.91200 36.51600
Mg 42.09900 41.36900 26.91600
C  41.23700 43.89600 29.11200
C  42.92200 39.54500 29.64500
C  43.32200 39.03500 24.85200
C  42.19800 43.68400 24.31300
N  41.99400 41.65400 29.10500
C  41.44000 42.71800 29.78500
C  41.31900 42.40400 31.31600
C  42.17000 41.18100 31.49600
C  42.43800 40.74400 29.98400
C  43.54600 41.34900 32.19300
C  39.88400 42.52800 31.82800
C  39.37700 41.66000 33.03100
H  38.70700 42.31100 34.24100
N  42.76900 39.45600 27.19600
C  43.03700 38.90000 28.39500
C  43.62100 37.55200 28.28800
C  43.66100 37.37400 26.87100
C  43.24600 38.64900 26.21500
C  44.07200 36.65300 29.47200
C  43.93100 36.13100 26.07500
O  43.99500 36.05700 24.84900
C  44.20600 34.92800 26.88100
N  42.64900 41.32500 24.85200
C  43.02300 40.20900 24.21900
C  42.97800 40.42100 22.61200
C  42.69800 41.97100 22.51600
C  42.50700 42.38900 23.98800
C  44.21700 39.95700 21.89900
C  41.61000 42.37100 21.58800
C  41.80500 43.70000 20.95300
N  41.75000 43.41400 26.71700
C  41.79100 44.19600 25.60000
C  41.48800 45.54000 25.96300
C  41.18600 45.48200 27.33300
C  41.44000 44.16700 27.73100
C  41.31200 46.59600 24.91500
C  40.70600 46.23600 28.43700
O  40.34600 47.40200 28.54900
C  40.78900 45.20800 29.70200
C  41.77600 45.76000 30.68100
O  42.99800 45.75700 30.61700
O  41.17000 46.27200 31.80100
C  41.98300 46.73600 32.95300
H  43.15300 38.94800 30.52900
H  43.74000 38.27500 24.19000
H  42.37500 44.40000 23.50800
H  41.90700 43.26100 31.64500
H  41.56100 40.53000 32.12200
H  44.41300 41.37700 31.53300
H  43.67600 40.62600 32.99900
H  43.58400 42.28600 32.74900
H  39.29900 42.19700 30.96900
H  39.74200 43.60500 31.92400
H  40.16500 41.09300 33.52900
H  38.90300 40.85100 32.47600
H  43.76300 35.60900 29.41800
H  43.68900 36.87000 30.46900
H  45.16200 36.64800 29.46100
H  44.93200 35.09700 27.67600
H  44.53700 34.06200 26.30800
H  43.34800 34.74500 27.52800
H  42.07900 39.93100 22.23700
H  43.64400 42.41400 22.20500
H  44.79900 40.71300 21.37200
H  44.12800 39.06700 21.27600
H  44.91400 39.59600 22.65500
H  40.62000 42.37000 22.04400
H  41.67700 41.68300 20.74500
H  41.48800 43.49400 19.93000
H  42.82500 44.05800 20.81200
H  41.19700 44.45200 21.45600
H  40.74800 46.18100 24.07900
H  42.33000 46.87500 24.64200
H  40.76900 47.44300 25.33400
H  39.82400 45.13000 30.20300
H  41.44000 47.62600 33.27200
H  43.01600 47.01300 32.74600
H  41.87800 46.02600 33.77400

