158

Mg 1.02100 7.68000 27.13700
C  1.95200 10.18200 29.63400
C  0.73800 5.45700 29.80500
C  0.15600 5.51100 24.88200
C  1.77600 10.12700 24.73100
N  1.34000 7.89700 29.50400
C  1.58900 8.97200 30.22600
C  1.16700 8.72400 31.64500
C  1.17800 7.13700 31.77000
C  1.06600 6.78300 30.27300
C  2.53000 6.47600 32.31500
C  -0.15300 9.41000 32.12700
C  -0.31400 9.77200 33.60900
H  0.80100 9.28200 34.58000
N  0.65300 5.66000 27.31700
C  0.56800 4.89200 28.48300
C  0.17100 3.52400 28.13200
C  -0.13200 3.57600 26.69600
C  0.27500 4.91300 26.17000
C  -0.03400 2.45700 29.19300
C  -0.80500 2.54800 25.77300
O  -0.90200 2.65100 24.59400
C  -1.44700 1.30200 26.42400
N  1.20200 7.70300 25.13600
C  0.59400 6.74200 24.39100
C  0.56100 7.14900 22.88300
C  1.08700 8.64300 22.80300
C  1.49400 8.84400 24.29300
C  1.28400 6.07700 22.00200
C  -0.01000 9.62300 22.33900
C  0.55600 10.93400 21.81300
N  1.71700 9.72000 27.10400
C  1.94000 10.57500 26.04800
C  2.34000 11.88200 26.53100
C  2.37800 11.76700 27.92200
C  1.93600 10.44700 28.21900
C  2.82700 13.00700 25.67900
C  2.78100 12.45900 29.14600
O  3.37900 13.50700 29.31300
C  2.40600 11.47600 30.30200
C  3.51800 11.29200 31.27700
O  4.43600 10.46900 31.19400
O  3.38400 12.19600 32.23400
C  4.19300 11.96600 33.42900
H  0.66700 4.74100 30.62700
H  -0.36100 4.98300 24.07800
H  1.92900 10.93700 24.01400
H  1.97600 9.09600 32.27300
H  0.33800 6.82300 32.38900
H  2.35400 5.98500 33.27200
H  3.32200 7.20200 32.50100
H  2.83300 5.82200 31.49700
H  -0.94300 8.66800 32.00500
H  -0.41400 10.28600 31.53200
H  -1.31800 9.58800 33.99300
H  -0.24300 10.85900 33.66100
H  0.13900 1.41800 28.91300
H  -1.09400 2.53000 29.43300
H  0.43900 2.54800 30.17100
H  -1.73600 1.46300 27.46200
H  -0.94100 0.36000 26.21100
H  -2.39300 1.26500 25.88400
H  -0.49200 7.00900 22.63500
H  1.94600 8.68600 22.13300
H  2.07400 5.76800 22.68700
H  1.75300 6.57100 21.15200
H  0.76600 5.17100 21.68600
H  -0.60900 9.94500 23.19100
H  -0.58500 9.14400 21.54600
H  0.05400 11.05800 20.85300
H  1.62100 10.99200 21.59100
H  0.28500 11.70000 22.54000
H  2.10400 13.02000 24.86300
H  3.83400 12.85500 25.29100
H  2.70900 14.00000 26.11200
H  1.55000 11.91400 30.81600
H  4.52900 12.91400 33.84700
H  4.94500 11.17700 33.44700
H  3.47600 11.63500 34.18100
Mg 26.33800 1.15100 29.57900
C  28.16100 1.05700 32.55500
C  23.43700 1.61900 31.52800
C  24.38100 1.14600 26.70900
C  28.93400 -0.08200 27.75800
N  25.85900 1.20400 31.81400
C  26.81400 1.25100 32.82700
C  26.13400 1.43000 34.19900
C  24.61100 1.55400 33.89000
C  24.58100 1.41700 32.28600
C  23.69600 0.60600 34.55200
C  26.66600 2.52200 35.09500
C  25.96400 2.78600 36.43300
H  26.78600 2.84200 37.71300
N  24.17300 1.35100 29.16500
C  23.19500 1.55100 30.09100
C  21.94200 1.73200 29.48600
C  22.16800 1.54700 28.10700
C  23.65200 1.31300 27.88900
C  20.65200 2.03100 30.18400
C  21.19000 1.55800 26.97900
O  21.49400 1.30800 25.81900
C  19.82200 2.05900 27.21900
N  26.56500 0.48400 27.57300
C  25.63200 0.64500 26.51500
C  26.22500 0.27300 25.13100
C  27.74700 -0.06800 25.44300
C  27.75500 0.10800 27.02700
C  25.31700 -0.65000 24.19600
C  28.77700 0.73100 24.60100
C  29.16700 2.12900 25.05000
N  28.18600 0.62200 29.96400
C  29.19600 0.17400 29.12600
C  30.37400 -0.00700 29.89800
C  30.07000 0.47300 31.20800
C  28.69300 0.72400 31.25300
C  31.73600 -0.46700 29.36700
C  30.59000 0.70800 32.53200
O  31.73200 0.55300 32.92600
C  29.32800 1.17100 33.47000
C  29.51000 0.28500 34.74400
O  29.24300 -0.88700 34.86700
O  29.86300 1.09000 35.84900
C  30.01400 0.49000 37.15700
H  22.63100 2.03600 32.13600
H  23.78000 1.30100 25.81100
H  29.81100 -0.44900 27.22100
H  26.35200 0.50200 34.72800
H  24.32700 2.53800 34.26200
H  23.45600 -0.19500 33.85300
H  22.80100 1.05900 34.97700
H  24.28700 0.13300 35.33700
H  26.55300 3.43100 34.50400
H  27.75100 2.47400 35.18500
H  25.41000 1.85800 36.57400
H  25.36800 3.69900 36.45100
H  20.09500 1.09700 30.26600
H  20.17200 2.95800 29.87100
H  20.82200 2.15800 31.25300
H  19.46900 1.35200 27.97000
H  19.09400 2.11400 26.41000
H  19.95600 3.05700 27.63500
H  26.23800 1.26200 24.67400
H  27.85900 -1.14000 25.28100
H  24.73400 -0.07400 23.47700
H  24.63400 -1.23500 24.81200
H  25.86300 -1.32600 23.53700
H  28.29500 0.76700 23.62400
H  29.67300 0.11200 24.56300
H  30.22700 2.16000 25.30300
H  28.50100 2.46500 25.84400
H  28.86900 2.78600 24.23300
H  31.81500 -0.51300 28.28100
H  32.01000 -1.46100 29.72100
H  32.40400 0.37000 29.57400
H  29.60500 2.16500 33.82000
H  30.96400 0.79500 37.59500
H  29.90200 -0.59200 37.08300
H  29.16300 0.94700 37.66300

