158

Mg 0.18300 8.10000 25.65800
C  1.03700 9.79200 28.70800
C  0.13800 5.24000 27.44400
C  0.00600 6.45700 22.74100
C  1.06400 11.09400 23.92600
N  0.57000 7.53000 27.73600
C  0.74000 8.40500 28.86700
C  0.82300 7.69700 30.29800
C  0.58600 6.21000 29.86600
C  0.37300 6.31700 28.27900
C  1.73400 5.26100 30.25700
C  -0.24600 8.10100 31.37500
C  0.21800 8.13300 32.85400
H  1.30200 7.18600 33.37700
N  0.00100 6.11100 25.16300
C  0.11000 5.08800 26.01100
C  0.23300 3.83900 25.28800
C  0.11200 4.12900 23.92600
C  0.03600 5.63600 23.90900
C  0.28600 2.50700 26.03600
C  -0.06500 3.22400 22.73700
O  -0.26500 3.59600 21.57800
C  0.18900 1.75900 23.04300
N  0.51200 8.65800 23.59600
C  0.08700 7.84300 22.64000
C  0.18300 8.57800 21.23400
C  0.32200 10.08200 21.66300
C  0.70900 9.94600 23.13700
C  1.33800 8.06800 20.30900
C  -0.96400 10.90900 21.45700
C  -2.38800 10.38500 22.01300
N  0.77800 10.08500 26.14000
C  1.18000 11.15200 25.32500
C  1.41200 12.31600 26.13400
C  1.45400 11.79200 27.42900
C  1.06400 10.42000 27.38900
C  1.65600 13.65400 25.67500
C  1.74900 12.21300 28.83400
O  2.11800 13.25900 29.32800
C  1.50100 10.85800 29.70300
C  2.65500 10.54400 30.54600
O  3.50600 9.74000 30.28800
O  2.45400 11.27500 31.71800
C  3.29700 11.01800 32.86700
H  0.02900 4.24500 27.88000
H  -0.16900 5.92100 21.80600
H  1.13800 12.03900 23.38400
H  1.81400 7.97200 30.66100
H  -0.30500 5.69300 30.22300
H  2.63500 5.69800 30.69000
H  1.93700 4.65300 29.37600
H  1.41600 4.53300 31.00300
H  -1.15100 7.50300 31.27100
H  -0.47100 9.10800 31.02500
H  -0.75400 7.85200 33.25800
H  0.36000 9.15400 33.20700
H  1.06000 1.89200 25.57600
H  -0.69000 2.02500 25.97800
H  0.49700 2.63400 27.09800
H  0.09300 1.26500 22.07700
H  -0.48500 1.38100 23.81200
H  1.19200 1.90800 23.44400
H  -0.72900 8.41700 20.66100
H  1.09100 10.51300 21.02200
H  1.43400 7.01400 20.57100
H  2.24900 8.66500 20.33500
H  1.09000 8.11800 19.24800
H  -1.05600 11.01800 20.37700
H  -0.75200 11.88100 21.90300
H  -3.00900 10.25600 21.12600
H  -2.77100 11.20000 22.62700
H  -2.22600 9.45000 22.54900
H  2.17000 13.69300 24.71500
H  2.28700 14.13500 26.42300
H  0.64700 14.06100 25.72600
H  0.62300 10.97600 30.33900
H  2.79900 10.19600 33.38300
H  3.32100 11.89300 33.51600
H  4.31100 10.66800 32.67700
Mg 47.68500 24.99100 29.16700
C  48.43700 27.41600 31.79500
C  46.23600 23.08800 31.46600
C  47.27000 22.83900 26.71100
C  49.34600 27.30600 27.04200
N  47.55300 25.19900 31.42100
C  47.82500 26.24300 32.21000
C  47.39400 25.94600 33.75100
C  46.83200 24.51500 33.55700
C  46.88000 24.17500 32.09600
C  47.38600 23.42300 34.52600
C  46.52400 27.05600 34.35700
C  46.80800 27.58900 35.78000
H  47.17900 26.57600 36.89300
N  46.86100 23.22700 29.07900
C  46.26100 22.58600 30.14800
C  45.60500 21.35800 29.61700
C  45.75300 21.42600 28.24700
C  46.61100 22.53400 27.93200
C  44.85500 20.41400 30.49900
C  45.21300 20.50700 27.21600
O  45.42200 20.62500 26.02200
C  44.39700 19.18100 27.58200
N  48.35100 25.06400 27.21700
C  48.01200 23.99900 26.37100
C  48.60300 24.20300 24.96700
C  49.05800 25.72400 25.02600
C  48.97500 26.06100 26.49100
C  49.75500 23.14700 24.72400
C  48.29300 26.77500 24.22000
C  49.11500 27.59700 23.22600
N  48.55300 27.10100 29.32500
C  49.28900 27.80700 28.36900
C  49.75200 29.07800 28.89600
C  49.39900 28.96300 30.30100
C  48.73500 27.72700 30.48600
C  50.26700 30.24000 28.10700
C  49.46400 29.63300 31.58000
O  49.98300 30.69000 31.90100
C  48.86000 28.55000 32.65600
C  49.91100 28.25400 33.73700
O  50.70300 27.35700 33.83200
O  49.87400 29.32700 34.57400
C  50.72200 29.32700 35.78000
H  45.77400 22.40600 32.18300
H  47.13700 22.14800 25.87600
H  49.75400 28.04800 26.35200
H  48.40800 25.96000 34.15200
H  45.75300 24.59400 33.69100
H  47.74600 22.60900 33.89700
H  46.61900 23.03500 35.19700
H  48.17500 23.75300 35.20100
H  45.53800 26.60000 34.27200
H  46.44800 27.85700 33.62200
H  45.84800 27.98500 36.11100
H  47.45400 28.45500 35.92200
H  43.78600 20.33100 30.30200
H  44.76900 20.76200 31.52900
H  45.24500 19.40400 30.62800
H  43.48500 19.33500 28.15900
H  45.00800 18.47700 28.14700
H  44.12100 18.79100 26.60300
H  47.84500 24.17000 24.18300
H  50.09000 25.70100 24.67600
H  50.06400 22.75000 25.69100
H  50.72500 23.48900 24.36400
H  49.25700 22.44000 24.06100
H  47.85100 27.45700 24.94700
H  47.44200 26.33700 23.69800
H  48.75100 27.38100 22.22200
H  50.17600 27.39900 23.38100
H  48.98800 28.65600 23.44700
H  50.48500 30.03200 27.06000
H  51.20400 30.57300 28.55200
H  49.59100 31.07400 28.29700
H  47.93500 28.95000 33.07200
H  51.74600 29.01800 35.56600
H  50.30800 28.59400 36.47100
H  50.75600 30.33400 36.19500

