158

Mg 34.99300 0.73000 28.70700
C  33.10400 1.81100 31.32000
C  37.59600 0.29900 30.88200
C  36.92100 -0.20600 25.97400
C  32.43500 1.62700 26.52800
N  35.27200 1.03200 30.89500
C  34.37400 1.54100 31.73200
C  34.97400 1.64100 33.19500
C  36.46400 1.55700 32.93600
C  36.42300 0.83800 31.45600
C  37.38700 2.84500 32.98100
C  34.52800 0.39800 34.09700
C  33.97900 0.76700 35.54000
H  34.56300 1.97300 36.30000
N  36.94500 0.00300 28.50900
C  37.84900 -0.18400 29.52500
C  38.97600 -0.83500 28.99500
C  38.79700 -1.06700 27.56900
C  37.47100 -0.43000 27.27000
C  40.16900 -1.17000 29.89700
C  39.71100 -1.79900 26.59000
O  39.39200 -2.08300 25.43800
C  41.14900 -2.01500 26.94200
N  34.64000 0.44800 26.55700
C  35.60800 0.21900 25.65200
C  35.25100 0.65200 24.25900
C  33.74500 1.06200 24.42500
C  33.52000 1.04400 25.91700
C  36.06000 2.01600 23.72900
C  32.72100 0.09500 23.71100
C  32.10900 -0.97700 24.46500
N  33.16200 1.54600 28.79200
C  32.19400 1.73900 27.87300
C  31.00800 2.07900 28.53600
C  31.30700 2.17000 29.88800
C  32.65800 1.82900 30.00200
C  29.66300 2.30800 27.85200
C  30.74200 2.36900 31.28200
O  29.59300 2.60200 31.57600
C  31.93800 2.23300 32.21000
C  32.07400 3.56200 32.90900
O  32.44800 4.59200 32.47200
O  31.62600 3.38700 34.19800
C  31.72000 4.53300 35.07600
H  38.46700 0.19200 31.53200
H  37.59600 -0.30000 25.12000
H  31.67300 2.19000 25.98600
H  34.75600 2.59700 33.67100
H  36.89800 0.87900 33.67100
H  36.84400 3.79000 33.00000
H  38.00000 2.95500 32.08700
H  37.93600 2.95100 33.91600
H  35.26400 -0.39300 34.24000
H  33.66300 -0.02600 33.58900
H  34.17200 -0.16500 36.07100
H  32.92200 1.00500 35.41800
H  41.03000 -0.58700 29.56900
H  40.37800 -2.23600 29.80100
H  40.00700 -1.05500 30.96900
H  41.78700 -2.43600 26.16500
H  41.12500 -2.59700 27.86300
H  41.55900 -1.05200 27.24900
H  35.26700 -0.25500 23.65600
H  33.64800 2.08700 24.06800
H  36.91100 2.30200 24.34800
H  35.49400 2.94800 23.71200
H  36.40900 1.74000 22.73400
H  33.08200 -0.26800 22.74900
H  31.92300 0.72700 23.32100
H  32.33900 -1.79800 23.78600
H  31.03100 -0.85300 24.57600
H  32.43300 -1.10500 25.49800
H  29.58100 2.18200 26.77300
H  29.13600 3.25300 27.98900
H  29.05500 1.48800 28.23400
H  31.56900 1.44800 32.87000
H  31.11800 5.27800 34.55600
H  32.75300 4.84700 35.22800
H  31.24300 4.35200 36.03900
Mg 5.75000 54.25700 40.60700
C  5.77400 50.72000 40.60800
C  9.04400 54.18400 39.66000
C  5.57000 57.51600 39.87700
C  2.17500 54.00800 41.01100
N  7.24500 52.54100 39.99900
C  7.05600 51.22700 40.28800
C  8.44100 50.44600 40.21900
C  9.47700 51.63400 40.10400
C  8.57500 52.87500 39.92000
C  10.34500 51.78200 41.34200
C  8.46500 49.46800 38.99700
C  8.29200 50.17500 37.58900
H  6.99300 49.84900 36.85600
N  7.16300 55.66700 39.97800
C  8.45500 55.43200 39.64800
C  9.09700 56.71400 39.42200
C  8.08000 57.70600 39.57600
C  6.89400 56.99800 39.83200
C  10.56700 57.04800 39.19800
C  8.28100 59.24000 39.46700
O  9.32300 59.78500 39.20400
C  7.13500 60.07800 39.86700
N  4.11200 55.54100 40.50300
C  4.32900 56.87600 40.06300
C  2.92000 57.58900 40.01500
C  1.86700 56.59500 40.44200
C  2.72200 55.24400 40.66300
C  2.86300 58.87500 40.90300
C  0.67700 56.57100 39.45800
C  -0.46000 57.41000 39.84700
N  4.23500 52.81000 40.91300
C  2.90700 52.81200 41.14500
C  2.41400 51.42300 41.45400
C  3.55800 50.68300 41.36300
C  4.56300 51.48700 40.84400
C  1.00200 50.98000 41.91800
C  3.99100 49.34900 41.64800
O  3.48500 48.39000 42.15600
C  5.40800 49.30300 40.98900
C  5.21200 48.34200 39.82100
O  4.73500 48.58100 38.73200
O  5.58800 47.11000 40.19900
C  5.16600 46.05600 39.22600
H  10.13000 54.22100 39.54700
H  5.35000 58.56100 39.64800
H  1.12000 53.94400 41.28700
H  8.60400 49.93100 41.16600
H  10.12900 51.42600 39.25500
H  11.38700 51.80700 41.02300
H  10.28100 50.87500 41.94400
H  10.06100 52.65000 41.93600
H  7.71800 48.67800 38.90600
H  9.48700 49.09500 39.04800
H  9.11200 49.91300 36.92000
H  8.35500 51.25500 37.72000
H  11.04800 57.37100 40.12100
H  10.69500 57.80400 38.42300
H  11.11700 56.15700 38.89700
H  6.41400 60.21300 39.06200
H  7.43800 61.08800 40.14600
H  6.59200 59.79300 40.76800
H  2.77400 57.99600 39.01400
H  1.33800 56.84000 41.36300
H  3.84600 59.31400 41.07300
H  2.44300 58.60400 41.87200
H  2.23500 59.64700 40.45900
H  0.44500 55.50700 39.41900
H  1.01400 56.91900 38.48100
H  -0.15300 58.25100 40.46800
H  -1.08700 56.79700 40.49600
H  -1.04100 57.76400 38.99500
H  1.15900 50.34400 42.78900
H  0.50500 50.54500 41.05100
H  0.27700 51.72700 42.24000
H  6.07500 48.85200 41.72300
H  6.02500 45.58900 38.74300
H  4.45800 46.30100 38.43500
H  4.65000 45.26800 39.77400

