158

Mg 46.43800 44.75800 43.49900
C  42.89700 44.64500 43.24800
C  46.43600 41.31800 42.97200
C  49.72700 45.03400 43.09300
C  46.17200 48.20300 43.56000
N  44.89500 43.27500 43.17100
C  43.49600 43.42000 43.00800
C  42.78300 42.05300 42.65800
C  43.90400 41.07200 43.01500
C  45.16500 41.94400 43.03000
C  43.69500 40.32100 44.38100
C  42.27700 41.93500 41.18700
C  43.21400 42.40700 40.13100
H  42.95700 42.01400 38.58700
N  47.92000 43.40400 43.05900
C  47.74300 42.01600 42.85400
C  48.96400 41.42000 42.54500
C  49.99900 42.42700 42.63700
C  49.23700 43.72100 42.95600
C  49.14800 39.89500 42.30500
C  51.51300 42.20000 42.55200
O  51.92500 41.04900 42.29800
C  52.44200 43.33500 42.77000
N  47.75700 46.39500 43.29200
C  49.09400 46.25000 43.25200
C  49.78600 47.60700 43.17500
C  48.66900 48.67800 43.23700
C  47.46700 47.74000 43.40000
C  51.02900 47.77100 44.20200
C  48.57800 49.50400 41.93900
C  48.13100 50.93300 42.08800
N  44.91000 46.17100 43.51900
C  44.96300 47.50000 43.63500
C  43.59700 48.05100 43.86300
C  42.79500 46.97300 43.67200
C  43.60700 45.82500 43.44200
C  43.18700 49.46800 43.95700
C  41.39900 46.55800 43.60500
O  40.38500 47.22600 43.63400
C  41.43600 44.99300 43.27400
C  40.67100 44.27500 44.32200
O  39.82300 43.43700 44.12400
O  41.09600 44.62300 45.58700
C  40.62500 43.85700 46.73500
H  46.40600 40.23100 43.07300
H  50.79900 45.13100 42.90300
H  46.05200 49.27100 43.75200
H  41.90200 41.90400 43.28100
H  44.01800 40.39600 42.16700
H  43.52100 39.26800 44.15900
H  42.81500 40.73600 44.87400
H  44.54100 40.40700 45.06200
H  41.45600 42.65200 41.17100
H  42.02500 40.87700 41.11200
H  44.24300 42.18500 40.41400
H  42.90000 43.45000 40.10900
H  48.93800 39.74100 41.24600
H  48.43000 39.26000 42.82400
H  50.16700 39.55200 42.48400
H  52.26600 43.84900 43.71600
H  52.30100 44.00900 41.92500
H  53.45500 42.93700 42.73000
H  50.27000 47.53400 42.20100
H  48.69500 49.24000 44.17000
H  50.76400 47.36500 45.17800
H  51.31500 48.80500 44.39700
H  51.95100 47.38300 43.77100
H  47.89800 48.87900 41.36000
H  49.52200 49.53700 41.39600
H  48.89100 51.62700 42.44600
H  47.18200 50.98600 42.62300
H  47.58400 51.14400 41.16800
H  42.92400 49.64000 45.00000
H  42.22600 49.54900 43.44900
H  43.98100 50.13800 43.62800
H  40.89200 44.88400 42.33600
H  40.74500 44.43800 47.65000
H  41.22600 42.95100 46.80800
H  39.59100 43.52700 46.63500
Mg 15.88000 52.07700 25.37500
C  17.90400 51.16200 28.18300
C  13.23800 52.47000 27.49100
C  14.33700 53.11700 22.72400
C  18.55300 50.93400 23.34500
N  15.65800 51.93400 27.51900
C  16.57400 51.67400 28.53900
C  16.10000 52.09600 29.92900
C  14.53700 52.11400 29.64900
C  14.44600 52.10200 28.12700
C  13.82400 50.77800 30.23900
C  16.71600 53.42700 30.22000
C  16.71500 53.83000 31.72000
H  15.79200 53.02000 32.70900
N  13.93000 52.75700 25.15000
C  12.97300 52.78600 26.11200
C  11.77100 53.32900 25.45800
C  12.05200 53.55100 24.08100
C  13.44300 53.17600 23.92200
C  10.39600 53.38300 26.20000
C  11.14200 54.06100 22.97000
O  11.49100 54.23500 21.82000
C  9.67500 54.33800 23.23900
N  16.46000 52.19500 23.34900
C  15.65100 52.67100 22.44200
C  16.20900 52.62700 21.00800
C  17.67500 52.16600 21.29300
C  17.59100 51.78100 22.74100
C  15.40500 51.57200 20.10600
C  18.76100 53.23700 21.12000
C  20.11400 52.77400 20.33600
N  17.75000 50.96300 25.57800
C  18.68700 50.52900 24.73800
C  19.78800 49.90300 25.40000
C  19.51800 50.20900 26.74000
C  18.33300 50.85500 26.82600
C  20.91900 49.18700 24.73400
C  20.13600 50.16600 28.02500
O  21.19800 49.72600 28.40900
C  19.02900 50.65100 29.10300
C  18.56200 49.41200 29.89000
O  18.01800 48.35400 29.48800
O  18.68000 49.70400 31.23100
C  18.06900 48.76700 32.15600
H  12.37700 52.73100 28.11000
H  13.79400 53.34300 21.80400
H  19.39600 50.73900 22.67900
H  16.57800 51.42300 30.64100
H  14.20600 53.03900 30.12200
H  13.27700 50.20300 29.49200
H  13.12000 51.09600 31.00800
H  14.53300 50.17600 30.80700
H  16.11200 54.24800 29.83200
H  17.73500 53.46700 29.83700
H  16.73900 54.91900 31.76000
H  17.71900 53.55500 32.04400
H  9.71400 52.62700 25.80900
H  9.85500 54.32300 26.09200
H  10.54500 53.20300 27.26400
H  9.29000 53.53600 23.87000
H  9.12400 54.32500 22.29900
H  9.45100 55.29400 23.71200
H  16.31100 53.51700 20.38700
H  17.91200 51.26100 20.73300
H  14.65800 52.18000 19.59700
H  14.90900 50.78300 20.67200
H  15.97100 51.09400 19.30600
H  19.06100 53.56800 22.11500
H  18.44500 54.16800 20.64900
H  20.01600 51.70700 20.13500
H  21.04900 52.96200 20.86300
H  20.23900 53.29600 19.38800
H  20.64900 49.12200 23.68000
H  21.00100 48.16100 25.09300
H  21.91600 49.61900 24.81700
H  19.30800 51.43800 29.80400
H  18.93300 48.21800 32.53000
H  17.29100 48.16100 31.69200
H  17.70400 49.25800 33.05800

