158

Mg 25.78800 0.46700 30.08600
C  27.57600 0.03100 32.97700
C  22.87800 0.62300 31.90400
C  24.16100 0.69500 27.07100
C  28.78900 -0.32300 28.18600
N  25.35400 0.31000 32.16500
C  26.19700 0.30100 33.19500
C  25.45600 0.61500 34.52300
C  23.91400 0.31100 34.16600
C  24.03400 0.36100 32.64300
C  23.35600 -1.03300 34.76900
C  25.72900 2.00700 35.05500
C  26.66500 2.09900 36.24300
H  26.21700 2.94700 37.42700
N  23.79900 0.78800 29.53500
C  22.75100 0.88800 30.45200
C  21.50400 1.16500 29.67800
C  21.85500 1.07900 28.29600
C  23.31700 0.85400 28.24300
C  20.27000 1.46300 30.55000
C  20.93900 1.30600 27.12100
O  21.29800 1.49800 25.94200
C  19.46300 1.42700 27.26800
N  26.37600 0.06500 27.84600
C  25.50700 0.37600 26.91300
C  26.20400 0.37200 25.55000
C  27.68600 0.05900 25.84400
C  27.67400 -0.05600 27.34800
C  25.64200 -0.68600 24.54800
C  28.63000 1.16300 25.39500
C  28.31900 2.62800 25.78100
N  27.77900 -0.15500 30.45000
C  28.88700 -0.31700 29.61500
C  30.04100 -0.63000 30.48700
C  29.60600 -0.47900 31.80600
C  28.18800 -0.20100 31.71300
C  31.41400 -0.97900 30.07500
C  30.02300 -0.42300 33.19900
O  31.13400 -0.52500 33.63900
C  28.66300 -0.27000 34.02600
C  28.45100 -1.53300 34.70300
O  27.47500 -2.25700 34.56200
O  29.52200 -1.77900 35.62000
C  29.12700 -2.70200 36.65400
H  21.96400 0.69000 32.49900
H  23.52000 0.67000 26.18700
H  29.68500 -0.55900 27.60900
H  25.89600 -0.12300 35.19400
H  23.40600 1.17000 34.60400
H  24.19100 -1.51200 35.28100
H  22.92700 -1.56200 33.91800
H  22.67300 -0.79300 35.58400
H  24.90000 2.64700 35.35800
H  26.21100 2.57500 34.25900
H  27.62500 2.50200 35.92100
H  26.97900 1.10200 36.55100
H  20.28400 1.75800 31.59900
H  19.53000 0.68900 30.34400
H  19.90800 2.39000 30.10500
H  19.32200 2.34100 27.84400
H  19.04500 0.54200 27.74800
H  19.03500 1.56700 26.27500
H  26.00800 1.37500 25.17100
H  27.96900 -0.81800 25.26100
H  24.89000 -0.16500 23.95500
H  25.22900 -1.52100 25.11500
H  26.37800 -1.13300 23.87900
H  28.62200 0.99900 24.31700
H  29.61200 0.88000 25.77200
H  27.63200 2.68400 26.62500
H  27.94000 3.17900 24.92000
H  29.25600 3.01800 26.17700
H  31.74400 -0.62100 29.09900
H  31.53400 -2.06100 30.02400
H  32.04500 -0.66700 30.90700
H  28.71800 0.50500 34.78900
H  29.95400 -2.92400 37.32800
H  28.95700 -3.68200 36.20700
H  28.18300 -2.51200 37.16500
Mg 36.68200 48.95100 24.63400
C  36.59400 47.43400 27.80300
C  36.08400 51.92800 26.22300
C  36.42200 50.23700 21.63300
C  37.07900 45.76000 23.26900
N  36.25100 49.54700 26.82900
C  36.36700 48.82800 27.92400
C  36.05200 49.62000 29.23700
C  35.81200 51.05300 28.69000
C  36.05500 50.85400 27.14900
C  34.46100 51.69400 29.07700
C  37.32800 49.52200 30.13000
C  37.03600 49.13700 31.61200
H  35.84500 49.77700 32.24800
N  36.24000 50.80300 23.96800
C  36.17500 51.92200 24.76000
C  36.10600 53.08100 23.92500
C  36.26000 52.66900 22.63400
C  36.26500 51.15400 22.67600
C  35.88100 54.47100 24.51800
C  36.28600 53.44700 21.38000
O  36.29000 52.88900 20.21300
C  36.33400 55.04600 21.30600
N  36.52900 48.08100 22.60800
C  36.55900 48.85700 21.60400
C  36.68100 48.02200 20.25000
C  37.05900 46.58500 20.79800
C  36.83200 46.77800 22.29000
C  35.40300 48.12000 19.34800
C  38.49600 46.18000 20.29800
C  39.64400 46.58400 21.25400
N  36.94500 47.07700 25.34000
C  37.10900 45.82100 24.70200
C  37.44600 44.76800 25.64400
C  37.12500 45.30100 26.86000
C  36.83700 46.69200 26.60800
C  37.82800 43.37600 25.27600
C  37.08400 44.97800 28.27400
O  37.29700 43.95200 28.90500
C  36.68200 46.42900 28.94700
C  35.42400 46.21900 29.72100
O  34.26400 46.29000 29.27500
O  35.71100 45.93500 31.05300
C  34.58700 45.81800 32.00000
H  35.99700 52.87000 26.76800
H  36.20400 50.53800 20.60700
H  37.24400 44.79500 22.78400
H  35.23600 49.10000 29.74000
H  36.54600 51.78900 29.01700
H  33.86400 51.95400 28.20300
H  34.57600 52.63700 29.61200
H  33.88200 51.14200 29.81800
H  37.80800 50.49600 30.22200
H  38.08900 48.84700 29.73700
H  37.89900 49.55900 32.12700
H  37.07900 48.04900 31.55900
H  36.89700 54.83400 24.66900
H  35.30700 54.46500 25.44500
H  35.44400 55.14500 23.78100
H  37.09400 55.50300 21.94000
H  35.33100 55.36100 21.59300
H  36.50600 55.23200 20.24600
H  37.57300 48.38800 19.74200
H  36.28100 45.84900 20.59400
H  34.58000 48.40600 20.00400
H  35.17200 47.12700 18.96300
H  35.41000 48.82300 18.51500
H  38.54400 46.52000 19.26400
H  38.50300 45.09400 20.20600
H  39.35000 47.16100 22.13100
H  40.35200 47.16800 20.66600
H  40.16400 45.66700 21.53100
H  38.40800 43.34400 24.35300
H  36.91900 42.78100 25.19500
H  38.52000 42.91600 25.98200
H  37.50300 46.66100 29.62500
H  34.74300 46.24200 32.99200
H  34.46300 44.81200 32.40100
H  33.61900 46.16800 31.64000

