158

Mg 1.09100 7.67900 25.52000
C  1.76800 9.72600 28.22500
C  0.98800 4.97700 27.59400
C  0.53300 5.72200 22.85800
C  1.32400 10.45500 23.43800
N  1.27000 7.39200 27.64400
C  1.53500 8.34500 28.58700
C  1.65500 7.76000 29.98900
C  1.59800 6.18700 29.66600
C  1.19500 6.15100 28.25500
C  2.93000 5.42900 29.92300
C  0.50700 8.17200 30.91900
C  0.62100 7.91900 32.47800
H  1.90500 7.28800 33.04400
N  0.86800 5.66500 25.24400
C  0.82400 4.66200 26.23900
C  0.41500 3.37300 25.67700
C  0.51500 3.60400 24.23700
C  0.65600 5.03500 24.07600
C  0.22000 2.07600 26.38300
C  0.46500 2.69000 23.05500
O  0.80000 2.99300 21.88400
C  0.25700 1.19200 23.40500
N  1.20900 8.08500 23.38500
C  0.83100 7.11000 22.47100
C  0.53100 7.61800 21.06100
C  0.75000 9.17700 21.27300
C  1.10000 9.29000 22.77900
C  1.36500 7.00700 19.88600
C  -0.32100 10.21600 20.80200
C  0.18700 11.01100 19.49800
N  1.55000 9.68100 25.71000
C  1.55900 10.71800 24.83100
C  1.77400 12.00800 25.52400
C  1.95000 11.57400 26.81000
C  1.72000 10.23200 26.91600
C  1.73900 13.38400 24.96000
C  2.29100 12.11400 28.10200
O  2.64100 13.20800 28.40800
C  1.95400 10.95700 29.12600
C  3.04000 10.88100 30.08400
O  4.19700 10.44000 29.87100
O  2.64300 11.42100 31.27400
C  3.67700 11.38200 32.26800
H  0.89600 4.06400 28.18600
H  0.03500 5.27200 21.99600
H  1.12000 11.26400 22.73300
H  2.60100 8.02000 30.46500
H  0.91300 5.74500 30.38900
H  2.85600 4.65200 30.68400
H  3.67900 6.13300 30.28600
H  3.38200 4.97600 29.04000
H  -0.34200 7.65300 30.47400
H  0.33300 9.23900 30.78000
H  -0.19300 7.24900 32.75300
H  0.54100 8.89400 32.95800
H  -0.63700 1.75200 25.79300
H  -0.12800 2.04600 27.41600
H  1.03800 1.36300 26.27600
H  1.08000 0.81300 24.01100
H  0.41200 0.71800 22.43500
H  -0.75500 0.88500 23.66800
H  -0.52300 7.48800 20.81300
H  1.67500 9.44600 20.76300
H  2.34500 6.69600 20.24800
H  1.61500 7.71700 19.09800
H  0.92500 6.08400 19.50900
H  -0.45100 10.90600 21.63600
H  -1.22700 9.65300 20.57700
H  -0.59700 11.68500 19.15100
H  0.57900 10.33500 18.73900
H  0.99700 11.71300 19.69800
H  0.75700 13.78900 25.20400
H  1.79600 13.34400 23.87300
H  2.56200 14.01200 25.30200
H  0.97000 11.24700 29.49500
H  3.52700 11.96200 33.17800
H  4.57800 11.71500 31.75100
H  3.74200 10.35400 32.62300
Mg 45.01800 4.10900 48.59500
C  43.11900 6.89100 48.01300
C  42.25700 2.11800 47.96500
C  47.06700 1.43000 48.09000
C  47.89000 6.16000 48.37300
N  42.99300 4.51900 47.91200
C  42.36200 5.71700 47.74300
C  40.92800 5.56900 47.29400
C  40.62300 4.04600 47.66800
C  42.07600 3.50900 47.90400
C  39.56400 3.85900 48.88600
C  40.72900 5.95100 45.76300
C  39.53000 6.94700 45.43000
H  38.85800 6.71700 44.23700
N  44.68700 2.04800 48.37300
C  43.44600 1.44000 48.11800
C  43.68500 0.03200 47.95900
C  45.12600 -0.24600 47.99600
C  45.65900 1.12600 48.04100
C  42.58500 -0.91600 47.61800
C  45.80900 -1.58400 47.75800
O  45.05300 -2.55600 47.62000
C  47.33500 -1.81000 47.85100
N  47.19200 3.85900 48.44000
C  47.75500 2.60800 48.28600
C  49.27900 2.68100 48.13500
C  49.58200 4.20600 48.18400
C  48.14400 4.82100 48.33000
C  50.11100 1.98300 49.22500
C  50.32800 4.79300 46.99600
C  51.45000 4.03100 46.22400
N  45.43500 6.10400 48.40000
C  46.64200 6.78400 48.40100
C  46.36200 8.21700 48.35000
C  44.95000 8.27000 48.33900
C  44.50100 6.99200 48.31500
C  47.27700 9.42900 48.34100
C  43.81300 9.23000 48.22800
O  43.84700 10.46900 48.12400
C  42.54700 8.35800 47.94700
C  41.53700 8.63900 49.06700
O  41.32400 7.98200 50.09200
O  40.78600 9.71300 48.62500
C  39.45100 9.88400 49.23500
H  41.34700 1.51600 47.91400
H  47.77900 0.69300 47.71100
H  48.75600 6.81300 48.49900
H  40.39700 6.25100 47.95900
H  40.28300 3.45300 46.81900
H  39.19700 4.80100 49.29400
H  40.15900 3.28400 49.59500
H  38.72100 3.20800 48.65600
H  40.66500 5.12200 45.05900
H  41.53300 6.63400 45.48800
H  39.92200 7.95900 45.53200
H  38.75300 6.77500 46.17500
H  42.74000 -1.14800 46.56400
H  41.55100 -0.60700 47.76700
H  42.61900 -1.77400 48.28900
H  47.68400 -1.67000 46.82800
H  47.56100 -2.85900 48.04400
H  47.79100 -1.12700 48.56800
H  49.49800 2.15000 47.20900
H  50.06500 4.54800 49.09900
H  50.59400 1.06400 48.89200
H  49.43300 1.60900 49.99300
H  50.90200 2.59900 49.65300
H  50.65000 5.77800 47.33500
H  49.55900 4.97300 46.24400
H  51.69300 3.07800 46.69300
H  52.33800 4.66300 46.26600
H  51.11500 3.93200 45.19200
H  46.70200 10.19900 48.85600
H  47.39100 9.54700 47.26300
H  48.25200 9.36900 48.82300
H  42.14700 8.72500 47.00100
H  38.68000 9.58100 48.52600
H  39.14800 10.90100 49.48200
H  39.36400 9.37600 50.19500

