158

Mg 35.89700 2.51900 29.86700
C  33.59600 3.31500 32.31200
C  38.30100 2.36400 32.25900
C  37.95500 1.68500 27.48800
C  33.21100 2.66000 27.50300
N  35.90300 2.79800 31.98300
C  34.86300 3.01500 32.82900
C  35.25500 3.03200 34.29500
C  36.79100 2.92500 34.29900
C  36.97100 2.62300 32.76100
C  37.55700 4.14900 34.85500
C  34.51500 1.97900 35.22100
C  33.90500 2.51500 36.47700
H  34.55800 3.62400 37.17100
N  37.92200 2.10500 29.85500
C  38.77200 2.07800 30.93800
C  40.18300 1.83700 30.46000
C  40.09900 1.58800 29.03100
C  38.62100 1.75700 28.73800
C  41.36400 1.74400 31.35200
C  41.17200 1.04600 28.01100
O  40.89600 0.71900 26.88800
C  42.57600 0.75600 28.53800
N  35.59100 2.09500 27.84500
C  36.62400 1.93200 27.04400
C  36.26100 1.82200 25.57800
C  34.78500 2.06100 25.58800
C  34.45200 2.30100 27.08600
C  36.97900 2.71200 24.55100
C  33.80400 1.13600 24.72800
C  33.20000 -0.04600 25.43100
N  33.80200 2.95800 29.88500
C  32.82600 2.93500 28.85200
C  31.49800 3.38700 29.40500
C  31.76600 3.61000 30.73000
C  33.14100 3.31100 30.98300
C  30.20400 3.56900 28.61000
C  31.14600 4.04500 31.98000
O  30.01500 4.37900 32.26500
C  32.32800 3.80000 33.07000
C  32.41800 5.00400 33.84200
O  32.99100 6.00400 33.52900
O  31.69900 4.87400 34.98100
C  31.68100 6.03000 35.92000
H  39.12200 2.38200 32.97800
H  38.53900 1.24300 26.67900
H  32.39400 2.70100 26.78000
H  34.96900 4.01900 34.66000
H  37.16000 2.02800 34.79700
H  37.18300 4.71200 35.71000
H  37.59800 4.87500 34.04300
H  38.55600 3.76800 35.06800
H  35.15800 1.13500 35.47100
H  33.73000 1.53900 34.60500
H  33.79700 1.65800 37.14100
H  32.85300 2.73400 36.29800
H  41.89700 0.80000 31.23600
H  41.19300 2.02000 32.39200
H  41.99800 2.47200 30.84600
H  43.16300 0.63000 27.62900
H  42.78700 -0.09000 29.19300
H  42.99600 1.50100 29.21400
H  36.54500 0.81800 25.26200
H  34.49800 3.00300 25.12100
H  36.32600 3.52700 24.24000
H  37.43000 2.07400 23.79000
H  37.84400 3.19100 25.00800
H  34.46300 0.73300 23.95900
H  33.00800 1.81600 24.42400
H  33.72700 -0.43200 26.30300
H  33.24900 -0.87900 24.72900
H  32.17200 0.15700 25.73300
H  29.39900 3.14900 29.21200
H  30.12400 3.11700 27.62200
H  29.98800 4.63000 28.47900
H  31.93900 3.02000 33.72400
H  30.91000 6.75800 35.66700
H  32.63600 6.55500 35.96600
H  31.35300 5.59100 36.86100
Mg 16.51100 51.55500 26.79900
C  18.31000 50.39300 29.63200
C  13.98800 52.43900 28.91000
C  14.65300 52.70100 24.07500
C  18.88700 50.14300 24.86000
N  16.13200 51.09300 29.06000
C  17.03600 50.77100 30.00900
C  16.44600 51.05000 31.44900
C  14.94100 51.53800 31.11800
C  14.99100 51.77200 29.62100
C  13.95400 50.38400 31.50000
C  17.27900 52.17000 32.19600
C  17.83100 51.89900 33.63700
H  16.92200 52.48100 34.72500
N  14.59400 52.38700 26.49000
C  13.74700 52.68900 27.53900
C  12.65100 53.51600 27.05900
C  12.80200 53.60200 25.69300
C  14.11100 52.96000 25.33900
C  11.46300 53.98400 27.92200
C  11.87300 54.17300 24.64200
O  12.27000 54.31600 23.48200
C  10.44400 54.74300 24.95300
N  16.71400 51.41800 24.76500
C  15.77800 51.90600 23.78200
C  16.41900 51.84300 22.41300
C  17.91900 51.09600 22.68100
C  17.88300 50.82700 24.17800
C  15.49300 51.23500 21.34400
C  19.12200 51.97700 22.24400
C  19.35800 53.35100 22.93700
N  18.20200 50.57200 27.10800
C  19.06100 49.97700 26.22800
C  20.25800 49.36700 26.87100
C  19.93800 49.53000 28.20700
C  18.72300 50.23300 28.32500
C  21.39300 48.63100 26.28200
C  20.37900 49.24400 29.54300
O  21.36900 48.62600 29.86100
C  19.46300 49.87200 30.51800
C  19.09300 48.85600 31.54300
O  18.31800 47.88500 31.49100
O  19.68500 49.21000 32.72900
C  19.44900 48.36200 33.93500
H  13.23600 52.79800 29.61400
H  14.15000 52.93800 23.13500
H  19.58700 49.77600 24.10800
H  16.39300 50.12300 32.01900
H  14.66100 52.47000 31.60900
H  13.08300 50.80100 32.00600
H  14.33800 49.72700 32.28100
H  13.75600 49.76700 30.62400
H  16.63900 53.03200 32.38400
H  18.03600 52.46500 31.46900
H  18.83400 52.32300 33.69600
H  17.90400 50.82200 33.78300
H  11.47100 55.06400 27.77700
H  11.49200 53.81400 28.99800
H  10.52500 53.49900 27.64900
H  9.65700 54.00100 24.81900
H  10.29300 55.48500 24.17000
H  10.45700 55.23900 25.92400
H  16.62000 52.88700 22.17300
H  18.04900 50.20500 22.06800
H  14.48700 51.26300 21.76300
H  15.81500 50.20600 21.18500
H  15.36000 51.84800 20.45200
H  18.77000 52.23800 21.24600
H  20.01500 51.35300 22.19800
H  18.74300 53.53800 23.81800
H  19.02400 54.15300 22.27700
H  20.43000 53.43000 23.11400
H  21.80600 47.90200 26.97900
H  22.15400 49.32900 25.93400
H  21.10900 48.13100 25.35600
H  19.87300 50.71600 31.07300
H  19.60500 47.31400 33.67700
H  18.44900 48.45200 34.36000
H  20.16100 48.64600 34.71000

