158

Mg 25.16100 1.76300 29.73600
C  27.24500 1.18900 32.43400
C  22.54900 2.10800 31.94200
C  22.99800 1.91700 27.06200
C  27.61200 0.67800 27.63000
N  24.91300 1.37800 31.97500
C  25.91400 1.22200 32.87500
C  25.49200 1.54500 34.37500
C  23.90100 1.49200 34.11500
C  23.78200 1.75300 32.59900
C  23.12000 0.19300 34.55100
C  26.01900 2.94700 34.79700
C  26.90300 3.07100 36.06300
H  26.45900 4.06400 37.18900
N  23.12000 2.12400 29.54300
C  22.19500 2.21100 30.59700
C  20.87600 2.36700 30.02100
C  20.97900 2.32300 28.58900
C  22.42400 2.11200 28.29600
C  19.61200 2.62200 30.89000
C  19.95300 2.42500 27.50400
O  20.20100 2.50700 26.30200
C  18.50000 2.40800 27.98200
N  25.32800 1.39400 27.67200
C  24.29400 1.56400 26.70200
C  24.75100 1.20600 25.30000
C  26.20700 0.71600 25.53400
C  26.41600 0.99000 27.03700
C  23.72400 0.29600 24.49900
C  27.26200 1.41700 24.60900
C  28.13300 2.54800 25.13000
N  27.07200 1.15700 29.93600
C  27.97400 0.76200 28.97900
C  29.26800 0.54400 29.55400
C  29.03300 0.69100 30.93100
C  27.65400 1.00500 31.09800
C  30.59700 0.19300 28.92400
C  29.68300 0.67300 32.26800
O  30.87700 0.51900 32.58100
C  28.51200 1.03500 33.29100
C  28.52500 -0.07100 34.17900
O  27.99700 -1.17100 33.98500
O  29.14600 0.26100 35.39500
C  29.02900 -0.67500 36.53000
H  21.78300 2.30600 32.69500
H  22.34400 1.96100 26.18900
H  28.39600 0.31600 26.96200
H  25.82800 0.76900 35.06300
H  23.42900 2.34400 34.60600
H  23.94100 -0.46400 34.83800
H  22.64200 -0.29800 33.70300
H  22.43000 0.46900 35.34800
H  25.16000 3.59900 34.95600
H  26.51200 3.42500 33.95100
H  27.88400 3.32900 35.66200
H  27.01500 2.08900 36.52200
H  19.09300 3.51700 30.54700
H  19.84000 2.82600 31.93600
H  19.01600 1.71500 30.78900
H  18.16200 3.22800 28.61600
H  18.37500 1.45500 28.49500
H  17.93200 2.35700 27.05300
H  24.71400 2.13400 24.73000
H  26.26000 -0.33300 25.24200
H  22.74100 0.26000 24.97000
H  24.00200 -0.75800 24.46500
H  23.76200 0.68000 23.48000
H  26.73800 1.71000 23.70000
H  27.96100 0.64300 24.28800
H  28.15000 3.20500 24.26000
H  29.19000 2.29300 25.19900
H  27.68600 3.00800 26.01100
H  31.38400 0.79500 29.37900
H  30.47200 0.34600 27.85300
H  30.82800 -0.83600 29.20000
H  28.88100 1.88500 33.86600
H  29.04500 -1.71900 36.21800
H  28.25800 -0.61600 37.29800
H  29.91900 -0.64800 37.15900
Mg 34.85600 2.45300 29.45900
C  32.80000 3.58000 32.00700
C  37.58300 2.40900 31.56500
C  36.81300 1.82400 26.81500
C  32.05600 3.02900 27.39000
N  35.16400 3.04000 31.53500
C  34.20400 3.37700 32.40000
C  34.75400 3.55200 33.80400
C  36.33200 3.38600 33.62200
C  36.42200 2.93000 32.15800
C  37.15400 4.69400 33.79500
C  34.18200 2.53800 34.76300
C  33.88700 3.05500 36.26600
H  34.90900 3.99800 36.93300
N  36.85600 2.02800 29.21500
C  37.78700 2.07000 30.21400
C  39.05900 1.56700 29.63000
C  38.94700 1.61600 28.21900
C  37.52200 1.88400 28.03500
C  40.17600 1.18100 30.59400
C  40.01800 1.48200 27.22400
O  39.73700 1.67500 26.02500
C  41.42600 1.14900 27.51900
N  34.54600 2.47600 27.40800
C  35.50500 2.09600 26.53200
C  34.92900 1.87500 25.11300
C  33.46200 2.26200 25.30800
C  33.31000 2.58100 26.81500
C  35.65500 2.48600 23.92700
C  32.49100 1.18600 24.64900
C  32.59000 -0.15700 25.31600
N  32.81000 3.25000 29.54000
C  31.83500 3.37600 28.66400
C  30.62800 3.82800 29.30600
C  31.00200 4.00500 30.64900
C  32.31200 3.57900 30.71000
C  29.32800 4.12200 28.59900
C  30.49600 4.47000 31.94000
O  29.36000 4.89500 32.22000
C  31.62400 4.09200 32.93300
C  31.95400 5.38900 33.74700
O  32.79900 6.22600 33.39700
O  31.31900 5.40100 34.98400
C  31.78500 6.37000 35.99600
H  38.45400 2.30400 32.21600
H  37.27700 1.55400 25.86400
H  31.20800 3.02400 26.70200
H  34.61000 4.57100 34.16400
H  36.74400 2.62400 34.28400
H  37.59600 5.05700 32.86700
H  37.85100 4.38100 34.57300
H  36.65000 5.58300 34.17500
H  34.88800 1.70900 34.71300
H  33.29500 1.99700 34.43400
H  33.93300 2.23100 36.97800
H  32.87100 3.45000 36.27400
H  41.01400 0.68800 30.10000
H  39.73000 0.57000 31.37900
H  40.47100 2.15600 30.98100
H  41.97600 1.03400 26.58500
H  41.46900 0.13400 27.91300
H  41.85200 1.86200 28.22500
H  35.00400 0.79400 24.98800
H  33.34900 3.25200 24.86600
H  35.89600 1.59900 23.34000
H  36.55500 3.07000 24.12100
H  34.97900 3.09200 23.32500
H  32.61200 1.19100 23.56500
H  31.49500 1.54600 24.90900
H  31.65900 -0.50200 25.76600
H  33.37000 -0.18000 26.07600
H  32.87300 -0.90100 24.57100
H  28.62900 3.30600 28.78200
H  29.48200 4.12400 27.51900
H  28.82600 5.03900 28.90600
H  31.20300 3.37100 33.63400
H  32.86500 6.26000 36.09500
H  31.38500 6.12200 36.97900
H  31.58700 7.41900 35.77500

