158

Mg 35.24900 48.90300 26.40000
C  35.57000 46.69900 29.05700
C  34.25900 51.31200 28.88900
C  34.37200 51.00500 24.05300
C  35.89000 46.37000 24.14500
N  34.89200 48.90600 28.67700
C  35.23700 47.94500 29.55400
C  35.03600 48.32500 30.99600
C  34.36600 49.76900 30.86500
C  34.59700 50.06500 29.37100
C  32.87900 49.89900 31.19500
C  36.43100 48.29800 31.74600
C  36.49500 47.96100 33.22700
H  35.22100 48.08200 34.07000
N  34.52600 50.90700 26.42200
C  34.18400 51.69600 27.47100
C  33.66000 52.98800 27.05900
C  33.86000 52.99800 25.66300
C  34.30500 51.64400 25.27800
C  33.04500 54.10300 27.91600
C  33.69300 54.10300 24.52700
O  33.81100 53.97100 23.31300
C  33.44700 55.48300 25.04100
N  35.08700 48.73900 24.39000
C  34.73300 49.73000 23.53700
C  34.57600 49.23300 22.14200
C  35.38000 47.85400 22.16800
C  35.59200 47.63200 23.65500
C  33.11900 49.16800 21.56900
C  36.65100 47.73200 21.35100
C  37.89200 48.46800 21.84600
N  35.72800 46.90100 26.47000
C  35.98500 45.97000 25.50400
C  36.15800 44.63900 26.13300
C  36.04000 44.88200 27.50800
C  35.67700 46.25700 27.65500
C  36.54400 43.41100 25.35400
C  36.14900 44.27500 28.77900
O  36.43200 43.10400 29.09900
C  35.83800 45.41900 29.83500
C  34.67100 44.87500 30.58500
O  33.55400 44.65300 30.06600
O  35.04900 44.51500 31.84600
C  33.95500 44.00600 32.64100
H  33.81900 52.02300 29.59100
H  33.90800 51.59400 23.26000
H  35.83800 45.58300 23.39000
H  34.41800 47.57200 31.48400
H  34.98600 50.47800 31.41400
H  32.38300 48.95500 31.42200
H  32.33300 50.36300 30.37400
H  32.78400 50.58900 32.03400
H  36.95600 49.25400 31.74100
H  37.09900 47.62900 31.20300
H  37.33500 48.42500 33.74500
H  36.76000 46.90400 33.18100
H  32.35000 54.76600 27.40100
H  33.84600 54.55000 28.50500
H  32.58500 53.63300 28.78500
H  33.49700 56.22800 24.24700
H  34.22600 55.74900 25.75500
H  32.44900 55.56600 25.47200
H  35.10200 49.93200 21.49100
H  34.66600 47.11300 21.80800
H  32.38500 49.39600 22.34200
H  32.91300 48.16700 21.19000
H  32.86300 49.79800 20.71700
H  36.30200 47.91400 20.33400
H  36.83000 46.65700 21.34500
H  38.81000 47.90500 22.01400
H  37.69300 49.11900 22.69800
H  38.20800 49.13400 21.04200
H  36.33000 42.49400 25.90400
H  37.60800 43.51200 25.13600
H  36.05100 43.25700 24.39500
H  36.71500 45.33000 30.47600
H  33.53800 43.17900 32.06600
H  33.22300 44.77100 32.89900
H  34.36700 43.55700 33.54600
Mg -2.07700 35.37100 26.69500
C  -3.92600 34.07100 29.37400
C  -0.84600 37.76100 28.78100
C  -0.46000 36.71900 23.96900
C  -3.55300 32.98700 24.68100
N  -2.25900 35.82000 28.88400
C  -3.05600 35.15400 29.74500
C  -2.84800 35.64500 31.16900
C  -1.93600 36.88800 30.95900
C  -1.64800 36.89700 29.42500
C  -2.66500 38.28600 31.41200
C  -2.23800 34.48900 32.07300
C  -1.78100 34.98400 33.42900
H  -2.17600 34.11200 34.59100
N  -0.87400 37.08500 26.39700
C  -0.46800 37.95800 27.42100
C  0.43800 38.97100 26.94500
C  0.47300 38.72400 25.49300
C  -0.29900 37.44200 25.23400
C  1.06400 39.99700 27.79700
C  1.31100 39.43300 24.46500
O  1.34600 39.12700 23.28800
C  2.21000 40.54800 24.87000
N  -1.99100 34.94200 24.66400
C  -1.25900 35.58200 23.71100
C  -1.22200 34.77000 22.38000
C  -2.28200 33.68300 22.59700
C  -2.69300 33.83900 24.07900
C  -1.24200 35.66000 21.11500
C  -1.64300 32.27200 22.36100
C  -2.56400 31.18400 21.84700
N  -3.56400 33.89900 26.84200
C  -4.05400 32.97800 25.98400
C  -4.89000 31.99200 26.57700
C  -4.87500 32.39200 27.92300
C  -4.05200 33.54200 28.04800
C  -5.52900 30.72100 25.94000
C  -5.40600 32.05500 29.24800
O  -6.10600 31.14600 29.62000
C  -4.69400 33.09700 30.21200
C  -5.63700 33.75300 31.08400
O  -6.54300 34.50700 30.84300
O  -5.34700 33.36300 32.38300
C  -6.09600 33.97600 33.47800
H  -0.30900 38.37900 29.50300
H  0.11500 36.86500 23.05200
H  -3.86800 32.20000 23.99200
H  -3.80500 35.96800 31.57700
H  -0.97400 36.86900 31.46900
H  -2.63100 38.97900 30.57100
H  -2.07700 38.74500 32.20600
H  -3.68400 37.99800 31.67100
H  -1.46100 33.96100 31.51900
H  -2.93400 33.66600 32.23500
H  -2.10400 35.97800 33.74000
H  -0.70000 35.12100 33.45600
H  0.73800 40.08000 28.83400
H  0.91700 40.94800 27.28500
H  2.14400 39.84500 27.78000
H  3.04700 40.20800 25.48000
H  1.68200 41.31300 25.43900
H  2.59400 41.00100 23.95600
H  -0.25500 34.28000 22.27600
H  -3.19800 33.87700 22.03900
H  -1.39500 36.71600 21.33900
H  -1.99000 35.31800 20.39900
H  -0.25300 35.62500 20.65700
H  -1.35500 31.94200 23.35900
H  -0.72400 32.25700 21.77400
H  -3.54500 31.59100 21.60300
H  -2.60900 30.38300 22.58600
H  -2.19300 30.84900 20.87900
H  -6.55100 31.01400 25.70200
H  -5.59000 29.88300 26.63500
H  -5.03000 30.43600 25.01400
H  -3.93400 32.54600 30.76600
H  -5.44300 34.01600 34.35100
H  -7.02000 33.40800 33.58800
H  -6.35100 34.98900 33.16700

