158

Mg -2.40400 17.19800 27.04200
C  -2.64600 14.68100 29.65100
C  -2.71500 19.58400 29.30000
C  -2.51500 19.37900 24.52100
C  -2.57800 14.48700 24.72600
N  -2.59500 17.03600 29.18500
C  -2.65000 15.97400 30.15400
C  -2.88400 16.61200 31.51000
C  -2.92600 18.17400 31.33400
C  -2.72000 18.25800 29.81100
C  -4.17700 18.88300 31.99100
C  -1.83300 16.15000 32.51400
C  -1.44000 16.94100 33.65300
H  -0.88600 16.17000 34.83400
N  -2.45600 19.22900 26.87800
C  -2.50900 20.06900 27.96100
C  -2.39500 21.43900 27.60200
C  -2.42600 21.43600 26.17600
C  -2.47200 19.98000 25.78400
C  -2.37600 22.56000 28.61600
C  -2.34500 22.55400 25.12200
O  -2.38900 22.39400 23.94600
C  -2.25200 23.94200 25.64500
N  -2.70800 16.91000 24.91200
C  -2.58700 18.01200 24.15000
C  -2.41600 17.63200 22.61300
C  -2.52600 16.10200 22.70200
C  -2.58600 15.76700 24.18300
C  -3.57600 18.15100 21.70500
C  -1.40000 15.33200 21.96400
C  -0.01000 15.34400 22.56400
N  -2.49500 15.06700 27.11000
C  -2.53800 14.14800 26.08000
C  -2.41600 12.77900 26.57800
C  -2.46300 12.96500 27.99800
C  -2.61200 14.35100 28.27300
C  -2.27000 11.49600 25.83300
C  -2.47300 12.21200 29.30000
O  -2.58900 11.03800 29.55400
C  -2.54300 13.37700 30.41100
C  -1.20000 13.23100 31.12300
O  -0.14100 13.45900 30.62500
O  -1.30000 12.61900 32.35400
C  -0.02000 12.48300 33.02500
H  -2.99300 20.32000 30.05700
H  -2.41900 20.11300 23.71800
H  -2.49400 13.63800 24.04300
H  -3.79400 16.12800 31.86400
H  -2.06500 18.70400 31.74000
H  -4.77000 19.45800 31.28100
H  -3.75600 19.72900 32.53500
H  -4.75000 18.27800 32.69400
H  -0.89700 16.09700 31.95700
H  -2.14600 15.13700 32.76500
H  -2.43500 17.33000 33.87200
H  -0.76000 17.76200 33.42700
H  -1.57900 23.26600 28.38300
H  -2.17100 22.26700 29.64500
H  -3.35600 23.03500 28.57100
H  -2.51200 24.57700 24.79700
H  -1.30900 24.29500 26.06000
H  -2.97800 23.84200 26.45200
H  -1.41800 18.00100 22.37600
H  -3.48700 15.82000 22.27100
H  -4.40400 18.44300 22.35000
H  -3.84100 17.38100 20.98000
H  -3.17100 18.91600 21.04300
H  -1.46600 15.65700 20.92600
H  -1.70000 14.28800 22.05800
H  0.31400 14.33200 22.80700
H  0.02200 15.87400 23.51600
H  0.69700 15.81400 21.87900
H  -3.25600 11.32900 25.39800
H  -2.01900 10.71600 26.55000
H  -1.50100 11.52500 25.06000
H  -3.28800 13.26000 31.19800
H  0.51900 13.42800 32.95800
H  0.61300 11.67000 32.66900
H  -0.30700 12.23900 34.04800
Mg 7.54200 3.04500 26.96600
C  8.68300 1.53800 29.83400
C  5.44000 4.86800 28.92900
C  6.58900 4.67100 24.21300
C  9.03900 0.53500 25.09300
N  7.12800 3.23200 29.19000
C  7.81100 2.59100 30.12700
C  7.45100 3.01900 31.48600
C  6.19000 3.95200 31.18400
C  6.22900 4.04700 29.65100
C  4.86400 3.36600 31.81100
C  8.53400 3.69800 32.24500
C  8.40400 3.78300 33.74400
H  9.65500 3.93500 34.68500
N  6.19100 4.52700 26.62200
C  5.45200 5.25600 27.55900
C  4.73400 6.26000 26.92100
C  5.05700 6.24600 25.52500
C  6.05500 5.16600 25.39600
C  3.95400 7.28900 27.65100
C  4.57600 7.15300 24.34300
O  4.92200 7.05500 23.17300
C  3.68600 8.28200 24.64700
N  7.73400 2.56300 24.92900
C  7.39700 3.48700 24.00900
C  7.60200 2.89600 22.58300
C  8.27600 1.46000 22.83500
C  8.38000 1.44800 24.35900
C  6.25000 3.05200 21.74100
C  9.51000 1.16400 21.92300
C  9.27100 -0.17100 21.17300
N  8.56100 1.38300 27.33900
C  9.15500 0.48900 26.49600
C  10.03600 -0.38800 27.26800
C  9.75800 -0.07100 28.61500
C  8.92000 0.97500 28.57600
C  10.92500 -1.41800 26.75500
C  10.17800 -0.35700 29.95400
O  10.89500 -1.24000 30.38600
C  9.59200 0.71900 30.79100
C  8.84700 0.10900 31.98500
O  7.78000 -0.47000 31.92500
O  9.66100 0.12300 33.09100
C  9.10700 -0.49500 34.37200
H  4.72100 5.41500 29.54300
H  6.28300 5.09900 23.25600
H  9.54700 -0.22400 24.49300
H  7.07600 2.24700 32.15800
H  6.27800 4.95900 31.59300
H  4.01900 3.48400 31.13200
H  4.79700 3.95200 32.72800
H  4.81100 2.28600 31.94400
H  8.56100 4.75000 31.96000
H  9.56000 3.50200 31.93600
H  7.99600 2.81000 34.01700
H  7.68600 4.56600 33.98700
H  3.51400 7.04400 28.61800
H  3.08800 7.44300 27.00700
H  4.34800 8.30500 27.66100
H  3.44700 8.76700 23.70000
H  4.17900 8.95500 25.34800
H  2.69500 7.93600 24.94100
H  8.27000 3.50200 21.97100
H  7.48200 0.78100 22.52500
H  5.34500 3.26100 22.31200
H  6.13400 2.02800 21.38700
H  6.43700 3.79400 20.96500
H  10.47500 1.05500 22.41800
H  9.52100 1.86900 21.09100
H  9.22000 -0.04000 20.09200
H  8.40800 -0.74000 21.52000
H  10.12900 -0.83300 21.29600
H  11.34500 -1.14400 25.78800
H  10.48900 -2.40800 26.61500
H  11.80700 -1.30400 27.38500
H  10.37800 1.28200 31.29400
H  8.43400 0.13400 34.95500
H  9.90700 -0.76500 35.06100
H  8.65800 -1.43400 34.04800

