158

Mg 26.26400 1.18600 28.16600
C  27.85800 0.89100 31.24900
C  23.27900 1.69800 29.93300
C  24.66000 1.15800 25.28500
C  29.18500 0.24300 26.57700
N  25.67800 1.34400 30.39700
C  26.52300 1.35200 31.42400
C  25.79300 1.57100 32.74500
C  24.30600 1.73700 32.29300
C  24.43900 1.68300 30.78400
C  23.34100 0.70800 32.88500
C  26.32200 2.69800 33.78700
C  26.68900 2.36000 35.21500
H  26.56500 3.41200 36.33800
N  24.25200 1.34500 27.66500
C  23.17900 1.58600 28.54200
C  21.99200 1.74300 27.79300
C  22.30000 1.55000 26.40400
C  23.77800 1.28300 26.37700
C  20.57800 1.95500 28.35700
C  21.38100 1.45900 25.14400
O  21.76000 1.19900 24.02300
C  19.92500 1.82900 25.30100
N  26.85200 0.77000 26.18800
C  26.00500 1.04000 25.16000
C  26.81000 0.93300 23.79000
C  28.25300 0.53000 24.17900
C  28.14000 0.55200 25.71500
C  26.13900 0.01900 22.73100
C  29.38600 1.58100 23.77900
C  29.65300 1.71100 22.27600
N  28.09500 0.67000 28.76000
C  29.16500 0.24700 28.00400
C  30.23900 -0.20300 28.86600
C  29.81500 0.15600 30.15400
C  28.48300 0.68500 30.01100
C  31.59900 -0.70500 28.40800
C  30.16800 0.09900 31.56800
O  31.20800 -0.19800 32.13600
C  28.91400 0.63500 32.28500
C  28.56700 -0.29000 33.35000
O  27.64600 -1.08000 33.35200
O  29.37100 -0.11400 34.47800
C  29.05300 -0.85200 35.61800
H  22.32300 1.81500 30.44900
H  24.16900 1.16100 24.31000
H  30.09900 -0.10700 26.09300
H  25.87300 0.56000 33.14300
H  23.91000 2.73600 32.47500
H  23.84400 0.12600 33.65600
H  22.94400 0.12300 32.05500
H  22.64700 1.33100 33.44900
H  25.54500 3.46200 33.80000
H  27.15400 3.18900 33.28200
H  27.71300 2.04200 35.41100
H  26.08400 1.48400 35.44900
H  19.96100 2.56600 27.69800
H  20.59400 2.49400 29.30400
H  20.14600 0.95600 28.41800
H  19.49800 1.90200 24.30100
H  19.92500 2.87400 25.61200
H  19.36100 1.23700 26.02200
H  26.84800 1.95600 23.41400
H  28.64200 -0.42900 23.83700
H  25.25800 -0.45900 23.16000
H  26.78100 -0.72900 22.26600
H  25.80100 0.64200 21.90400
H  30.37600 1.22300 24.06200
H  29.23000 2.51000 24.32700
H  29.04000 0.96700 21.76800
H  30.66500 1.48800 21.93800
H  29.36100 2.70700 21.94200
H  32.21600 -0.59000 29.29900
H  31.85000 -0.06800 27.56000
H  31.54700 -1.76200 28.14700
H  29.13100 1.59400 32.75500
H  29.26300 -1.88700 35.34700
H  28.04800 -0.75200 36.02800
H  29.69800 -0.49600 36.42100
Mg 26.53900 49.95500 26.67300
C  24.51400 51.28100 29.27000
C  28.89800 49.05100 29.02600
C  28.42500 48.82600 24.16500
C  24.19000 51.03000 24.45800
N  26.65700 50.09200 28.91200
C  25.77100 50.69500 29.75600
C  26.12300 50.42900 31.23600
C  27.64500 49.86500 31.08100
C  27.76500 49.62900 29.57200
C  28.80100 50.74600 31.71600
C  25.21000 49.31100 31.76000
C  24.69900 49.36500 33.23000
H  25.44600 49.97100 34.47900
N  28.53900 49.21300 26.59500
C  29.26900 48.81900 27.64500
C  30.41100 48.11100 27.21500
C  30.36100 48.13700 25.78400
C  29.05800 48.70000 25.41700
C  31.49500 47.63400 28.06100
C  31.44200 47.70600 24.78700
O  31.16600 47.85000 23.58700
C  32.82500 47.15000 25.34700
N  26.29500 49.85300 24.60400
C  27.21900 49.29300 23.79200
C  26.74100 49.32100 22.30700
C  25.40500 50.09100 22.49200
C  25.24500 50.30000 23.97800
C  27.76800 50.00400 21.24500
C  24.18700 49.43000 21.80000
C  23.67000 48.14200 22.47700
N  24.69400 50.89800 26.86500
C  23.89200 51.34300 25.82800
C  22.77700 51.97800 26.30400
C  22.91300 51.99300 27.72200
C  24.12200 51.32400 27.92800
C  21.61000 52.51800 25.46000
C  22.29000 52.35600 28.96500
O  21.21800 52.81600 29.20900
C  23.36000 51.93300 30.03500
C  23.77900 53.09100 30.99000
O  24.89100 53.62900 30.93100
O  22.83500 53.30600 31.96400
C  23.28700 54.15600 33.08400
H  29.70600 48.76100 29.70200
H  28.93100 48.41800 23.28700
H  23.46200 51.34300 23.70700
H  26.11100 51.32200 31.86100
H  27.78000 48.94500 31.65000
H  29.47800 51.12200 30.94900
H  29.34900 49.97800 32.26100
H  28.40600 51.58800 32.28400
H  25.51200 48.27600 31.60400
H  24.29800 49.38500 31.16900
H  24.59700 48.33300 33.56800
H  23.71100 49.81700 33.15400
H  31.25800 47.89300 29.09300
H  32.42400 48.13600 27.79300
H  31.51300 46.54700 28.13600
H  33.27200 48.06300 25.73900
H  33.52900 46.73700 24.62500
H  32.77700 46.33500 26.06900
H  26.49400 48.31100 21.98200
H  25.44900 51.07700 22.03000
H  28.76600 50.05700 21.68000
H  27.33900 50.92200 20.84300
H  27.83700 49.23500 20.47500
H  24.49600 49.17000 20.78800
H  23.34100 50.10900 21.69100
H  24.11900 47.95100 23.45200
H  23.80500 47.27400 21.83200
H  22.59600 48.21100 22.65200
H  21.48500 52.21300 24.42100
H  21.78400 53.59400 25.44800
H  20.66600 52.28300 25.95000
H  22.90600 51.16000 30.65500
H  23.93600 53.58900 33.75100
H  22.52900 54.47700 33.79800
H  23.76300 55.06200 32.70900

