158

Mg 36.21800 49.85300 25.77600
C  36.26800 47.81200 28.59200
C  35.66200 52.53500 27.75500
C  35.92900 51.66100 22.96000
C  36.61600 46.98300 23.86600
N  36.08400 50.11300 27.98200
C  35.99800 49.18100 28.96100
C  35.84700 49.78400 30.37800
C  35.24900 51.25400 29.99600
C  35.71400 51.30000 28.48800
C  33.73100 51.51700 30.17000
C  37.33300 49.82200 31.02000
C  37.40300 49.52700 32.48400
H  36.11400 49.72300 33.31800
N  36.02700 51.83900 25.42400
C  35.81400 52.76400 26.35900
C  35.69200 54.07800 25.67800
C  35.62200 53.85800 24.28400
C  35.83900 52.40100 24.21400
C  35.86100 55.37200 26.44400
C  35.54900 54.73500 23.14100
O  35.53700 54.41600 21.97500
C  35.47600 56.25300 23.45800
N  36.11700 49.35500 23.64900
C  36.15300 50.29500 22.73500
C  36.13600 49.75200 21.32400
C  36.45100 48.21000 21.54300
C  36.46200 48.16200 23.10500
C  34.75700 50.06900 20.58100
C  37.78400 47.70000 20.80000
C  37.50800 46.66600 19.77400
N  36.33400 47.84400 26.06600
C  36.63900 46.77800 25.22400
C  36.91300 45.51100 25.96600
C  36.82800 45.91600 27.33100
C  36.43100 47.27700 27.30600
C  37.09200 44.13500 25.36200
C  36.82400 45.43900 28.68900
O  37.08800 44.33600 29.04400
C  36.43600 46.65800 29.64100
C  35.11600 46.52000 30.33400
O  34.05000 46.57800 29.79100
O  35.34600 46.34800 31.71600
C  34.14600 46.44200 32.49700
H  35.37400 53.39700 28.36100
H  35.84600 52.25100 22.04500
H  36.82100 46.06100 23.31900
H  35.08100 49.26400 30.95300
H  35.82700 51.99100 30.55400
H  33.28500 51.70500 29.19400
H  33.55900 52.36200 30.83700
H  33.16600 50.63300 30.46700
H  37.85600 50.76200 30.84500
H  37.84500 49.00500 30.51200
H  38.02400 50.28500 32.96200
H  37.85300 48.56600 32.73500
H  34.86100 55.80500 26.43100
H  36.51500 56.16300 26.07600
H  36.08400 55.27800 27.50600
H  35.14700 56.80900 22.58100
H  36.45000 56.61500 23.78800
H  34.74600 56.40100 24.25400
H  36.88600 50.24500 20.70600
H  35.61200 47.67800 21.09500
H  33.98600 50.32700 21.30700
H  34.28700 49.17300 20.17500
H  34.84700 50.77100 19.75200
H  38.38200 47.15500 21.53200
H  38.41700 48.43600 20.30600
H  37.56700 47.03800 18.75100
H  36.53600 46.17900 19.84700
H  38.16100 45.83600 20.04400
H  36.26900 43.73200 24.77300
H  37.46300 43.35800 26.03000
H  37.78600 44.24200 24.52700
H  37.24400 46.79600 30.36000
H  33.31500 45.79500 32.21500
H  33.70400 47.43500 32.42200
H  34.52000 46.19400 33.49000
Mg -8.22400 40.25300 42.32700
C  -7.10100 36.78000 41.40300
C  -5.74900 41.46700 40.71500
C  -9.87600 43.06400 42.80800
C  -11.14200 38.59400 43.56300
N  -6.63300 39.18700 41.15800
C  -6.31200 37.85500 40.88300
C  -5.02200 37.80200 40.08300
C  -4.58800 39.31900 39.93400
C  -5.71500 40.04500 40.63300
C  -3.24700 39.62400 40.55200
C  -5.32000 37.05000 38.74100
C  -4.30000 35.88100 38.44500
H  -3.31700 35.99800 37.28900
N  -7.82500 42.05900 41.93100
C  -6.73500 42.35500 41.19800
C  -6.70500 43.79800 41.05800
C  -7.88900 44.30500 41.71700
C  -8.58600 43.09400 42.14500
C  -5.60600 44.58000 40.32700
C  -8.21300 45.84200 41.90800
O  -7.51600 46.70600 41.37800
C  -9.36000 46.36900 42.76400
N  -10.30100 40.76600 43.05400
C  -10.62200 42.03600 43.27500
C  -12.08900 42.13200 43.80800
C  -12.47400 40.67700 44.11400
C  -11.26600 39.94800 43.53900
C  -12.49200 43.15100 44.88400
C  -13.84200 40.14400 43.37800
C  -14.67400 39.05700 44.10700
N  -9.01200 38.11800 42.55400
C  -10.22400 37.68300 43.05600
C  -10.33900 36.25400 43.07300
C  -9.11500 35.86600 42.50700
C  -8.34900 37.04700 42.10000
C  -11.33900 35.34100 43.76300
C  -8.32500 34.66700 42.09100
O  -8.53900 33.48600 42.26900
C  -6.97800 35.20900 41.41700
C  -5.82000 34.71000 42.17100
O  -5.69800 34.72000 43.37500
O  -4.87800 34.33500 41.32500
C  -3.55100 33.92900 41.92100
H  -4.93300 42.08400 40.33200
H  -10.30300 44.06000 42.94400
H  -12.02200 38.04500 43.90400
H  -4.35000 37.21500 40.70900
H  -4.52200 39.57300 38.87600
H  -2.51300 40.12100 39.91800
H  -2.89400 38.61200 40.75200
H  -3.53300 40.27000 41.38200
H  -5.18200 37.72000 37.89300
H  -6.33400 36.65000 38.75900
H  -4.88400 35.07700 37.99800
H  -3.78300 35.59200 39.36000
H  -5.85200 45.64000 40.26500
H  -5.62400 44.16100 39.32000
H  -4.65700 44.37300 40.82100
H  -9.34700 47.45200 42.88900
H  -9.15600 45.95700 43.75200
H  -10.29300 45.96500 42.37100
H  -12.62600 42.56600 42.96400
H  -12.44000 40.41000 45.17000
H  -12.55500 42.63800 45.84400
H  -13.48200 43.53000 44.63200
H  -11.65900 43.84700 44.98800
H  -13.50200 39.55900 42.52400
H  -14.44600 41.00200 43.08400
H  -14.63800 39.30500 45.16700
H  -14.14600 38.11500 43.95700
H  -15.69100 38.94400 43.73300
H  -10.86100 34.38700 43.98500
H  -12.27100 35.14400 43.23200
H  -11.70300 35.85200 44.65400
H  -6.99900 34.76900 40.41900
H  -2.89100 34.77100 42.12900
H  -3.09200 33.28300 41.17300
H  -3.63800 33.38800 42.86300

