158

Mg 9.02000 3.84800 27.07200
C  10.17600 2.08800 29.85600
C  7.00100 5.59000 29.18000
C  7.77700 5.48000 24.40000
C  10.49100 1.39800 25.00100
N  8.43500 3.63000 29.21400
C  9.18800 2.97600 30.19000
C  8.93100 3.41700 31.59300
C  7.77200 4.50100 31.35100
C  7.65000 4.54100 29.83100
C  6.56600 4.52000 32.27100
C  10.18200 4.02300 32.27000
C  10.26700 3.58500 33.79300
H  10.80900 4.54200 34.92300
N  7.63800 5.38200 26.83200
C  6.88500 5.95100 27.80000
C  6.06000 6.99900 27.29100
C  6.31000 7.03400 25.89900
C  7.28900 5.96900 25.62300
C  5.31600 7.96400 28.09700
C  5.86900 8.03200 24.80300
O  6.26300 7.94900 23.61300
C  4.83000 8.90700 25.22700
N  9.00000 3.39500 25.05200
C  8.50100 4.27800 24.14200
C  8.86300 3.81800 22.68100
C  9.82400 2.60600 22.86200
C  9.69300 2.40000 24.41300
C  7.65500 3.72900 21.73200
C  11.25600 2.92500 22.42400
C  12.21700 3.52600 23.35200
N  10.08700 2.04200 27.29600
C  10.61100 1.15100 26.39400
C  11.55400 0.30000 27.12800
C  11.38600 0.58200 28.49800
C  10.41200 1.62900 28.54100
C  12.51400 -0.57500 26.51900
C  11.84900 0.27700 29.81000
O  12.69000 -0.58900 30.12800
C  11.07000 1.26200 30.75300
C  10.31500 0.46200 31.67200
O  9.15500 0.00700 31.40700
O  10.87500 0.46500 32.92100
C  10.20700 -0.19600 33.99700
H  6.41700 6.21700 29.85700
H  7.40600 5.99100 23.51000
H  11.17400 0.76700 24.42800
H  8.49200 2.54600 32.08000
H  8.18600 5.50500 31.44000
H  6.87000 4.06800 33.21500
H  5.77700 3.93100 31.80400
H  6.21800 5.54500 32.40000
H  10.14000 5.11200 32.23700
H  11.11100 3.79000 31.74900
H  10.79300 2.63600 33.89800
H  9.25900 3.24300 34.02600
H  5.49800 9.01100 27.85200
H  5.53400 7.92900 29.16500
H  4.26000 7.78800 27.89500
H  4.03500 8.23000 25.53900
H  4.59200 9.44800 24.31100
H  5.06100 9.52800 26.09200
H  9.45800 4.64700 22.29800
H  9.35400 1.74200 22.39400
H  6.73600 4.03500 22.23100
H  7.45100 2.82800 21.15300
H  7.77600 4.40100 20.88200
H  11.25900 3.60700 21.57400
H  11.60600 2.00700 21.95300
H  12.70200 4.33800 22.81000
H  12.81200 2.67500 23.68500
H  11.67200 3.92900 24.20500
H  12.12300 -1.53000 26.16800
H  13.25900 -0.74800 27.29600
H  12.98800 -0.02600 25.70600
H  11.88500 1.72500 31.31000
H  9.47700 0.51700 34.38000
H  10.81100 -0.43000 34.87400
H  9.68300 -1.10100 33.68700
Mg -2.76100 34.81000 26.57800
C  -4.22400 33.00800 28.98300
C  -1.71900 37.04800 28.84900
C  -1.27600 36.65800 24.12800
C  -3.90600 32.57800 24.13500
N  -3.05400 35.04700 28.78900
C  -3.62400 34.12000 29.56900
C  -3.39900 34.47600 31.01800
C  -2.89000 35.98400 30.96200
C  -2.56100 36.08100 29.44500
C  -3.92500 37.04300 31.45400
C  -2.40000 33.58700 31.71800
C  -2.94200 32.55500 32.76000
H  -2.15900 32.41200 34.07500
N  -1.59800 36.61900 26.49200
C  -1.26600 37.30600 27.56200
C  -0.40600 38.43300 27.20700
C  -0.43200 38.45200 25.80600
C  -1.10700 37.22400 25.38300
C  0.27000 39.34100 28.20300
C  0.32000 39.45200 24.93700
O  0.36000 39.31400 23.70700
C  0.91400 40.70500 25.53800
N  -2.57300 34.66700 24.36900
C  -1.97600 35.54000 23.55700
C  -1.80500 34.99500 22.15600
C  -2.52200 33.62100 22.31400
C  -3.11100 33.67800 23.68300
C  -2.16300 35.85400 20.85100
C  -1.70000 32.35100 21.91800
C  -0.33000 32.23900 22.67900
N  -3.96300 33.22200 26.49700
C  -4.38500 32.39300 25.44500
C  -5.20800 31.36400 25.94500
C  -5.16900 31.54500 27.27300
C  -4.41600 32.72700 27.61100
C  -5.96400 30.26700 25.21700
C  -5.61700 31.08100 28.57000
O  -6.39500 30.20100 28.74400
C  -4.94200 31.90600 29.70200
C  -5.93700 32.36200 30.68800
O  -6.62600 33.33100 30.55500
O  -6.02900 31.53300 31.78300
C  -6.89900 31.79100 32.92900
H  -1.48000 37.77900 29.62500
H  -0.75000 37.22100 23.35400
H  -4.10400 31.85500 23.34100
H  -4.37700 34.57300 31.49000
H  -1.93800 36.10200 31.47900
H  -3.74200 37.25600 32.50700
H  -4.88600 36.53000 31.43400
H  -3.96800 37.92700 30.81700
H  -1.66600 34.18100 32.26100
H  -1.77500 33.04400 31.01000
H  -3.12000 31.57400 32.31900
H  -3.95600 32.85900 33.01900
H  1.27600 39.53900 27.83100
H  0.26100 38.95800 29.22300
H  -0.21500 40.31600 28.23400
H  0.33700 41.17500 26.33400
H  0.98400 41.42900 24.72600
H  1.90700 40.49000 25.93200
H  -0.73900 34.78700 22.06200
H  -3.39300 33.56400 21.66000
H  -2.61700 36.80400 21.13200
H  -2.88500 35.25200 20.30000
H  -1.30000 36.05300 20.21500
H  -1.50600 32.35100 20.84600
H  -2.20200 31.41300 22.15600
H  -0.29500 32.97400 23.48400
H  0.39600 32.42100 21.88700
H  -0.28900 31.28500 23.20700
H  -5.38000 29.35100 25.12600
H  -6.18200 30.66400 24.22600
H  -6.97100 30.21000 25.63000
H  -4.24800 31.31300 30.29800
H  -6.37300 32.50900 33.55800
H  -7.17900 30.85100 33.40400
H  -7.82600 32.18000 32.50700

