158

Mg 28.43300 57.42600 43.07600
C  26.06400 55.19300 41.66100
C  30.87900 55.48800 41.45800
C  30.66100 59.73400 43.97500
C  25.93800 59.22100 44.38900
N  28.42500 55.59500 41.56800
C  27.36700 54.88500 41.20000
C  27.74400 53.82800 40.07900
C  29.24400 53.61100 40.46500
C  29.55100 54.96800 41.20700
C  29.64900 52.45700 41.41700
C  27.59100 54.41700 38.72600
C  27.18900 53.57100 37.47100
H  28.11200 53.57300 36.23100
N  30.48500 57.59500 42.75000
C  31.27700 56.68600 42.09800
C  32.65600 57.23700 42.05000
C  32.62300 58.44000 42.83000
C  31.23000 58.59800 43.26500
C  33.68300 56.62100 41.15600
C  33.77300 59.45300 43.00000
O  34.92200 59.13700 42.54000
C  33.69000 60.68400 43.78600
N  28.26300 59.30400 43.93000
C  29.35300 60.06000 44.29400
C  28.88400 61.37700 44.97500
C  27.36600 61.23900 45.12100
C  27.18300 59.83100 44.44200
C  29.71200 61.73600 46.22500
C  26.58900 62.33800 44.45000
C  26.70500 62.46900 42.93500
N  26.46500 57.15500 43.20900
C  25.52500 57.96600 43.80900
C  24.20000 57.45500 43.71800
C  24.37800 56.35300 42.81600
C  25.74100 56.20500 42.55600
C  22.90500 58.06400 44.28000
C  23.70500 55.35400 42.05700
O  22.49300 55.15500 41.89100
C  24.79800 54.56800 41.28200
C  24.69200 53.12300 41.69300
O  24.82700 52.64600 42.80100
O  24.50400 52.30100 40.63000
C  24.68000 50.85000 40.75600
H  31.62700 54.88100 40.94400
H  31.29800 60.56100 44.29600
H  25.13900 59.79300 44.86600
H  27.16000 52.90800 40.10600
H  29.78500 53.60700 39.51800
H  28.81500 51.76700 41.54800
H  29.81000 52.88900 42.40500
H  30.46100 51.94100 40.90600
H  28.44300 55.02800 38.42900
H  26.80000 55.14200 38.91700
H  26.20200 53.77300 37.05500
H  27.00600 52.53900 37.76900
H  33.24500 56.51100 40.16400
H  33.97900 55.63000 41.50000
H  34.58700 57.22500 41.07300
H  33.16900 61.53800 43.35300
H  34.70100 61.01700 44.02200
H  33.28200 60.46500 44.77200
H  29.02800 62.25700 44.34900
H  27.09700 61.04200 46.15800
H  30.65400 61.20800 46.37200
H  29.25000 61.72600 47.21200
H  29.86800 62.80200 46.05700
H  27.01100 63.27700 44.81000
H  25.58200 62.17600 44.83600
H  27.55900 61.91200 42.54900
H  26.87200 63.52300 42.71300
H  25.82900 62.13400 42.38000
H  22.09800 57.35800 44.08100
H  22.58300 59.00100 43.82500
H  23.00300 58.30600 45.33800
H  24.74100 54.47500 40.19700
H  24.13100 50.41100 41.58900
H  25.72500 50.62200 40.96600
H  24.37300 50.28500 39.87600
Mg 1.10100 42.05500 25.53200
C  3.49100 41.97200 28.17800
C  -1.27100 41.46500 27.97600
C  -1.24600 42.08700 23.17400
C  3.58300 42.57200 23.37900
N  1.17600 41.69500 27.78600
C  2.19800 41.80400 28.63700
C  1.76900 41.86900 30.11900
C  0.32400 41.24000 29.99500
C  0.02200 41.44100 28.44900
C  0.16800 39.76400 30.59100
C  1.77600 43.29500 30.78600
C  2.14600 43.19700 32.26700
H  0.99800 43.58100 33.13800
N  -1.02300 41.72000 25.58400
C  -1.80100 41.56800 26.68100
C  -3.21600 41.57500 26.29400
C  -3.24200 41.60400 24.84000
C  -1.79600 41.79900 24.45700
C  -4.38800 41.45400 27.27800
C  -4.46600 41.60000 23.97500
O  -4.37000 41.69800 22.77900
C  -5.80800 41.53200 24.55200
N  1.19600 42.12900 23.59500
C  0.08500 42.10900 22.78800
C  0.49600 42.34600 21.34600
C  1.98100 42.85900 21.44900
C  2.36200 42.47300 22.89600
C  0.32800 41.16200 20.39400
C  2.11700 44.43400 21.36200
C  2.63200 44.96500 19.99900
N  3.14200 42.21200 25.68900
C  4.05300 42.51000 24.71000
C  5.42700 42.63100 25.20800
C  5.21600 42.42000 26.61700
C  3.83400 42.22900 26.80500
C  6.67000 42.71400 24.33000
C  5.87700 42.31000 27.90100
O  7.13400 42.35600 28.09100
C  4.74300 42.27000 28.94700
C  4.96300 41.29700 29.97700
O  5.07700 40.08000 29.79400
O  4.88200 41.91000 31.18500
C  5.11900 41.05000 32.36700
H  -1.94600 41.21000 28.79600
H  -2.04100 42.25600 22.44500
H  4.38900 42.65800 22.64700
H  2.44800 41.15700 30.58800
H  -0.43300 41.82500 30.51800
H  0.95700 39.38500 31.23900
H  0.45500 39.07900 29.79400
H  -0.82300 39.58000 31.00600
H  0.78300 43.71900 30.63500
H  2.41800 43.97800 30.22900
H  2.88900 43.97500 32.44400
H  2.57700 42.23500 32.54700
H  -4.89200 42.39500 27.49900
H  -3.96400 41.04700 28.19500
H  -5.11000 40.67300 27.04100
H  -6.50100 41.54600 23.71000
H  -6.06600 42.41600 25.13500
H  -5.94700 40.65400 25.18300
H  -0.08300 43.13500 20.86500
H  2.73200 42.34600 20.84900
H  1.18100 41.01700 19.73100
H  -0.63100 41.24300 19.88300
H  0.31600 40.33200 21.10000
H  2.74300 44.76500 22.19000
H  1.13600 44.88100 21.52200
H  1.83300 45.54600 19.53900
H  3.05400 44.13600 19.43100
H  3.39400 45.70300 20.25200
H  6.56100 43.67200 23.82100
H  6.58700 41.83500 23.69100
H  7.53700 42.64800 24.98700
H  4.72700 43.27200 29.37400
H  6.10700 41.32400 32.73600
H  5.17300 39.98700 32.12900
H  4.37800 41.21100 33.15000

