158

Mg 7.35800 53.56200 41.78900
C  6.38700 50.26000 41.19300
C  10.44700 52.85200 40.42500
C  7.98100 56.95100 41.57500
C  4.01100 54.37300 42.68800
N  8.22100 51.85900 40.66100
C  7.65500 50.62100 40.62000
C  8.51100 49.66600 39.89900
C  9.92400 50.29100 40.16300
C  9.51400 51.76500 40.38900
C  10.75100 49.75600 41.31000
C  8.09800 49.82500 38.31700
C  8.04800 48.57000 37.44300
H  7.09800 48.41100 36.18200
N  9.05100 54.80000 41.16200
C  10.13400 54.26800 40.61700
C  10.97600 55.34100 40.21500
C  10.37100 56.59400 40.62800
C  9.03500 56.16000 41.12700
C  12.39500 55.06100 39.60900
C  11.00300 57.97800 40.47100
O  12.14400 58.14500 40.00500
C  10.25300 59.23900 40.91600
N  6.15500 55.40800 42.18600
C  6.73800 56.62500 42.06900
C  5.70600 57.66600 42.51500
C  4.49400 56.82700 43.07900
C  4.87700 55.48200 42.58100
C  6.28300 58.80100 43.44800
C  3.18100 57.46100 42.61100
C  2.68300 58.74900 43.32400
N  5.61600 52.59600 41.99600
C  4.35900 52.98300 42.44200
C  3.59300 51.79300 42.65800
C  4.37300 50.72500 42.24200
C  5.56000 51.24100 41.80400
C  2.18000 51.75000 43.22300
C  4.43100 49.25800 42.14000
O  3.55800 48.45000 42.39500
C  5.76800 48.93700 41.46900
C  5.44600 48.05900 40.29100
O  4.65100 48.32700 39.39700
O  5.97900 46.79800 40.49100
C  5.50900 45.77800 39.64500
H  11.44500 52.47900 40.18300
H  8.01700 58.00000 41.27600
H  3.01200 54.65100 43.02800
H  8.37100 48.63900 40.23600
H  10.52000 50.20700 39.25400
H  11.03000 50.54200 42.01200
H  11.66200 49.22700 41.02900
H  10.31700 48.87300 41.77800
H  8.90700 50.38000 37.84300
H  7.12700 50.30400 38.18800
H  7.63200 47.80100 38.09400
H  9.07900 48.29700 37.21700
H  12.39700 55.21400 38.52900
H  12.74600 54.06500 39.87900
H  13.18700 55.70200 39.99600
H  9.90400 59.08600 41.93700
H  9.40200 59.30200 40.23700
H  10.85900 60.13100 40.75600
H  5.25900 58.07500 41.60900
H  4.52900 56.76800 44.16700
H  6.34100 59.82600 43.08200
H  7.23000 58.47700 43.88000
H  5.58300 58.81400 44.28300
H  2.41300 56.69800 42.74400
H  3.09900 57.65100 41.54100
H  2.29100 58.52800 44.31600
H  1.93000 59.25900 42.72200
H  3.46900 59.49600 43.43500
H  2.29900 51.34000 44.22600
H  1.56900 51.14900 42.54900
H  1.72200 52.73900 43.21600
H  6.39900 48.39200 42.17200
H  6.12400 44.88900 39.78000
H  5.72700 46.10100 38.62700
H  4.46900 45.45500 39.69200
Mg -11.70000 16.29000 41.91600
C  -9.00300 14.11400 41.30100
C  -10.23800 18.64600 39.91500
C  -14.54800 17.97800 41.79300
C  -13.61100 13.37600 42.73700
N  -9.82000 16.37800 40.80000
C  -8.84900 15.45000 40.75200
C  -7.56800 15.88700 39.89400
C  -7.94600 17.38700 39.58700
C  -9.47000 17.46400 40.07900
C  -6.92900 18.39600 40.18900
C  -7.27700 15.03600 38.62900
C  -5.77400 14.92700 38.45900
H  -5.32200 15.77800 37.25400
N  -12.16500 18.12200 41.26500
C  -11.41000 18.98700 40.48200
C  -12.10800 20.19800 40.19900
C  -13.34700 20.04200 40.93600
C  -13.41700 18.68400 41.46200
C  -11.70400 21.33900 39.21500
C  -14.49300 21.03900 41.08800
O  -14.34200 22.11400 40.53900
C  -15.67600 20.95200 42.03000
N  -13.84200 15.76300 42.14000
C  -14.77300 16.65600 42.15400
C  -16.16000 16.08400 42.30800
C  -15.90200 14.60500 42.54300
C  -14.39900 14.51200 42.48100
C  -17.09300 16.88500 43.33600
C  -16.56700 13.59200 41.54600
C  -18.11800 13.56000 41.49000
N  -11.38200 14.23200 42.08400
C  -12.24400 13.16100 42.47400
C  -11.53200 11.89700 42.66800
C  -10.22000 12.23200 42.19500
C  -10.25500 13.61900 41.78200
C  -12.01000 10.49000 43.08000
C  -8.86400 11.73100 41.90900
O  -8.34200 10.60400 41.83900
C  -8.04800 12.95300 41.37600
C  -6.85900 13.34800 42.23800
O  -6.86700 13.42900 43.45800
O  -5.79300 13.58500 41.35900
C  -4.54600 13.73700 42.13300
H  -9.65500 19.27000 39.23600
H  -15.53200 18.45300 41.78200
H  -14.10700 12.47200 43.09700
H  -6.77300 15.88500 40.63900
H  -7.95700 17.49500 38.50200
H  -7.58700 19.00200 40.81100
H  -6.47900 18.91000 39.34000
H  -6.15100 17.92400 40.79000
H  -7.73800 15.62800 37.83800
H  -7.67800 14.02300 38.65100
H  -5.42300 13.91700 38.24900
H  -5.29900 15.27800 39.37500
H  -12.47700 21.51200 38.46600
H  -10.70800 21.15100 38.81600
H  -11.71700 22.18500 39.90200
H  -16.04700 21.96300 42.19800
H  -15.27700 20.54500 42.95900
H  -16.46400 20.31100 41.63500
H  -16.68200 16.22700 41.36200
H  -16.30800 14.33000 43.51700
H  -17.52800 16.11300 43.97200
H  -17.94200 17.33500 42.82300
H  -16.50300 17.56900 43.94600
H  -16.37500 12.59300 41.93600
H  -16.06600 13.61700 40.57800
H  -18.42500 14.31100 42.21700
H  -18.62200 12.60800 41.66200
H  -18.33100 13.86200 40.46400
H  -12.03800 9.78700 42.24800
H  -12.99100 10.44800 43.55400
H  -11.28300 10.04200 43.75800
H  -7.65600 12.60400 40.42000
H  -4.43200 14.56700 42.83000
H  -3.82300 13.86300 41.32800
H  -4.38000 12.83800 42.72800

