158

Mg 47.37000 16.16800 28.19200
C  45.22700 16.16100 31.09900
C  49.57300 18.01300 30.09100
C  48.98500 16.73500 25.34300
C  44.76100 14.73100 26.50000
N  47.28900 17.06900 30.23500
C  46.44700 16.79100 31.27100
C  47.00900 17.16800 32.64400
C  48.35200 17.88800 32.31900
C  48.43000 17.68800 30.75200
C  48.48100 19.30200 32.82300
C  47.15600 16.00600 33.66500
C  46.51300 16.17500 35.11200
H  46.18600 17.54700 35.58200
N  49.13400 17.07200 27.80100
C  49.89000 17.76600 28.69800
C  51.03100 18.39300 28.04300
C  50.90600 17.95500 26.64100
C  49.69100 17.15500 26.56300
C  52.01800 19.26500 28.66100
C  51.84000 18.23800 25.48900
O  51.60600 18.01500 24.30900
C  53.17200 18.77600 25.78100
N  47.01700 15.71700 26.20000
C  47.74500 16.13200 25.13500
C  47.11100 15.68000 23.82100
C  45.95300 14.72600 24.28400
C  45.90200 15.06100 25.76000
C  46.63300 16.81200 22.91500
C  46.16300 13.18700 23.90900
C  45.21800 12.57300 22.88000
N  45.39500 15.47500 28.65500
C  44.54900 14.87900 27.86200
C  43.36500 14.40300 28.69100
C  43.56200 14.88400 29.94700
C  44.84600 15.48500 29.89100
C  42.11500 13.78300 28.26300
C  43.08200 14.98200 31.33800
O  42.12800 14.48500 31.89600
C  44.14700 15.84300 32.13800
C  43.45700 16.95800 32.81100
O  43.34200 18.11300 32.37600
O  42.86200 16.44200 33.94800
C  41.93200 17.36900 34.62500
H  50.37700 18.45600 30.68200
H  49.47700 17.02000 24.41100
H  44.10000 14.04800 25.96200
H  46.29400 17.91700 32.98700
H  49.21600 17.39200 32.76300
H  49.27600 19.35900 33.56700
H  47.50200 19.60800 33.19100
H  48.76000 19.96800 32.00700
H  48.23200 15.91100 33.81100
H  46.76000 15.11700 33.17400
H  47.30700 15.76600 35.73600
H  45.72200 15.42500 35.12100
H  52.21400 20.24900 28.23400
H  52.98600 18.76600 28.62300
H  51.83900 19.47800 29.71500
H  53.04000 19.62000 26.45800
H  53.58400 19.10100 24.82600
H  53.88100 18.01600 26.11000
H  47.92300 15.25200 23.23400
H  45.08900 15.10900 23.74100
H  45.75200 16.68200 22.28700
H  47.28100 16.80400 22.03900
H  46.55800 17.74700 23.47100
H  46.08500 12.52700 24.77300
H  47.14000 13.07500 23.43800
H  44.32600 13.17900 22.71700
H  44.74000 11.67800 23.27900
H  45.64200 12.27600 21.92100
H  41.86600 14.14600 27.26600
H  41.28100 14.10800 28.88400
H  42.26100 12.70300 28.25000
H  44.45100 15.11600 32.89200
H  42.16400 17.45900 35.68600
H  40.90700 17.02400 34.48600
H  41.85300 18.32800 34.11300
Mg 26.63700 50.52500 27.07600
C  24.80300 51.90400 29.65800
C  28.98900 49.52900 29.35800
C  28.64100 49.74600 24.55000
C  24.15600 51.59900 24.75000
N  26.92600 50.81100 29.15200
C  25.98400 51.28300 30.04300
C  26.22000 50.87600 31.50300
C  27.66500 50.23900 31.39100
C  27.82800 50.14800 29.91100
C  28.74900 51.24800 31.93900
C  25.15100 49.84800 32.03000
C  24.63900 50.31200 33.41400
H  24.78100 49.17400 34.49400
N  28.56400 49.79700 26.98500
C  29.32300 49.29700 28.04000
C  30.41700 48.63800 27.50100
C  30.48000 48.78300 26.09700
C  29.18900 49.46200 25.84600
C  31.34800 47.97700 28.43200
C  31.52100 48.38400 25.10100
O  31.31900 48.60900 23.88200
C  32.70100 47.53100 25.51700
N  26.41500 50.58300 24.94100
C  27.36800 50.16400 24.11800
C  27.04600 50.34300 22.59700
C  25.54200 50.82800 22.66300
C  25.32700 51.03100 24.20100
C  27.99300 51.32200 21.81000
C  24.37000 49.97600 22.11200
C  23.53600 50.49800 20.92100
N  24.83400 51.49100 27.13100
C  23.95200 51.91000 26.15200
C  22.84900 52.56100 26.72900
C  23.15500 52.60700 28.10100
C  24.36900 51.95700 28.30600
C  21.81000 53.10000 25.99900
C  22.63600 52.99000 29.38700
O  21.56400 53.46800 29.75100
C  23.67000 52.47700 30.47000
C  24.18600 53.56200 31.33500
O  25.28200 54.13500 31.27700
O  23.35300 53.81400 32.34300
C  23.79100 54.81100 33.39400
H  29.76300 49.31500 30.09800
H  29.29200 49.57000 23.69100
H  23.37500 51.79100 24.01100
H  26.18100 51.72200 32.18900
H  27.78000 49.25300 31.84000
H  29.64900 51.22100 31.32600
H  29.06300 50.75500 32.85900
H  28.38500 52.23400 32.22800
H  25.59500 48.85500 32.09800
H  24.29300 49.75700 31.36500
H  23.55400 50.36100 33.32100
H  25.03700 51.21900 33.86900
H  32.29400 48.51700 28.40800
H  31.53400 46.97800 28.03900
H  30.91900 47.79700 29.41800
H  33.26400 47.79900 26.41000
H  33.35800 47.27100 24.68700
H  32.18800 46.60200 25.76400
H  27.29200 49.37500 22.16000
H  25.33800 51.79900 22.21200
H  27.45300 52.19400 21.44100
H  28.42700 50.72700 21.00600
H  28.88900 51.51000 22.40200
H  23.71200 49.54600 22.86600
H  24.86700 49.07300 21.75800
H  23.91900 50.20100 19.94400
H  23.51000 51.58600 20.86300
H  22.56500 50.00300 20.89900
H  21.36100 52.41700 25.27800
H  22.15400 54.05900 25.61200
H  20.99800 53.34900 26.68300
H  23.25300 51.84700 31.25600
H  24.19300 55.72600 32.95900
H  24.68400 54.52200 33.94800
H  23.05800 55.08900 34.15100

