158

Mg 49.41100 34.89300 26.62400
C  47.32300 33.53800 29.30500
C  50.09700 37.59400 28.66600
C  50.90900 36.26700 24.07000
C  48.76500 31.92600 24.95100
N  48.77900 35.44800 28.73700
C  48.00800 34.71200 29.65700
C  47.99300 35.46100 30.98600
C  48.47100 36.87600 30.58100
C  49.14300 36.64900 29.21000
C  47.37300 38.01600 30.76400
C  48.99700 34.84700 32.00100
C  48.65900 34.99900 33.51200
H  47.43500 35.90000 33.82200
N  50.38500 36.66600 26.32800
C  50.60100 37.65700 27.33800
C  51.34300 38.75000 26.79400
C  51.62500 38.36000 25.45000
C  50.99400 37.01700 25.26800
C  51.72600 40.02000 27.56500
C  52.56100 39.06100 24.34700
O  52.75900 38.57200 23.22200
C  53.32900 40.31400 24.70900
N  49.82400 34.21700 24.79600
C  50.43800 34.98800 23.86900
C  50.63000 34.26200 22.53100
C  50.02800 32.82900 22.77400
C  49.50700 33.01000 24.31100
C  49.95600 35.03500 21.37200
C  50.92200 31.60800 22.75300
C  50.64200 30.75900 21.54300
N  48.31000 33.06900 26.94800
C  48.17000 31.96300 26.20800
C  47.20500 31.03500 26.78500
C  46.85100 31.67600 27.95400
C  47.59000 32.90700 28.08300
C  46.57300 29.74500 26.17700
C  45.93000 31.53900 29.04600
O  45.06500 30.68200 29.18200
C  46.19800 32.80300 29.98000
C  46.41300 32.24000 31.39600
O  47.36800 31.67800 31.77400
O  45.28100 32.43100 32.13200
C  45.03200 31.75600 33.41300
H  50.26700 38.45800 29.31200
H  51.36500 36.62300 23.14400
H  48.65800 31.06600 24.28600
H  46.95400 35.50100 31.31100
H  49.30800 37.14300 31.22700
H  47.59000 38.72700 31.56100
H  46.39200 37.56800 30.92200
H  47.18800 38.68300 29.92200
H  49.96000 35.34900 31.91600
H  49.16300 33.77000 31.98900
H  49.50400 35.38800 34.07900
H  48.27200 34.02000 33.79600
H  50.99600 40.19800 28.35500
H  51.49500 40.83300 26.87700
H  52.79100 40.04400 27.79500
H  52.79200 41.21000 24.39800
H  54.33100 40.21900 24.28900
H  53.44900 40.16000 25.78100
H  51.68200 34.13000 22.27700
H  49.19100 32.74700 22.08100
H  50.09800 34.52100 20.42100
H  50.33900 36.05500 21.35600
H  48.87200 35.04100 21.48100
H  50.87400 31.07300 23.70200
H  51.95900 31.93500 22.68200
H  51.41800 30.94500 20.80000
H  49.62000 30.88900 21.18800
H  50.90700 29.75200 21.86300
H  47.03000 28.94500 26.76000
H  46.85500 29.73700 25.12400
H  45.50000 29.61000 26.31300
H  45.38300 33.51200 30.12900
H  45.02900 32.52500 34.18600
H  45.80300 31.02400 33.65300
H  44.11200 31.17100 33.44100
Mg -1.38300 34.23600 26.62900
C  -3.19800 32.46200 29.16700
C  0.12500 36.09500 29.23700
C  -0.13800 36.28800 24.30800
C  -3.00000 32.48800 24.22400
N  -1.57700 34.23200 28.92300
C  -2.25400 33.40200 29.73900
C  -2.08700 33.59800 31.25700
C  -1.09600 34.84700 31.23300
C  -0.78300 35.04000 29.64400
C  -1.55500 36.14300 31.89600
C  -1.47200 32.37400 31.92600
C  -2.14000 31.81100 33.16900
H  -1.42900 31.92600 34.48200
N  -0.20100 36.00200 26.72600
C  0.41300 36.52300 27.87500
C  1.18400 37.69700 27.51700
C  1.09700 37.69500 26.12800
C  0.29100 36.64300 25.63800
C  1.91600 38.56000 28.49800
C  1.55400 38.73100 25.14100
O  1.32500 38.77400 23.93400
C  2.31400 39.93900 25.57500
N  -1.64000 34.38300 24.57900
C  -0.92700 35.27400 23.84200
C  -0.96300 34.95900 22.33400
C  -1.74100 33.52700 22.35000
C  -2.22800 33.47900 23.75900
C  -1.75400 36.11300 21.57500
C  -0.96800 32.26100 21.93800
C  0.36200 31.84900 22.57500
N  -2.83300 32.83000 26.64300
C  -3.41600 32.27000 25.61900
C  -4.34300 31.30300 26.08000
C  -4.26900 31.32300 27.46500
C  -3.37400 32.34000 27.74700
C  -5.11600 30.38400 25.24200
C  -4.75000 30.67500 28.65700
O  -5.54500 29.70900 28.76200
C  -4.08700 31.42800 29.87600
C  -5.05600 32.05200 30.76100
O  -5.51300 33.22800 30.73200
O  -5.46500 31.15400 31.76400
C  -6.40600 31.69800 32.71000
H  0.49100 36.70900 30.06200
H  0.40000 36.63500 23.42300
H  -3.43300 31.80100 23.49300
H  -3.05000 33.87000 31.69000
H  -0.11000 34.64000 31.64900
H  -0.64900 36.51000 32.37900
H  -2.32100 35.92200 32.63900
H  -1.75800 36.92400 31.16300
H  -0.44500 32.62500 32.19100
H  -1.46500 31.60000 31.15800
H  -2.36900 30.75800 33.00000
H  -3.16000 32.18400 33.25500
H  2.43600 39.45700 28.16200
H  2.67900 37.95100 28.98300
H  1.24400 38.81300 29.31700
H  2.41700 40.59600 24.71200
H  3.29000 39.57800 25.90000
H  1.81900 40.50000 26.36800
H  0.02200 34.78200 21.90400
H  -2.64600 33.69000 21.76400
H  -1.79300 36.99000 22.22100
H  -2.77900 35.76900 21.43600
H  -1.33500 36.35200 20.59800
H  -0.90400 32.51900 20.88100
H  -1.66100 31.46000 22.19800
H  0.34100 32.40600 23.51200
H  1.29800 32.14800 22.10300
H  0.45200 30.82100 22.92600
H  -4.63600 30.16400 24.28800
H  -6.11200 30.76000 25.00800
H  -5.12800 29.38300 25.67200
H  -3.47600 30.71000 30.42300
H  -7.25400 32.26900 32.33100
H  -5.96300 32.48500 33.32100
H  -6.71600 30.85100 33.32300

