158

Mg 17.39200 52.21200 25.15700
C  18.83900 50.95000 28.16600
C  14.84500 53.56400 27.11500
C  16.36300 53.47400 22.45600
C  19.92900 50.47200 23.39100
N  16.85600 52.11500 27.37200
C  17.67100 51.68700 28.35700
C  17.15100 52.14900 29.68800
C  15.76100 52.73300 29.36800
C  15.80300 52.84100 27.87400
C  14.57400 51.81500 29.88900
C  18.24100 53.07000 30.46500
C  18.53600 52.74900 31.97900
H  17.41700 52.02600 32.88200
N  15.75700 53.28200 24.79700
C  14.79800 53.70300 25.68000
C  13.83500 54.47700 24.97100
C  14.22300 54.47900 23.57300
C  15.47800 53.67000 23.52300
C  12.79400 55.26300 25.72100
C  13.52800 55.09700 22.43600
O  14.03100 55.17600 21.28800
C  12.11400 55.52200 22.69600
N  18.17200 52.07300 23.25100
C  17.54800 52.78600 22.29200
C  18.22800 52.56300 20.92400
C  19.44400 51.76700 21.30000
C  19.15600 51.34500 22.72300
C  17.23900 51.81200 19.90600
C  20.77700 52.65100 21.27800
C  21.56300 52.45000 19.99700
N  19.00500 50.82400 25.62500
C  19.90600 50.25100 24.75900
C  20.83700 49.47000 25.59400
C  20.39600 49.68100 26.94800
C  19.35400 50.53200 26.91900
C  22.10500 48.70700 25.12400
C  20.81200 49.38700 28.29800
O  21.79100 48.78100 28.76600
C  19.89400 50.33900 29.18700
C  19.27500 49.36400 30.15600
O  18.40000 48.49500 29.88400
O  19.98800 49.48900 31.28700
C  19.58900 48.62700 32.38900
H  14.03900 53.99700 27.71200
H  16.11800 54.04900 21.56100
H  20.63700 49.88200 22.80500
H  17.10700 51.26500 30.32300
H  15.47300 53.73000 29.70100
H  14.06800 51.55800 28.95800
H  13.92800 52.45600 30.49000
H  14.91600 50.99400 30.51800
H  18.00000 54.12700 30.35300
H  19.12200 53.00800 29.82600
H  18.68700 53.67000 32.54100
H  19.43900 52.13900 32.00100
H  12.85200 56.27900 25.33000
H  12.81500 55.32900 26.80800
H  11.84300 54.82600 25.41400
H  11.86000 56.48200 23.14400
H  11.53400 54.71400 23.14100
H  11.64900 55.59500 21.71200
H  18.44500 53.55300 20.52200
H  19.69800 50.95000 20.62500
H  17.34100 52.26100 18.91700
H  16.25100 51.78900 20.36700
H  17.49600 50.76200 19.76900
H  21.37500 52.22500 22.08500
H  20.59100 53.72300 21.34100
H  20.95300 52.56600 19.10100
H  21.88200 51.40800 19.96900
H  22.41600 53.12800 20.03300
H  22.62700 49.16700 24.28500
H  21.97100 47.66200 24.84500
H  22.77700 48.64900 25.98100
H  20.46300 51.02900 29.81100
H  18.50100 48.57600 32.33100
H  19.86100 49.16300 33.29800
H  20.00500 47.62100 32.33700
Mg -10.97800 38.51700 41.84700
C  -8.77200 35.83600 41.04700
C  -8.63300 40.65100 40.29700
C  -13.13600 40.90200 42.15700
C  -13.36100 36.07400 43.08600
N  -8.90100 38.25300 40.75300
C  -8.29500 37.04700 40.48600
C  -7.03100 37.22800 39.65600
C  -6.93900 38.78800 39.59600
C  -8.21700 39.31500 40.29600
C  -5.61900 39.35400 40.08300
C  -7.01700 36.45000 38.32000
C  -5.76500 35.61300 37.97400
H  -5.13800 35.85300 36.60400
N  -10.81300 40.56800 41.48500
C  -9.79000 41.27400 40.87200
C  -10.17400 42.68200 40.81400
C  -11.44100 42.78800 41.36700
C  -11.82600 41.43000 41.73400
C  -9.42400 43.71600 39.94200
C  -12.30000 44.05100 41.60200
O  -11.86600 45.12100 41.14600
C  -13.59200 44.13200 42.28800
N  -12.98100 38.50600 42.44700
C  -13.67900 39.66300 42.49700
C  -15.11600 39.41100 42.94100
C  -15.24200 37.86500 43.10000
C  -13.76800 37.44200 42.81400
C  -15.42900 40.12600 44.20600
C  -16.34400 37.08000 42.31000
C  -17.45100 36.38200 43.15800
N  -11.13700 36.31700 42.06000
C  -12.09600 35.52900 42.71100
C  -11.49400 34.19900 42.91800
C  -10.20800 34.24900 42.27900
C  -10.05100 35.57800 41.77700
C  -12.06500 33.07500 43.66000
C  -9.00300 33.50600 41.95100
O  -8.67000 32.36200 42.23800
C  -8.02400 34.52000 41.11200
C  -6.72600 34.56700 41.84500
O  -5.70100 34.03900 41.57900
O  -6.82100 35.42200 42.94600
C  -5.51800 35.84000 43.63000
H  -7.91500 41.31300 39.80900
H  -13.89500 41.68600 42.12800
H  -14.03500 35.38800 43.60300
H  -6.30900 36.83300 40.37000
H  -7.01100 39.17800 38.58100
H  -5.68500 39.91800 41.01300
H  -5.02500 40.02600 39.46400
H  -4.95000 38.49400 40.11300
H  -7.23300 37.13100 37.49700
H  -7.91700 35.83900 38.25100
H  -6.05100 34.56300 38.03600
H  -4.97000 35.85600 38.67900
H  -8.40900 43.34300 39.80800
H  -9.31400 44.61500 40.54800
H  -9.87400 44.14300 39.04500
H  -13.37700 43.63700 43.23600
H  -14.31800 43.60400 41.67000
H  -13.98000 45.14600 42.38200
H  -15.82600 39.75400 42.18800
H  -15.54600 37.73500 44.13900
H  -14.46400 40.19100 44.70900
H  -16.08800 39.54700 44.85300
H  -15.90900 41.08300 44.00400
H  -15.89400 36.32200 41.66800
H  -16.94500 37.78100 41.73100
H  -17.71300 35.46600 42.62900
H  -18.34300 37.00200 43.24400
H  -17.10100 36.06700 44.14100
H  -11.58500 32.12500 43.42300
H  -13.14900 33.16900 43.60300
H  -11.84200 33.32000 44.69800
H  -7.90300 34.07200 40.12600
H  -5.73500 36.29400 44.59700
H  -4.98800 36.57700 43.02700
H  -4.88100 34.96600 43.76600

