158

Mg 49.21300 35.80200 27.82300
C  47.14700 34.03400 30.10300
C  49.20700 38.43700 30.12300
C  50.93600 37.71300 25.55200
C  48.43300 33.45500 25.35800
N  48.39900 36.08900 29.83100
C  47.71200 35.20900 30.57900
C  47.41300 35.77300 32.03100
C  47.70000 37.30400 31.83700
C  48.48100 37.29600 30.49400
C  46.44600 38.15900 31.73900
C  48.40200 35.24900 33.10100
C  47.85600 34.95700 34.51800
H  47.70900 36.15500 35.47600
N  50.08100 37.71600 27.92000
C  50.06200 38.60900 29.04300
C  50.93000 39.76000 28.72300
C  51.40400 39.57200 27.34700
C  50.85600 38.25800 26.89900
C  51.15700 40.89100 29.73800
C  52.22600 40.55200 26.54200
O  52.53800 40.38100 25.37400
C  52.59000 41.87800 27.03300
N  49.61900 35.61100 25.79800
C  50.39200 36.49700 25.09800
C  50.73900 36.03600 23.68300
C  50.12000 34.55400 23.70100
C  49.28700 34.53700 25.02900
C  49.98200 36.88600 22.51400
C  51.18100 33.37300 23.48400
C  50.70600 32.23100 22.54100
N  48.11600 34.08200 27.76000
C  47.86000 33.21500 26.64500
C  46.98200 32.10600 27.03100
C  46.73500 32.39200 28.37400
C  47.36800 33.62100 28.76300
C  46.36500 30.88500 26.22100
C  45.90500 31.91700 29.51300
O  45.22900 30.93100 29.65500
C  46.12200 33.02000 30.65800
C  46.69300 32.31100 31.85500
O  47.86400 31.99000 32.10500
O  45.65600 32.13100 32.73700
C  45.96100 31.47700 34.02900
H  49.20900 39.27700 30.82200
H  51.44100 38.22600 24.73100
H  48.35400 32.66800 24.60500
H  46.38400 35.60900 32.35200
H  48.26600 37.72000 32.67100
H  46.51800 38.87400 30.91900
H  46.38100 38.69900 32.68400
H  45.56100 37.53200 31.63100
H  49.29300 35.83200 33.33400
H  48.78600 34.29000 32.75100
H  48.52500 34.29200 35.06600
H  46.94300 34.36700 34.44200
H  51.02800 40.49800 30.74700
H  50.53400 41.72400 29.41300
H  52.17700 41.25500 29.60700
H  51.72100 42.41400 27.41400
H  52.96000 42.35100 26.12300
H  53.33400 41.71500 27.81300
H  51.82600 36.05500 23.61700
H  49.26200 34.52200 23.02900
H  49.46800 36.32700 21.73100
H  50.75300 37.49100 22.03700
H  49.30500 37.51800 23.08800
H  51.35800 32.88000 24.43900
H  52.16100 33.72100 23.15900
H  50.97400 31.24400 22.91800
H  51.16200 32.26100 21.55200
H  49.63300 32.30400 22.36600
H  45.34600 30.66200 26.53900
H  46.88600 29.97500 26.52000
H  46.36100 31.03200 25.14100
H  45.23300 33.55100 30.99900
H  45.34500 31.99100 34.76700
H  47.02400 31.43600 34.26700
H  45.65800 30.43100 34.00700
Mg 0.10000 42.71800 24.64700
C  1.47500 42.83600 27.98600
C  -2.68900 41.33700 25.98900
C  -0.79300 41.87400 21.69700
C  3.46400 43.38000 23.50400
N  -0.48600 42.27400 26.82600
C  0.09900 42.53800 28.03200
C  -0.83000 42.30600 29.18400
C  -2.17600 41.74000 28.47500
C  -1.76600 41.72600 26.99600
C  -2.67100 40.32400 28.93900
C  -0.99600 43.43800 30.21100
C  -0.53000 43.37400 31.70900
H  -1.71900 43.50200 32.75600
N  -1.64600 42.11700 23.95200
C  -2.71300 41.59300 24.65100
C  -3.82000 41.29200 23.73300
C  -3.27000 41.39200 22.38000
C  -1.86500 41.81700 22.57800
C  -5.24300 40.90200 24.10400
C  -3.82400 41.01800 21.01500
O  -3.22300 41.33200 19.96400
C  -5.17600 40.32600 21.01100
N  1.14400 42.72100 22.79600
C  0.53600 42.37500 21.65800
C  1.44800 42.37800 20.45400
C  2.75200 43.00100 21.06500
C  2.48500 43.01000 22.57400
C  1.67800 40.95400 19.79000
C  3.09200 44.41100 20.45900
C  2.50900 45.66000 21.07400
N  2.05800 43.09200 25.45400
C  3.33200 43.33900 24.91100
C  4.29700 43.50800 25.90900
C  3.56700 43.44700 27.10200
C  2.22500 43.11000 26.81900
C  5.72200 43.83700 25.76900
C  3.69200 43.69900 28.51600
O  4.60500 44.08500 29.19400
C  2.31400 43.18800 29.11400
C  2.68300 42.02400 29.95600
O  2.54600 40.81300 29.75900
O  3.04600 42.54600 31.16100
C  3.58900 41.60100 32.11000
H  -3.53300 40.78400 26.40400
H  -1.04600 41.72700 20.64500
H  4.39800 43.64900 23.00600
H  -0.45700 41.42600 29.70800
H  -2.95500 42.50200 28.48500
H  -2.06700 39.92700 29.75400
H  -2.60000 39.69800 28.04900
H  -3.74500 40.33800 29.12800
H  -2.04400 43.73000 30.14900
H  -0.50900 44.34700 29.85900
H  0.25400 44.12600 31.79200
H  -0.08000 42.38800 31.82900
H  -5.35800 39.83200 24.28100
H  -5.99100 41.24000 23.38800
H  -5.54400 41.32100 25.06400
H  -5.14700 39.66400 20.14500
H  -5.92900 41.09700 20.85100
H  -5.34500 39.70700 21.89200
H  1.18200 43.11000 19.69200
H  3.63500 42.41500 20.80900
H  2.72700 40.68400 19.90300
H  1.38600 40.96500 18.74000
H  1.02600 40.25100 20.30800
H  2.77300 44.42100 19.41700
H  4.18100 44.41700 20.50600
H  3.32500 46.20400 21.55000
H  1.87100 45.30100 21.88100
H  1.82200 46.15700 20.38900
H  5.99800 44.07000 24.74100
H  6.35300 43.08400 26.24200
H  5.93900 44.70600 26.38900
H  1.81000 43.90700 29.76100
H  3.40800 42.18200 33.01500
H  4.65800 41.45800 31.95300
H  3.10900 40.63000 32.23400

