158

Mg 1.34300 -0.74900 43.87100
C  4.76300 -0.18800 43.23400
C  0.65100 2.13900 42.25100
C  -1.70700 -1.74100 43.57700
C  2.37200 -4.04900 44.88800
N  2.65400 0.71400 42.91000
C  4.02800 0.81500 42.78700
C  4.39600 2.12500 42.02600
C  3.07400 2.85100 41.81900
C  1.99900 1.84500 42.38900
C  2.95100 4.14000 42.68700
C  5.35300 2.00800 40.77700
C  5.09000 0.88500 39.74900
H  5.41700 1.26400 38.31200
N  -0.33000 0.12500 43.19100
C  -0.42700 1.28500 42.56600
C  -1.79900 1.63800 42.39800
C  -2.55200 0.52500 42.87500
C  -1.48500 -0.42900 43.21000
C  -2.34400 2.91300 41.78800
C  -4.04100 0.46500 43.09100
O  -4.72700 1.46800 43.04400
C  -4.94000 -0.72900 43.61800
N  0.55200 -2.65200 43.88100
C  -0.79200 -2.68100 43.92500
C  -1.24600 -4.08800 44.34800
C  -0.03900 -4.70300 45.07500
C  1.00600 -3.78300 44.52100
C  -2.59600 -4.19900 45.23100
C  0.14500 -6.24700 44.92100
C  0.37200 -7.05600 46.21200
N  3.19100 -1.86900 44.24300
C  3.42000 -3.10200 44.72500
C  4.81700 -3.28400 44.99800
C  5.36000 -2.13500 44.40000
C  4.34500 -1.32400 43.89100
C  5.55700 -4.45600 45.61300
C  6.63300 -1.53900 44.07500
O  7.79500 -1.90100 44.29300
C  6.28100 -0.28000 43.25800
C  7.03400 0.89300 43.88500
O  6.57100 1.50300 44.82600
O  8.27800 1.05100 43.41800
C  9.19100 1.85900 44.26000
H  0.35300 3.09300 41.80900
H  -2.77600 -1.95300 43.64500
H  2.64300 -4.93900 45.46100
H  5.03500 2.57000 42.78900
H  3.05800 2.98700 40.73800
H  2.16500 4.03000 43.43400
H  2.63900 4.98100 42.06900
H  3.90900 4.39900 43.13800
H  6.36700 1.84200 41.14000
H  5.31200 3.02500 40.38900
H  4.09000 0.45800 39.83200
H  5.63500 -0.01200 40.04300
H  -3.36900 2.73300 41.46400
H  -1.70800 3.24000 40.96500
H  -2.63800 3.70600 42.47500
H  -4.80700 -1.57100 42.93800
H  -5.98800 -0.44600 43.51600
H  -4.55400 -0.87800 44.62600
H  -1.47500 -4.66100 43.45000
H  -0.14000 -4.31700 46.08900
H  -2.53500 -3.32700 45.88300
H  -2.38200 -5.07300 45.84500
H  -3.59700 -4.22700 44.80100
H  1.06800 -6.49100 44.39400
H  -0.65800 -6.73300 44.36600
H  0.41000 -6.39600 47.07900
H  1.20300 -7.76000 46.25500
H  -0.52600 -7.66000 46.34100
H  5.32400 -5.31800 44.98800
H  5.04800 -4.59600 46.56700
H  6.63500 -4.30200 45.63800
H  6.68400 -0.35500 42.24800
H  9.86800 2.49600 43.69000
H  9.71800 1.09900 44.83600
H  8.74200 2.60400 44.91700
Mg 46.10700 25.06600 28.11800
C  46.78200 27.23400 30.88000
C  45.15600 22.71500 30.38800
C  46.02100 22.84600 25.57800
C  47.82500 27.20900 26.09000
N  45.90300 25.08800 30.33800
C  46.11700 26.09300 31.27700
C  45.66700 25.74500 32.75300
C  45.37200 24.21300 32.55000
C  45.51500 23.97700 31.00200
C  46.31200 23.35200 33.32800
C  44.47400 26.57000 33.32400
C  44.63300 27.26700 34.68200
H  43.61600 27.13600 35.84500
N  45.55700 23.05300 27.99300
C  45.06600 22.25800 28.99900
C  44.67700 20.88100 28.52700
C  45.11200 20.86700 27.09200
C  45.62600 22.28500 26.83600
C  44.18500 19.80800 29.32600
C  45.09700 19.70900 26.15200
O  45.53800 19.77300 25.01500
C  44.67800 18.35300 26.63500
N  46.78800 25.04000 26.16200
C  46.47800 24.09100 25.23800
C  46.87600 24.57800 23.82900
C  47.14400 26.09900 24.02300
C  47.18300 26.18200 25.49600
C  48.09300 23.83500 23.20300
C  45.96500 27.02700 23.50500
C  46.32300 28.00200 22.33700
N  47.25900 26.77500 28.34800
C  47.87700 27.58600 27.39300
C  48.38300 28.82700 28.01900
C  47.94800 28.69100 29.37900
C  47.27000 27.51000 29.56900
C  49.04900 29.92400 27.30600
C  47.93700 29.30600 30.66200
O  48.48800 30.38900 30.94100
C  47.23700 28.36200 31.77400
C  48.19800 27.83500 32.85200
O  49.01100 26.98600 32.58400
O  48.11900 28.54300 34.05700
C  48.85800 28.06800 35.24900
H  44.76800 22.07900 31.18600
H  46.00600 22.07100 24.80900
H  48.22100 27.91000 25.35300
H  46.56800 25.91000 33.34300
H  44.36800 23.89100 32.82700
H  47.05400 22.87000 32.69200
H  45.75100 22.58700 33.86500
H  46.89900 23.87600 34.08200
H  43.58100 25.95000 33.40200
H  44.21200 27.29300 32.55200
H  44.77400 28.31100 34.40200
H  45.62900 26.96800 35.00900
H  43.36700 19.33600 28.78200
H  44.07200 20.19600 30.33800
H  44.97800 19.08300 29.50600
H  45.45000 18.03200 27.33500
H  44.53000 17.77500 25.72300
H  43.69900 18.38600 27.11200
H  46.09100 24.56000 23.07200
H  48.09900 26.48200 23.66200
H  48.32100 22.92900 23.76400
H  49.01200 24.41400 23.10800
H  47.77800 23.47200 22.22500
H  45.70200 27.64600 24.36300
H  45.03200 26.50100 23.30100
H  46.31300 28.99600 22.78300
H  45.47000 27.94800 21.66000
H  47.26200 27.76900 21.83400
H  48.38600 30.74100 27.02300
H  49.56900 29.52700 26.43400
H  49.86500 30.30300 27.92100
H  46.36100 28.83900 32.21200
H  48.49200 27.04600 35.35000
H  48.71400 28.58000 36.20000
H  49.91700 28.09200 34.99300

