158

Mg -0.07200 8.09500 25.00200
C  0.95900 9.81100 27.96200
C  0.27400 5.15100 26.78800
C  -0.56100 6.42900 22.22100
C  0.63100 11.09800 23.16700
N  0.61000 7.57500 27.21200
C  0.80700 8.39400 28.26300
C  0.94100 7.64100 29.58900
C  0.73500 6.18100 29.09100
C  0.55100 6.28600 27.58300
C  1.87200 5.20800 29.55200
C  -0.06100 8.14700 30.69100
C  0.31800 8.44200 32.06700
H  0.89400 7.28800 32.87000
N  -0.24900 6.05000 24.55300
C  -0.08700 5.01600 25.42600
C  -0.38800 3.85100 24.74600
C  -0.66000 4.21700 23.37700
C  -0.48000 5.61300 23.29500
C  -0.26400 2.53900 25.49500
C  -0.96300 3.28400 22.16600
O  -1.20700 3.70400 21.01200
C  -0.82800 1.77200 22.42700
N  0.03200 8.74600 22.98400
C  -0.36200 7.78900 22.02500
C  -0.43900 8.48500 20.69900
C  -0.18900 10.00300 21.01000
C  0.20900 9.96200 22.45600
C  0.55800 7.89400 19.67000
C  -1.57500 10.74400 20.99600
C  -2.15800 11.20700 19.62500
N  0.51100 10.07700 25.48100
C  0.77700 11.15600 24.63500
C  1.10200 12.26700 25.41100
C  1.10300 11.79100 26.73000
C  0.81000 10.45400 26.68500
C  1.33300 13.66500 24.80300
C  1.33300 12.23500 28.08700
O  1.68400 13.29000 28.64100
C  1.19700 10.95000 28.95400
C  2.37600 10.84300 29.86400
O  3.38800 10.19700 29.63700
O  2.00700 11.40000 31.04200
C  3.05900 11.46300 32.12400
H  -0.04400 4.28900 27.37800
H  -0.97000 6.02900 21.29100
H  0.83300 12.01200 22.60500
H  1.95400 7.88200 29.91000
H  -0.24400 5.83600 29.42200
H  2.49300 5.64900 30.33200
H  2.46900 5.12000 28.64500
H  1.38800 4.27000 29.82500
H  -0.89100 7.44000 30.67700
H  -0.47500 9.06700 30.27800
H  -0.56100 8.88300 32.53700
H  1.01300 9.27000 31.92800
H  0.41300 1.86600 24.97000
H  -1.27100 2.12900 25.57300
H  0.20200 2.63200 26.47600
H  0.17900 1.37700 22.56300
H  -1.22200 1.16800 21.60900
H  -1.26300 1.47500 23.38100
H  -1.45000 8.28000 20.34700
H  0.51000 10.61200 20.43600
H  0.76400 6.85400 19.92500
H  1.48400 8.46900 19.67100
H  0.03000 7.93000 18.71700
H  -1.52700 11.58700 21.68600
H  -2.26100 10.01800 21.43200
H  -1.52000 10.87400 18.80500
H  -2.26800 12.29100 19.65300
H  -3.15800 10.81900 19.43000
H  1.24100 13.68200 23.71700
H  2.33700 13.92200 25.13900
H  0.66500 14.38500 25.27600
H  0.27400 11.21300 29.47000
H  2.65300 11.14000 33.08200
H  3.47200 12.45700 32.29600
H  3.90700 10.81100 31.91200
Mg 53.46200 24.35900 44.82000
C  51.05000 26.71100 43.92200
C  51.35900 21.91300 43.46500
C  56.16900 22.20200 44.76000
C  55.71900 27.03400 45.24800
N  51.55500 24.28300 43.52800
C  50.75800 25.37400 43.40800
C  49.46100 24.96600 42.63300
C  49.41300 23.43600 42.90100
C  50.85700 23.15500 43.25900
C  48.40800 23.06300 43.99200
C  49.52100 25.20500 41.15000
C  50.82000 25.47700 40.46200
H  50.77700 25.98500 39.00700
N  53.73900 22.32800 44.27100
C  52.70400 21.45800 43.84000
C  53.24900 20.09400 43.73300
C  54.58900 20.15200 44.08700
C  54.87400 21.58700 44.40900
C  52.45500 18.95000 43.15300
C  55.49600 19.04700 44.17300
O  55.15000 17.95800 43.91100
C  56.89500 19.16400 44.48900
N  55.69500 24.61900 44.50400
C  56.53800 23.55400 44.74500
C  58.00500 24.00000 45.02600
C  57.76100 25.58600 45.09000
C  56.30600 25.77400 44.92000
C  58.75700 23.33400 46.25600
C  58.65700 26.38000 44.00200
C  58.13600 26.37100 42.56100
N  53.38200 26.43300 44.82500
C  54.32100 27.44200 45.16700
C  53.64000 28.69400 45.27100
C  52.36200 28.49300 44.78300
C  52.24300 27.11100 44.54300
C  54.36800 29.91800 45.68300
C  51.12500 29.11600 44.49300
O  50.81300 30.26100 44.65500
C  50.22800 27.96100 43.95000
C  49.64800 28.43000 42.66700
O  50.26700 28.50800 41.61800
O  48.26900 28.57400 42.67300
C  47.68800 28.60000 41.30500
H  50.58500 21.14900 43.36500
H  57.03800 21.57700 44.97400
H  56.47000 27.77000 45.54500
H  48.56600 25.47200 42.99300
H  49.16200 22.82800 42.03200
H  48.31600 23.88800 44.70000
H  48.58200 22.19600 44.62900
H  47.42700 22.82000 43.58400
H  48.74600 25.95900 41.01000
H  49.15900 24.39300 40.52000
H  51.51000 24.64600 40.60900
H  51.22500 26.40200 40.87300
H  52.96700 18.61200 42.25300
H  51.45500 19.31700 42.92300
H  52.40500 18.05400 43.77200
H  57.15900 18.10600 44.47600
H  56.89100 19.50900 45.52300
H  57.44300 19.82100 43.81400
H  58.60800 23.73800 44.15700
H  58.06600 25.91000 46.08500
H  59.54500 22.66600 45.91000
H  58.05500 22.76600 46.86700
H  59.21300 24.10900 46.87300
H  59.63100 25.89200 43.96500
H  58.82000 27.41900 44.28800
H  57.71800 27.31900 42.22100
H  57.47600 25.52400 42.37400
H  59.01200 26.17000 41.94600
H  55.39500 29.78500 45.34200
H  54.32400 30.07400 46.76100
H  53.99800 30.81800 45.19300
H  49.34400 27.83800 44.57600
H  47.76000 29.62400 40.93800
H  46.66200 28.27200 41.47400
H  48.18200 27.92000 40.61000

