158

Mg 35.02100 2.24800 30.19800
C  32.64400 3.30200 32.45500
C  37.44800 2.60500 32.55800
C  37.17400 1.63900 27.72600
C  32.41300 2.24900 27.81700
N  35.02500 2.87700 32.22700
C  33.94200 3.10200 32.99900
C  34.26400 3.36700 34.40900
C  35.83600 3.31900 34.47600
C  36.16000 3.00300 32.93000
C  36.49100 4.62100 35.03900
C  33.54200 2.47300 35.50800
C  33.02200 3.22100 36.75500
H  33.83800 4.33000 37.43100
N  37.00200 2.04500 30.13500
C  37.86400 2.12900 31.26600
C  39.22900 1.87800 30.85400
C  39.19900 1.59700 29.47400
C  37.75400 1.76800 29.01800
C  40.37600 1.76900 31.81800
C  40.37100 1.32600 28.48800
O  40.22800 1.26900 27.29400
C  41.71500 1.42200 28.98800
N  34.85300 2.15500 27.99200
C  35.89200 1.73800 27.25900
C  35.41500 1.36500 25.72400
C  33.88800 1.43700 25.91700
C  33.73200 1.96500 27.34600
C  35.83700 2.21800 24.45700
C  33.16700 0.07200 25.67400
C  33.07200 -0.23200 24.15500
N  32.92300 2.57700 30.08300
C  32.00700 2.58200 28.99500
C  30.74200 2.99200 29.49900
C  30.95800 3.34200 30.84500
C  32.26900 3.00200 31.17600
C  29.57300 3.17900 28.69500
C  30.36700 4.00100 31.95800
O  29.25900 4.52300 32.11800
C  31.45000 3.80900 33.15900
C  31.52100 5.09800 33.92900
O  32.28500 6.03900 33.64100
O  30.62200 5.13900 34.97400
C  30.57400 6.36000 35.81500
H  38.15500 2.67200 33.38800
H  37.82300 1.21300 26.95800
H  31.57700 2.14900 27.12200
H  34.06800 4.42300 34.59400
H  36.10800 2.46100 35.09000
H  36.09700 5.57200 34.68000
H  37.53500 4.64600 34.72800
H  36.48700 4.58600 36.12800
H  34.23600 1.74600 35.93100
H  32.70700 2.02500 34.96900
H  32.69200 2.42700 37.42500
H  32.14100 3.66400 36.29000
H  39.91300 1.82200 32.80400
H  41.12800 2.52800 31.60000
H  40.79100 0.78500 31.59800
H  41.85100 2.46300 29.28200
H  42.54300 1.17200 28.32500
H  41.80400 0.76500 29.85300
H  35.70700 0.32400 25.58500
H  33.35000 2.17100 25.31700
H  36.61400 1.67000 23.92300
H  36.17100 3.08400 25.02800
H  34.99200 2.59300 23.88000
H  32.13500 0.19000 26.00600
H  33.68600 -0.72600 26.20500
H  33.42000 0.60000 23.54300
H  32.12600 -0.67800 23.84600
H  33.82500 -1.00200 23.98900
H  29.04600 4.05200 29.07900
H  28.93400 2.31900 28.89400
H  29.79300 3.29600 27.63400
H  31.08800 3.00600 33.80200
H  29.60500 6.79500 35.56800
H  31.31300 7.12900 35.59000
H  30.72500 6.04800 36.84900
Mg 42.93900 41.62900 26.10400
C  42.37000 44.25600 28.27300
C  43.82000 39.58600 28.62600
C  43.60300 39.18600 23.73800
C  42.41600 43.88900 23.45600
N  43.23100 41.97200 28.19400
C  42.80500 43.06400 28.84700
C  43.04300 42.72700 30.37200
C  43.88400 41.41400 30.33000
C  43.57400 40.92100 28.96000
C  45.35900 41.48100 30.78800
C  41.78900 42.77300 31.27600
C  41.74400 42.25900 32.66300
H  42.00500 43.16500 33.86800
N  43.55000 39.67600 26.18500
C  43.86700 38.98600 27.33300
C  44.11500 37.65400 27.00600
C  43.89700 37.49300 25.68900
C  43.66200 38.79200 25.10300
C  44.65200 36.69200 28.01700
C  43.87600 36.24200 24.83300
O  43.74700 36.26100 23.61600
C  44.08000 34.89000 25.38000
N  43.09900 41.59300 23.89200
C  43.42500 40.45400 23.20500
C  43.57500 40.76500 21.72300
C  42.95300 42.19800 21.62200
C  42.80400 42.63500 23.06300
C  45.04000 40.66200 21.13700
C  41.59200 42.26800 20.72100
C  40.30800 41.81100 21.44000
N  42.45500 43.66000 25.86500
C  42.20300 44.38500 24.77000
C  41.78200 45.73400 25.10100
C  41.82000 45.77000 26.54000
C  42.28200 44.48900 26.89700
C  41.58400 46.87600 24.18000
C  41.57100 46.52500 27.74300
O  41.24200 47.71200 27.85900
C  41.91200 45.55500 28.96900
C  43.04200 46.07300 29.65800
O  44.09600 46.36500 29.08800
O  42.96500 46.06600 31.04500
C  44.26500 46.41600 31.78500
H  44.10900 38.96300 29.47500
H  43.61000 38.37700 23.00400
H  42.12000 44.44500 22.56300
H  43.60700 43.54900 30.81200
H  43.38300 40.67500 30.95500
H  46.02800 41.24700 29.96000
H  45.59500 40.74900 31.56000
H  45.49800 42.48900 31.17700
H  40.99200 42.40000 30.63200
H  41.53800 43.82800 31.38600
H  42.56000 41.55500 32.82700
H  40.81300 41.69800 32.74200
H  45.50100 36.21400 27.52800
H  44.02400 35.84400 28.28900
H  45.03800 37.13000 28.93700
H  43.85800 34.25800 24.52100
H  43.28900 34.71800 26.11000
H  45.11800 34.72100 25.66700
H  42.90600 40.11700 21.15800
H  43.70300 42.80600 21.11700
H  45.67100 40.53300 22.01600
H  45.29600 41.51700 20.51200
H  45.07700 39.81100 20.45700
H  41.68300 41.89000 19.70200
H  41.43400 43.32700 20.51900
H  40.44200 41.01200 22.16800
H  39.48800 41.59400 20.75500
H  39.94800 42.67300 22.00100
H  40.84700 47.61600 24.49200
H  41.33600 46.53800 23.17400
H  42.57300 47.33400 24.19800
H  41.08600 45.44800 29.67100
H  43.91100 46.71300 32.77200
H  44.88000 47.16200 31.28200
H  44.85600 45.50400 31.87700

