158

Mg 25.00100 0.99500 28.97200
C  27.16800 0.58100 31.69100
C  22.35800 0.89000 31.07500
C  22.91600 0.94800 26.12700
C  27.77400 0.36100 26.79900
N  24.73800 0.70000 31.08800
C  25.77400 0.69100 32.02600
C  25.21500 0.94300 33.43600
C  23.72000 0.91200 33.25000
C  23.59200 0.82500 31.71900
C  23.02300 -0.35500 34.03200
C  25.91700 2.19300 34.12000
C  25.08100 2.92100 35.27900
H  25.84500 3.06900 36.57100
N  22.87200 0.89700 28.67600
C  22.00000 0.88900 29.62200
C  20.67100 0.91500 29.05100
C  20.80100 0.94800 27.65200
C  22.22300 0.89500 27.38900
C  19.41200 0.84300 29.91300
C  19.72700 1.18000 26.57800
O  20.01000 1.44500 25.42600
C  18.22900 1.13400 26.95200
N  25.26100 0.63600 26.75100
C  24.27900 0.79200 25.82200
C  24.80500 0.98300 24.46000
C  26.35400 0.77300 24.64700
C  26.49800 0.54000 26.16700
C  24.23800 0.15200 23.30800
C  27.16800 1.98200 24.06200
C  27.22600 3.22800 24.96100
N  27.03900 0.63000 29.18700
C  28.01900 0.35700 28.24500
C  29.25100 -0.04500 28.92800
C  28.93200 0.11200 30.29400
C  27.61500 0.47200 30.37900
C  30.54100 -0.59500 28.25900
C  29.47100 0.12000 31.59500
O  30.54700 -0.31700 31.92700
C  28.36800 0.48100 32.66300
C  28.25500 -0.60400 33.67400
O  27.52900 -1.56800 33.56100
O  29.03200 -0.34700 34.75100
C  28.85500 -1.16800 35.94900
H  21.51700 1.03000 31.75700
H  22.23300 0.94600 25.27500
H  28.50600 0.17000 26.01100
H  25.60600 0.09300 33.99600
H  23.22600 1.84000 33.53900
H  23.81400 -0.96500 34.46800
H  22.49200 -0.93400 33.27600
H  22.33000 -0.07100 34.82400
H  26.24000 2.88100 33.33800
H  26.78000 1.68500 34.55100
H  24.18600 2.33800 35.49600
H  24.72800 3.90900 34.98100
H  18.72000 0.11000 29.49700
H  18.88400 1.78700 29.78100
H  19.60000 0.60300 30.95900
H  17.70700 1.33800 26.01700
H  17.94300 1.77900 27.78200
H  18.00600 0.09300 27.18100
H  24.61500 2.03800 24.26500
H  26.61800 -0.11400 24.07100
H  23.53400 -0.59400 23.67900
H  24.95700 -0.37900 22.68400
H  23.61800 0.76800 22.65600
H  26.76100 2.16900 23.06800
H  28.20200 1.67800 23.89400
H  28.25900 3.52800 25.13800
H  26.71000 2.98200 25.88900
H  26.70400 4.15600 24.73100
H  31.40000 -0.27200 28.84800
H  30.68100 -0.23000 27.24100
H  30.31300 -1.66000 28.28800
H  28.61500 1.38100 33.22500
H  29.19200 -2.17800 35.71400
H  27.86400 -1.21700 36.40000
H  29.41000 -0.69400 36.75900
Mg 52.83100 24.43400 44.16000
C  50.19500 26.87400 43.32100
C  50.82000 22.14900 42.56600
C  55.46000 22.51100 43.68800
C  54.94700 27.28100 44.63600
N  50.83200 24.62400 42.82600
C  49.86900 25.62100 42.81900
C  48.45000 25.09700 42.36900
C  48.64100 23.56400 42.44500
C  50.20600 23.45200 42.61500
C  47.87500 22.81600 43.62600
C  47.78300 25.66400 41.02900
C  48.76900 26.04400 39.96900
H  48.40600 25.94500 38.45700
N  53.05200 22.58000 43.50000
C  52.14000 21.75900 42.86700
C  52.62500 20.41500 42.72100
C  54.01400 20.48800 43.01600
C  54.24100 21.92500 43.46300
C  51.87000 19.20200 42.13200
C  55.06300 19.37200 42.97000
O  54.66700 18.25800 42.51700
C  56.47300 19.47700 43.19300
N  54.96700 24.85100 44.11900
C  55.81400 23.82400 44.02800
C  57.26800 24.26600 44.34500
C  57.08100 25.81300 44.48500
C  55.60700 26.01000 44.46500
C  57.91900 23.37700 45.44400
C  57.82800 26.75600 43.58100
C  57.19200 27.32700 42.32100
N  52.57400 26.66200 44.21500
C  53.51200 27.60100 44.55700
C  52.81300 28.82000 44.79500
C  51.48800 28.54000 44.38700
C  51.44400 27.26900 43.90300
C  53.36700 30.07900 45.23300
C  50.19200 29.14700 44.29600
O  49.73800 30.25900 44.53300
C  49.31200 28.06600 43.59800
C  48.70100 28.71600 42.40500
O  49.44100 29.22100 41.53300
O  47.33900 28.90000 42.49300
C  46.76400 29.76600 41.42400
H  50.19900 21.28200 42.33100
H  56.29000 21.80900 43.58200
H  55.60900 28.11400 44.88400
H  47.65200 25.37300 43.05800
H  48.41600 22.99800 41.54100
H  47.30800 22.02300 43.13800
H  47.07900 23.40900 44.07600
H  48.44700 22.41000 44.46000
H  47.26900 26.60400 41.23000
H  47.03500 24.97100 40.64700
H  49.59300 25.34800 40.13000
H  48.99900 27.08100 40.21100
H  50.82200 19.41800 41.92100
H  51.92200 18.33600 42.79200
H  52.38500 19.04100 41.18500
H  56.82000 18.46300 42.99300
H  56.56600 19.75300 44.24300
H  56.97200 20.23200 42.58400
H  57.70300 24.03700 43.37200
H  57.41200 26.13400 45.47200
H  58.05900 23.94200 46.36600
H  58.91500 23.04300 45.15300
H  57.32600 22.49700 45.69100
H  58.71300 26.25300 43.19100
H  58.22900 27.56200 44.19600
H  57.14800 28.41600 42.32500
H  56.18400 26.91200 42.29600
H  57.69400 26.88300 41.46100
H  54.05300 30.37700 44.44000
H  53.88300 30.12500 46.19200
H  52.62800 30.88000 45.24000
H  48.61300 27.69200 44.34600
H  47.16200 29.44600 40.46100
H  47.17000 30.77700 41.45500
H  45.68400 29.62000 41.40200

