158

Mg 2.15500 -1.69500 44.06600
C  5.45800 -0.78000 43.51000
C  1.23200 1.14800 42.30600
C  -1.09600 -2.63900 44.34900
C  3.17100 -4.79900 45.29700
N  3.21900 -0.03700 42.92700
C  4.54200 0.10100 42.90400
C  4.95900 1.30900 41.95800
C  3.61900 2.00100 41.68700
C  2.63800 1.05100 42.39500
C  3.51800 3.48500 42.27600
C  5.75200 0.86700 40.70600
C  7.15500 1.41500 40.48600
H  7.32800 2.15700 39.05700
N  0.31700 -0.90100 43.38000
C  0.20800 0.30100 42.79200
C  -1.18300 0.60500 42.56800
C  -1.94200 -0.44400 43.12900
C  -0.91100 -1.37700 43.72100
C  -1.62500 1.71400 41.72500
C  -3.41600 -0.55000 43.25100
O  -4.06100 0.34500 42.71800
C  -4.08200 -1.58000 44.10900
N  1.20100 -3.53700 44.66400
C  -0.15500 -3.62400 44.70000
C  -0.60000 -4.91400 45.33400
C  0.73600 -5.68100 45.58200
C  1.80100 -4.64700 45.11400
C  -1.54800 -4.82100 46.57700
C  0.96800 -7.00700 44.83900
C  1.85500 -8.00200 45.60200
N  3.96300 -2.64100 44.40200
C  4.17500 -3.87900 44.89700
C  5.62700 -4.03200 44.99700
C  6.19100 -2.85800 44.47800
C  5.11700 -2.02500 44.11600
C  6.41100 -5.34000 45.42600
C  7.46700 -2.09200 44.23600
O  8.62400 -2.28800 44.47500
C  6.94900 -0.82900 43.53800
C  7.49700 0.29900 44.27800
O  7.16300 0.68400 45.44800
O  8.46000 0.82500 43.41100
C  9.06700 2.10000 43.79100
H  0.94000 2.00900 41.70000
H  -2.13000 -2.99000 44.31700
H  3.44300 -5.75100 45.75700
H  5.65200 1.95200 42.50100
H  3.33100 2.08600 40.63900
H  4.52800 3.86700 42.41800
H  2.83100 3.59600 43.11600
H  3.08200 4.19000 41.56900
H  5.15000 1.05600 39.81700
H  5.87700 -0.21300 40.78700
H  7.84300 0.57100 40.52600
H  7.39800 2.18400 41.22000
H  -1.76300 2.55500 42.40500
H  -2.61500 1.52800 41.30900
H  -0.86000 1.86400 40.96400
H  -5.15000 -1.41700 44.25200
H  -3.59700 -1.61300 45.08500
H  -3.90200 -2.50700 43.56500
H  -1.18800 -5.58300 44.70500
H  0.82500 -5.96100 46.63100
H  -1.39100 -5.56000 47.36300
H  -2.62500 -4.76700 46.42200
H  -1.44400 -3.81100 46.97400
H  1.33100 -6.69000 43.86200
H  0.01400 -7.48600 44.62000
H  2.89500 -8.04200 45.27900
H  1.45300 -8.99900 45.42100
H  1.82600 -7.89300 46.68600
H  6.59000 -5.88800 44.50100
H  5.88100 -5.99200 46.12100
H  7.37900 -5.08600 45.85800
H  7.38400 -0.84900 42.53900
H  9.73700 2.03100 44.64800
H  8.21300 2.71100 44.08200
H  9.56500 2.56600 42.94100
Mg 44.31200 3.79700 48.26000
C  42.07200 6.43000 47.27300
C  41.84400 1.47400 47.53900
C  46.64000 1.42900 48.12600
C  46.93100 6.27700 48.03200
N  42.26200 3.98600 47.28000
C  41.45800 5.10200 47.17200
C  40.00700 4.76300 46.87500
C  40.00800 3.26000 47.19800
C  41.48200 2.85700 47.35400
C  39.04900 2.71800 48.36100
C  39.47900 5.18200 45.43600
C  38.01300 5.66700 45.34900
H  37.32900 5.34400 43.94900
N  44.23700 1.69800 48.08900
C  43.11000 0.95100 47.88400
C  43.46400 -0.46400 48.14000
C  44.85000 -0.49500 48.37300
C  45.33200 0.91200 48.20600
C  42.49900 -1.62300 47.94800
C  45.63500 -1.67900 48.76400
O  45.14100 -2.80600 48.87300
C  47.15000 -1.53900 49.08500
N  46.51000 3.88300 48.05500
C  47.18300 2.73000 48.15800
C  48.71000 2.99400 48.07600
C  48.77000 4.43300 47.53700
C  47.36000 4.93600 47.84300
C  49.47400 2.69300 49.42900
C  49.09100 4.57200 46.05200
C  50.44300 5.22400 45.66200
N  44.48000 5.93900 47.88600
C  45.60800 6.75900 47.84700
C  45.10400 8.10100 47.64800
C  43.75700 7.97000 47.46800
C  43.41000 6.67100 47.64500
C  45.95800 9.32000 47.61200
C  42.54500 8.78700 47.30200
O  42.42500 10.01300 47.17600
C  41.39500 7.74300 47.10100
C  40.28300 7.95500 48.06800
O  40.21600 7.50700 49.22200
O  39.37200 8.87300 47.52600
C  38.06900 9.10200 48.34200
H  40.96300 0.82900 47.53300
H  47.48000 0.73300 48.08100
H  47.60000 7.10300 47.78000
H  39.27400 5.20000 47.55300
H  39.70000 2.64400 46.35200
H  38.63100 3.55400 48.92200
H  39.63000 2.12700 49.06800
H  38.30300 2.16000 47.79500
H  39.60700 4.31800 44.78300
H  40.15300 5.93900 45.03600
H  38.19600 6.73700 45.44800
H  37.40800 5.23500 46.14600
H  41.53000 -1.40400 47.50000
H  42.34100 -2.18500 48.86800
H  42.86800 -2.34500 47.22000
H  47.51700 -0.76100 49.75400
H  47.59200 -1.39000 48.10000
H  47.52900 -2.44200 49.56400
H  49.18300 2.39000 47.30200
H  49.41100 5.04100 48.17700
H  50.19100 3.44000 49.76900
H  50.13000 1.86600 49.15900
H  48.82100 2.24200 50.17600
H  48.35800 5.15100 45.49000
H  49.23200 3.59500 45.59000
H  50.86900 5.89400 46.40800
H  50.21600 5.79300 44.76000
H  51.14500 4.45100 45.35100
H  45.46700 10.04000 48.26700
H  45.90300 9.69900 46.59200
H  47.03200 9.24400 47.78500
H  40.80800 7.85100 46.18800
H  37.98500 8.32300 49.10000
H  37.24200 9.14300 47.63200
H  38.30600 10.02800 48.86500

