158

Mg 49.19600 45.79100 42.01500
C  45.83000 46.69600 41.62300
C  48.43400 42.66900 40.73200
C  52.44600 44.97900 42.13100
C  49.86600 49.07600 42.92900
N  47.36800 44.84000 41.20700
C  46.15300 45.40400 41.12500
C  45.09900 44.53400 40.41500
C  45.87400 43.13500 40.49100
C  47.31300 43.52100 40.82200
C  45.30900 41.96700 41.31600
C  44.61400 45.12000 39.10700
C  43.24000 44.66500 38.66900
H  43.28800 44.11300 37.21600
N  50.30800 44.01900 41.54500
C  49.80400 42.79000 41.07500
C  50.88200 41.80600 41.05600
C  52.08100 42.48200 41.46400
C  51.67700 43.86900 41.75700
C  50.71900 40.34500 40.54300
C  53.47300 41.84800 41.32900
O  53.61500 40.60800 41.00700
C  54.73500 42.56500 41.58400
N  50.99600 46.91700 42.34200
C  52.15500 46.31800 42.28500
C  53.24700 47.39100 42.56400
C  52.40000 48.68700 42.84400
C  50.99500 48.23100 42.65400
C  54.39700 47.06700 43.61300
C  52.77500 49.88600 41.93400
C  53.50000 51.00400 42.73900
N  48.11100 47.56800 42.34100
C  48.51600 48.79200 42.73500
C  47.36500 49.71100 42.62400
C  46.27300 48.89700 42.34900
C  46.76900 47.60600 42.08500
C  47.47400 51.19700 43.11000
C  44.87700 48.91600 42.27000
O  44.09600 49.86900 42.45300
C  44.52300 47.48600 41.61700
C  43.36200 46.89600 42.26000
O  43.44900 46.35400 43.35300
O  42.16700 47.10500 41.53000
C  41.08100 46.23200 42.12900
H  48.16800 41.66100 40.40600
H  53.51300 44.75900 42.20300
H  50.16000 50.10600 43.13900
H  44.21400 44.45100 41.04500
H  45.88800 42.72300 39.48200
H  45.96100 41.51500 42.06400
H  44.96000 41.25600 40.56800
H  44.45700 42.45500 41.79000
H  45.43700 44.87700 38.43400
H  44.55800 46.18000 39.35100
H  42.57600 45.52800 38.63200
H  42.85100 43.90600 39.34800
H  51.25200 40.31900 39.59300
H  49.67100 40.11000 40.35900
H  50.97700 39.71600 41.39600
H  54.69600 43.42900 40.92100
H  55.51200 41.84200 41.33700
H  54.82300 42.87700 42.62500
H  53.79000 47.48900 41.62400
H  52.33800 48.93800 43.90300
H  55.36200 47.04400 43.10500
H  54.15800 46.19500 44.22100
H  54.38800 47.83800 44.38300
H  52.00200 50.27400 41.27000
H  53.50900 49.52300 41.21500
H  54.13400 50.60400 43.53000
H  52.75100 51.64200 43.20900
H  54.18200 51.51800 42.06200
H  46.52500 51.28600 43.63900
H  47.67300 51.92300 42.32100
H  48.30700 51.18500 43.81400
H  44.27700 47.80800 40.60500
H  40.62700 46.78800 42.95000
H  41.59100 45.31900 42.43800
H  40.27700 45.87500 41.48500
Mg 42.77500 41.65000 26.15300
C  41.69500 43.91700 28.60800
C  43.93400 39.64200 28.69800
C  43.65500 39.43800 23.87000
C  41.81600 43.91800 23.73000
N  42.65000 41.77300 28.38000
C  42.24000 42.75300 29.19500
C  42.09600 42.26200 30.64100
C  42.83200 40.89600 30.63300
C  43.22500 40.80100 29.13400
C  44.01400 40.83600 31.58900
C  40.62800 42.12100 31.20400
C  40.45000 41.66200 32.67800
H  39.70200 42.63800 33.60400
N  43.70600 39.81700 26.28500
C  44.08700 39.13300 27.42900
C  44.74200 37.88300 27.00900
C  44.53900 37.78300 25.61500
C  43.95900 39.04900 25.20800
C  45.13700 36.86500 28.04900
C  44.85300 36.60100 24.75500
O  44.78400 36.57400 23.51700
C  45.07200 35.32300 25.45700
N  42.61500 41.62000 24.08800
C  43.07300 40.59900 23.32900
C  42.92100 40.85400 21.78700
C  42.03900 42.15800 21.87100
C  42.16700 42.63800 23.27300
C  44.20500 41.08100 21.16300
C  40.56600 41.94600 21.44500
C  40.22700 42.24900 19.97500
N  42.10100 43.63300 26.08200
C  41.81000 44.44700 25.02600
C  41.31900 45.74400 25.48400
C  41.29500 45.58500 26.92300
C  41.83800 44.28300 27.19000
C  40.82500 46.77600 24.64700
C  40.80300 46.13700 28.17400
O  40.33900 47.24500 28.49900
C  41.05200 45.01400 29.29200
C  41.98700 45.59800 30.34400
O  43.08300 46.03000 30.23200
O  41.27200 45.54400 31.53200
C  42.00000 45.96300 32.75100
H  44.34000 39.01800 29.49700
H  43.78000 38.68300 23.09100
H  41.48000 44.50800 22.87400
H  42.60700 42.96300 31.30200
H  42.14800 40.07900 30.86400
H  43.96100 39.91900 32.17500
H  43.96000 41.67600 32.28200
H  44.95500 40.82600 31.03900
H  40.05000 41.46600 30.55200
H  40.08800 43.02900 30.93300
H  41.43200 41.55500 33.13800
H  39.97800 40.68900 32.53500
H  45.13400 37.17300 29.09400
H  46.15400 36.60000 27.76000
H  44.51300 35.97800 27.93600
H  45.97900 35.41000 26.05600
H  45.05300 34.56500 24.67400
H  44.19900 35.10200 26.07000
H  42.30000 40.06400 21.36500
H  42.42200 42.82600 21.10000
H  44.97500 40.66600 21.81400
H  44.54000 42.09600 20.94900
H  44.19400 40.51200 20.23400
H  39.97500 42.60200 22.08600
H  40.20500 40.91900 21.48800
H  39.85900 41.31300 19.55600
H  41.10000 42.66200 19.46800
H  39.45600 43.01800 19.91700
H  40.25400 46.43400 23.78300
H  41.54900 47.50300 24.28100
H  40.08900 47.33500 25.22500
H  40.01600 44.88900 29.60500
H  41.58400 45.53900 33.66500
H  41.82800 47.02300 32.94200
H  43.08300 45.86500 32.66800

