158

Mg 54.91200 23.27200 44.74300
C  52.43100 25.49400 43.60700
C  53.02700 20.69500 43.82800
C  57.70000 21.20200 44.97700
C  56.99700 26.07100 45.31500
N  52.93900 23.16000 43.84200
C  52.06600 24.14700 43.39300
C  50.75900 23.48000 42.85200
C  50.83000 22.01000 43.40500
C  52.31900 21.94100 43.78000
C  49.89700 21.79100 44.69500
C  50.58600 23.51600 41.32100
C  49.09100 23.79800 41.00000
H  48.53500 23.34600 39.65300
N  55.31300 21.20600 44.57100
C  54.36800 20.33300 44.09800
C  54.94800 18.99100 44.00900
C  56.28200 19.09500 44.44300
C  56.49200 20.51600 44.76200
C  54.26900 17.79200 43.46200
C  57.36800 17.93000 44.43900
O  57.10000 16.75200 44.16400
C  58.75600 17.99500 44.94000
N  57.03300 23.58400 45.07800
C  57.93400 22.59000 45.18800
C  59.36300 23.08800 45.48500
C  59.16500 24.65000 45.67800
C  57.66500 24.78700 45.38200
C  60.01500 22.32200 46.69400
C  60.03700 25.58400 44.78500
C  60.54400 26.83400 45.44100
N  54.80700 25.35100 44.58000
C  55.72100 26.33600 44.86500
C  55.00400 27.56900 44.79100
C  53.75600 27.34800 44.17000
C  53.71300 25.99600 44.09200
C  55.45500 28.94100 45.11600
C  52.54000 27.91500 43.73900
O  52.14000 29.09900 43.76200
C  51.65700 26.78000 43.25400
C  51.55600 26.81100 41.75900
O  52.48400 26.73100 40.99600
O  50.31500 27.16700 41.33300
C  50.10300 27.63900 39.96400
H  52.44700 19.83900 43.47700
H  58.61500 20.60700 44.93600
H  57.68300 26.89400 45.52700
H  49.94700 24.02400 43.33500
H  50.65400 21.29100 42.60500
H  48.98800 21.41400 44.22700
H  49.56200 22.63400 45.29900
H  50.40600 21.08200 45.34900
H  50.82700 22.51200 40.97100
H  51.22100 24.24600 40.81900
H  49.06600 24.88000 40.87600
H  48.38600 23.46800 41.76400
H  54.95200 17.19400 42.85800
H  53.26200 17.81800 43.04600
H  53.96400 17.08900 44.23700
H  58.72900 18.44800 45.93200
H  59.30800 18.63700 44.25300
H  59.14000 16.97600 44.97700
H  60.06200 22.94200 44.66100
H  59.21100 24.90500 46.73700
H  59.43100 21.48300 47.07400
H  60.11800 22.99400 47.54500
H  60.92200 21.86200 46.30100
H  59.52000 25.95900 43.90200
H  60.94900 25.10300 44.43200
H  59.99900 27.63100 44.93600
H  61.61900 26.96600 45.31300
H  60.30200 26.79300 46.50300
H  56.52400 28.99600 45.32000
H  54.94600 29.31300 46.00500
H  55.21300 29.49500 44.20900
H  50.65400 26.67300 43.66700
H  49.35900 28.43600 39.95800
H  49.71800 26.75200 39.46000
H  50.99600 28.11600 39.56100
Mg 6.61900 54.46500 41.61500
C  5.80600 50.96000 41.57500
C  9.61600 53.50000 40.07700
C  7.05400 57.67400 40.76900
C  3.32800 55.12800 42.63200
N  7.53200 52.40000 40.87100
C  7.06100 51.13700 41.04900
C  8.00600 50.14600 40.39400
C  9.33700 50.98200 40.34200
C  8.83000 52.43300 40.40200
C  10.30900 50.72900 41.54600
C  7.61400 49.62500 38.94600
C  6.71200 50.58600 38.06800
H  7.46700 51.23300 36.87500
N  8.14000 55.43400 40.61700
C  9.28600 54.87500 40.13500
C  10.18000 55.92900 39.84600
C  9.50800 57.17800 39.95800
C  8.18100 56.81800 40.47600
C  11.60800 55.61400 39.37000
C  10.01600 58.50500 39.52700
O  11.15300 58.70300 39.06400
C  9.17100 59.77300 39.68000
N  5.20200 56.20700 41.47000
C  5.79300 57.43600 41.30500
C  4.73100 58.54400 41.67300
C  3.51600 57.69000 42.25500
C  4.07100 56.25300 42.10300
C  5.32500 59.54800 42.64900
C  2.20600 57.80000 41.44900
C  0.86800 57.87000 42.23500
N  4.91400 53.32100 42.08800
C  3.61300 53.70500 42.48600
C  2.89600 52.49900 42.95100
C  3.73500 51.44800 42.62000
C  4.92100 51.99100 41.98600
C  1.61500 52.42900 43.70800
C  3.89300 49.94300 42.62700
O  3.28500 49.11400 43.26000
C  5.24500 49.59300 41.92100
C  4.88100 48.75900 40.74000
O  4.31000 49.21500 39.75300
O  5.09300 47.41700 41.03300
C  4.62600 46.47100 40.02100
H  10.61500 53.18300 39.77100
H  7.13100 58.76300 40.75800
H  2.38000 55.22000 43.16700
H  8.25000 49.27400 41.00200
H  9.76200 50.79000 39.35700
H  11.27400 51.01000 41.12600
H  10.40700 49.67900 41.82200
H  10.07700 51.38100 42.38900
H  7.13700 48.64700 39.01900
H  8.53200 49.53100 38.36700
H  6.47300 51.51100 38.59300
H  5.78900 50.19400 37.64200
H  11.55100 54.93500 38.51900
H  12.02300 55.10200 40.23800
H  12.34300 56.37900 39.12000
H  8.23500 59.52000 39.18100
H  9.56900 60.62400 39.12800
H  9.14300 60.00800 40.74400
H  4.34100 59.05100 40.79000
H  3.29000 57.89800 43.30100
H  4.77700 60.49000 42.66600
H  6.35800 59.83200 42.45000
H  5.37500 59.08300 43.63400
H  2.10800 56.89300 40.85300
H  2.24800 58.65400 40.77300
H  1.06900 57.53300 43.25100
H  0.15200 57.25100 41.69400
H  0.55500 58.91400 42.24300
H  0.77500 52.98600 43.29400
H  1.83000 52.86900 44.68100
H  1.26300 51.39800 43.74500
H  5.87800 49.11200 42.66600
H  5.17100 46.54300 39.07900
H  3.54200 46.42200 39.91600
H  4.87200 45.53100 40.51300

