158

Mg 48.83000 16.24300 28.33200
C  46.69000 15.81300 31.12500
C  50.87800 18.20700 30.27300
C  50.90600 16.48400 25.76000
C  46.35500 14.52600 26.41600
N  48.78500 16.83400 30.47200
C  47.86900 16.53000 31.43500
C  48.18600 17.25200 32.72600
C  49.39200 18.15900 32.27400
C  49.71600 17.73900 30.95100
C  49.19200 19.72400 32.46600
C  48.52400 16.20100 33.82500
C  48.60100 16.67000 35.24300
H  48.44900 18.16700 35.57000
N  50.62100 17.24700 28.02300
C  51.34600 17.97500 28.94500
C  52.62300 18.41300 28.40700
C  52.64200 17.85700 27.06300
C  51.34400 17.22800 26.83600
C  53.61300 19.30300 29.15000
C  53.76800 17.77700 26.01900
O  53.74700 17.23500 24.93900
C  55.06100 18.46200 26.40500
N  48.64100 15.51400 26.42700
C  49.66000 15.75300 25.50900
C  49.34100 15.11700 24.17400
C  48.04100 14.19700 24.46500
C  47.59600 14.80900 25.78900
C  49.15700 16.19100 23.11400
C  48.38300 12.69400 24.55400
C  47.57400 11.77700 23.69700
N  46.84800 15.39700 28.63300
C  45.94900 14.72800 27.80500
C  44.85900 14.23100 28.54500
C  45.01900 14.64700 29.81500
C  46.31200 15.29800 29.85300
C  43.76900 13.36300 27.93500
C  44.51100 14.64800 31.15800
O  43.44600 14.19300 31.55100
C  45.56800 15.37500 32.12000
C  44.84300 16.42400 32.78600
O  44.54600 17.50800 32.33600
O  44.38700 15.85500 33.96500
C  43.46800 16.72200 34.71200
H  51.56700 18.89900 30.76300
H  51.51600 16.49700 24.85400
H  45.81200 13.79800 25.80900
H  47.31300 17.84800 32.99000
H  50.30200 17.94200 32.83300
H  49.25100 20.40400 31.61600
H  49.75300 20.08400 33.32800
H  48.13800 19.84100 32.71900
H  49.48400 15.80800 33.49000
H  47.98900 15.25500 33.74000
H  49.55300 16.31700 35.63900
H  47.80100 16.19800 35.81400
H  54.66900 19.13900 28.93100
H  53.52100 19.32000 30.23600
H  53.31400 20.32800 28.93100
H  54.84100 19.49900 26.65800
H  55.74000 18.37000 25.55800
H  55.57500 17.98500 27.23900
H  50.12900 14.42200 23.88600
H  47.19400 14.48500 23.84200
H  49.79300 16.00000 22.25100
H  49.45100 17.16900 23.49400
H  48.08800 16.24000 22.90700
H  48.30300 12.37200 25.59300
H  49.46200 12.58800 24.44300
H  48.19900 11.10600 23.10900
H  46.91900 12.30500 23.00400
H  46.93700 11.14700 24.31800
H  44.11500 12.90900 27.00700
H  42.90800 13.99100 27.70900
H  43.56600 12.57200 28.65800
H  45.89900 14.77100 32.96600
H  42.73300 16.10400 35.22900
H  42.93400 17.41000 34.05600
H  44.10800 17.22100 35.44000
Mg 48.30100 45.79900 42.68400
C  45.19200 46.76500 41.56300
C  48.02900 42.86600 40.95000
C  51.74000 45.21100 43.20400
C  48.77900 48.98500 44.01900
N  46.94600 45.06200 41.08100
C  45.62200 45.53800 40.96200
C  44.78700 44.72200 39.97600
C  45.55500 43.34500 40.14200
C  46.95300 43.76100 40.74400
C  44.82700 42.25400 41.05300
C  44.93100 45.22200 38.51800
C  43.83200 44.79200 37.49800
H  44.20200 43.72000 36.53700
N  49.71500 44.25700 42.20800
C  49.30700 43.11300 41.53400
C  50.48600 42.20600 41.52400
C  51.62400 42.87500 42.21600
C  51.03500 44.16200 42.62300
C  50.44400 40.77100 40.90500
C  52.97300 42.21800 42.47700
O  53.36400 41.23000 41.91300
C  53.97100 42.82100 43.40000
N  50.08700 47.00300 43.31900
C  51.35700 46.51100 43.48400
C  52.29800 47.66200 43.99500
C  51.28400 48.71100 44.51500
C  49.97400 48.28200 43.89900
C  53.52000 47.34000 44.93700
C  51.75200 50.16500 44.23200
C  51.56900 51.10100 45.45900
N  47.20800 47.44000 42.84900
C  47.48900 48.63400 43.49200
C  46.27400 49.48300 43.39500
C  45.29800 48.65300 42.86000
C  45.97800 47.51900 42.42300
C  46.07900 50.83600 43.94400
C  43.88600 48.59900 42.45800
O  42.89000 49.32700 42.65600
C  43.81400 47.47100 41.42100
C  42.71100 46.61900 41.94000
O  41.57300 46.64300 41.41400
O  43.06000 45.85400 43.00300
C  42.21900 44.68800 43.30500
H  47.91900 41.83100 40.62100
H  52.74900 45.00900 43.57000
H  48.88100 49.99100 44.42900
H  43.74500 44.72100 40.29600
H  45.68500 42.82600 39.19300
H  43.84500 42.70800 41.18800
H  45.29900 42.14200 42.02900
H  44.73700 41.26500 40.60500
H  45.88000 44.83700 38.14400
H  45.01700 46.30700 38.57900
H  43.49100 45.65500 36.92500
H  42.92400 44.48900 38.02000
H  50.69500 40.88200 39.85000
H  49.46600 40.29200 40.95400
H  51.16900 40.10900 41.38000
H  53.52000 43.07900 44.35800
H  54.24700 43.78400 42.97100
H  54.84500 42.17700 43.49400
H  52.70400 48.04600 43.06000
H  51.18600 48.45000 45.56900
H  53.43500 47.79200 45.92500
H  54.36300 47.81100 44.43300
H  53.72700 46.27900 45.07700
H  51.18700 50.59700 43.40600
H  52.80800 50.17200 43.96000
H  51.06600 50.63700 46.30700
H  50.92500 51.95600 45.25300
H  52.57700 51.41000 45.73600
H  45.63000 51.39100 43.12000
H  46.96500 51.36300 44.29700
H  45.31600 50.79600 44.72100
H  43.60400 47.74700 40.38800
H  42.76000 43.76800 43.52700
H  41.52500 44.50000 42.48500
H  41.44300 44.96100 44.02000

