158

Mg 47.91000 15.99600 28.59600
C  45.51100 15.95900 31.11400
C  49.78400 17.83900 30.74300
C  49.82300 16.62300 26.05900
C  45.23600 14.96500 26.43200
N  47.75800 16.74600 30.73600
C  46.63500 16.62600 31.51200
C  46.90400 17.03600 32.97000
C  48.26100 17.80900 32.82900
C  48.65100 17.44400 31.37000
C  48.29400 19.40000 33.01900
C  46.98500 15.90900 34.05300
C  46.14700 16.12700 35.30700
H  46.11900 17.43300 36.17000
N  49.66500 16.81900 28.54200
C  50.21600 17.56500 29.49300
C  51.47700 18.05500 28.94600
C  51.60100 17.66300 27.57600
C  50.30600 16.99500 27.32200
C  52.45900 18.93300 29.82500
C  52.63200 18.04600 26.60600
O  52.60000 17.87400 25.41200
C  53.87800 18.81200 27.04800
N  47.60000 15.85700 26.49900
C  48.62100 16.06600 25.64600
C  48.12500 15.88500 24.14500
C  46.63300 15.36100 24.29800
C  46.51200 15.28700 25.78000
C  48.19000 17.18100 23.23200
C  46.43700 14.00100 23.59200
C  45.39400 13.82200 22.46200
N  45.85600 15.41500 28.70300
C  44.92600 14.98700 27.79300
C  43.62600 14.62100 28.37500
C  43.81800 14.97900 29.73100
C  45.15800 15.42200 29.84700
C  42.49300 13.94900 27.72300
C  43.11600 15.13500 30.99000
O  41.96700 15.04500 31.25500
C  44.18800 15.65900 31.96200
C  43.72900 16.93900 32.49100
O  43.72300 18.01100 31.92700
O  43.09400 16.77400 33.65500
C  42.60000 17.92200 34.43500
H  50.25200 18.47200 31.50000
H  50.48500 16.92500 25.24500
H  44.49400 14.63600 25.70100
H  46.14100 17.73900 33.30500
H  49.05500 17.42300 33.46800
H  48.19000 19.88900 32.05000
H  49.23000 19.72800 33.47000
H  47.49800 19.65000 33.72100
H  47.99900 15.72200 34.40500
H  46.50700 15.05300 33.57500
H  46.46500 15.38200 36.03700
H  45.07600 15.98300 35.16000
H  52.72000 19.84600 29.28900
H  53.44600 18.47400 29.89100
H  52.11300 19.26500 30.80400
H  54.28400 18.24600 27.88700
H  53.47200 19.78400 27.32800
H  54.56700 18.89200 26.20700
H  48.69500 15.12900 23.60500
H  45.90900 15.96200 23.74700
H  48.94700 16.96200 22.47900
H  48.60300 18.06500 23.71700
H  47.26300 17.49200 22.75100
H  46.27100 13.27800 24.39000
H  47.32300 13.56000 23.13400
H  46.00100 13.70500 21.56400
H  44.75500 14.70500 22.44600
H  44.83000 12.90500 22.63500
H  42.62000 12.89400 27.47900
H  42.29400 14.43300 26.76700
H  41.59900 14.24800 28.26900
H  44.40600 14.85000 32.65900
H  43.44000 18.46800 34.86300
H  41.96500 17.51700 35.22400
H  42.14700 18.67400 33.78800
Mg 48.77100 35.20500 27.92100
C  46.77800 33.57000 30.33500
C  48.58400 38.01200 30.00400
C  50.14600 36.98300 25.46900
C  48.43600 32.38400 25.88100
N  47.90900 35.72100 30.01400
C  47.20800 34.82300 30.81900
C  47.15200 35.37800 32.20000
C  47.17000 36.88400 31.86000
C  47.93500 36.92700 30.59100
C  45.72800 37.60400 31.83100
C  48.43200 34.97900 33.08700
C  48.05400 34.80100 34.58600
H  47.21900 35.85600 35.26900
N  49.38000 37.19800 27.75400
C  49.29100 38.12500 28.80600
C  49.91700 39.35200 28.24900
C  50.33900 39.15500 26.89500
C  49.99600 37.71900 26.64000
C  50.07800 40.58800 29.12400
C  51.08100 40.08400 25.78600
O  51.56600 39.75600 24.72400
C  51.37100 41.52400 26.15600
N  49.15900 34.74200 25.96300
C  49.81000 35.65400 25.11100
C  49.94300 35.08300 23.75700
C  49.63000 33.58300 23.94000
C  49.08200 33.52800 25.35500
C  49.00800 35.89400 22.73000
C  50.92500 32.65600 23.86100
C  50.87300 31.75100 22.63600
N  47.76900 33.35300 28.01600
C  47.77200 32.34400 27.10700
C  47.00200 31.20000 27.71900
C  46.48600 31.68200 28.93000
C  47.08800 32.95900 29.12600
C  46.84700 29.81900 27.20700
C  45.79500 31.31700 30.12900
O  45.20700 30.28400 30.41700
C  45.78900 32.60600 30.97200
C  45.93700 32.20100 32.39000
O  46.99400 31.95500 32.92700
O  44.68800 32.19100 33.01800
C  44.74500 32.04200 34.49000
H  48.63100 38.90500 30.63100
H  50.51200 37.52800 24.59700
H  48.50800 31.49000 25.25800
H  46.31300 35.04300 32.80800
H  47.84700 37.40000 32.54000
H  44.87500 36.95500 32.03300
H  45.51600 37.95700 30.82100
H  45.67000 38.55400 32.36200
H  49.27300 35.67000 33.13400
H  48.78000 34.02000 32.70300
H  49.01700 34.65800 35.07800
H  47.44800 33.91200 34.75800
H  49.22200 41.26200 29.08400
H  50.95100 41.20700 28.91900
H  50.10500 40.34500 30.18700
H  52.07900 41.73700 26.95800
H  50.34300 41.83000 26.34800
H  51.78100 42.03500 25.28500
H  50.96200 35.22900 23.40100
H  48.82800 33.31600 23.25100
H  48.45200 36.50900 23.43700
H  48.21700 35.27300 22.31100
H  49.51400 36.49400 21.97400
H  50.96900 31.95200 24.69200
H  51.88400 33.17100 23.82400
H  51.13900 30.72300 22.88300
H  51.70400 32.01500 21.98100
H  49.97400 31.77700 22.02000
H  47.68400 29.48900 26.59100
H  45.95300 29.80000 26.58400
H  46.69700 29.18200 28.07800
H  44.79600 33.03300 30.83100
H  43.75200 32.01000 34.93700
H  45.22800 32.94400 34.86700
H  45.39400 31.21900 34.79300

