158

Mg 45.80400 3.88700 47.94600
C  43.80100 6.68800 47.05200
C  43.15900 1.94700 47.17900
C  47.97800 1.30500 47.83000
C  48.63200 6.17500 48.10400
N  43.68500 4.27800 47.04600
C  43.03500 5.46100 47.01400
C  41.62800 5.34800 46.53700
C  41.35100 3.78900 46.75400
C  42.82500 3.31600 47.02200
C  40.22100 3.47300 47.70300
C  41.42100 5.66700 45.00700
C  40.26000 6.58600 44.68100
H  40.47400 7.54600 43.47600
N  45.57900 1.85900 47.67700
C  44.35000 1.24300 47.46000
C  44.51000 -0.12100 47.54200
C  45.90100 -0.38200 47.75500
C  46.56900 0.93100 47.77600
C  43.43900 -1.03700 47.20200
C  46.59300 -1.76000 47.86900
O  45.90000 -2.74500 47.91800
C  48.04000 -1.94400 48.16200
N  47.99500 3.79800 47.89300
C  48.58400 2.55100 47.99000
C  50.11500 2.67500 48.15200
C  50.29300 4.27000 48.19000
C  48.89600 4.81800 48.07500
C  50.68400 2.02300 49.37400
C  51.15900 4.76000 47.08200
C  52.28900 5.68000 47.58800
N  46.18700 5.96300 47.65800
C  47.33900 6.77200 47.84200
C  47.00900 8.17600 47.66300
C  45.62500 8.09800 47.36800
C  45.18900 6.80600 47.40800
C  47.85600 9.34400 47.66100
C  44.54200 9.02100 47.06200
O  44.65200 10.21400 46.87000
C  43.29800 8.09500 46.93800
C  42.35800 8.44800 48.00000
O  42.14100 7.82500 49.03300
O  41.67100 9.55200 47.54500
C  40.59100 10.08100 48.37900
H  42.26300 1.35600 46.98200
H  48.75300 0.54100 47.92300
H  49.41200 6.93700 48.16100
H  40.99500 5.93400 47.20200
H  41.10900 3.20200 45.86800
H  40.27400 4.07900 48.60800
H  40.19700 2.41800 47.97300
H  39.24900 3.66500 47.25000
H  41.06400 4.70300 44.64600
H  42.36400 6.00500 44.57700
H  40.13400 7.32900 45.46800
H  39.42300 5.93900 44.41600
H  42.50200 -0.59100 46.86700
H  43.29500 -1.70800 48.04900
H  43.74000 -1.59000 46.31200
H  48.29700 -2.93600 48.53400
H  48.28100 -1.25800 48.97400
H  48.68100 -1.71700 47.31000
H  50.50200 2.22700 47.23700
H  50.58100 4.70100 49.14900
H  49.80300 1.76300 49.96000
H  51.40100 2.63700 49.91900
H  51.26300 1.21400 48.92800
H  50.59600 5.45500 46.45800
H  51.61200 3.95300 46.50700
H  52.45700 6.57200 46.98400
H  53.15600 5.02500 47.49800
H  52.13600 5.86100 48.65200
H  47.29600 10.17200 47.22600
H  48.66600 9.34900 46.93200
H  48.33700 9.48500 48.62900
H  42.73800 8.26800 46.01800
H  39.59800 9.92000 47.95800
H  40.66500 11.16200 48.49700
H  40.52400 9.73000 49.40900
Mg 35.97400 2.47600 30.62300
C  33.51100 3.83600 32.93400
C  38.16300 2.41400 33.42000
C  38.49200 2.03100 28.57700
C  33.61700 2.78100 28.13800
N  35.85700 3.13000 32.84200
C  34.73600 3.53900 33.56800
C  34.96500 3.64300 35.09500
C  36.53400 3.52000 35.09100
C  36.87400 2.83900 33.74000
C  37.34900 4.78200 35.41800
C  34.11700 2.55700 35.87900
C  33.58300 2.90000 37.27900
H  34.28100 3.93500 38.19600
N  37.96000 2.10800 30.91400
C  38.66500 2.11800 32.12800
C  39.96100 1.45400 31.85500
C  40.10700 1.39000 30.50900
C  38.87000 1.88300 29.90700
C  40.95000 1.07600 33.01100
C  41.27700 0.87800 29.79500
O  41.28200 0.68700 28.59500
C  42.69000 0.55600 30.54100
N  36.06000 2.56000 28.60100
C  37.23600 2.24500 27.99900
C  36.93000 2.14400 26.48800
C  35.38800 2.20900 26.32400
C  34.96300 2.42600 27.85500
C  37.72600 3.31900 25.65800
C  34.75600 0.86200 25.70800
C  33.53500 1.11900 24.76600
N  33.98900 3.27600 30.44900
C  33.15100 3.20800 29.36200
C  31.82900 3.61600 29.74200
C  31.98400 3.98700 31.10600
C  33.30400 3.72400 31.49400
C  30.70200 3.66200 28.76800
C  31.20500 4.51800 32.25500
O  30.04500 4.92600 32.41000
C  32.19800 4.40700 33.50800
C  32.33300 5.79500 34.00000
O  32.78200 6.78700 33.40200
O  31.90300 5.77500 35.27500
C  31.92100 7.08500 35.93000
H  38.78500 2.36300 34.31600
H  39.29200 1.90500 27.84400
H  32.97300 2.78500 27.25700
H  34.61300 4.63300 35.38500
H  36.69700 2.77600 35.87100
H  36.73700 5.67400 35.55300
H  38.01100 5.09100 34.60900
H  37.91800 4.79300 36.34700
H  34.73800 1.67200 36.02000
H  33.30900 2.15300 35.26900
H  33.46900 1.96000 37.81800
H  32.55000 3.23100 37.17600
H  40.46700 1.18000 33.98300
H  41.73300 1.83400 33.00100
H  41.43700 0.10300 32.94300
H  42.71900 -0.40400 31.05500
H  42.94500 1.33400 31.26000
H  43.45900 0.59500 29.76800
H  37.23700 1.14100 26.19200
H  35.07900 3.05900 25.71600
H  37.14200 4.23600 25.58700
H  37.95400 2.90900 24.67400
H  38.63600 3.55600 26.21000
H  34.44200 0.21800 26.53000
H  35.50200 0.39500 25.06500
H  33.76300 1.07900 23.70100
H  33.04800 2.06200 25.01400
H  32.81600 0.36300 25.08100
H  29.93700 4.37300 29.08100
H  30.31300 2.64400 28.74300
H  31.12700 3.98400 27.81800
H  31.65900 3.84600 34.27100
H  32.86700 7.55000 36.20700
H  31.37500 6.81300 36.83400
H  31.43600 7.80900 35.27500

