158

Mg 46.97100 25.08400 29.41700
C  48.02800 27.48900 31.86800
C  45.61500 23.35300 32.19300
C  46.46200 22.49900 27.33700
C  48.54000 26.90700 26.99100
N  46.78800 25.49500 31.82800
C  47.24200 26.52300 32.51500
C  46.84700 26.39600 34.06200
C  46.17000 24.93300 34.06900
C  46.21400 24.55500 32.60600
C  46.82100 23.88700 35.05000
C  45.95500 27.59800 34.57700
C  46.42900 28.27900 35.90800
H  46.76300 27.28200 37.01600
N  46.08200 23.19100 29.66100
C  45.56600 22.64200 30.90400
C  45.02000 21.33000 30.62100
C  45.28000 21.00800 29.17200
C  46.01300 22.24300 28.64700
C  44.39100 20.49900 31.62300
C  45.01600 19.75000 28.50100
O  45.44600 19.50300 27.35200
C  44.23000 18.63600 29.19700
N  47.37900 24.80300 27.41600
C  47.02700 23.58600 26.81200
C  47.44200 23.71600 25.25000
C  48.05200 25.15600 25.14100
C  48.06500 25.63800 26.60200
C  48.50400 22.57000 24.80300
C  47.15100 26.01300 24.17300
C  47.90000 27.07700 23.26400
N  48.03500 26.88000 29.38600
C  48.63600 27.46500 28.27900
C  49.25300 28.73200 28.77000
C  49.00500 28.74800 30.16900
C  48.33300 27.58700 30.46900
C  49.92000 29.72700 27.95400
C  49.27800 29.47500 31.39300
O  49.90800 30.52600 31.58200
C  48.65200 28.70100 32.54300
C  49.78000 28.36500 33.53200
O  50.44800 27.33200 33.79700
O  49.75800 29.38500 34.40800
C  50.42300 29.14900 35.70400
H  45.04700 22.95000 33.03300
H  46.28000 21.64600 26.68000
H  48.96700 27.55300 26.22100
H  47.82100 26.36800 34.54900
H  45.15300 25.07400 34.43500
H  46.03000 23.14200 35.13800
H  47.07200 24.40300 35.97600
H  47.66000 23.39400 34.55900
H  44.93300 27.31600 34.83000
H  45.92900 28.32200 33.76300
H  45.73900 28.98300 36.37400
H  47.41200 28.73000 35.77200
H  44.20500 21.03900 32.55100
H  45.10300 19.68100 31.74000
H  43.45200 20.00700 31.36500
H  43.29100 19.08300 29.52500
H  44.84600 18.18100 29.97100
H  44.13000 17.79000 28.51800
H  46.53800 23.62800 24.64800
H  49.09300 25.13300 24.81800
H  48.34200 22.08900 23.83800
H  48.44700 21.75900 25.53000
H  49.48800 22.99800 24.99400
H  46.37400 26.55600 24.71200
H  46.69900 25.27500 23.51000
H  47.61500 26.96000 22.21900
H  48.97600 26.94400 23.37300
H  47.58900 28.05000 23.64400
H  49.82600 30.69900 28.43800
H  49.48500 29.98300 26.98900
H  50.98500 29.57900 27.77700
H  47.95100 29.33700 33.08500
H  51.31000 28.51700 35.75100
H  49.69500 28.72100 36.39400
H  50.68000 30.10100 36.16800
Mg 30.37000 58.03100 40.32100
C  27.96000 56.04300 39.25100
C  32.70500 55.84900 39.08300
C  32.82900 60.40500 40.54500
C  27.96000 60.67400 40.76000
N  30.32000 56.25800 39.09000
C  29.15200 55.56400 38.88900
C  29.45700 54.19700 38.31900
C  30.95700 53.98900 38.69500
C  31.36200 55.45500 38.92600
C  31.04400 53.06900 39.90500
C  29.25300 54.19000 36.81500
C  28.25000 53.12500 36.31900
H  27.53700 53.44700 35.00700
N  32.49800 58.17600 39.89600
C  33.22800 57.10200 39.47000
C  34.67000 57.43900 39.51200
C  34.78600 58.74600 39.97000
C  33.30100 59.19600 40.14100
C  35.86100 56.42000 39.34300
C  36.08800 59.51700 40.26600
O  37.19200 59.01800 40.03100
C  36.02800 60.89400 40.80900
N  30.37500 60.27200 40.55700
C  31.53000 60.90200 40.82200
C  31.30200 62.39200 41.37400
C  29.70700 62.52200 41.37200
C  29.25000 61.05100 40.80700
C  32.08000 62.80000 42.61300
C  29.15700 63.66500 40.46200
C  28.22200 64.66000 41.27100
N  28.40300 58.28900 40.13600
C  27.54600 59.39900 40.48800
C  26.12900 58.90700 40.27700
C  26.25600 57.61300 39.78700
C  27.65200 57.33900 39.72400
C  24.94000 59.73700 40.55400
C  25.48700 56.54000 39.15100
O  24.31500 56.53200 38.80200
C  26.56100 55.37100 38.91300
C  26.19900 54.24200 39.88600
O  26.92100 53.70600 40.75200
O  25.05900 53.60000 39.44500
C  24.76200 52.21500 39.80700
H  33.37000 55.01900 38.83600
H  33.55900 61.13900 40.89200
H  27.21000 61.37900 41.12400
H  28.86400 53.41200 38.78800
H  31.54200 53.46200 37.94100
H  30.10700 53.02300 40.45900
H  31.73600 53.64300 40.52200
H  31.42800 52.07300 39.68200
H  30.23400 54.19900 36.34000
H  28.92700 55.20000 36.56300
H  27.49900 52.94600 37.08800
H  28.89400 52.29700 36.02100
H  35.84600 56.15000 38.28700
H  35.82200 55.49100 39.91100
H  36.87300 56.76600 39.55200
H  35.54000 60.96500 41.78100
H  35.48200 61.35400 39.98600
H  37.04300 61.28900 40.84600
H  31.71800 62.92400 40.51800
H  29.37000 62.66500 42.39900
H  32.26500 61.85600 43.12600
H  31.54700 63.47200 43.28500
H  33.08000 63.15100 42.35800
H  28.64300 63.27600 39.58300
H  30.00600 64.21300 40.05300
H  27.50600 64.14200 41.90900
H  27.63700 65.29300 40.60500
H  28.80700 65.31900 41.91300
H  25.02300 60.57200 39.85900
H  24.95500 60.12800 41.57200
H  23.99100 59.25900 40.31500
H  26.51400 54.98700 37.89400
H  23.69100 52.10500 39.97800
H  25.27900 51.82700 40.68500
H  25.08300 51.52900 39.02400

