158

Mg 26.67100 49.48800 26.29800
C  24.85000 50.56800 29.11000
C  29.22500 48.56300 28.51800
C  28.59300 48.73400 23.62900
C  24.18200 50.90200 24.25300
N  26.94700 49.46200 28.60800
C  25.98300 49.80500 29.48400
C  26.36600 49.48900 30.88700
C  27.92000 49.13300 30.67700
C  28.08000 49.04100 29.18400
C  28.85700 50.13700 31.39500
C  25.39300 48.58100 31.64800
C  24.91600 48.82000 33.08500
H  25.84900 49.36500 34.13700
N  28.62000 48.75300 26.10600
C  29.44900 48.42100 27.11300
C  30.70600 48.06900 26.57900
C  30.58400 48.11800 25.16400
C  29.20100 48.52200 24.92400
C  31.85800 47.70200 27.35600
C  31.60300 47.87800 24.09700
O  31.33600 47.96000 22.91000
C  32.96100 47.68700 24.56400
N  26.53100 49.93400 24.26800
C  27.41200 49.37300 23.35400
C  26.84700 49.49200 21.91300
C  25.40800 50.07300 22.19000
C  25.37500 50.31500 23.59800
C  27.78000 50.40300 21.01300
C  24.32000 49.15400 21.64200
C  22.96500 49.84600 21.17600
N  24.86500 50.54400 26.54200
C  23.97800 51.08100 25.64600
C  22.88800 51.72000 26.32700
C  23.15500 51.47900 27.65200
C  24.43000 50.80400 27.74400
C  21.73500 52.41500 25.68700
C  22.69700 51.78300 28.99300
O  21.67400 52.36400 29.38100
C  23.75400 51.21300 30.04400
C  24.16100 52.38900 30.94300
O  24.96200 53.23200 30.63400
O  23.46300 52.26500 32.09500
C  23.98700 53.06200 33.21200
H  30.02300 48.32800 29.22500
H  29.17000 48.54500 22.72100
H  23.37200 51.17100 23.57200
H  26.22500 50.43100 31.41600
H  28.04700 48.16500 31.16100
H  29.78600 50.17600 30.82800
H  29.17000 49.79600 32.38200
H  28.38900 51.11400 31.51800
H  25.76100 47.56400 31.51100
H  24.45600 48.66100 31.09800
H  24.56500 47.85100 33.44000
H  24.04000 49.46200 32.98800
H  31.72200 47.66300 28.43700
H  32.70300 48.37900 27.23000
H  32.08700 46.71100 26.96700
H  33.74400 47.59800 23.81100
H  33.02400 46.71700 25.05600
H  33.29800 48.49400 25.21500
H  26.86500 48.53600 21.39000
H  25.35600 51.05700 21.72400
H  28.42000 49.82500 20.34600
H  28.50500 51.00200 21.56400
H  27.13600 51.06900 20.43800
H  24.29600 48.43100 22.45800
H  24.70000 48.64000 20.75900
H  23.08500 50.87900 20.85000
H  22.28000 49.80800 22.02300
H  22.47700 49.25100 20.40400
H  20.98700 52.43900 26.47900
H  21.38500 52.01200 24.73700
H  21.95100 53.47400 25.54300
H  23.18700 50.41800 30.52900
H  24.09900 54.11800 32.96900
H  24.94800 52.65600 33.52900
H  23.32700 52.98600 34.07600
Mg -12.50800 38.18000 40.75100
C  -10.73200 35.41800 39.85100
C  -10.25300 40.08800 38.80300
C  -14.60600 40.90700 40.86700
C  -14.98300 36.20400 41.99300
N  -10.71900 37.79300 39.43900
C  -10.14300 36.56700 39.33300
C  -8.87200 36.57800 38.49600
C  -8.51600 38.09700 38.50700
C  -9.87900 38.76800 38.95400
C  -7.39200 38.63100 39.50900
C  -9.09100 36.12400 37.04800
C  -7.90800 35.35000 36.51100
H  -6.91800 36.17000 35.62000
N  -12.37300 40.26300 40.10800
C  -11.37900 40.77600 39.32400
C  -11.61800 42.21700 39.12300
C  -12.92900 42.51400 39.73200
C  -13.35100 41.19800 40.28200
C  -10.63900 43.14700 38.22800
C  -13.59900 43.84600 39.73900
O  -13.02600 44.77400 39.17800
C  -14.85300 44.19700 40.43000
N  -14.55700 38.53700 41.31500
C  -15.17700 39.72100 41.32000
C  -16.59400 39.63400 41.87000
C  -16.62900 38.18000 42.31800
C  -15.36500 37.54700 41.78000
C  -16.95900 40.61300 43.03800
C  -17.88500 37.39300 42.11800
C  -18.93700 37.64700 43.14200
N  -12.75400 36.23200 41.02100
C  -13.75900 35.56500 41.63600
C  -13.40200 34.13100 41.79900
C  -12.26000 34.04000 41.03700
C  -11.92200 35.33900 40.62200
C  -14.19500 33.05400 42.42300
C  -11.29000 33.14000 40.57700
O  -11.25100 31.94500 40.79200
C  -10.22300 33.89500 39.71000
C  -8.87100 33.67100 40.38800
O  -8.02600 32.88900 39.92700
O  -8.68200 34.50000 41.49000
C  -7.44400 34.39100 42.10900
H  -9.67100 40.67100 38.08500
H  -15.23200 41.79900 40.80100
H  -15.51300 35.59500 42.72800
H  -7.92900 36.19100 38.88300
H  -8.29200 38.50200 37.52100
H  -7.88300 39.03200 40.39500
H  -6.77800 39.36700 38.99000
H  -6.81500 37.76400 39.83300
H  -9.26600 36.92800 36.33400
H  -9.95900 35.46500 37.06900
H  -8.39800 34.64200 35.84300
H  -7.31100 34.74700 37.19500
H  -9.62100 42.75800 38.26400
H  -10.57800 44.19600 38.51900
H  -11.07500 43.19000 37.23000
H  -15.46400 43.61400 39.74000
H  -15.02700 45.27300 40.43800
H  -14.89200 43.98500 41.49800
H  -17.39400 39.81100 41.15000
H  -16.42600 38.13200 43.38800
H  -17.12500 40.12000 43.99600
H  -17.94900 41.00000 42.79500
H  -16.21900 41.41200 43.08300
H  -17.67500 36.34700 41.89600
H  -18.21900 37.71100 41.13000
H  -19.46000 36.69100 43.12000
H  -19.63000 38.45500 42.90700
H  -18.45800 37.80700 44.10800
H  -15.23400 33.29200 42.65200
H  -13.62700 32.73700 43.29700
H  -14.21400 32.16800 41.78800
H  -10.17700 33.57200 38.67000
H  -6.56300 34.49900 41.47600
H  -7.41900 33.46300 42.68000
H  -7.49400 35.26100 42.76200

