158

Mg 0.64500 43.32800 26.59500
C  2.85900 42.69400 29.21600
C  -1.99600 42.61900 28.66700
C  -1.45000 43.58900 23.98400
C  3.49500 43.83500 24.39800
N  0.48000 42.63700 28.64800
C  1.47400 42.60400 29.58200
C  0.86900 42.44200 30.99400
C  -0.60100 42.09600 30.72200
C  -0.74700 42.45500 29.23900
C  -1.13300 40.70700 31.14900
C  1.14900 43.63200 31.89100
C  1.69800 43.37100 33.25800
H  1.35400 42.06300 34.04300
N  -1.48300 43.05800 26.35000
C  -2.37800 42.86600 27.30700
C  -3.72000 42.82700 26.74400
C  -3.54100 43.02800 25.36200
C  -2.12300 43.17600 25.16800
C  -4.91800 42.62100 27.67000
C  -4.63300 43.02200 24.26800
O  -4.26000 43.24100 23.11700
C  -6.07200 42.70300 24.58900
N  1.03000 43.47100 24.40300
C  -0.07100 43.74300 23.63000
C  0.37200 44.30300 22.26900
C  1.91700 44.66100 22.56300
C  2.18000 43.97800 23.85600
C  -0.00100 43.30500 21.10200
C  2.21000 46.19900 22.68700
C  1.55000 47.07500 21.56500
N  2.69000 43.18800 26.71800
C  3.68600 43.42100 25.76600
C  4.92600 43.28500 26.47500
C  4.67500 43.04800 27.82000
C  3.31800 42.97800 27.91800
C  6.25500 43.34200 25.77200
C  5.25300 42.68500 29.05700
O  6.40500 42.46500 29.41300
C  4.03700 42.51800 30.11500
C  4.28400 41.14900 30.77100
O  3.89100 40.04000 30.39700
O  5.05100 41.38500 31.91300
C  5.27000 40.20300 32.74000
H  -2.86600 42.43200 29.29900
H  -2.05500 43.90200 23.13000
H  4.38200 44.02200 23.79000
H  1.47300 41.58400 31.28900
H  -1.19500 42.81600 31.28500
H  -0.24200 40.20500 31.52700
H  -1.60400 40.18400 30.31600
H  -1.85500 40.78200 31.96200
H  0.27100 44.24000 32.11000
H  1.94800 44.30400 31.57700
H  1.34600 44.22500 33.83600
H  2.78700 43.42900 33.25600
H  -5.55100 43.48700 27.47500
H  -4.65500 42.51100 28.72200
H  -5.43600 41.70700 27.37600
H  -6.55400 42.22300 23.73700
H  -6.49100 43.70800 24.54800
H  -6.23700 42.15000 25.51300
H  -0.15500 45.24400 22.11200
H  2.47000 44.21300 21.73700
H  0.70200 43.41600 20.27700
H  -0.94200 43.59900 20.63700
H  -0.08100 42.33900 21.60000
H  3.25900 46.46700 22.55700
H  2.12900 46.60900 23.69300
H  0.61600 47.54100 21.87900
H  1.41100 46.44100 20.69000
H  2.16000 47.83300 21.07200
H  6.41500 44.41800 25.70200
H  6.37900 42.90600 24.78000
H  6.88500 42.92000 26.55500
H  4.06200 43.37000 30.79500
H  6.29000 40.16000 33.12200
H  5.24500 39.21100 32.28800
H  4.73500 40.17400 33.68900
Mg -5.18900 25.33100 26.06300
C  -3.52300 26.69000 28.76100
C  -6.70000 23.04100 28.23600
C  -6.69000 23.74300 23.45600
C  -3.24300 27.21500 23.92800
N  -5.06200 24.93100 28.28000
C  -4.42000 25.72500 29.20000
C  -4.87000 25.49000 30.64700
C  -5.55800 24.11100 30.39500
C  -5.84400 23.99200 28.84800
C  -4.71100 22.77200 30.81000
C  -5.81100 26.60600 31.19200
C  -5.60600 26.85700 32.69100
H  -5.18500 25.67200 33.53200
N  -6.54300 23.63400 25.92900
C  -6.98800 22.83700 26.89400
C  -7.86000 21.75400 26.38300
C  -7.92900 22.03000 24.97500
C  -7.00500 23.17600 24.69800
C  -8.39300 20.61500 27.24100
C  -8.71900 21.28500 23.83800
O  -8.45500 21.45200 22.67000
C  -9.76800 20.32500 24.17600
N  -4.89300 25.43400 23.98900
C  -5.79400 24.79000 23.14900
C  -5.73200 25.50200 21.78800
C  -4.80500 26.71200 21.99700
C  -4.26400 26.48300 23.43400
C  -5.26300 24.54700 20.59400
C  -5.51100 28.02300 21.86400
C  -6.23600 28.49600 20.57000
N  -3.63200 26.66400 26.27300
C  -2.93700 27.37900 25.34100
C  -2.00400 28.26700 25.95400
C  -2.10900 28.00600 27.27400
C  -3.15500 27.07000 27.45800
C  -1.04500 29.19500 25.24900
C  -1.62400 28.37500 28.63500
O  -0.80900 29.20500 29.00300
C  -2.50400 27.49300 29.61600
C  -1.52900 26.61100 30.33200
O  -0.95800 25.61400 29.89800
O  -1.53500 26.97100 31.65800
C  -0.81800 26.26300 32.72200
H  -7.19600 22.36100 28.93200
H  -7.27500 23.51800 22.56200
H  -2.74800 27.88800 23.22500
H  -3.92300 25.32000 31.15800
H  -6.52200 24.03700 30.89800
H  -3.69600 23.00900 31.13000
H  -4.66800 21.93000 30.12000
H  -5.20500 22.49400 31.74100
H  -6.89100 26.48000 31.10900
H  -5.69200 27.53600 30.63700
H  -6.56400 27.21300 33.07100
H  -4.85400 27.62200 32.88400
H  -9.42500 20.46900 26.92200
H  -8.41700 20.82400 28.31100
H  -7.82500 19.70000 27.07300
H  -9.39600 19.39500 24.60500
H  -10.30600 20.37300 23.22900
H  -10.39100 20.84600 24.90200
H  -6.77200 25.78700 21.62700
H  -3.91600 26.85700 21.38100
H  -5.48800 23.51900 20.87800
H  -4.20200 24.72200 20.41600
H  -5.82300 24.74800 19.68000
H  -4.81100 28.82700 22.09100
H  -6.18300 28.17500 22.70900
H  -5.93700 27.83200 19.75900
H  -5.79900 29.46800 20.34200
H  -7.32600 28.50700 20.56600
H  -0.70000 28.64300 24.37400
H  -0.22400 29.37300 25.94300
H  -1.54900 30.09400 24.89200
H  -3.04100 28.14300 30.30700
H  -0.11500 25.57300 32.25600
H  -1.57400 25.74100 33.30900
H  -0.34600 26.97400 33.39900

