158

Mg 25.88100 0.69500 29.19100
C  27.79900 0.32500 31.99500
C  23.19300 1.26200 31.19900
C  24.06800 0.82400 26.38900
C  28.70000 -0.36000 27.15000
N  25.64200 0.75300 31.33200
C  26.54700 0.73300 32.34500
C  25.88900 1.06900 33.73200
C  24.38000 1.19000 33.37600
C  24.43200 1.11100 31.86600
C  23.41500 0.10900 34.01500
C  26.49100 2.39500 34.44200
C  27.28300 2.16900 35.77800
H  27.04200 3.05200 36.94000
N  23.87900 0.88400 28.77900
C  22.92600 1.10000 29.78000
C  21.67000 1.18300 29.16100
C  21.81100 1.17200 27.75500
C  23.32100 1.02800 27.58000
C  20.31900 1.34200 29.85000
C  20.89200 1.31100 26.50400
O  21.27700 1.50300 25.30400
C  19.48000 1.35200 26.83100
N  26.41200 0.28100 27.05500
C  25.39500 0.52800 26.15500
C  25.92900 0.24900 24.69900
C  27.43200 -0.08000 24.86700
C  27.58300 0.05100 26.44400
C  25.08900 -0.79900 23.83000
C  28.44500 0.75600 24.02200
C  28.46600 0.48800 22.54200
N  27.86500 0.17900 29.47400
C  28.83300 -0.25800 28.57200
C  30.06800 -0.54600 29.38200
C  29.71200 -0.32600 30.69800
C  28.35700 0.10500 30.70400
C  31.45300 -1.07000 28.86500
C  30.17300 -0.43900 32.01800
O  31.18600 -0.86800 32.54100
C  29.04000 0.06200 32.95300
C  28.78500 -0.91500 34.05300
O  28.19800 -1.95300 33.98000
O  29.41000 -0.44500 35.15700
C  29.23000 -1.20400 36.34700
H  22.31100 1.50400 31.79400
H  23.52100 1.12400 25.49300
H  29.48100 -0.74000 26.48900
H  26.10500 0.19900 34.35200
H  23.97100 2.12200 33.76700
H  23.88100 -0.53400 34.76100
H  23.05100 -0.57400 33.24700
H  22.54200 0.55000 34.49700
H  25.76700 3.19600 34.58800
H  27.20500 2.71000 33.68100
H  28.34000 2.13200 35.51600
H  27.10200 1.14900 36.11900
H  20.53000 1.68800 30.86200
H  19.83700 0.36800 29.76700
H  19.69100 2.14000 29.45400
H  19.27400 0.46900 27.43500
H  19.03200 1.23800 25.84400
H  19.15100 2.28300 27.29200
H  25.85200 1.15400 24.09600
H  27.60500 -1.14100 24.68800
H  24.49500 -1.27100 24.61200
H  25.73200 -1.55700 23.38200
H  24.46700 -0.39000 23.03400
H  29.41600 0.44900 24.41200
H  28.34500 1.81800 24.24500
H  29.52000 0.33900 22.30600
H  27.95100 1.29600 22.02300
H  27.92100 -0.43100 22.32400
H  31.37900 -1.04000 27.77800
H  31.69500 -1.95800 29.44800
H  32.19300 -0.38500 29.27800
H  29.23200 1.05700 33.35400
H  28.21200 -1.45300 36.64800
H  29.70500 -0.74700 37.21600
H  29.74300 -2.16100 36.25700
Mg 49.81300 44.63400 42.80400
C  46.61300 44.78300 41.84100
C  49.76500 41.07600 42.22600
C  53.23300 44.52700 43.21700
C  49.96800 48.11300 43.13300
N  48.32900 43.03900 42.24000
C  47.00000 43.43900 41.89000
C  46.17900 42.17100 41.35900
C  47.11000 40.99500 41.90400
C  48.47700 41.70200 42.12400
C  46.72200 40.09700 43.08100
C  46.13600 42.21300 39.76600
C  44.68900 42.31800 39.25500
H  44.28200 43.41000 38.28900
N  51.28700 43.06000 42.75300
C  51.06300 41.65800 42.52500
C  52.28200 40.94200 42.55700
C  53.32000 41.85400 42.86300
C  52.67100 43.23400 42.94700
C  52.43400 39.51300 42.12100
C  54.81700 41.44300 43.01200
O  55.21000 40.27900 42.94600
C  55.84800 42.58100 43.01900
N  51.34200 46.08400 43.45200
C  52.66000 45.80200 43.34000
C  53.51900 47.04100 43.59900
C  52.42000 48.17800 43.68100
C  51.18800 47.40400 43.43500
C  54.41100 47.12300 44.83300
C  52.78300 49.42100 42.73300
C  52.45500 50.84800 43.14300
N  48.57300 46.15500 42.64900
C  48.77200 47.49900 42.73200
C  47.44100 48.08200 42.44600
C  46.55500 47.08900 42.19100
C  47.32700 45.91700 42.24600
C  47.19100 49.58200 42.46600
C  45.21000 46.76300 41.82300
O  44.18000 47.44400 41.70100
C  45.17500 45.26000 41.56200
C  44.16100 44.80000 42.57000
O  44.19200 44.72700 43.82700
O  42.94400 44.64300 41.84000
C  41.69800 44.49800 42.59400
H  49.77900 39.99200 42.09600
H  54.31500 44.53700 43.36800
H  49.99600 49.20500 43.10400
H  45.22000 42.27400 41.86600
H  47.20600 40.29700 41.07300
H  47.23900 40.31800 44.01400
H  46.85200 39.05800 42.77900
H  45.67700 40.31800 43.30000
H  46.65300 41.34400 39.36000
H  46.59800 43.07800 39.29000
H  43.88300 42.10600 39.95700
H  44.76700 41.51000 38.52700
H  51.53600 39.27700 41.55000
H  52.48900 38.81700 42.95800
H  53.29700 39.29100 41.49200
H  55.66600 43.35800 42.27700
H  56.76800 42.14200 42.63400
H  55.87700 43.06900 43.99400
H  54.04300 47.19000 42.65600
H  52.32000 48.56600 44.69500
H  54.05000 47.87700 45.53200
H  55.34900 47.55000 44.47900
H  54.52900 46.11800 45.23900
H  52.34700 49.28200 41.74400
H  53.85500 49.37900 42.53900
H  53.35400 51.46000 43.21000
H  51.85500 50.85500 44.05300
H  51.82900 51.24000 42.34100
H  46.29900 49.85300 43.03200
H  47.14300 49.94800 41.44000
H  48.05700 50.07600 42.90800
H  44.76500 45.09500 40.56500
H  40.97800 44.42500 41.77900
H  41.51200 45.30200 43.30700
H  41.75500 43.54700 43.12300

