158

Mg -2.59500 16.93400 26.67000
C  -2.92400 14.80600 29.34200
C  -2.53800 19.56300 28.79000
C  -2.57900 18.91400 23.98300
C  -2.65100 14.22400 24.56000
N  -2.85300 17.13500 28.80500
C  -2.94500 16.16000 29.72300
C  -2.83700 16.66500 31.18800
C  -3.01300 18.22600 30.91500
C  -2.69500 18.34100 29.38800
C  -4.43300 18.71300 31.30600
C  -1.58100 16.12000 31.83600
C  -0.77900 16.93400 32.86300
H  -0.36200 16.29100 34.17600
N  -2.58800 18.96500 26.44300
C  -2.57800 19.86400 27.44000
C  -2.66200 21.20400 26.83600
C  -2.55200 21.05800 25.44300
C  -2.55100 19.59800 25.22400
C  -2.67600 22.48300 27.64000
C  -2.39400 22.16700 24.36600
O  -2.31800 21.91100 23.15200
C  -2.30900 23.55100 24.78600
N  -2.83400 16.64100 24.58400
C  -2.72500 17.55500 23.64700
C  -2.80900 17.09800 22.19900
C  -2.58100 15.57100 22.43100
C  -2.69600 15.46800 23.94800
C  -4.15100 17.38600 21.57500
C  -1.19800 15.07800 21.96700
C  -1.13300 13.87300 21.02200
N  -2.94000 14.91300 26.88600
C  -2.86900 13.91500 25.92000
C  -2.86800 12.60300 26.50700
C  -2.95800 12.91100 27.80100
C  -2.94300 14.30800 28.06500
C  -2.86500 11.24600 25.92700
C  -3.01400 12.33100 29.10500
O  -3.06900 11.14700 29.36300
C  -2.91500 13.54700 30.16300
C  -1.74200 13.23700 30.91300
O  -0.63800 13.39000 30.49800
O  -2.18500 12.76900 32.13100
C  -1.21200 12.40300 33.11600
H  -2.48500 20.41100 29.47500
H  -2.55000 19.55800 23.10200
H  -2.45600 13.36100 23.92100
H  -3.64100 16.17900 31.74200
H  -2.24300 18.78500 31.44700
H  -5.04900 18.89800 30.42600
H  -4.29700 19.59500 31.93300
H  -4.99600 17.96900 31.87000
H  -0.94900 15.87200 30.98400
H  -1.78800 15.23800 32.44200
H  -1.36400 17.82100 33.10800
H  0.09900 17.33700 32.35700
H  -2.89300 22.26500 28.68600
H  -3.52900 23.11600 27.39500
H  -1.78200 23.09600 27.52600
H  -3.30300 23.89000 25.07800
H  -1.98000 24.08200 23.89300
H  -1.56200 23.86600 25.51400
H  -1.98900 17.47400 21.58800
H  -3.29000 14.89000 21.96000
H  -4.88600 17.79400 22.26900
H  -4.59000 16.49900 21.11700
H  -4.17600 18.13900 20.78700
H  -0.54600 14.90600 22.82300
H  -0.61000 15.80300 21.40400
H  -0.41300 13.08000 21.22900
H  -0.98000 14.25300 20.01200
H  -2.06300 13.30700 20.96700
H  -3.86900 10.82300 25.87700
H  -2.24100 10.51900 26.44700
H  -2.58400 11.25100 24.87400
H  -3.84200 13.54200 30.73600
H  -1.37600 11.34400 33.31100
H  -1.30400 12.98600 34.03200
H  -0.17400 12.54600 32.81600
Mg 48.53400 35.98900 28.79800
C  46.32600 34.55600 31.10900
C  48.89900 38.64500 30.86200
C  50.07900 37.65800 26.23700
C  47.71100 33.31400 26.58000
N  47.81200 36.44800 30.74200
C  47.06500 35.67100 31.56500
C  47.27900 36.06800 32.97600
C  47.49300 37.60000 32.70900
C  48.15900 37.59100 31.35600
C  46.22100 38.59700 32.90800
C  48.53900 35.37700 33.58800
C  48.68700 35.33200 35.07100
H  47.87800 36.13700 36.04100
N  49.45400 37.90200 28.61100
C  49.53700 38.77700 29.60000
C  50.27300 39.93800 29.12900
C  50.78900 39.52300 27.83600
C  50.08900 38.34100 27.47200
C  50.45400 41.22300 29.90200
C  51.83400 40.23700 26.98300
O  52.22000 39.86800 25.88200
C  52.51300 41.52100 27.51000
N  48.98100 35.43200 26.81400
C  49.48200 36.33800 25.92100
C  49.55100 35.89100 24.52300
C  49.00200 34.40500 24.60500
C  48.54300 34.33500 26.05600
C  48.71700 36.75100 23.47300
C  50.00800 33.17700 24.29000
C  50.00800 32.79400 22.76400
N  47.30500 34.21200 28.77200
C  47.01400 33.30100 27.78800
C  46.14500 32.37800 28.26600
C  45.82200 32.80800 29.55100
C  46.55800 33.94500 29.84000
C  45.70300 31.06800 27.57900
C  45.01700 32.50500 30.74400
O  44.14600 31.64600 30.89300
C  45.32200 33.62300 31.75900
C  45.70200 33.06700 33.13000
O  46.77200 32.53400 33.40000
O  44.66000 33.33600 34.05100
C  44.83100 32.79600 35.34600
H  49.01800 39.50400 31.52600
H  50.66500 38.14400 25.45500
H  47.52000 32.58100 25.79300
H  46.41100 35.96500 33.62800
H  48.23400 37.96800 33.41800
H  46.36200 39.28000 33.74600
H  45.35100 38.00900 33.20300
H  45.91000 39.11600 32.00200
H  49.39000 35.90300 33.15500
H  48.61200 34.46400 32.99700
H  49.70300 35.69900 35.21800
H  48.65700 34.26000 35.26800
H  50.23600 41.95100 29.12000
H  51.47100 41.27700 30.29200
H  49.69000 41.42600 30.65100
H  51.80200 42.28800 27.81500
H  53.06900 41.85800 26.63500
H  53.12300 41.38400 28.40300
H  50.62200 35.96700 24.33600
H  48.15100 34.34600 23.92600
H  48.72200 37.80000 23.76800
H  47.67400 36.44200 23.55100
H  48.97600 36.67300 22.41700
H  49.82500 32.29800 24.90900
H  51.03200 33.45200 24.54200
H  49.49000 31.85100 22.59100
H  50.98000 32.60900 22.30800
H  49.44200 33.58300 22.26700
H  44.92900 30.55300 28.14900
H  46.65900 30.54400 27.55600
H  45.29800 31.08100 26.56700
H  44.42900 34.15000 32.09600
H  45.22800 33.63700 35.91500
H  45.49200 31.93100 35.38400
H  43.87900 32.41000 35.71100

