158

Mg 25.08600 1.85900 29.26500
C  27.32700 1.38100 32.01600
C  22.54000 1.75300 31.46000
C  23.02100 1.74100 26.61400
C  27.92200 1.34100 27.18600
N  25.02300 1.67500 31.54500
C  26.04100 1.51700 32.46200
C  25.54000 1.69800 33.88500
C  23.98900 1.68300 33.56600
C  23.79100 1.65300 32.07500
C  23.23100 0.64100 34.36300
C  26.02500 2.95900 34.62300
C  25.15900 3.44100 35.78700
H  25.90500 4.22100 36.92700
N  23.03100 1.88400 29.10100
C  22.16200 1.84500 30.07700
C  20.88100 2.08500 29.55400
C  20.92100 1.95500 28.11400
C  22.31500 1.80000 27.89500
C  19.65400 2.05300 30.49900
C  19.84300 1.81700 27.01700
O  20.10100 1.69400 25.80400
C  18.39600 1.74400 27.47400
N  25.43500 1.40300 27.25900
C  24.41600 1.60000 26.33900
C  24.91300 1.55200 24.88300
C  26.51600 1.72000 25.14600
C  26.65900 1.41200 26.59200
C  24.45400 0.40000 24.01500
C  27.08000 3.14600 24.76700
C  26.82600 4.33100 25.65500
N  27.21400 1.48000 29.47000
C  28.16200 1.34900 28.54100
C  29.43100 1.07600 29.18900
C  29.15500 1.11400 30.55300
C  27.77200 1.37300 30.63700
C  30.82800 0.83300 28.64100
C  29.68200 1.02400 31.91100
O  30.81300 0.90900 32.32700
C  28.54600 1.21900 32.89000
C  28.47700 0.23700 34.03100
O  27.67500 -0.73200 34.05400
O  29.37800 0.51000 35.05500
C  29.59200 -0.61300 35.90100
H  21.76400 1.75500 32.22800
H  22.37100 1.90500 25.75200
H  28.73900 1.46200 26.47100
H  25.63600 0.86600 34.58400
H  23.64400 2.66000 33.90400
H  23.64600 -0.33700 34.11900
H  22.15100 0.65200 34.21400
H  23.34400 0.78400 35.43800
H  26.12500 3.73400 33.86400
H  27.05900 2.85200 34.94900
H  24.77800 2.51600 36.21900
H  24.33900 4.10200 35.50600
H  19.20600 3.02000 30.73100
H  19.96500 1.65900 31.46700
H  18.88300 1.36500 30.15300
H  17.93300 0.76200 27.57000
H  17.91300 2.29000 26.66300
H  18.18600 2.32700 28.37100
H  24.59600 2.48100 24.40900
H  27.15200 0.99800 24.63400
H  25.15600 0.18200 23.21000
H  23.45900 0.62100 23.63000
H  24.39500 -0.44900 24.69500
H  26.46900 3.46200 23.92100
H  28.11200 3.02800 24.43700
H  26.82300 3.91900 26.66400
H  25.89500 4.89000 25.56400
H  27.60300 5.08900 25.55400
H  31.02000 -0.16700 29.03200
H  31.57900 1.58300 28.89000
H  30.83300 0.73000 27.55600
H  28.70300 2.16900 33.40100
H  28.79900 -0.65200 36.64800
H  30.51600 -0.54300 36.47400
H  29.64300 -1.50800 35.28000
Mg 49.32000 35.40900 28.61200
C  47.21200 33.32800 30.57400
C  49.34800 37.70200 31.08300
C  50.66900 37.46800 26.40800
C  48.88400 32.87600 26.03500
N  48.39100 35.53800 30.57900
C  47.75100 34.51200 31.21200
C  47.74300 34.77000 32.77200
C  48.02100 36.34200 32.83200
C  48.68100 36.51400 31.44300
C  46.73600 37.25600 33.07200
C  48.88700 33.90100 33.47900
C  48.78000 33.84700 35.09300
H  47.89700 34.83900 35.90100
N  49.89700 37.29500 28.74800
C  49.89700 38.08100 29.88700
C  50.64300 39.34600 29.58700
C  51.16100 39.19700 28.25100
C  50.58700 37.91700 27.74100
C  50.86500 40.34300 30.68800
C  52.09200 40.02400 27.47200
O  52.51300 39.72500 26.33700
C  52.52800 41.28200 28.03200
N  49.82500 35.14500 26.58600
C  50.30400 36.22600 25.86000
C  50.52500 35.85900 24.36800
C  50.22000 34.29200 24.42300
C  49.60400 34.05900 25.78400
C  49.64500 36.70500 23.49500
C  51.36400 33.35300 23.91400
C  51.25000 32.81600 22.44800
N  48.50400 33.40300 28.35600
C  48.34900 32.50200 27.26100
C  47.57600 31.39200 27.62100
C  47.12500 31.69400 28.90400
C  47.65000 32.90000 29.32300
C  47.14900 30.22400 26.80200
C  46.22300 31.20900 29.94700
O  45.43500 30.21300 29.99900
C  46.24100 32.27900 31.11200
C  46.42600 31.69300 32.45700
O  47.26600 30.92300 32.82800
O  45.50800 32.20400 33.26100
C  45.36800 31.56600 34.57700
H  49.51000 38.34900 31.94800
H  51.08000 38.12900 25.64200
H  48.61400 32.19300 25.22600
H  46.75100 34.37600 32.99300
H  48.80900 36.45100 33.57700
H  46.74400 38.00100 33.86800
H  46.06400 36.45500 33.37900
H  46.36600 37.69300 32.14400
H  49.91700 34.21900 33.31300
H  48.71900 32.86900 33.17100
H  49.84500 33.83700 35.32500
H  48.38400 32.84700 35.27300
H  50.45300 41.26300 30.27500
H  51.84300 40.54700 31.12400
H  50.21700 40.19800 31.55200
H  51.68500 41.91700 28.30400
H  53.10000 41.86300 27.30900
H  53.20000 41.06200 28.86100
H  51.56500 36.08400 24.13300
H  49.40800 34.16900 23.70600
H  50.15900 37.65300 23.33900
H  48.75100 36.98600 24.05300
H  49.47400 36.22400 22.53200
H  51.31800 32.48300 24.57000
H  52.28800 33.92300 24.00400
H  50.38800 33.19900 21.90200
H  51.26500 31.72900 22.53000
H  52.14600 33.19000 21.95100
H  46.36700 30.61800 26.15300
H  46.61500 29.43800 27.33700
H  47.96100 29.76800 26.23500
H  45.25000 32.72800 31.17100
H  44.31500 31.61800 34.85400
H  45.96200 32.08300 35.33100
H  45.57800 30.49900 34.65900

