158

Mg 25.26400 1.37900 29.38800
C  27.37300 1.28100 32.16800
C  22.60800 1.85800 31.51600
C  23.18000 1.30500 26.59800
C  28.03300 0.78600 27.39400
N  25.02400 1.59200 31.62600
C  26.00800 1.48500 32.52500
C  25.38400 1.46900 33.91000
C  23.83700 1.55800 33.67800
C  23.80400 1.75700 32.19000
C  23.00800 0.36600 34.14700
C  25.94100 2.74300 34.55000
C  26.69200 2.49800 35.81100
H  26.56600 3.38900 37.06100
N  23.23900 1.42700 29.15000
C  22.36100 1.67600 30.12500
C  20.97900 1.54200 29.62100
C  21.09300 1.42200 28.20900
C  22.55900 1.31400 27.89800
C  19.72400 1.56000 30.57200
C  20.07700 1.47100 27.27600
O  20.26600 1.33400 26.10100
C  18.64000 1.76500 27.62700
N  25.50100 1.02900 27.34400
C  24.56200 1.23000 26.36300
C  25.26100 1.25700 24.97800
C  26.79600 1.27500 25.22400
C  26.80300 1.03600 26.77100
C  24.73400 0.24700 23.97600
C  27.59900 2.49700 24.73500
C  27.16600 3.87500 25.22400
N  27.34100 1.08600 29.64800
C  28.30400 0.69500 28.74900
C  29.57300 0.45600 29.43600
C  29.22700 0.72900 30.73300
C  27.90300 1.08800 30.86400
C  30.85000 0.01700 28.83800
C  29.80400 0.83500 32.06400
O  30.94500 0.57700 32.41800
C  28.54300 1.13800 33.04800
C  28.46500 -0.01400 33.85100
O  28.00800 -1.10400 33.59200
O  29.07000 0.29300 34.98300
C  29.06000 -0.68900 36.05300
H  21.80400 2.11300 32.21000
H  22.54200 1.50700 25.73500
H  28.92700 0.63200 26.78700
H  25.64000 0.52200 34.38600
H  23.34900 2.45200 34.06600
H  22.07400 0.70600 34.59300
H  23.53100 -0.13300 34.96300
H  22.70600 -0.36800 33.40000
H  25.11100 3.41000 34.77900
H  26.58800 3.30000 33.87200
H  27.75900 2.51500 35.58800
H  26.29200 1.53200 36.11900
H  18.99400 0.90000 30.10400
H  19.34800 2.57700 30.68100
H  20.09500 1.11300 31.49400
H  18.05100 1.89500 26.71900
H  18.45100 2.70500 28.14600
H  18.18500 0.88600 28.08300
H  25.02000 2.24000 24.57400
H  27.37000 0.43500 24.83400
H  24.12900 0.80600 23.26300
H  24.14600 -0.56700 24.40000
H  25.59500 -0.09000 23.39900
H  27.45200 2.49700 23.65500
H  28.62700 2.29100 25.03400
H  26.52100 3.63700 26.07000
H  26.56400 4.41000 24.49000
H  27.96600 4.55800 25.51200
H  31.59800 -0.00100 29.63100
H  31.15600 0.82000 28.16700
H  30.66200 -0.94500 28.36100
H  28.74800 2.06300 33.58700
H  29.27200 -1.71400 35.75000
H  28.06900 -0.76200 36.50100
H  29.78300 -0.38500 36.81000
Mg -11.84200 16.70200 42.91500
C  -8.45300 15.62800 42.41700
C  -10.85000 19.75800 41.58000
C  -15.12700 17.34700 42.40100
C  -12.57400 13.56400 44.04100
N  -9.85600 17.47600 41.92200
C  -8.64900 16.90200 41.99000
C  -7.60400 17.81600 41.38200
C  -8.27900 19.29300 41.48500
C  -9.74500 18.88900 41.63800
C  -7.72300 20.28400 42.55200
C  -6.97600 17.28100 40.06900
C  -5.46400 17.19500 40.00000
H  -4.75300 16.27100 38.93600
N  -12.86100 18.29100 42.13200
C  -12.24400 19.44900 41.64700
C  -13.30900 20.32800 41.14700
C  -14.57500 19.65500 41.28000
C  -14.24300 18.38100 41.96600
C  -13.08600 21.65200 40.34900
C  -15.95300 20.20700 40.77800
O  -15.99200 21.29100 40.18000
C  -17.23100 19.47200 40.84900
N  -13.72000 15.61500 43.17000
C  -14.95200 16.10800 42.97100
C  -15.98900 15.21200 43.42000
C  -15.16800 14.09800 44.08500
C  -13.70700 14.39700 43.73500
C  -17.12100 15.73400 44.29800
C  -15.67400 12.63000 43.75900
C  -15.59400 11.52900 44.85900
N  -10.77100 14.88300 43.19400
C  -11.19700 13.73200 43.81400
C  -10.03100 12.82000 43.95100
C  -8.96300 13.52500 43.42400
C  -9.46400 14.77900 42.93500
C  -10.01800 11.38600 44.57300
C  -7.55500 13.51900 43.27800
O  -6.82000 12.62000 43.64600
C  -7.08800 14.89400 42.63100
C  -6.28000 15.67700 43.60400
O  -6.73300 16.45800 44.45400
O  -4.98500 15.41100 43.44700
C  -4.04300 16.35800 44.17300
H  -10.60700 20.79500 41.33800
H  -16.17000 17.57300 42.16800
H  -12.87900 12.64600 44.54600
H  -6.76900 17.87000 42.08000
H  -8.22500 19.74400 40.49400
H  -7.42000 21.19500 42.03600
H  -6.88600 19.96000 43.17100
H  -8.57000 20.55000 43.18300
H  -7.45100 17.90800 39.31400
H  -7.39800 16.30500 39.82900
H  -5.03400 16.90900 40.96000
H  -5.13000 18.21500 39.81000
H  -13.67900 21.76300 39.44100
H  -12.04900 21.71700 40.02100
H  -13.31400 22.46400 41.04000
H  -17.61700 19.54600 41.86600
H  -17.12100 18.42100 40.58400
H  -17.97500 20.00800 40.26000
H  -16.38100 14.90100 42.45200
H  -15.33900 14.25800 45.15000
H  -17.97100 16.16900 43.77100
H  -16.67900 16.47900 44.95900
H  -17.46800 14.87400 44.87000
H  -15.11800 12.28900 42.88600
H  -16.74400 12.62100 43.54800
H  -15.15300 11.92400 45.77400
H  -15.07000 10.69000 44.40200
H  -16.60900 11.16400 45.01600
H  -9.13100 11.08300 45.12800
H  -10.12000 10.60300 43.82200
H  -10.93700 11.30000 45.15300
H  -6.47600 14.80400 41.73400
H  -4.03600 16.03100 45.21300
H  -4.33100 17.40900 44.17300
H  -3.01200 16.22800 43.84300

