158

Mg 25.58300 0.32100 29.64500
C  27.60200 0.18800 32.47800
C  22.86600 0.80500 31.67400
C  23.69100 0.23800 26.83600
C  28.35800 -0.54000 27.66100
N  25.28000 0.43100 31.87000
C  26.26500 0.38900 32.82700
C  25.81700 0.90200 34.23600
C  24.22500 0.81300 34.00200
C  24.10900 0.73300 32.43300
C  23.67000 -0.41100 34.81500
C  26.29200 2.39500 34.69300
C  27.16500 2.45300 35.96800
H  26.78000 3.31000 37.24600
N  23.53800 0.43300 29.33500
C  22.57500 0.67900 30.33300
C  21.24400 0.80300 29.66900
C  21.52200 0.69100 28.26500
C  22.95200 0.39900 28.06500
C  19.97700 1.11700 30.46700
C  20.57200 0.77800 27.16500
O  20.85100 0.63000 25.99700
C  19.13100 1.20400 27.50900
N  26.00100 -0.02600 27.50500
C  25.07200 0.09100 26.54900
C  25.64200 0.07400 25.17300
C  27.15700 -0.24300 25.44200
C  27.17800 -0.24800 26.98700
C  24.91300 -0.90300 24.12900
C  28.07400 0.86600 24.96000
C  29.42800 0.37500 24.30500
N  27.54200 -0.23100 29.93500
C  28.51800 -0.58600 29.06600
C  29.72900 -0.75200 29.70600
C  29.47400 -0.50900 31.03400
C  28.08600 -0.16000 31.20400
C  31.07200 -1.07800 29.02000
C  30.11500 -0.36800 32.28800
O  31.23900 -0.46800 32.68900
C  28.88400 0.05800 33.32500
C  28.82400 -0.94700 34.52400
O  28.11400 -1.92700 34.53800
O  29.54300 -0.44800 35.62100
C  29.24800 -1.09700 36.92800
H  21.95700 1.10300 32.20000
H  23.09600 0.35600 25.92800
H  29.24100 -0.79600 27.07300
H  26.15800 0.15000 34.94800
H  23.76500 1.76200 34.27500
H  24.40500 -1.15700 35.11900
H  22.98100 -0.92300 34.14400
H  23.22200 -0.00100 35.72000
H  25.43300 3.04400 34.86600
H  26.87600 2.86600 33.90200
H  28.14600 2.87300 35.74700
H  27.41500 1.43500 36.26500
H  19.54100 1.93600 29.89400
H  20.01600 1.36200 31.52800
H  19.31100 0.28000 30.25300
H  18.50600 1.04400 26.63100
H  19.27000 2.27400 27.66600
H  18.58400 0.55300 28.19100
H  25.47500 1.07900 24.78500
H  27.48600 -1.24700 25.17300
H  24.18000 -1.52200 24.64700
H  25.59100 -1.56900 23.59600
H  24.21700 -0.43700 23.43200
H  28.34900 1.53700 25.77300
H  27.62500 1.43900 24.14800
H  29.30500 -0.67100 24.02400
H  30.23300 0.63900 24.99200
H  29.63700 0.92600 23.38800
H  31.95100 -0.75600 29.57900
H  31.12500 -0.59700 28.04400
H  31.13800 -2.16500 28.98300
H  29.25400 1.03400 33.63900
H  28.53100 -0.50200 37.49400
H  30.20800 -1.02300 37.43800
H  28.85100 -2.11200 36.88300
Mg -5.89900 25.51800 25.92000
C  -4.39100 26.86200 28.58000
C  -7.11300 23.00500 28.10900
C  -7.29300 23.85800 23.35600
C  -4.33400 27.62300 23.77000
N  -5.80000 25.03800 28.09000
C  -5.27100 25.85000 29.04000
C  -5.73400 25.46000 30.48400
C  -6.25900 24.04600 30.25600
C  -6.40300 23.98600 28.74500
C  -5.44400 22.93200 30.81200
C  -6.77500 26.43300 31.06400
C  -6.63800 26.75100 32.52400
H  -7.62200 26.09800 33.48900
N  -7.11800 23.76900 25.75200
C  -7.47700 22.88800 26.78400
C  -8.38700 21.81500 26.20100
C  -8.52500 22.12300 24.82100
C  -7.67000 23.29900 24.54600
C  -8.84600 20.57800 26.93900
C  -9.30400 21.32600 23.69500
O  -9.15300 21.49400 22.48800
C  -10.29400 20.22800 24.10600
N  -5.64700 25.51600 23.81600
C  -6.36800 24.84400 22.99200
C  -6.13200 25.24100 21.49000
C  -5.28800 26.53300 21.67800
C  -5.02900 26.54200 23.16500
C  -5.45000 24.30900 20.54700
C  -6.02600 27.77800 21.19500
C  -5.17200 28.64300 20.33700
N  -4.59700 26.95200 26.05600
C  -4.07700 27.87100 25.12900
C  -3.20500 28.77700 25.79800
C  -3.23900 28.42100 27.13500
C  -4.13200 27.29400 27.27300
C  -2.40200 29.94300 25.14900
C  -2.79100 28.78400 28.46300
O  -1.94200 29.55600 28.94100
C  -3.63300 27.80100 29.43600
C  -2.71000 27.09800 30.34200
O  -1.83500 26.26700 30.03100
O  -2.97900 27.46100 31.64500
C  -1.93000 27.00800 32.63900
H  -7.58100 22.26700 28.76300
H  -7.69300 23.51300 22.40000
H  -3.96300 28.32300 23.01900
H  -4.89900 25.31300 31.16900
H  -7.23700 23.99000 30.73400
H  -5.64300 22.71200 31.86100
H  -4.41400 23.27900 30.88400
H  -5.53700 22.03200 30.20400
H  -7.81100 26.15600 30.86500
H  -6.66000 27.38200 30.54200
H  -6.80000 27.81600 32.68800
H  -5.66400 26.44600 32.90700
H  -9.93300 20.57500 26.85400
H  -8.59800 20.68900 27.99500
H  -8.44200 19.65100 26.53300
H  -9.73200 19.35000 24.42500
H  -10.80100 19.95700 23.18000
H  -11.08900 20.61700 24.74300
H  -7.03900 25.49800 20.94400
H  -4.25500 26.42700 21.34500
H  -4.85400 23.60100 21.12300
H  -4.64600 24.63400 19.88700
H  -6.18600 23.68800 20.03800
H  -6.48100 28.30800 22.03100
H  -6.89400 27.48900 20.60300
H  -5.35200 28.84200 19.28100
H  -4.13800 28.31200 20.44000
H  -5.21700 29.65200 20.74600
H  -2.93400 30.53400 24.40300
H  -1.47100 29.60200 24.69500
H  -2.17700 30.63500 25.96100
H  -4.36800 28.33000 30.04300
H  -2.24400 26.02900 33.00000
H  -2.07800 27.55600 33.56900
H  -0.89500 27.13500 32.32100

