158

Mg 17.08700 0.36300 27.25400
C  15.95400 2.30100 30.05100
C  18.77000 -1.62400 29.50100
C  18.75200 -0.84300 24.59000
C  15.50000 2.63400 25.15000
N  17.42700 0.44900 29.54300
C  16.73400 1.17400 30.48300
C  17.01100 0.75000 31.92200
C  17.86100 -0.56600 31.67800
C  18.04300 -0.63800 30.14700
C  19.25900 -0.51800 32.38600
C  15.79500 0.45400 32.84600
C  15.59800 1.22300 34.15500
H  16.84700 1.69200 34.94700
N  18.48200 -1.15900 27.08300
C  19.06500 -1.80800 28.12400
C  19.92100 -2.81500 27.56100
C  19.90900 -2.63700 26.11000
C  19.00800 -1.51800 25.86000
C  20.61700 -3.89400 28.41500
C  20.68100 -3.43700 25.07100
O  20.49700 -3.25100 23.87700
C  21.72400 -4.52900 25.44600
N  16.96500 0.72300 25.13300
C  17.77700 0.13900 24.27800
C  17.59200 0.78700 22.82500
C  16.43300 1.75500 22.99300
C  16.23700 1.68600 24.49700
C  18.93100 1.39800 22.30500
C  15.24800 1.49200 22.07900
C  15.62800 1.41700 20.64600
N  15.96000 2.04100 27.43000
C  15.35100 2.84600 26.56500
C  14.66600 3.85400 27.20600
C  14.92500 3.74800 28.57800
C  15.67400 2.57300 28.69500
C  13.76300 4.83500 26.55800
C  14.74500 4.47000 29.89800
O  14.23700 5.53100 30.26000
C  15.30900 3.47700 30.88200
C  16.38700 4.19000 31.64600
O  17.57600 4.24300 31.27000
O  15.85400 4.74200 32.80900
C  16.65100 5.49900 33.72200
H  19.21200 -2.25300 30.27700
H  19.13300 -1.29800 23.67300
H  14.98000 3.43000 24.61300
H  17.65900 1.57700 32.21100
H  17.41200 -1.50700 31.99700
H  19.40500 -1.33200 33.09500
H  19.31400 0.28000 33.12700
H  20.12600 -0.44500 31.72900
H  15.63500 -0.60600 33.04600
H  14.90200 0.74200 32.29300
H  14.94900 0.59100 34.76000
H  15.00200 2.11000 33.94000
H  20.58200 -4.90400 28.00600
H  20.11400 -4.10800 29.35800
H  21.62900 -3.60000 28.69300
H  22.15700 -4.82100 24.48900
H  21.28200 -5.31900 26.05300
H  22.41400 -3.89600 26.00500
H  17.30500 0.03300 22.09200
H  16.72800 2.77300 22.74100
H  18.77200 2.18400 21.56700
H  19.46500 0.61800 21.76200
H  19.60500 1.60900 23.13500
H  14.51500 2.28600 22.22500
H  14.82400 0.54100 22.40200
H  16.66300 1.25700 20.34500
H  15.22800 2.36300 20.28100
H  15.10500 0.57400 20.19400
H  12.95500 5.06200 27.25500
H  13.21600 4.38700 25.72900
H  14.30900 5.72600 26.24900
H  14.47800 3.32100 31.57000
H  16.42100 6.55500 33.57800
H  17.72200 5.30400 33.76700
H  16.12800 5.33900 34.66500
Mg 41.58000 8.99500 29.88000
C  43.51400 10.04900 32.51300
C  39.36600 7.48800 31.98700
C  39.78500 7.69300 27.22000
C  44.11000 9.76700 27.66400
N  41.52400 8.71100 31.98900
C  42.32000 9.40900 32.93400
C  41.67800 9.21400 34.35800
C  40.44500 8.25700 34.08900
C  40.38400 8.27100 32.63100
C  40.54500 6.88000 34.73300
C  41.33400 10.51000 35.16300
C  41.43200 10.28400 36.75300
H  41.38600 11.50800 37.67600
N  39.73300 7.81300 29.61100
C  39.07000 7.25600 30.68200
C  38.02200 6.51200 30.17200
C  37.93600 6.69300 28.78700
C  39.17100 7.42900 28.46700
C  37.03000 5.74800 31.04200
C  36.86400 6.33100 27.75700
O  37.10300 6.44400 26.54500
C  35.46500 5.96500 28.19200
N  41.89400 8.72800 27.75700
C  41.05900 8.21500 26.92800
C  41.62900 8.06000 25.52500
C  43.00500 8.83900 25.61200
C  42.97400 9.15200 27.06600
C  41.66400 6.59200 25.03000
C  43.19700 9.95700 24.60000
C  42.65700 11.30200 25.08500
N  43.33300 9.87900 30.00300
C  44.33200 10.02500 29.05100
C  45.52600 10.65900 29.61900
C  45.17900 10.73900 30.99500
C  43.90400 10.15300 31.16800
C  46.84000 10.96100 28.89200
C  45.74700 10.98200 32.33900
O  46.88800 11.33900 32.64300
C  44.58600 10.70500 33.37600
C  45.10900 9.78300 34.41000
O  45.82600 8.77900 34.18200
O  44.78300 10.23900 35.68700
C  45.15800 9.27900 36.74900
H  38.47000 7.21900 32.55000
H  39.36600 7.29800 26.29200
H  44.91500 9.94600 26.94800
H  42.37300 8.61500 34.94600
H  39.52500 8.68300 34.49000
H  41.33000 6.78400 35.48200
H  40.80600 6.15000 33.96700
H  39.56100 6.59600 35.10600
H  40.34900 10.85100 34.84300
H  41.94400 11.37000 34.88600
H  42.41600 9.85000 36.93100
H  40.72900 9.52600 37.09900
H  37.41700 5.41400 32.00500
H  36.68600 4.82700 30.57200
H  36.17400 6.34400 31.35900
H  35.02800 6.67900 28.88900
H  35.51100 4.96500 28.62500
H  34.81900 6.03500 27.31700
H  40.97600 8.64600 24.87800
H  43.78100 8.10000 25.41300
H  42.67100 6.23000 24.82100
H  41.05500 6.48100 24.13300
H  41.29100 5.95200 25.83000
H  42.78300 9.74900 23.61300
H  44.28300 10.03900 24.57100
H  43.46200 11.94500 25.44300
H  41.86500 11.11000 25.80800
H  42.16600 11.68200 24.18900
H  47.36000 11.55100 29.64700
H  46.65600 11.54800 27.99200
H  47.43400 10.05400 28.77500
H  44.27700 11.67200 33.77300
H  46.22800 9.07200 36.76800
H  44.65600 8.32000 36.61800
H  44.71400 9.69300 37.65400

