158

Mg 8.32300 2.97500 28.00600
C  9.95600 1.64400 30.91700
C  6.42900 4.86300 30.15500
C  6.90700 4.07800 25.26200
C  10.21000 0.65900 26.10300
N  8.21800 3.12500 30.30200
C  9.04600 2.64500 31.23100
C  8.73000 3.24200 32.61400
C  7.46400 4.15100 32.33100
C  7.39400 4.08500 30.85400
C  6.19000 3.80000 33.01600
C  9.98400 4.01100 33.20400
C  9.78400 4.65400 34.58300
H  10.73900 4.29800 35.77200
N  6.83100 4.30800 27.77700
C  6.17900 5.03200 28.75600
C  5.25700 6.01000 28.04000
C  5.41900 5.70700 26.66300
C  6.36100 4.60300 26.50900
C  4.29900 7.02300 28.73900
C  4.64100 6.37900 25.44100
O  4.70600 6.04800 24.23400
C  3.81200 7.55700 25.70300
N  8.66000 2.53300 25.97300
C  7.90200 3.13300 25.00300
C  8.43800 2.73500 23.62300
C  9.42300 1.59200 23.86400
C  9.49000 1.61000 25.38900
C  7.36200 2.32100 22.61300
C  10.75600 1.68900 23.08500
C  11.06200 0.45200 22.25900
N  9.70900 1.43900 28.38700
C  10.44000 0.57400 27.51700
C  11.22500 -0.33300 28.27100
C  11.11300 0.05800 29.59800
C  10.18600 1.13400 29.64000
C  12.04800 -1.39000 27.73200
C  11.58300 -0.17600 30.95700
O  12.41700 -0.94100 31.39600
C  10.90000 0.90400 31.85300
C  10.14600 0.11400 32.88400
O  9.02800 -0.41100 32.71400
O  10.93300 -0.03900 33.96200
C  10.48700 -0.85900 35.05200
H  5.83500 5.54900 30.76300
H  6.48600 4.45100 24.32600
H  10.77500 -0.13200 25.60600
H  8.56600 2.34000 33.20300
H  7.69500 5.18200 32.59800
H  6.40400 3.28200 33.95100
H  5.63600 3.05400 32.44700
H  5.58300 4.68100 33.22400
H  10.14500 4.73700 32.40600
H  10.87100 3.38000 33.18200
H  8.79600 4.61000 35.04100
H  10.09300 5.65900 34.29300
H  4.33000 6.97000 29.82700
H  3.26600 6.78400 28.48900
H  4.64800 8.03000 28.51200
H  3.38500 8.02000 24.81400
H  4.52700 8.31100 26.03300
H  2.98600 7.22900 26.33500
H  8.97800 3.55100 23.14300
H  8.91400 0.66200 23.61200
H  7.44900 1.27400 22.32400
H  7.40000 2.94300 21.71800
H  6.32800 2.35200 22.95800
H  11.56400 1.76300 23.81200
H  10.70400 2.50200 22.36000
H  10.22600 0.02400 21.70400
H  11.55900 -0.35400 22.79900
H  11.89000 0.74000 21.61200
H  12.50700 -1.11900 26.78100
H  11.31900 -2.18100 27.55700
H  12.86700 -1.60500 28.41800
H  11.63300 1.55700 32.32500
H  9.99300 -0.36900 35.89200
H  11.34900 -1.35200 35.50300
H  9.89900 -1.75200 34.84100
Mg 1.56600 42.43800 25.82800
C  2.95000 42.36800 29.03800
C  -1.41200 41.23700 27.15300
C  0.40900 41.73600 22.65100
C  4.71700 43.25100 24.62100
N  0.88300 41.79000 27.86400
C  1.59500 41.89400 29.03200
C  0.67800 41.74400 30.28200
C  -0.66900 41.28400 29.64100
C  -0.38100 41.50000 28.10200
C  -1.19000 39.93400 30.02700
C  0.49100 43.05500 31.07200
C  0.48700 42.89700 32.61000
H  -0.80200 42.27100 33.24400
N  -0.17600 41.49600 24.99100
C  -1.29300 41.21200 25.73900
C  -2.34500 40.79700 24.82100
C  -1.79400 40.76100 23.48300
C  -0.41900 41.25200 23.69800
C  -3.78700 40.53400 25.27400
C  -2.40800 40.18400 22.11800
O  -1.73600 40.24200 21.10600
C  -3.86400 39.64000 22.14600
N  2.41600 42.40500 23.98400
C  1.75200 42.17700 22.78900
C  2.69100 42.47100 21.61300
C  3.78800 43.33900 22.26100
C  3.64600 43.01000 23.73100
C  3.20600 41.10900 21.04600
C  3.56800 44.86900 22.10600
C  4.24100 45.64800 20.95000
N  3.47900 42.79900 26.62100
C  4.68100 43.12600 26.05600
C  5.71100 43.35100 27.03900
C  5.05500 43.06100 28.24200
C  3.71100 42.77400 27.91700
C  7.04600 43.83400 26.86900
C  5.29500 42.90400 29.63200
O  6.29000 42.89500 30.30100
C  3.94100 42.43800 30.23100
C  4.03900 41.11100 30.91100
O  4.13600 39.98200 30.45700
O  4.03000 41.36000 32.25000
C  3.99000 40.16500 33.22600
H  -2.42800 41.11900 27.53400
H  0.12800 41.61900 21.60300
H  5.62800 43.64300 24.16400
H  1.20800 41.06300 30.94800
H  -1.41200 42.04000 29.89200
H  -0.44600 39.32200 30.53700
H  -1.44700 39.39500 29.11500
H  -2.12000 40.16400 30.54700
H  -0.32800 43.69900 30.75200
H  1.37500 43.67900 30.94600
H  0.54700 43.92600 32.96300
H  1.33400 42.28200 32.91500
H  -3.91600 39.47800 25.03600
H  -4.47000 41.22600 24.78100
H  -4.02000 40.75800 26.31500
H  -3.81000 38.65800 22.61700
H  -4.13400 39.56600 21.09300
H  -4.55800 40.32600 22.63100
H  2.11000 43.01000 20.86500
H  4.82300 43.12600 21.99300
H  2.50300 40.30200 21.25400
H  4.17700 40.78100 21.41800
H  3.29200 41.22200 19.96600
H  3.87600 45.43300 22.98600
H  2.51600 45.15200 22.05700
H  3.50000 45.99400 20.23000
H  4.94400 45.01800 20.40500
H  4.81800 46.47700 21.35800
H  7.06900 44.89500 27.11700
H  7.49000 43.78100 25.87500
H  7.63600 43.33200 27.63700
H  3.51700 43.10800 30.97900
H  4.27800 39.20600 32.79600
H  2.92700 40.09100 33.45300
H  4.62400 40.26900 34.10600

