158

Mg 16.67600 -1.20800 27.47600
C  15.76300 0.96900 30.06600
C  18.91400 -2.64900 29.58300
C  18.00700 -2.71700 24.85000
C  14.71500 0.72300 25.31100
N  17.40400 -0.79500 29.58400
C  16.72500 -0.02700 30.47800
C  17.20800 -0.35300 31.89300
C  18.31000 -1.35000 31.60700
C  18.15900 -1.69200 30.19500
C  19.79200 -0.91000 32.02300
C  16.01900 -0.88300 32.77400
C  15.83900 -0.31000 34.13700
H  17.06300 0.47400 34.72300
N  18.21700 -2.56700 27.24200
C  18.99000 -3.08200 28.25600
C  19.79400 -4.22000 27.71300
C  19.56300 -4.22900 26.31900
C  18.54600 -3.16200 26.05700
C  20.60800 -5.12900 28.64300
C  20.28800 -5.10000 25.26700
O  20.18400 -4.96300 24.06700
C  21.34400 -6.13500 25.61800
N  16.43600 -1.02600 25.32800
C  17.11400 -1.75900 24.47100
C  16.80000 -1.46100 23.02800
C  15.83500 -0.23700 23.17200
C  15.56400 -0.20800 24.68400
C  18.04500 -1.14000 22.11400
C  14.51400 -0.45500 22.40300
C  14.44200 0.04100 20.99700
N  15.40600 0.42800 27.61700
C  14.74100 1.15600 26.65600
C  13.99100 2.24700 27.24800
C  14.32400 2.14800 28.61300
C  15.28800 1.06800 28.71000
C  13.09600 3.17100 26.56400
C  14.08400 2.72200 29.97400
O  13.43100 3.67400 30.34400
C  15.01000 1.93400 30.90200
C  15.88200 2.83700 31.61500
O  17.09300 3.03500 31.47600
O  15.17200 3.48100 32.64000
C  15.94500 4.47000 33.43300
H  19.54200 -3.15600 30.31800
H  18.29800 -3.22100 23.92500
H  14.24600 1.40300 24.59700
H  17.61200 0.61000 32.20600
H  18.16400 -2.31700 32.08800
H  19.76500 -0.07000 32.71700
H  20.32900 -0.81300 31.07900
H  20.27100 -1.72500 32.56600
H  16.22100 -1.94700 32.89500
H  15.15200 -0.70300 32.13800
H  15.62600 -1.04400 34.91400
H  14.89300 0.23100 34.10000
H  20.18600 -6.13200 28.57300
H  20.75400 -4.71800 29.64200
H  21.59400 -5.26600 28.19800
H  21.30400 -6.91500 24.85700
H  21.18700 -6.66700 26.55600
H  22.33500 -5.68300 25.64500
H  16.21300 -2.32300 22.71100
H  16.37200 0.64000 22.81200
H  18.93000 -1.68600 22.44500
H  18.29300 -0.08300 22.02400
H  17.78300 -1.51700 21.12500
H  13.68100 0.04100 22.90200
H  14.36700 -1.53400 22.35400
H  13.60300 0.73300 20.93300
H  14.26900 -0.83400 20.37000
H  15.33100 0.59000 20.68700
H  13.41800 4.21300 26.55100
H  12.14800 3.08200 27.09400
H  13.10500 2.83300 25.52800
H  14.35000 1.40900 31.59300
H  16.51300 3.98700 34.22800
H  15.20200 5.03100 34.00000
H  16.51500 5.15100 32.80100
Mg 1.50600 41.75000 25.49300
C  3.68500 42.07000 28.18600
C  -0.84500 40.58500 27.60400
C  -0.19400 40.55900 22.83500
C  4.28900 42.34100 23.28000
N  1.41500 41.57100 27.67400
C  2.37900 41.86200 28.59900
C  1.75300 41.83300 29.96300
C  0.41000 41.09300 29.81100
C  0.28200 41.09000 28.26800
C  0.35300 39.72300 30.46900
C  1.63400 43.32300 30.62000
C  1.33700 43.54200 32.11700
H  1.22200 42.28500 33.01800
N  -0.26300 40.74800 25.29000
C  -1.12800 40.37500 26.22500
C  -2.18300 39.58400 25.70300
C  -1.93500 39.37700 24.31000
C  -0.80800 40.25800 24.06500
C  -3.25500 39.06600 26.63800
C  -2.74200 38.53000 23.30700
O  -2.42600 38.47100 22.13400
C  -3.92600 37.87000 23.79000
N  1.93400 41.64900 23.31800
C  0.97500 41.20100 22.49200
C  1.47800 41.38800 20.98000
C  2.93700 42.01500 21.11700
C  3.10200 41.96800 22.69000
C  1.38800 40.12800 20.10000
C  3.25900 43.36700 20.40400
C  2.45500 44.53700 20.98700
N  3.57800 42.22700 25.59000
C  4.53800 42.38200 24.68700
C  5.83500 42.55300 25.26800
C  5.55000 42.42800 26.70300
C  4.13600 42.19900 26.83000
C  7.12500 42.79100 24.63700
C  6.10100 42.37900 28.02300
O  7.28700 42.33600 28.41300
C  4.91200 42.39500 29.07500
C  5.19200 41.28700 29.94100
O  5.63200 40.19800 29.63600
O  4.92800 41.68300 31.23900
C  5.06100 40.67800 32.25100
H  -1.51200 40.16100 28.35800
H  -0.81000 40.17100 22.02100
H  5.15800 42.65500 22.69900
H  2.54600 41.31800 30.50500
H  -0.44200 41.62600 30.23300
H  -0.23700 39.91600 31.36500
H  1.35700 39.44300 30.79000
H  -0.20800 38.90100 30.02700
H  0.93500 43.87700 29.99200
H  2.62100 43.77100 30.50300
H  0.45100 44.15800 32.27500
H  2.06400 44.28400 32.44800
H  -3.10900 37.99700 26.79300
H  -4.23700 39.28000 26.21400
H  -3.28600 39.54700 27.61600
H  -4.42100 37.35500 22.96600
H  -4.52700 38.68200 24.19900
H  -3.68800 37.16700 24.58800
H  0.85300 42.18100 20.57000
H  3.63800 41.31100 20.66900
H  1.00700 39.37200 20.78700
H  2.36900 39.91900 19.67300
H  0.74000 40.43500 19.28000
H  3.25400 43.19600 19.32700
H  4.32900 43.43000 20.60400
H  1.66000 44.86000 20.31500
H  3.07700 45.40100 21.22000
H  2.04500 44.24000 21.95200
H  7.31900 41.88800 24.05800
H  7.90400 42.97800 25.37700
H  7.13100 43.67100 23.99400
H  4.79900 43.35300 29.58200
H  4.66800 39.70100 31.97000
H  4.71300 40.96300 33.24300
H  6.11700 40.42900 32.35900

