158

Mg 48.47200 15.69900 29.35400
C  46.21900 15.40800 31.82200
C  50.47400 17.48200 31.37200
C  50.48600 16.35100 26.73900
C  46.03300 14.49400 27.08600
N  48.22400 16.55200 31.29400
C  47.34400 16.13500 32.19700
C  47.77600 16.39100 33.64400
C  48.96400 17.38300 33.41900
C  49.26200 17.13600 31.93500
C  48.68000 18.87000 33.64600
C  48.15500 15.07300 34.34700
C  47.86800 15.14100 35.89200
H  47.70500 16.54200 36.57800
N  50.26100 16.74900 29.09300
C  50.93200 17.34100 30.08500
C  52.27100 17.56900 29.62800
C  52.29300 17.42900 28.23500
C  50.95500 16.85600 27.96200
C  53.33900 18.21800 30.53000
C  53.33900 17.62500 27.22700
O  53.12300 17.43800 26.04000
C  54.78200 18.03600 27.65800
N  48.19300 15.69600 27.22100
C  49.26800 15.86900 26.36000
C  48.96800 15.50700 24.87800
C  47.63200 14.70700 25.09300
C  47.21900 14.97700 26.56300
C  48.81200 16.76500 24.08100
C  47.78800 13.25100 24.74500
C  48.46700 12.26800 25.73700
N  46.52200 15.00800 29.46400
C  45.64600 14.51700 28.55000
C  44.42300 14.09200 29.22000
C  44.62400 14.40100 30.52500
C  45.91600 14.96400 30.57200
C  43.25600 13.43000 28.65000
C  44.08400 14.32900 31.85000
O  42.98800 13.82400 32.10400
C  45.14600 14.93500 32.79400
C  44.47600 16.04100 33.55300
O  43.85900 16.92500 32.98900
O  44.49100 15.75200 34.91100
C  43.76600 16.79100 35.64700
H  51.15900 18.11700 31.93900
H  51.13500 16.46300 25.86700
H  45.33800 14.08300 26.35100
H  46.99800 16.90000 34.21400
H  49.88400 17.07800 33.91800
H  47.65700 19.13400 33.91500
H  48.85800 19.34400 32.68100
H  49.44000 19.30700 34.29400
H  49.23300 14.91500 34.32300
H  47.57800 14.24400 33.93800
H  48.62300 14.70600 36.54700
H  46.99000 14.49800 35.95600
H  53.53700 19.22900 30.17500
H  54.24700 17.65400 30.31400
H  53.10000 18.21500 31.59400
H  54.74900 19.07700 27.97700
H  55.51000 17.99500 26.84800
H  55.26400 17.41600 28.41400
H  49.80100 14.88200 24.55700
H  46.82100 15.08200 24.46900
H  49.66500 16.70800 23.40500
H  48.70600 17.71600 24.60300
H  47.93500 16.78600 23.43400
H  48.41700 13.20800 23.85600
H  46.80900 12.88400 24.44000
H  49.29200 11.84500 25.16200
H  47.81500 11.47100 26.09300
H  48.87700 12.80300 26.59400
H  42.43200 13.94300 29.14600
H  43.27900 12.38300 28.95200
H  43.17300 13.45000 27.56300
H  45.39500 14.19800 33.55700
H  42.70000 16.58300 35.55200
H  44.03900 17.81900 35.41300
H  43.89600 16.63300 36.71800
Mg -10.01500 16.81500 40.98400
C  -6.49300 16.65200 40.94900
C  -9.83100 20.12300 40.66100
C  -13.21500 16.74000 39.87900
C  -9.89400 13.22400 40.78100
N  -8.35300 18.24700 40.78200
C  -6.97300 17.97200 40.69300
C  -6.12800 19.23800 40.60700
C  -7.28100 20.24000 41.00100
C  -8.59400 19.52500 40.80400
C  -7.15000 21.02400 42.33800
C  -5.45300 19.42300 39.20900
C  -3.95100 19.01100 39.09100
H  -3.52300 18.19900 37.83900
N  -11.46300 18.23600 40.57700
C  -11.12800 19.58600 40.51400
C  -12.29200 20.33400 40.24600
C  -13.34600 19.40600 39.96300
C  -12.77000 18.06300 40.14200
C  -12.25200 21.75300 39.93700
C  -14.69900 19.73000 39.60900
O  -15.05600 20.92600 39.61200
C  -15.79100 18.66300 39.37300
N  -11.37200 15.21400 40.57800
C  -12.61600 15.47600 40.05200
C  -13.36500 14.16400 39.62800
C  -12.30500 13.12500 39.92900
C  -11.09300 13.87900 40.42000
C  -14.76500 14.03100 40.29600
C  -12.04200 11.99800 38.80700
C  -13.29900 11.46000 38.08000
N  -8.55600 15.24000 41.02600
C  -8.71200 13.86900 41.01400
C  -7.36400 13.23500 41.23600
C  -6.48800 14.29200 41.20800
C  -7.24100 15.47500 41.06300
C  -7.00100 11.89200 41.44000
C  -5.11700 14.69700 41.26300
O  -4.12600 14.00500 41.46700
C  -5.02000 16.22000 41.04500
C  -4.30500 16.69100 42.27000
O  -3.10300 16.80300 42.43200
O  -5.18700 17.23200 43.16400
C  -4.66800 17.72300 44.42000
H  -9.68400 21.20400 40.60800
H  -14.21600 16.64000 39.45400
H  -9.93400 12.13400 40.72100
H  -5.38500 19.13900 41.39900
H  -7.21000 20.94800 40.17500
H  -8.07100 20.89500 42.90700
H  -7.07100 22.09700 42.16500
H  -6.36400 20.62300 42.97800
H  -5.42500 20.45900 38.87200
H  -5.93800 18.73700 38.51500
H  -3.77900 18.56500 40.07000
H  -3.31100 19.89300 39.08600
H  -12.36200 21.91600 38.86500
H  -11.34200 22.33700 40.07600
H  -13.06200 22.26200 40.45900
H  -16.75800 19.16300 39.30500
H  -15.65900 18.04700 40.26200
H  -15.67900 18.02600 38.49600
H  -13.73500 14.19900 38.60300
H  -12.53800 12.49900 40.79100
H  -14.71500 13.16900 40.96000
H  -15.62900 13.83400 39.66100
H  -14.96800 14.87200 40.95900
H  -11.63800 11.15400 39.36500
H  -11.39900 12.52500 38.10200
H  -13.31500 11.60900 37.00000
H  -14.11200 12.07900 38.45800
H  -13.57800 10.46600 38.43000
H  -6.98900 11.68100 42.50900
H  -5.94800 11.82500 41.16600
H  -7.64600 11.20200 40.89700
H  -4.41700 16.44900 40.16600
H  -4.07900 18.62200 44.23400
H  -4.14200 16.99500 45.03700
H  -5.54200 17.95500 45.02900

