158

Mg 48.15000 15.95100 28.49100
C  46.06300 15.72800 31.32100
C  50.40800 17.61700 30.38300
C  49.71800 16.65100 25.67800
C  45.30500 15.02500 26.58400
N  48.19500 16.70600 30.55100
C  47.29200 16.39900 31.58700
C  47.85700 16.93500 32.91700
C  49.05400 17.84500 32.49300
C  49.23100 17.44600 31.06400
C  48.94100 19.37300 32.84300
C  48.25000 15.79600 33.80300
C  47.83100 15.96400 35.31600
H  47.46300 17.41200 35.80300
N  49.93400 16.87600 28.06200
C  50.79600 17.43700 29.02600
C  52.00500 17.88700 28.28100
C  51.87300 17.44900 26.92100
C  50.44900 16.97700 26.86200
C  53.13000 18.72200 28.92100
C  52.76900 17.39600 25.76200
O  52.48100 16.95100 24.69500
C  54.26200 17.68600 26.01400
N  47.61500 15.70300 26.44700
C  48.48300 16.01600 25.49100
C  47.91000 15.80000 24.08700
C  46.57200 15.10000 24.34500
C  46.48400 15.32200 25.87000
C  47.77300 17.01700 23.03700
C  46.57900 13.56700 24.00600
C  47.43400 12.61000 24.89200
N  46.12300 15.30100 28.81100
C  45.12700 14.98100 28.01100
C  43.98100 14.42900 28.76400
C  44.31700 14.68800 30.07000
C  45.59400 15.29300 30.02300
C  42.86700 13.64700 28.19500
C  43.88700 14.60800 31.43400
O  42.86600 14.11300 31.93100
C  44.94200 15.40900 32.25400
C  44.21300 16.53400 32.94700
O  43.80100 17.55400 32.45700
O  44.08000 16.26400 34.30100
C  43.18700 17.16900 35.01200
H  51.14700 18.10300 31.02400
H  50.09800 16.91300 24.68800
H  44.54800 14.68200 25.87500
H  47.00500 17.49400 33.30400
H  49.99900 17.69900 33.01600
H  49.10700 20.00600 31.97100
H  49.57200 19.59400 33.70400
H  47.90900 19.53600 33.15300
H  49.33900 15.78300 33.77600
H  47.98000 14.86600 33.30300
H  48.69600 15.61800 35.88200
H  47.04700 15.23200 35.51200
H  53.33900 19.53200 28.22200
H  53.95400 18.07000 29.21200
H  52.65000 19.04500 29.84500
H  54.68800 17.44600 26.98800
H  54.33500 18.76200 25.85400
H  54.90900 17.30500 25.22400
H  48.57300 15.10600 23.57000
H  45.74200 15.54300 23.79500
H  48.20100 17.95900 23.38100
H  46.73600 17.19600 22.75200
H  48.26700 16.66400 22.13200
H  47.01500 13.57000 23.00700
H  45.55800 13.20300 23.89100
H  47.86400 11.97700 24.11600
H  46.89200 11.92100 25.54000
H  48.32400 12.94800 25.42300
H  43.35500 12.69700 27.97800
H  42.63600 14.07300 27.21800
H  41.97900 13.44000 28.79300
H  45.48600 14.83500 33.00400
H  42.43700 17.52600 34.30700
H  43.86500 17.90400 35.44600
H  42.66500 16.64200 35.81100
Mg 47.96600 34.86800 26.18100
C  46.44900 33.62600 29.27700
C  48.45100 37.79700 27.90900
C  49.07900 35.99900 23.34500
C  47.31000 31.77500 24.81300
N  47.52400 35.52100 28.37500
C  46.98200 34.88300 29.44200
C  47.23100 35.67900 30.78600
C  47.48100 37.08800 30.20300
C  47.87100 36.79400 28.70800
C  46.22400 38.08400 30.30300
C  48.39900 35.30900 31.76600
C  47.99100 35.00300 33.20800
H  46.76000 35.61900 33.78300
N  48.56800 36.63400 25.68700
C  48.83900 37.68400 26.55300
C  49.55400 38.73800 25.85000
C  49.73600 38.25300 24.49300
C  49.07800 36.92500 24.41300
C  49.94900 40.09900 26.51900
C  50.46100 38.90200 23.36600
O  50.45700 38.44100 22.24200
C  51.22800 40.25100 23.64500
N  47.99900 34.03400 24.26300
C  48.67400 34.64800 23.26300
C  48.66500 33.78000 22.00100
C  48.28800 32.34200 22.56300
C  47.84300 32.73300 23.93900
C  47.69900 34.34600 20.97600
C  49.52200 31.27500 22.61700
C  49.16300 29.93300 21.92800
N  47.00600 33.15600 26.79900
C  46.76900 31.96300 26.07500
C  45.99600 31.02000 26.82600
C  45.83900 31.64300 28.10300
C  46.49800 32.90800 28.04600
C  45.52400 29.69700 26.38400
C  45.15800 31.56900 29.45600
O  44.40500 30.74900 29.88900
C  45.61100 32.76300 30.25300
C  46.46400 32.23400 31.38900
O  47.69900 32.24200 31.39900
O  45.66700 31.84600 32.48500
C  46.35100 31.35300 33.66700
H  48.37100 38.81800 28.28700
H  49.53100 36.40200 22.43600
H  47.25800 30.79400 24.33500
H  46.31000 35.72900 31.36700
H  48.27200 37.59300 30.75800
H  46.45700 38.92500 30.95600
H  45.29400 37.60900 30.61600
H  46.05700 38.46700 29.29600
H  49.12100 36.12600 31.78000
H  48.97100 34.44200 31.43200
H  48.88700 35.25900 33.77400
H  47.95700 33.93600 33.42600
H  50.11700 40.97600 25.89400
H  50.81200 40.09400 27.18500
H  49.05300 40.42500 27.04600
H  51.91100 40.32800 22.79900
H  51.77100 40.08200 24.57500
H  50.51300 41.07200 23.58300
H  49.66900 33.66600 21.59200
H  47.44100 31.98100 21.97900
H  46.80400 33.72700 20.91600
H  48.14900 34.59000 20.01400
H  47.38300 35.31600 21.35900
H  49.69500 30.87900 23.61700
H  50.43400 31.61700 22.12700
H  50.02200 29.43300 21.48000
H  48.52700 30.19100 21.08100
H  48.64200 29.30700 22.65300
H  46.38900 29.05900 26.20300
H  45.04400 29.85600 25.41800
H  44.85900 29.26600 27.13300
H  44.77100 33.32800 30.65700
H  46.07400 30.30600 33.78800
H  45.81000 31.85900 34.46600
H  47.42400 31.33600 33.85800

