158

Mg -1.24300 17.94700 27.35300
C  -2.21800 15.80400 30.08100
C  -1.53800 20.63200 29.31900
C  -0.95500 19.70500 24.56300
C  -1.46400 14.85000 25.34200
N  -1.85400 18.15300 29.41400
C  -2.05800 17.21200 30.40300
C  -2.37800 17.80600 31.76900
C  -2.31800 19.32900 31.39800
C  -1.82500 19.39700 29.99200
C  -3.68300 20.16100 31.74700
C  -1.27600 17.53700 32.87300
C  -1.71800 17.10000 34.20400
H  -0.61400 16.48100 35.14300
N  -1.16200 19.85800 27.01800
C  -1.27100 20.88000 27.96700
C  -1.04000 22.19600 27.31300
C  -0.91600 21.94300 25.93100
C  -0.97500 20.47600 25.76800
C  -1.20500 23.57700 27.98500
C  -0.82200 22.90000 24.68700
O  -0.87900 22.44500 23.52000
C  -0.67900 24.37800 24.89300
N  -1.53700 17.35100 25.23300
C  -1.17500 18.29500 24.33200
C  -0.90300 17.62300 22.91500
C  -0.88400 16.11600 23.27500
C  -1.33200 16.06500 24.74300
C  -1.80500 18.05700 21.75600
C  0.41800 15.34600 23.01100
C  1.68600 15.82900 23.77500
N  -1.79100 15.78200 27.59200
C  -1.68500 14.69800 26.73500
C  -2.00100 13.46000 27.40600
C  -2.26200 13.89100 28.73800
C  -2.15500 15.25300 28.80700
C  -2.07400 11.96800 26.81800
C  -2.70500 13.31600 30.03300
O  -3.00700 12.14900 30.34900
C  -2.67000 14.61600 30.91700
C  -1.66300 14.32700 32.01700
O  -0.46000 14.43700 31.82800
O  -2.22200 13.72000 33.10800
C  -1.27100 13.06000 34.08000
H  -1.71300 21.45100 30.02000
H  -0.82000 20.20700 23.60200
H  -1.63300 13.97400 24.71300
H  -3.33800 17.39100 32.07600
H  -1.64700 19.86400 32.07000
H  -3.90800 20.82000 30.90900
H  -3.44000 20.80500 32.59200
H  -4.48500 19.45100 31.95000
H  -0.78600 18.46200 33.17600
H  -0.42900 16.90900 32.59600
H  -2.40700 16.26800 34.05900
H  -2.29400 17.86100 34.73100
H  -1.86600 23.52400 28.85000
H  -1.72100 24.28200 27.33400
H  -0.25600 24.03100 28.27200
H  0.11800 24.38700 25.63600
H  -1.62200 24.77800 25.26500
H  -0.44300 24.84400 23.93600
H  0.07300 18.01000 22.62200
H  -1.64200 15.52400 22.76100
H  -2.86900 17.86400 21.88900
H  -1.61900 17.39100 20.91300
H  -1.57300 19.07900 21.45700
H  0.59600 15.43100 21.93900
H  0.22900 14.27900 23.12000
H  2.12300 14.84700 23.95800
H  1.44700 16.38900 24.67900
H  2.29800 16.35000 23.03800
H  -1.31200 11.35000 27.29300
H  -1.87500 11.99900 25.74700
H  -3.02600 11.53900 27.13000
H  -3.58300 14.77900 31.48900
H  -1.91300 13.07800 34.96100
H  -0.29200 13.49800 34.27600
H  -1.15100 12.02100 33.77500
Mg 44.76600 4.34500 47.06500
C  43.27700 7.56000 46.32300
C  41.64200 2.99200 46.72000
C  46.24200 1.40900 46.84000
C  47.90700 5.93700 46.72700
N  42.78000 5.26500 46.59500
C  42.35600 6.48700 46.23900
C  40.93100 6.56100 45.81000
C  40.34000 5.13300 46.33900
C  41.63200 4.40800 46.74600
C  39.31300 5.05100 47.55900
C  40.98500 6.74500 44.24800
C  40.47800 8.05500 43.59400
H  39.29500 7.87600 42.65000
N  44.06200 2.44300 46.69800
C  42.75000 2.05200 46.68400
C  42.67200 0.60900 46.35300
C  44.01100 0.21000 46.21200
C  44.82100 1.31300 46.63200
C  41.47800 -0.19600 46.12200
C  44.57400 -1.13200 45.78100
O  43.77900 -1.97300 45.38100
C  46.04300 -1.55100 45.90900
N  46.77500 3.75500 46.68200
C  47.13800 2.49500 46.91400
C  48.63700 2.23800 46.89100
C  49.23200 3.73000 46.65400
C  47.87500 4.52700 46.64300
C  49.26000 1.47700 48.05200
C  49.93300 3.80500 45.32900
C  51.19800 4.74200 45.25500
N  45.48100 6.36500 46.93200
C  46.78300 6.79200 46.80700
C  46.75800 8.28900 46.71500
C  45.42900 8.62400 46.66200
C  44.65600 7.42700 46.70100
C  47.95700 9.13400 46.68900
C  44.43600 9.68800 46.46700
O  44.61200 10.86700 46.31700
C  42.95700 9.04700 46.26900
C  42.02800 9.57800 47.21700
O  41.66500 9.04300 48.29700
O  41.55700 10.84700 46.76500
C  40.83800 11.68300 47.76300
H  40.63700 2.57200 46.79700
H  46.80700 0.48600 46.98100
H  48.90600 6.37900 46.73400
H  40.49500 7.41400 46.33000
H  39.89700 4.61100 45.49000
H  39.71400 4.67800 48.50200
H  38.48900 4.39600 47.27500
H  38.82400 6.01400 47.70300
H  40.30300 6.01200 43.81700
H  41.96600 6.56600 43.80800
H  41.30500 8.41500 42.98300
H  40.21100 8.67800 44.44800
H  41.75700 -1.06000 46.72400
H  41.45100 -0.49900 45.07500
H  40.62100 0.37400 46.48000
H  46.70100 -0.81900 45.44100
H  46.17900 -2.56500 45.53300
H  46.16000 -1.58300 46.99200
H  48.81400 1.54400 46.06900
H  49.74500 4.16300 47.51200
H  48.60000 1.31400 48.90500
H  50.16400 1.99300 48.37400
H  49.42200 0.45300 47.71500
H  49.21400 4.19400 44.60800
H  50.20600 2.76900 45.13000
H  52.03400 4.23400 45.73600
H  51.01100 5.67900 45.78000
H  51.48000 4.82200 44.20500
H  47.64500 10.01900 47.24400
H  48.07800 9.46200 45.65700
H  48.89300 8.71000 47.05000
H  42.52400 9.30900 45.30400
H  39.78000 11.42300 47.77900
H  40.93900 12.76200 47.64300
H  41.36500 11.57600 48.71100

