158

Mg 44.65800 3.27700 47.11600
C  42.28500 5.85400 47.02500
C  42.12200 0.93300 47.06200
C  47.00200 0.83600 46.83200
C  47.22200 5.63000 46.74400
N  42.40900 3.46400 47.00700
C  41.63700 4.59700 47.13300
C  40.14400 4.21600 47.14700
C  40.18200 2.57400 47.24800
C  41.64100 2.30400 47.08500
C  39.64800 1.97100 48.55400
C  39.29400 4.69900 45.94100
C  39.88400 4.54600 44.48400
H  38.94700 4.55600 43.25400
N  44.55400 1.17700 46.93700
C  43.40700 0.44000 46.94600
C  43.75400 -0.94800 46.85000
C  45.19200 -1.00700 46.64500
C  45.68500 0.38500 46.84600
C  42.73400 -2.05500 46.88600
C  45.98800 -2.31000 46.41000
O  45.37900 -3.38200 46.42400
C  47.40000 -2.24700 46.10600
N  46.86300 3.25700 46.70500
C  47.61000 2.08800 46.84300
C  49.02900 2.41700 47.18900
C  49.12000 3.93600 46.95000
C  47.68000 4.32300 46.69700
C  49.48400 1.95700 48.60400
C  50.01200 4.51400 45.84000
C  51.19400 3.65700 45.23100
N  44.79100 5.34200 46.94300
C  45.89100 6.22900 46.76100
C  45.34800 7.62700 46.69900
C  43.99500 7.46400 46.93600
C  43.67000 6.09600 46.93700
C  46.14800 8.95700 46.53900
C  42.79200 8.28100 47.04000
O  42.47500 9.45500 46.86000
C  41.58200 7.24400 47.11500
C  40.83100 7.52500 48.36800
O  41.39000 7.77500 49.44600
O  39.50700 7.31700 48.17700
C  38.60900 7.66100 49.23400
H  41.32000 0.19900 47.16100
H  47.79400 0.09200 46.94700
H  47.96000 6.42600 46.86700
H  39.67000 4.58100 48.05800
H  39.55500 2.23000 46.42600
H  38.81100 1.32400 48.29300
H  39.44700 2.90500 49.07900
H  40.41700 1.40700 49.08100
H  39.08800 5.75800 46.09700
H  38.34800 4.18100 46.09300
H  40.38600 3.57900 44.46000
H  40.57300 5.34600 44.21300
H  43.19000 -2.69500 47.64200
H  42.65200 -2.62500 45.96100
H  41.79500 -1.76700 47.35800
H  47.66000 -1.69700 45.20200
H  47.65300 -3.30600 46.04100
H  47.96000 -2.04900 47.01900
H  49.62900 1.92700 46.42200
H  49.33400 4.46400 47.87900
H  49.13000 0.94200 48.78300
H  49.22900 2.63800 49.41600
H  50.56600 2.05700 48.69000
H  50.38900 5.47400 46.19200
H  49.42000 4.76100 44.95900
H  51.40400 2.66300 45.62500
H  52.17300 4.13500 45.25400
H  50.95300 3.51800 44.17700
H  45.87900 9.60600 47.37200
H  46.06000 9.39700 45.54500
H  47.16500 8.59200 46.68300
H  40.86900 7.48000 46.32500
H  37.79600 8.27600 48.84800
H  39.11200 8.10800 50.09100
H  38.17600 6.74200 49.62800
Mg 35.84400 1.66300 29.80300
C  33.28100 2.86100 31.88600
C  37.95500 1.63300 32.51100
C  38.24800 0.74200 27.66600
C  33.49700 1.78500 27.03600
N  35.63100 2.29500 31.93900
C  34.45800 2.48900 32.61700
C  34.58100 2.19900 34.12800
C  36.08000 2.09600 34.33200
C  36.63400 2.04800 32.86100
C  36.74500 3.06300 35.29500
C  33.83000 0.92300 34.61600
C  33.28800 0.95900 36.13200
H  33.83800 2.02700 37.09600
N  37.87600 1.20800 30.07500
C  38.51900 1.18500 31.27600
C  39.84800 0.81900 30.97500
C  39.98600 0.56500 29.60900
C  38.71600 0.84400 29.01900
C  40.94600 0.74300 32.07300
C  41.16300 0.16200 28.84400
O  41.04800 -0.27100 27.69800
C  42.52300 0.05800 29.46100
N  35.88200 1.35400 27.65500
C  37.05200 1.00800 27.03000
C  36.83600 0.88500 25.52700
C  35.29400 1.05200 25.31800
C  34.81600 1.41200 26.71300
C  37.63700 2.01500 24.70000
C  34.51800 -0.14000 24.75300
C  34.17900 -1.13400 25.78400
N  33.79900 2.25000 29.38700
C  33.03500 2.26700 28.24400
C  31.73800 2.72600 28.65200
C  31.78400 2.99100 30.02200
C  33.10000 2.70300 30.46200
C  30.55500 2.80100 27.67700
C  30.95800 3.36000 31.21800
O  29.80600 3.72600 31.27100
C  31.94300 3.17000 32.47400
C  31.87500 4.36300 33.43500
O  31.91200 5.54200 33.15500
O  31.54600 3.90300 34.68900
C  31.12200 4.81900 35.70900
H  38.58300 1.42400 33.38000
H  39.01000 0.50600 26.91900
H  32.77600 1.79700 26.21700
H  34.22500 3.09700 34.63300
H  36.31700 1.09400 34.69000
H  37.40100 2.61300 36.04100
H  35.96200 3.67300 35.74500
H  37.49400 3.75500 34.91100
H  34.49600 0.06200 34.55500
H  32.92200 0.77300 34.03200
H  33.63400 -0.00300 36.50900
H  32.20400 0.85000 36.10400
H  41.29600 -0.24200 32.38300
H  40.58500 1.24200 32.97300
H  41.76600 1.31000 31.63100
H  42.80300 0.96300 30.00000
H  43.26000 -0.23200 28.71200
H  42.45600 -0.76800 30.16900
H  37.16700 -0.06800 25.11400
H  35.06700 1.88900 24.65700
H  38.51300 1.78700 24.09400
H  38.06100 2.71100 25.42500
H  36.91000 2.54400 24.08400
H  35.05300 -0.47400 23.86400
H  33.57900 0.29600 24.41200
H  34.64600 -2.04400 25.41000
H  33.10900 -1.21600 25.97100
H  34.79800 -0.98800 26.67000
H  30.34600 1.83800 27.21000
H  30.89000 3.41900 26.84400
H  29.68100 3.25300 28.14600
H  31.44600 2.37200 33.02500
H  30.66500 4.38200 36.59700
H  30.37800 5.38700 35.15100
H  32.02300 5.34700 36.02000

