158

Mg 8.32100 3.45600 27.65800
C  9.56800 1.86100 30.45300
C  6.14700 5.32200 29.62700
C  7.15100 4.82700 24.83000
C  9.96400 0.98400 25.65000
N  7.88100 3.54600 29.78200
C  8.58100 2.88000 30.77800
C  8.10300 3.25900 32.12000
C  6.96100 4.28600 31.85200
C  7.00200 4.48100 30.34700
C  5.56300 3.94100 32.40200
C  9.19700 3.86200 32.98200
C  8.72300 4.47400 34.34400
H  9.61200 4.17800 35.54000
N  6.85100 4.86000 27.25400
C  6.03800 5.52100 28.19000
C  5.18600 6.46100 27.53800
C  5.56600 6.42300 26.11800
C  6.60200 5.35800 25.99800
C  4.31500 7.45800 28.38900
C  5.08500 7.22700 24.92400
O  5.64000 7.18800 23.81100
C  4.04000 8.32900 25.17900
N  8.70100 3.12600 25.54600
C  8.06600 3.84000 24.58600
C  8.47100 3.38900 23.15600
C  9.11200 1.98700 23.42800
C  9.33100 2.00600 24.99100
C  7.30000 3.26600 22.07400
C  10.46100 1.75500 22.56000
C  10.54400 0.56600 21.59100
N  9.43600 1.68100 27.92600
C  10.13900 0.89800 27.03500
C  10.84500 -0.07000 27.83000
C  10.78800 0.39300 29.13700
C  9.83400 1.44100 29.18800
C  11.54900 -1.23100 27.32300
C  11.24600 0.05400 30.43600
O  12.02600 -0.84300 30.86500
C  10.42500 1.04100 31.35900
C  9.65100 0.32100 32.34800
O  8.55700 -0.18200 32.21900
O  10.29500 0.40800 33.58200
C  9.65000 -0.33800 34.73700
H  5.45300 5.86800 30.27000
H  6.64000 5.33000 24.00700
H  10.28000 0.21200 24.94500
H  7.72000 2.38000 32.63800
H  7.20800 5.25600 32.28300
H  5.22400 4.75000 33.05000
H  5.55600 3.04900 33.02800
H  4.74300 3.79300 31.70000
H  9.65800 4.69000 32.44300
H  9.92900 3.13400 33.33000
H  7.82200 3.95400 34.66800
H  8.55900 5.54200 34.19900
H  3.37500 7.60500 27.85800
H  4.76900 8.44800 28.41700
H  3.93400 6.98900 29.29600
H  4.49200 9.15400 25.73000
H  3.19100 7.99500 25.77500
H  3.63800 8.48300 24.17800
H  9.24700 4.02700 22.73500
H  8.46200 1.12800 23.26300
H  6.29700 3.62500 22.30400
H  7.32900 2.25900 21.65900
H  7.64000 3.95900 21.30500
H  11.18800 1.72600 23.37100
H  10.76400 2.64200 22.00400
H  10.88300 0.87200 20.60100
H  9.63600 -0.03200 21.52200
H  11.33900 -0.13900 21.83400
H  12.16600 -0.93600 26.47400
H  10.80200 -1.97700 27.05100
H  12.12200 -1.58900 28.17800
H  11.09500 1.72800 31.87500
H  9.13000 -1.26500 34.49600
H  8.88400 0.28100 35.20500
H  10.30300 -0.53500 35.58700
Mg -2.55000 34.62300 26.45800
C  -4.23400 32.90600 28.81400
C  -0.97000 36.51500 28.78500
C  -0.98900 36.38000 23.89300
C  -4.34800 32.72000 23.97100
N  -2.83000 34.88600 28.56800
C  -3.39100 33.89600 29.33800
C  -3.13000 34.16500 30.84100
C  -2.36100 35.47500 30.75400
C  -1.98500 35.62200 29.29300
C  -3.01300 36.80300 31.26100
C  -2.26200 32.91700 31.36500
C  -2.60500 32.39600 32.79400
H  -1.52600 32.44000 33.96300
N  -1.12500 36.30400 26.34200
C  -0.58500 36.89500 27.47700
C  0.35800 37.87400 26.98600
C  0.32600 37.86400 25.61200
C  -0.59800 36.79000 25.22000
C  1.23500 38.75100 27.93900
C  1.11100 38.71000 24.58900
O  0.88700 38.72100 23.37900
C  2.21300 39.62400 25.18600
N  -2.59700 34.54800 24.35700
C  -1.82500 35.28100 23.50300
C  -2.11600 35.00300 22.00200
C  -2.91400 33.73000 22.11200
C  -3.36100 33.66300 23.59800
C  -2.75300 36.15100 21.32900
C  -2.27800 32.42400 21.46000
C  -1.22100 31.66300 22.26100
N  -4.11200 33.23100 26.37300
C  -4.62900 32.40500 25.35400
C  -5.62900 31.44100 25.92400
C  -5.46000 31.55000 27.29900
C  -4.53400 32.70200 27.47700
C  -6.47000 30.46200 25.17300
C  -5.87200 31.06800 28.57300
O  -6.67100 30.12800 28.82900
C  -5.09200 31.89500 29.64000
C  -6.02400 32.48400 30.66400
O  -6.74100 33.47300 30.41800
O  -6.08600 31.78600 31.82100
C  -7.01300 32.31700 32.90500
H  -0.53000 37.22500 29.48800
H  -0.54300 36.90300 23.04500
H  -4.79600 32.03400 23.25000
H  -4.04700 34.36900 31.39500
H  -1.41000 35.38300 31.27800
H  -3.55700 37.29300 30.45400
H  -2.21600 37.46500 31.59900
H  -3.69700 36.69600 32.10300
H  -1.21800 33.17800 31.53900
H  -2.26800 32.10800 30.63500
H  -3.00600 31.38600 32.71700
H  -3.48100 32.98500 33.06400
H  1.16000 38.38500 28.96300
H  0.92400 39.79000 27.83500
H  2.26900 38.62200 27.61900
H  1.76700 40.28700 25.92800
H  2.69600 40.27600 24.45800
H  2.91400 38.92800 25.64600
H  -1.15100 34.73900 21.57100
H  -3.82200 33.94500 21.54800
H  -1.85700 36.54900 20.85300
H  -3.03200 36.95800 22.00600
H  -3.59500 35.91300 20.67900
H  -1.79400 32.75800 20.54300
H  -3.13000 31.77800 21.24700
H  -1.61800 30.64800 22.26900
H  -1.12500 32.01300 23.28900
H  -0.22900 31.88100 21.86500
H  -7.31500 30.26200 25.83200
H  -5.85800 29.57000 25.30700
H  -6.77100 30.93000 24.23600
H  -4.44100 31.17900 30.14100
H  -7.72000 31.57000 33.26600
H  -7.54400 33.20300 32.55700
H  -6.44500 32.61900 33.78500

