158

Mg 0.80900 8.01900 27.04600
C  1.70100 10.05200 29.73400
C  0.71900 5.37100 29.25000
C  0.58600 6.02900 24.32300
C  1.09100 10.72500 24.92000
N  1.17300 7.78100 29.18900
C  1.31000 8.76000 30.11600
C  1.08200 8.28200 31.57800
C  1.17400 6.72900 31.29000
C  0.95900 6.65000 29.78400
C  2.49100 6.03400 31.79600
C  -0.20100 8.79700 32.31200
C  -0.22000 8.91700 33.81800
H  1.00700 8.55400 34.66100
N  0.72600 5.94400 26.81400
C  0.68100 5.06100 27.87200
C  0.73000 3.70700 27.23500
C  0.62100 3.86300 25.83000
C  0.64000 5.33500 25.61900
C  0.72000 2.40600 27.98700
C  0.46400 2.90700 24.75400
O  0.45100 3.31200 23.60700
C  0.30400 1.43100 24.96600
N  1.01200 8.33200 24.88900
C  0.63900 7.39800 24.00300
C  0.61100 7.93800 22.53300
C  0.38300 9.49200 22.88400
C  0.78600 9.50700 24.33200
C  1.91000 7.69400 21.72100
C  -1.05800 9.87300 22.45000
C  -1.21500 10.86100 21.23200
N  1.45200 10.01400 27.20100
C  1.50600 10.98500 26.31000
C  1.99100 12.15300 26.90900
C  2.14000 11.83600 28.30600
C  1.78800 10.53500 28.42800
C  1.99800 13.57000 26.33700
C  2.44000 12.44300 29.58000
O  2.83300 13.51900 30.05700
C  2.10800 11.30500 30.59000
C  3.33900 11.16400 31.45700
O  4.34300 10.58200 31.16400
O  3.05600 11.79000 32.61300
C  4.04400 11.80300 33.67900
H  0.66600 4.57500 29.99500
H  0.38600 5.42700 23.43400
H  0.95300 11.58800 24.26600
H  1.99600 8.50600 32.12900
H  0.35500 6.18000 31.75400
H  3.06600 6.77200 32.35600
H  3.14800 5.85800 30.94500
H  2.19900 5.14200 32.35000
H  -1.00200 8.13000 31.99500
H  -0.39100 9.79200 31.91000
H  -0.99300 8.20000 34.09300
H  -0.63100 9.89600 34.06500
H  0.95300 2.63800 29.02600
H  1.47900 1.78400 27.51200
H  -0.25700 1.92300 27.99400
H  -0.04200 0.88600 24.08700
H  -0.37500 1.22100 25.79200
H  1.25900 1.02700 25.30200
H  -0.25200 7.51700 22.01600
H  1.15000 10.01200 22.31000
H  2.41200 8.62400 21.45200
H  1.69100 7.23700 20.75600
H  2.61600 7.12500 22.32600
H  -1.53900 10.25700 23.34900
H  -1.68000 9.02200 22.17100
H  -0.28500 10.92300 20.66700
H  -1.64400 11.83400 21.46900
H  -1.98900 10.36900 20.64300
H  2.65700 14.30700 26.79500
H  0.97700 13.93900 26.43800
H  2.20100 13.55300 25.26600
H  1.21400 11.64600 31.11300
H  4.53600 12.77500 33.72200
H  4.83600 11.05500 33.67000
H  3.52400 11.73400 34.63400
Mg 17.89500 52.00900 24.71400
C  19.62800 50.78000 27.56900
C  15.14400 52.59800 26.85400
C  16.21500 52.98100 22.06400
C  20.51700 50.99300 22.73300
N  17.51900 51.72500 26.93500
C  18.34000 51.22800 27.94500
C  17.78600 51.55400 29.30700
C  16.32700 52.03500 29.08500
C  16.32800 52.18300 27.56100
C  15.33600 50.98100 29.77100
C  18.60200 52.74100 29.98200
C  19.04900 52.49200 31.38700
H  18.00400 51.95100 32.41800
N  15.93800 52.76900 24.48300
C  14.96100 52.94300 25.51300
C  13.84500 53.62600 24.84500
C  14.12800 53.74500 23.44400
C  15.50100 53.23400 23.28900
C  12.66600 53.98900 25.72700
C  13.26900 54.28500 22.32800
O  13.60200 54.27700 21.12500
C  12.03700 55.04000 22.62400
N  18.28300 51.90100 22.68600
C  17.44800 52.39100 21.80000
C  18.08700 52.38200 20.39400
C  19.36500 51.58900 20.56000
C  19.41800 51.44400 22.06000
C  17.17000 51.85300 19.26300
C  20.68900 52.19700 19.96500
C  21.35200 51.45900 18.78700
N  19.67900 51.07100 24.99000
C  20.68000 50.79900 24.08700
C  21.78700 50.12800 24.80700
C  21.40000 50.14500 26.14000
C  20.10200 50.66400 26.20700
C  23.13200 49.55600 24.20200
C  21.87700 49.73200 27.51200
O  22.88500 49.16800 27.99200
C  20.71900 50.22500 28.45100
C  20.23200 49.09500 29.38100
O  19.63900 48.09500 29.03500
O  20.49100 49.40700 30.69800
C  20.00800 48.38600 31.59000
H  14.42500 52.96000 27.59200
H  15.66500 53.28500 21.17100
H  21.27300 50.68100 22.01000
H  17.84200 50.66500 29.93500
H  16.17000 53.03600 29.48900
H  14.46400 51.10600 29.12800
H  15.39000 51.29000 30.81500
H  15.83700 50.02000 29.65800
H  18.07500 53.69400 30.00600
H  19.50800 52.85500 29.38700
H  19.47700 53.45000 31.68100
H  19.79000 51.69500 31.33900
H  12.08200 54.84900 25.39800
H  12.85200 54.06700 26.79800
H  11.94000 53.18500 25.60100
H  11.56700 55.46600 21.73800
H  12.19900 55.93300 23.22900
H  11.26800 54.39300 23.04400
H  18.26200 53.45600 20.33300
H  19.20700 50.55800 20.24000
H  17.10100 52.70200 18.58200
H  16.15800 51.55400 19.53500
H  17.58700 51.08400 18.61200
H  21.44000 52.29300 20.74900
H  20.46400 53.22900 19.69700
H  21.61300 52.22000 18.05200
H  20.58600 50.85000 18.30600
H  22.23200 50.84900 18.99200
H  23.28400 49.98700 23.21200
H  23.06800 48.46800 24.18500
H  24.03100 49.76700 24.78100
H  21.11200 50.99100 29.12000
H  20.52900 47.43500 31.48400
H  18.95100 48.23200 31.37100
H  20.31100 48.67600 32.59600

