158

Mg 42.35300 41.06300 26.18400
C  41.48600 43.37300 28.69100
C  43.62200 39.04600 28.71600
C  43.46200 38.95800 23.91500
C  41.30600 43.27100 23.85200
N  42.55100 41.34000 28.50900
C  42.10100 42.27700 29.31900
C  42.31700 41.94800 30.87200
C  43.05500 40.57300 30.75500
C  43.02700 40.23100 29.28400
C  44.54000 40.51000 31.31900
C  40.88500 41.82400 31.64200
C  40.59300 42.71900 32.85100
H  39.95800 41.98900 34.06200
N  43.51500 39.28400 26.26900
C  43.89200 38.62500 27.39600
C  44.54900 37.40800 27.02000
C  44.52600 37.34100 25.59900
C  43.86100 38.58100 25.19800
C  44.97800 36.44600 28.15700
C  45.09800 36.20600 24.71900
O  44.86800 36.11900 23.52100
C  45.74500 34.92900 25.29600
N  42.49100 41.16700 24.10300
C  42.84500 40.10500 23.35300
C  42.35700 40.28600 21.88100
C  41.82400 41.78500 21.84200
C  41.83500 42.05700 23.36000
C  43.42500 39.97200 20.75300
C  40.43000 41.81800 21.21300
C  40.17500 43.10200 20.38700
N  41.58000 43.01700 26.17700
C  41.19400 43.81800 25.10100
C  40.69400 45.04800 25.59600
C  40.83900 44.96100 26.92400
C  41.36100 43.63000 27.30700
C  40.14700 46.11800 24.66000
C  40.59200 45.62000 28.17900
O  40.10200 46.71600 28.36800
C  41.01700 44.64200 29.35500
C  42.06400 45.40100 30.14200
O  43.23500 45.55800 29.84200
O  41.46900 45.80100 31.23700
C  42.45600 46.34800 32.21800
H  44.00100 38.46200 29.55800
H  43.47700 38.22900 23.10200
H  40.85700 43.78100 22.99700
H  42.83600 42.82900 31.25000
H  42.47700 39.80300 31.26600
H  44.66200 41.41900 31.91000
H  45.28000 40.60100 30.52400
H  44.89300 39.66200 31.90600
H  40.79000 40.80400 32.01300
H  40.10500 41.98800 30.89800
H  39.91200 43.51100 32.53800
H  41.54300 43.15900 33.15400
H  45.58500 37.14800 28.72800
H  45.56200 35.56000 27.90500
H  44.05100 36.17200 28.66000
H  46.05800 34.27500 24.48200
H  44.94300 34.55800 25.93500
H  46.58800 35.32600 25.86100
H  41.54400 39.56800 21.76500
H  42.49600 42.53700 21.42900
H  44.40300 39.95900 21.23400
H  43.47200 40.65700 19.90600
H  43.18200 39.02200 20.27600
H  39.70500 41.68700 22.01700
H  40.31700 40.98000 20.52600
H  39.16100 43.47400 20.53100
H  40.30900 42.82500 19.34100
H  40.88700 43.88800 20.64000
H  39.39000 45.68700 24.00400
H  40.99300 46.44100 24.05300
H  39.73000 46.92100 25.26800
H  40.10300 44.56500 29.94300
H  42.86100 45.64700 32.94800
H  41.91700 47.10500 32.78800
H  43.26500 46.88800 31.72600
Mg 9.63800 48.23300 25.60000
C  7.68300 49.01700 28.30500
C  12.31000 49.08900 27.31000
C  11.41400 47.57500 22.85000
C  6.67800 47.86300 23.56100
N  9.89100 48.83500 27.68900
C  9.01200 49.09100 28.69700
C  9.66800 49.47300 30.03300
C  11.09000 49.84600 29.50400
C  11.11800 49.22100 28.07200
C  11.23000 51.47000 29.43200
C  9.77500 48.33700 31.10700
C  9.47500 48.76100 32.55400
H  8.84800 47.59400 33.37700
N  11.65200 48.01900 25.21300
C  12.59900 48.44100 26.07200
C  13.92100 48.26000 25.47500
C  13.70900 47.76400 24.14500
C  12.22000 47.80400 24.02500
C  15.15500 48.52900 26.22800
C  14.66300 47.36000 22.93200
O  14.20900 46.90700 21.87000
C  16.20600 47.39000 23.23500
N  9.11200 47.68300 23.47800
C  10.10800 47.49200 22.55000
C  9.51200 47.15900 21.15900
C  7.98300 47.07800 21.48900
C  7.89500 47.56500 22.95900
C  9.86200 48.19800 20.04800
C  7.24100 45.72900 21.30800
C  7.74100 44.51200 22.21300
N  7.61200 48.36700 25.83900
C  6.51600 48.19800 24.96700
C  5.28700 48.33000 25.73000
C  5.64400 48.75900 27.01800
C  7.08400 48.70500 27.04800
C  3.85500 48.13200 25.24100
C  5.15300 48.98700 28.33900
O  4.03600 49.00500 28.80800
C  6.47100 49.28200 29.25400
C  6.25700 48.38900 30.45000
O  6.43100 47.18600 30.46500
O  5.54700 49.03300 31.41300
C  4.96900 48.12300 32.45200
H  13.21100 49.43000 27.82400
H  11.95100 47.24200 21.96000
H  5.75500 47.97100 22.98900
H  9.13100 50.30200 30.49500
H  11.92400 49.44600 30.08200
H  10.30600 52.04900 29.42700
H  11.77300 51.75400 28.53000
H  11.82400 51.86500 30.25600
H  10.81100 48.00000 31.14400
H  9.37500 47.40500 30.70700
H  8.76300 49.58300 32.48200
H  10.43700 49.14800 32.89100
H  15.89400 47.77900 25.94700
H  15.01300 48.50500 27.30800
H  15.54600 49.52500 26.02100
H  16.48700 46.48600 23.77500
H  16.41800 48.39100 23.61200
H  16.70000 47.37300 22.26300
H  9.95600 46.21200 20.85300
H  7.42500 47.72500 20.81200
H  10.77500 48.71400 20.34600
H  9.07700 48.91900 19.81800
H  10.17300 47.65800 19.15400
H  7.43000 45.38900 20.28900
H  6.19200 45.97100 21.47900
H  6.90100 44.14300 22.80100
H  8.64200 44.80700 22.75100
H  8.03000 43.77900 21.46000
H  3.83400 47.92700 24.17100
H  3.23000 49.00000 25.45200
H  3.55100 47.26900 25.83300
H  6.51400 50.33200 29.54400
H  4.32200 48.71100 33.10400
H  5.72100 47.75800 33.15100
H  4.48700 47.28700 31.94600

