158

Mg 43.95500 3.22400 47.52600
C  41.76300 5.89400 46.94100
C  41.23200 1.08000 47.29400
C  46.03100 0.57900 47.86300
C  46.56800 5.45400 47.54000
N  41.73600 3.52800 47.29800
C  41.02900 4.68900 47.01800
C  39.52800 4.48800 46.75600
C  39.44800 2.96000 47.15000
C  40.92700 2.44300 47.22400
C  38.77600 2.69000 48.55600
C  39.08400 4.83500 45.31400
C  37.72100 5.55000 45.17500
H  37.63400 6.62100 44.00800
N  43.65500 1.04800 47.64500
C  42.47000 0.42800 47.44500
C  42.68000 -1.00800 47.53400
C  44.09800 -1.21400 47.59100
C  44.67500 0.16200 47.74100
C  41.56200 -2.01100 47.35600
C  44.74000 -2.60900 47.46500
O  43.97300 -3.59200 47.36500
C  46.26800 -2.80200 47.43500
N  46.04500 3.00000 47.59900
C  46.61700 1.78900 47.82100
C  48.15000 2.06000 47.92100
C  48.41000 3.57800 47.69500
C  46.94900 4.06300 47.64900
C  48.80600 1.21800 49.10100
C  49.43900 4.02600 46.64200
C  50.84500 4.51700 47.17600
N  44.20300 5.32700 47.17300
C  45.35200 6.06800 47.22400
C  44.97900 7.47300 46.96000
C  43.60900 7.44400 46.96900
C  43.16400 6.10300 47.07300
C  45.85200 8.60700 46.96500
C  42.44100 8.31100 46.77900
O  42.48200 9.56000 46.60000
C  41.20000 7.28200 46.76100
C  40.25300 7.68800 47.81400
O  40.04300 7.08000 48.83200
O  39.52200 8.83500 47.40700
C  38.48000 9.30000 48.34500
H  40.41400 0.35800 47.34100
H  46.71500 -0.26300 47.98500
H  47.31000 6.25300 47.59500
H  38.91600 4.95300 47.52800
H  38.89200 2.38800 46.40600
H  39.54800 2.39000 49.26600
H  38.04800 1.87900 48.58200
H  38.29700 3.56000 49.00400
H  38.89500 3.86500 44.85400
H  39.85100 5.25800 44.66700
H  37.26400 5.86700 46.11200
H  37.04200 4.74600 44.89100
H  41.45300 -2.49900 46.38700
H  40.60400 -1.58200 47.64600
H  41.61800 -2.78300 48.12300
H  46.87900 -2.50100 46.58400
H  46.35300 -3.88700 47.51000
H  46.60800 -2.44200 48.40600
H  48.45900 1.61200 46.97700
H  48.76500 4.02200 48.62500
H  48.01000 1.07400 49.83200
H  49.55600 1.96300 49.36400
H  49.25100 0.24400 48.89800
H  48.94300 4.89900 46.21800
H  49.51200 3.22700 45.90400
H  51.67100 3.88300 46.85400
H  50.83500 4.38400 48.25800
H  51.13900 5.52100 46.86800
H  45.51600 9.20000 46.11500
H  46.90700 8.49300 46.71900
H  45.86300 9.15700 47.90600
H  40.62500 7.47500 45.85500
H  37.74300 9.83300 47.74400
H  38.94100 9.98800 49.05400
H  38.02000 8.44200 48.83500
Mg 40.53000 8.28200 29.68800
C  42.26800 9.57300 32.45300
C  37.98000 7.52300 31.88800
C  39.01100 6.48400 27.18700
C  43.28800 8.78600 27.74400
N  40.32800 8.38700 31.92600
C  41.00200 9.09000 32.81600
C  40.39200 9.17000 34.21900
C  39.06800 8.40800 34.02700
C  39.11500 8.06800 32.51300
C  38.85800 7.16300 34.89800
C  40.28700 10.66500 34.77300
C  39.34400 10.93600 35.99500
H  39.86000 11.63600 37.15400
N  38.72400 7.22700 29.52200
C  37.80200 7.15300 30.53000
C  36.58800 6.52700 29.99000
C  36.82700 6.19100 28.62400
C  38.24500 6.61200 28.41800
C  35.32600 6.24000 30.87500
C  35.93300 5.67900 27.57300
O  36.41900 5.32500 26.51200
C  34.51700 5.46700 27.83300
N  41.04600 7.77400 27.76500
C  40.28300 6.96700 26.94300
C  40.95900 6.88700 25.48500
C  42.33500 7.62300 25.68200
C  42.21100 8.15400 27.13300
C  41.08700 5.39400 24.98400
C  42.77300 8.69600 24.59800
C  42.17800 10.08600 24.82200
N  42.40200 9.08200 29.94800
C  43.38000 9.31600 29.03800
C  44.49100 10.00600 29.64200
C  44.10700 10.10700 31.01500
C  42.82800 9.59900 31.10900
C  45.76400 10.48600 29.00700
C  44.48800 10.54700 32.36700
O  45.61500 10.81800 32.77800
C  43.26500 10.32300 33.35900
C  43.63300 9.39100 34.47500
O  44.16000 8.31300 34.35900
O  43.48200 10.05400 35.65400
C  44.01100 9.30200 36.84400
H  37.15400 7.21200 32.53100
H  38.58400 6.03300 26.28900
H  44.24700 8.86400 27.22700
H  41.02900 8.57400 34.87200
H  38.24500 9.12100 34.07400
H  38.95500 6.23300 34.33900
H  37.89100 7.17300 35.40300
H  39.62800 7.14600 35.66900
H  39.95000 11.22700 33.90200
H  41.21500 11.15400 35.06800
H  39.08600 9.94500 36.36900
H  38.43200 11.43600 35.66800
H  34.59400 6.91900 30.43900
H  35.43600 6.52900 31.92000
H  34.94200 5.25300 30.61700
H  34.07600 6.32800 28.33500
H  34.31400 4.65800 28.53500
H  33.99200 5.03200 26.98300
H  40.34900 7.41000 24.74900
H  43.22000 7.00300 25.82400
H  42.08800 5.27800 24.56900
H  40.39900 5.26100 24.14900
H  40.96700 4.71800 25.83100
H  42.35100 8.43600 23.62700
H  43.86200 8.70100 24.54900
H  41.64500 10.40200 23.92500
H  43.01600 10.71700 25.11800
H  41.52100 10.24200 25.67700
H  45.64900 11.36300 28.36900
H  46.19800 9.68800 28.40500
H  46.58000 10.70900 29.69400
H  42.95600 11.30800 33.70900
H  44.01700 8.21600 36.75700
H  43.23800 9.39800 37.60600
H  44.94400 9.74300 37.19500

