158

Mg 44.06200 3.00600 47.46400
C  42.15900 5.79600 46.70500
C  41.29700 1.02800 47.36500
C  46.04800 0.31600 47.57200
C  46.95200 5.03900 47.17700
N  41.92300 3.39500 47.04300
C  41.40800 4.61600 46.72300
C  39.88700 4.42500 46.51200
C  39.61300 2.94400 46.91200
C  41.03600 2.40200 47.13300
C  38.68400 2.66100 48.11200
C  39.38700 4.63300 45.02200
C  37.98500 5.10700 44.63500
H  38.01400 5.99900 43.45500
N  43.73000 0.93600 47.39900
C  42.52200 0.31000 47.41700
C  42.72100 -1.03600 47.52900
C  44.11300 -1.34000 47.52400
C  44.73300 0.00100 47.52000
C  41.56400 -2.00000 47.72900
C  44.74100 -2.75700 47.61600
O  44.03700 -3.80300 47.65900
C  46.24100 -2.90200 47.73700
N  46.18800 2.71200 47.41300
C  46.74700 1.47400 47.54100
C  48.27500 1.56900 47.64100
C  48.57700 3.15500 47.74500
C  47.20100 3.64700 47.41300
C  48.97700 0.65100 48.69500
C  49.67100 3.55500 46.73000
C  49.09600 3.62600 45.25800
N  44.49800 5.00400 47.02300
C  45.71200 5.71200 47.04800
C  45.52600 7.11000 46.86500
C  44.14700 7.18400 46.74500
C  43.59300 5.89200 46.83000
C  46.62800 8.13300 46.76400
C  43.00500 8.03500 46.50900
O  42.93900 9.23900 46.25400
C  41.68600 7.23900 46.48700
C  40.78000 7.82000 47.62000
O  40.91000 7.39200 48.77700
O  39.87300 8.74400 47.21000
C  38.77500 8.97800 48.14600
H  40.40600 0.40200 47.45300
H  46.69800 -0.56200 47.56500
H  47.84000 5.67400 47.14700
H  39.35200 5.10000 47.18000
H  39.14900 2.41400 46.08100
H  38.09500 3.53000 48.40500
H  39.23800 2.17400 48.91500
H  38.01900 1.83700 47.85700
H  39.47400 3.67300 44.51300
H  40.13400 5.32000 44.62600
H  37.46100 5.49900 45.50600
H  37.55300 4.16000 44.31300
H  41.77700 -3.03700 47.47100
H  40.66800 -1.69300 47.19000
H  41.35200 -1.99100 48.79900
H  46.77600 -2.59300 46.83900
H  46.56400 -3.90900 48.00200
H  46.63000 -2.26800 48.53400
H  48.62800 1.20700 46.67500
H  48.70500 3.51400 48.76600
H  48.14200 0.12100 49.15400
H  49.40100 1.24800 49.50200
H  49.73400 0.02500 48.22300
H  50.54500 2.90400 46.72800
H  49.90100 4.57000 47.05500
H  48.67000 4.61000 45.06200
H  48.24300 2.95600 45.16100
H  49.87400 3.30300 44.56600
H  46.29400 9.08600 46.35400
H  47.44300 7.95200 46.06300
H  47.03700 8.38800 47.74100
H  41.31700 7.35300 45.46700
H  38.79700 9.93300 48.67100
H  38.67400 8.17200 48.87300
H  37.80500 8.86100 47.66400
Mg 47.81400 15.46900 28.16000
C  45.54300 15.31900 30.78200
C  49.79600 17.47100 30.17300
C  50.08300 15.67800 25.65600
C  45.47800 13.91200 26.18800
N  47.58100 16.35700 30.20600
C  46.73400 15.93900 31.12900
C  47.08400 16.47300 32.53200
C  48.35400 17.34300 32.22000
C  48.58600 17.09200 30.72800
C  48.43400 18.81600 32.68800
C  47.29100 15.35700 33.60200
C  46.52300 15.58000 34.94100
H  46.52500 16.99800 35.56900
N  49.71100 16.39200 27.96600
C  50.33100 17.17800 28.91400
C  51.69900 17.56600 28.40400
C  51.77100 16.99300 27.06900
C  50.50700 16.31400 26.83600
C  52.73300 18.34500 29.27500
C  52.98900 17.08500 26.07300
O  53.03400 16.58800 24.95800
C  54.18700 17.92300 26.49600
N  47.83200 14.87900 26.27900
C  48.79800 15.11900 25.36800
C  48.32000 14.72100 23.97200
C  47.10900 13.76200 24.15700
C  46.82000 14.12600 25.66400
C  48.10500 15.96000 23.11100
C  47.19500 12.26900 23.81600
C  46.92500 11.24200 24.96400
N  45.84900 14.73300 28.33800
C  45.04400 14.13200 27.48500
C  43.79800 13.66400 28.18600
C  43.98600 14.15400 29.48700
C  45.22300 14.78600 29.54200
C  42.64700 12.83000 27.64700
C  43.47600 14.11100 30.78900
O  42.43300 13.55300 31.20500
C  44.32600 15.02500 31.70200
C  43.68100 16.18600 32.33000
O  43.71700 17.33900 31.90400
O  42.91500 15.75900 33.39200
C  42.20600 16.81800 34.16600
H  50.46500 18.02700 30.83200
H  50.67400 15.68500 24.73800
H  44.71100 13.53500 25.50700
H  46.30200 17.18700 32.79000
H  49.22000 16.79100 32.58500
H  47.53700 19.05800 33.25800
H  48.26200 19.40100 31.78500
H  49.33700 19.12400 33.21500
H  48.33900 15.26700 33.88900
H  46.94000 14.38400 33.26000
H  46.80000 14.97200 35.80300
H  45.49500 15.40700 34.62200
H  53.17800 19.21100 28.78500
H  53.59200 17.71600 29.50900
H  52.35000 18.70200 30.23100
H  53.81800 18.90600 26.78700
H  54.89300 17.99500 25.66900
H  54.56000 17.51800 27.43700
H  49.20700 14.18000 23.64200
H  46.32300 14.15200 23.51000
H  48.24200 16.73700 23.86300
H  47.09500 16.10600 22.72700
H  48.86000 16.01400 22.32600
H  48.15200 12.06100 23.33900
H  46.46600 12.11500 23.02100
H  46.83900 11.74300 25.92800
H  47.72500 10.50700 25.05100
H  45.97300 10.80600 24.66400
H  42.60300 11.81700 28.04700
H  42.77200 12.78300 26.56500
H  41.65100 13.23900 27.81700
H  44.60000 14.26300 32.43100
H  41.70000 17.47900 33.46300
H  42.85500 17.45300 34.77000
H  41.38500 16.49100 34.80500

