158

Mg 8.78500 4.49700 27.31600
C  10.28600 2.99500 29.98400
C  6.82100 6.29600 29.35300
C  7.12200 5.66100 24.43400
C  10.76400 2.62400 25.12300
N  8.62900 4.74900 29.48100
C  9.33900 3.96800 30.36600
C  9.02000 4.44800 31.77800
C  7.80500 5.44200 31.62500
C  7.71900 5.48200 30.04300
C  6.50100 5.16400 32.45500
C  10.27800 5.05900 32.55200
C  9.98100 5.58700 33.95700
H  11.05900 5.38200 35.04400
N  7.20400 5.74900 26.90500
C  6.66100 6.46700 27.90300
C  5.64600 7.31700 27.35200
C  5.85700 7.42300 25.96300
C  6.66900 6.12600 25.72100
C  4.70600 8.21000 28.31100
C  5.43200 8.49100 24.92400
O  5.77200 8.37200 23.71700
C  4.61700 9.70900 25.34400
N  8.75500 3.95300 24.99200
C  8.00800 4.62400 24.04800
C  8.63100 4.53200 22.65800
C  9.96900 3.69900 22.92400
C  9.79500 3.36400 24.39600
C  7.60000 3.83200 21.71100
C  11.27000 4.42900 22.47900
C  11.98500 5.33900 23.53600
N  10.17600 3.00100 27.42900
C  10.87800 2.28500 26.45200
C  11.66200 1.25900 27.13200
C  11.37200 1.42400 28.52500
C  10.57600 2.57800 28.65600
C  12.56300 0.24200 26.49100
C  11.72900 1.01300 29.91900
O  12.45300 0.12600 30.32400
C  11.02500 2.00200 30.84400
C  10.10400 1.37400 31.77800
O  8.99500 0.87800 31.50100
O  10.65300 1.26200 33.04600
C  9.84500 0.60000 34.11500
H  6.28400 6.99800 29.99400
H  6.74000 6.21000 23.57100
H  11.40800 2.08700 24.42400
H  8.65200 3.56300 32.29700
H  8.07900 6.41600 32.02900
H  5.62500 5.15300 31.80600
H  6.28900 5.92100 33.21000
H  6.65200 4.26600 33.05500
H  10.65700 5.86600 31.92500
H  11.02400 4.30500 32.80100
H  8.99000 5.25600 34.26700
H  10.02100 6.66900 33.83100
H  3.72700 8.27900 27.83600
H  5.05600 9.23300 28.45300
H  4.50500 7.74700 29.27700
H  3.69000 9.37600 25.81200
H  4.46700 10.42100 24.53300
H  5.05900 10.29000 26.15300
H  8.88000 5.56100 22.39800
H  9.85200 2.67100 22.58100
H  7.59700 4.30700 20.73000
H  6.59300 3.87600 22.12600
H  7.86000 2.78600 21.55100
H  11.06900 5.04000 21.59900
H  11.90300 3.58700 22.19700
H  11.65300 5.13400 24.55400
H  11.92700 6.40700 23.32900
H  13.06300 5.17600 23.52000
H  12.04900 -0.71900 26.46000
H  13.46000 0.16900 27.10500
H  12.92600 0.60000 25.52800
H  11.72800 2.53200 31.48700
H  9.03600 1.31500 34.25900
H  10.37100 0.37600 35.04300
H  9.51100 -0.35400 33.70700
Mg -6.53600 25.54600 27.14000
C  -4.95000 27.33600 29.71100
C  -8.06400 23.66200 29.55100
C  -7.75300 23.66100 24.67000
C  -4.44800 27.35400 24.83200
N  -6.45700 25.46700 29.32100
C  -5.75500 26.27600 30.18800
C  -6.06500 25.97200 31.67600
C  -6.85900 24.61600 31.60400
C  -7.19500 24.59100 30.07700
C  -5.89500 23.48500 32.01000
C  -6.92300 27.07600 32.29300
C  -6.67900 27.36600 33.79700
H  -6.69700 26.10700 34.76300
N  -7.78300 23.99300 27.08500
C  -8.37500 23.39200 28.19300
C  -9.35100 22.37300 27.76700
C  -9.25900 22.35100 26.35300
C  -8.29800 23.38400 25.95500
C  -10.25800 21.69200 28.69100
C  -10.10800 21.55300 25.29600
O  -9.98500 21.73400 24.08000
C  -11.03000 20.56400 25.79500
N  -6.08300 25.41400 25.08100
C  -6.85600 24.65300 24.25100
C  -6.45300 24.82500 22.79500
C  -5.57300 26.16400 22.83200
C  -5.30100 26.28500 24.35000
C  -5.69700 23.64200 22.08100
C  -6.36700 27.33700 22.18300
C  -7.28900 28.18000 23.08500
N  -5.06200 27.02700 27.14600
C  -4.31000 27.68500 26.19100
C  -3.48900 28.71500 26.75600
C  -3.69500 28.56800 28.12800
C  -4.65300 27.61400 28.37900
C  -2.64800 29.73200 26.06600
C  -3.26800 29.10600 29.42200
O  -2.33600 29.85300 29.69300
C  -4.12100 28.37400 30.49900
C  -3.22100 27.83000 31.57400
O  -2.48900 26.88300 31.41700
O  -3.36700 28.53700 32.75800
C  -2.56300 28.05100 33.90700
H  -8.53000 23.05200 30.32800
H  -8.04500 23.09600 23.78200
H  -3.86900 27.90400 24.08800
H  -5.19900 25.89700 32.33500
H  -7.70000 24.66500 32.29500
H  -5.58400 23.59900 33.04800
H  -5.13600 23.26500 31.25900
H  -6.51200 22.58600 32.02800
H  -7.96200 26.74800 32.26100
H  -6.77700 27.87900 31.57100
H  -7.37900 28.09600 34.20400
H  -5.68900 27.81600 33.87000
H  -11.26900 21.51600 28.32300
H  -10.48000 22.25900 29.59500
H  -9.92700 20.74800 29.12400
H  -10.54700 19.99000 26.58500
H  -11.41600 19.98700 24.95500
H  -11.83600 21.17300 26.20500
H  -7.43200 24.94500 22.33200
H  -4.61600 26.01100 22.33400
H  -5.10700 23.20800 22.88900
H  -5.09500 24.08400 21.28800
H  -6.48400 23.09100 21.56700
H  -6.98800 26.90500 21.39800
H  -5.58400 27.94100 21.72400
H  -7.32800 27.92200 24.14300
H  -8.25600 28.23500 22.58500
H  -6.95200 29.21300 22.99900
H  -2.46600 29.22900 25.11700
H  -1.66000 29.73400 26.52700
H  -3.16900 30.68800 26.11100
H  -4.47700 29.24700 31.04600
H  -1.54000 28.26900 33.59800
H  -2.79000 26.98800 33.98900
H  -2.87400 28.45700 34.86900

