158

Mg 0.54900 8.27300 25.13400
C  1.31200 9.92800 28.29600
C  0.75000 5.31900 26.98400
C  0.20600 6.76500 22.30500
C  1.20900 11.28700 23.54600
N  0.86700 7.69700 27.44400
C  1.10600 8.56100 28.44200
C  1.29100 7.78000 29.80000
C  1.15900 6.29800 29.37200
C  1.00200 6.42000 27.80400
C  2.30700 5.27600 29.79300
C  0.28500 8.12900 30.96700
C  0.88600 8.58200 32.28500
H  1.98400 7.68500 32.83100
N  0.48300 6.26000 24.68700
C  0.54100 5.23500 25.55400
C  0.37100 4.01900 24.80300
C  0.22600 4.37900 23.40700
C  0.33900 5.83200 23.38800
C  0.31600 2.69100 25.48600
C  0.19300 3.49600 22.19800
O  0.00000 3.94800 21.08800
C  0.32800 1.97500 22.35400
N  0.80800 8.96700 23.20900
C  0.42900 8.12500 22.23600
C  0.70200 8.81600 20.85900
C  0.76900 10.30300 21.25300
C  0.94200 10.16400 22.75400
C  1.89800 8.24600 20.09200
C  -0.39400 11.23300 20.82200
C  -1.81600 11.11000 21.38600
N  1.17500 10.26200 25.68800
C  1.40900 11.38800 24.93500
C  1.74500 12.51400 25.78800
C  1.68600 12.02300 27.09400
C  1.38800 10.61300 27.00100
C  2.02900 13.88200 25.46800
C  1.80600 12.36500 28.51800
O  2.23100 13.42700 29.02500
C  1.57400 11.04300 29.34200
C  2.84300 10.78600 30.06500
O  3.83600 10.14300 29.69900
O  2.76600 11.45100 31.22500
C  3.86600 11.58700 32.15500
H  0.84600 4.32900 27.43500
H  -0.03400 6.31800 21.33900
H  1.37200 12.28200 23.12600
H  2.30600 8.10800 30.02400
H  0.19300 5.86800 29.63500
H  3.02800 5.57700 30.55400
H  2.81100 4.82500 28.93800
H  1.79900 4.46100 30.30800
H  -0.30100 7.25500 31.25100
H  -0.41900 8.84000 30.53400
H  0.11600 8.49100 33.05100
H  1.11400 9.64600 32.22100
H  -0.42100 2.08400 24.96200
H  -0.14700 2.71700 26.47200
H  1.28600 2.19800 25.55900
H  -0.44700 1.47300 22.93300
H  1.34200 1.91400 22.74900
H  0.35700 1.42500 21.41300
H  -0.19900 8.56600 20.29800
H  1.70100 10.77100 20.93400
H  2.74500 8.93100 20.05200
H  1.57500 8.10100 19.06100
H  2.20400 7.26700 20.45800
H  -0.43200 11.25700 19.73300
H  -0.07700 12.23100 21.12400
H  -2.05100 12.08400 21.81600
H  -1.79300 10.36900 22.18400
H  -2.58200 10.80900 20.67100
H  0.99900 14.21000 25.32800
H  2.60800 13.86000 24.54400
H  2.32900 14.46200 26.34000
H  0.66000 11.08700 29.93500
H  4.74800 11.70700 31.52600
H  4.11100 10.70700 32.74900
H  3.69100 12.34100 32.92300
Mg 6.08300 53.70500 41.61200
C  5.81500 50.26600 41.26700
C  9.23200 53.64800 40.10100
C  6.23600 57.11600 41.80400
C  2.72700 53.91600 42.61400
N  7.29400 52.10400 40.75200
C  7.03700 50.73700 40.72200
C  8.16000 49.95600 39.92500
C  9.29300 51.04300 39.97800
C  8.58100 52.36800 40.26900
C  10.39800 50.78900 41.04200
C  7.88900 49.29300 38.55800
C  6.81800 50.06000 37.69100
H  7.35200 50.39400 36.26300
N  7.58000 55.18200 41.07600
C  8.71100 54.94000 40.43400
C  9.44700 56.24500 40.26400
C  8.69000 57.26400 40.91800
C  7.42200 56.55300 41.25200
C  10.81300 56.36800 39.51500
C  9.06700 58.79300 41.14200
O  10.10100 59.17300 40.68300
C  8.16800 59.81500 41.84500
N  4.66600 55.27900 41.94600
C  4.95100 56.58500 42.01400
C  3.72900 57.48300 42.30300
C  2.65400 56.43700 42.55700
C  3.35300 55.10800 42.26000
C  3.98000 58.47700 43.51700
C  1.39800 56.63000 41.61800
C  0.65800 57.95100 41.57100
N  4.61600 52.35500 41.93800
C  3.30200 52.57500 42.47900
C  2.70800 51.33100 42.76000
C  3.68900 50.41600 42.35600
C  4.82800 51.08100 41.85100
C  1.27300 51.14100 43.31000
C  3.95900 49.00000 42.25000
O  3.19700 48.08500 42.54900
C  5.36400 48.86300 41.58100
C  5.08800 48.15300 40.36300
O  4.44300 48.55700 39.42900
O  5.73300 47.02400 40.49700
C  5.40600 46.01300 39.41700
H  10.22100 53.64200 39.63900
H  6.30200 58.20500 41.76000
H  1.68300 53.94900 42.93000
H  8.32100 49.18700 40.68100
H  9.69300 50.93900 38.97000
H  10.11500 49.93800 41.66200
H  10.49600 51.69100 41.64600
H  11.38500 50.59300 40.62200
H  7.87200 48.21800 38.73600
H  8.82000 49.39200 38.00000
H  6.33100 50.92400 38.14300
H  6.01600 49.33100 37.57800
H  11.29700 57.33600 39.65200
H  10.68000 56.18300 38.44900
H  11.37200 55.51500 39.90000
H  7.27500 60.16600 41.32700
H  8.86000 60.64500 41.98200
H  7.88200 59.47100 42.83900
H  3.54200 57.90200 41.31500
H  2.18000 56.49400 43.53700
H  5.02600 58.45500 43.82100
H  3.29400 58.20700 44.32000
H  3.80300 59.53300 43.31100
H  0.66000 55.86600 41.86200
H  1.81300 56.52000 40.61700
H  0.70800 58.19900 40.51100
H  1.11700 58.73700 42.17100
H  -0.40100 57.86500 41.81200
H  1.10900 51.89600 44.07900
H  1.11800 50.11800 43.65300
H  0.69200 51.29700 42.40200
H  6.04700 48.27200 42.19100
H  6.05400 46.14500 38.55000
H  4.36800 45.94500 39.09200
H  5.64400 45.04500 39.85600

