158

Mg 48.07300 16.16300 28.63700
C  46.11200 16.11300 31.58200
C  50.50300 17.91300 30.29800
C  49.85600 16.22000 25.77200
C  45.41200 14.63200 26.96900
N  48.21300 16.98200 30.65900
C  47.34300 16.81000 31.70600
C  47.95100 17.44200 33.02700
C  49.18100 18.23300 32.48500
C  49.35100 17.72200 31.06800
C  49.03000 19.80700 32.38200
C  48.26700 16.34000 34.09000
C  47.80600 16.46400 35.50900
H  47.50800 17.89400 36.09400
N  49.94400 16.89400 28.14900
C  50.84800 17.54200 28.95400
C  52.10400 17.76500 28.27600
C  51.97300 17.23400 27.00500
C  50.58200 16.68200 26.93900
C  53.27600 18.55000 28.81400
C  52.99700 17.13100 25.74800
O  52.69800 16.67300 24.64900
C  54.37000 17.45400 25.99500
N  47.56500 15.76400 26.60800
C  48.50700 15.82300 25.56100
C  48.09600 15.03700 24.33800
C  46.67100 14.38500 24.81600
C  46.54400 14.92400 26.21500
C  47.92800 15.87200 23.04400
C  46.54100 12.87400 24.61100
C  45.76800 12.44700 23.33800
N  46.20800 15.42200 29.11300
C  45.18300 14.82300 28.32300
C  43.94700 14.59600 29.10200
C  44.30200 15.02600 30.39600
C  45.66100 15.57400 30.33300
C  42.79200 13.89800 28.50100
C  43.86700 15.14600 31.74800
O  42.78100 14.78000 32.17000
C  45.06800 15.83400 32.59400
C  44.49500 16.94000 33.38800
O  44.26400 18.09400 33.02500
O  44.17400 16.41400 34.66500
C  43.34500 17.19800 35.53900
H  51.32900 18.50200 30.70400
H  50.50800 16.32500 24.90200
H  44.67100 14.21600 26.28400
H  47.13100 18.07300 33.37000
H  50.04000 18.08500 33.14000
H  48.97800 20.11700 31.33800
H  49.96500 20.23600 32.74300
H  48.16300 20.12200 32.96300
H  49.35100 16.34400 34.20100
H  47.99300 15.37700 33.65700
H  48.63900 16.05700 36.08000
H  46.90300 15.85500 35.56000
H  54.14800 17.89700 28.77800
H  52.98600 18.84500 29.82200
H  53.44800 19.43100 28.19600
H  55.02000 17.25700 25.14300
H  54.77600 16.85300 26.80800
H  54.35300 18.52000 26.22500
H  48.75800 14.18300 24.19100
H  46.00200 14.84200 24.08700
H  47.17100 15.53900 22.33400
H  48.85000 15.92300 22.46700
H  47.81800 16.92700 23.29700
H  46.04200 12.44500 25.48000
H  47.50800 12.38200 24.51100
H  46.03300 11.46900 22.93700
H  45.92200 13.16800 22.53500
H  44.70600 12.26600 23.50200
H  42.76900 14.05900 27.42300
H  41.94300 14.29600 29.05700
H  42.86900 12.83100 28.71000
H  45.46900 15.12300 33.31700
H  42.41000 17.43000 35.02800
H  43.79200 18.17300 35.73200
H  43.08800 16.63400 36.43600
Mg 46.77000 24.87100 27.84700
C  47.65300 27.42400 30.31800
C  46.46700 22.62700 30.40100
C  46.22800 22.63300 25.56400
C  47.66900 27.32800 25.44100
N  47.04400 25.05800 30.05800
C  47.27900 26.20500 30.85700
C  47.21500 25.84500 32.36300
C  46.91100 24.27400 32.42700
C  46.83300 23.94000 30.83800
C  47.88900 23.40600 33.25400
C  46.34200 26.86200 33.07300
C  45.66800 26.46100 34.38700
H  45.96200 27.43900 35.54700
N  46.30500 22.92100 27.95800
C  46.20600 22.14500 29.08800
C  45.87000 20.75900 28.70800
C  45.77500 20.78900 27.27100
C  46.11500 22.14800 26.84900
C  45.91500 19.64900 29.63800
C  45.41400 19.65800 26.29200
O  45.32000 19.79700 25.08400
C  45.07800 18.29700 26.75200
N  46.98800 25.00200 25.79500
C  46.56900 23.90400 25.07500
C  46.73700 24.06500 23.57100
C  47.20500 25.59200 23.58200
C  47.21100 26.07600 25.00500
C  47.74900 23.17600 22.81900
C  46.15200 26.49600 22.77900
C  46.67600 27.17100 21.50300
N  47.47400 26.97800 27.79100
C  47.77800 27.79000 26.74700
C  48.27200 29.12800 27.22600
C  48.14600 29.06800 28.61900
C  47.66600 27.71500 28.95000
C  48.87600 30.17700 26.35900
C  48.49900 29.71600 29.82700
O  49.14300 30.76700 29.92700
C  48.01300 28.75400 30.99800
C  49.09700 28.75600 32.02300
O  50.00300 27.97200 32.12900
O  48.68000 29.64500 33.00500
C  49.57700 29.76100 34.14900
H  46.33800 21.83900 31.14600
H  46.09500 21.87900 24.78600
H  47.84000 27.96700 24.57200
H  48.28300 25.94700 32.55500
H  45.93700 24.16300 32.90500
H  48.56700 24.07600 33.78300
H  48.40800 22.71300 32.59100
H  47.32800 22.81400 33.97700
H  45.47100 27.12200 32.47200
H  46.95500 27.74000 33.27400
H  45.92600 25.44100 34.67000
H  44.58900 26.56200 34.27700
H  44.95100 19.15600 29.51800
H  45.91200 19.84300 30.71100
H  46.64000 18.90100 29.31700
H  44.26100 18.29400 27.47500
H  45.99800 18.05400 27.28300
H  44.90600 17.64400 25.89700
H  45.76000 23.82100 23.15600
H  48.16600 25.66900 23.07400
H  48.55800 23.69400 22.30500
H  47.29000 22.46000 22.13700
H  48.38300 22.63200 23.52000
H  45.78300 27.33300 23.37200
H  45.33000 25.84300 22.48200
H  46.81200 28.22200 21.75700
H  46.00800 26.90100 20.68500
H  47.61800 26.70300 21.21800
H  48.51900 30.25200 25.33100
H  49.96300 30.10300 26.33500
H  48.68700 31.17400 26.75700
H  47.10900 29.19800 31.41500
H  50.57300 29.38600 33.91100
H  49.22600 29.18200 35.00300
H  49.70000 30.82900 34.32500

