158

Mg 53.84000 23.70300 44.93800
C  51.40400 26.14000 44.23200
C  51.76200 21.33600 43.60000
C  56.32000 21.42200 45.22900
C  56.08300 26.20900 45.58600
N  51.93200 23.81400 43.86200
C  51.11800 24.83000 43.75000
C  49.98600 24.51500 42.75800
C  49.83600 23.00900 43.23600
C  51.25600 22.65800 43.55800
C  48.83100 22.75400 44.36500
C  50.17100 24.68600 41.19500
C  51.48700 25.19900 40.68100
H  51.43700 25.93100 39.37400
N  53.99200 21.66800 44.59200
C  53.02200 20.87000 44.03400
C  53.43200 19.52900 44.14600
C  54.72600 19.48400 44.61600
C  55.09400 20.88800 44.82900
C  52.56600 18.32800 43.80100
C  55.56500 18.20600 44.91800
O  55.23800 17.06400 44.58000
C  56.84500 18.35100 45.65900
N  55.86800 23.79900 45.20300
C  56.71700 22.72100 45.28900
C  58.22400 23.15200 45.43100
C  58.09400 24.65200 45.75600
C  56.55900 24.92300 45.59200
C  59.11100 22.34400 46.52200
C  58.94800 25.64200 44.93100
C  58.45800 25.91300 43.50500
N  53.77100 25.82000 44.98400
C  54.72400 26.67000 45.31700
C  54.20000 28.07100 45.33300
C  52.83800 27.84400 45.02000
C  52.68900 26.48400 44.76700
C  54.93800 29.31000 45.70600
C  51.49200 28.49200 44.84800
O  51.16000 29.66200 45.07600
C  50.49400 27.35400 44.33500
C  49.87500 27.78800 43.08600
O  50.45500 28.25600 42.14200
O  48.47700 27.67900 43.13600
C  47.64000 27.94800 41.98300
H  51.05600 20.57800 43.25400
H  57.15400 20.72600 45.34000
H  56.78100 27.03700 45.72700
H  49.11600 25.02100 43.17600
H  49.40700 22.52100 42.36000
H  49.40100 22.25900 45.15100
H  48.02300 22.04300 44.19200
H  48.44100 23.70500 44.72800
H  49.45000 25.39900 40.79400
H  49.95500 23.72600 40.72800
H  52.17400 24.35300 40.68800
H  51.98000 25.88800 41.36600
H  52.51100 17.55300 44.56500
H  52.94600 18.00500 42.83200
H  51.50500 18.56800 43.72400
H  57.19000 17.37500 45.99900
H  56.69500 18.98400 46.53400
H  57.44100 18.86900 44.90800
H  58.71000 22.99500 44.46800
H  58.31900 24.87900 46.79900
H  59.28600 23.01600 47.36200
H  60.03600 22.29500 45.94600
H  58.69800 21.37100 46.78700
H  59.93200 25.18600 45.04600
H  58.94000 26.52500 45.57000
H  59.05000 25.68100 42.61900
H  58.45300 26.99400 43.36900
H  57.49300 25.43900 43.32800
H  55.79800 29.44500 45.05100
H  55.26800 29.20000 46.73900
H  54.29700 30.18800 45.62400
H  49.87500 27.06600 45.18400
H  46.97600 27.10600 41.78500
H  48.06300 28.31300 41.04800
H  47.04400 28.80600 42.29300
Mg 9.82500 47.52500 25.67800
C  7.97900 47.91700 28.58700
C  12.63200 48.56800 27.21000
C  11.44400 47.48900 22.65900
C  6.87200 46.95000 23.93200
N  10.25600 48.12800 27.69800
C  9.33000 48.29500 28.73600
C  10.07900 48.76700 29.93300
C  11.41100 49.29200 29.37100
C  11.44900 48.68300 27.95900
C  11.46300 50.84300 29.33400
C  10.32900 47.64700 31.04400
C  9.72500 48.11500 32.43800
H  9.57500 47.09100 33.55500
N  11.74500 47.84800 25.09900
C  12.84800 48.20800 25.87200
C  14.14800 48.07600 25.13100
C  13.78400 47.67200 23.81900
C  12.21500 47.64800 23.81900
C  15.52600 48.16700 25.81700
C  14.69900 47.30300 22.65200
O  14.20100 46.93500 21.51500
C  16.18900 47.44900 22.68800
N  9.26300 47.26600 23.62600
C  10.09600 47.27100 22.53000
C  9.41400 46.90300 21.23800
C  7.96100 46.48900 21.71300
C  8.04500 46.87200 23.20900
C  9.44300 48.09400 20.24400
C  7.66700 44.93100 21.54100
C  8.59700 44.02000 22.32400
N  7.84800 47.42500 26.08800
C  6.77200 47.24400 25.30200
C  5.54200 47.15500 26.04500
C  6.00800 47.38200 27.41200
C  7.37500 47.58000 27.33800
C  4.20400 46.75300 25.59200
C  5.56600 47.44300 28.79600
O  4.45400 47.26200 29.29800
C  6.78500 47.81300 29.59000
C  6.99200 46.71200 30.57200
O  7.80700 45.77000 30.43600
O  6.20100 46.92000 31.70000
C  6.36900 45.87700 32.75700
H  13.47900 48.95400 27.78200
H  12.00200 47.49100 21.72100
H  5.98400 46.74300 23.33200
H  9.58800 49.61600 30.41000
H  12.20800 48.94500 30.02900
H  11.62000 51.17800 28.30900
H  12.34500 51.23900 29.83700
H  10.55800 51.34100 29.68100
H  11.40000 47.45500 31.10800
H  10.01800 46.67000 30.67500
H  8.79800 48.61000 32.14600
H  10.31800 48.93200 32.84800
H  15.65800 47.52000 26.68400
H  15.65200 49.17600 26.20900
H  16.37900 47.86000 25.21100
H  16.53800 47.46100 21.65500
H  16.55900 46.58000 23.23000
H  16.47900 48.41700 23.09600
H  9.85900 46.04000 20.74400
H  7.16600 47.09600 21.27900
H  10.12100 48.90800 20.50200
H  8.54700 48.66300 19.99500
H  9.69400 47.58400 19.31300
H  7.70500 44.69400 20.47800
H  6.65800 44.81600 21.93700
H  8.94000 44.56300 23.20500
H  9.42000 43.59400 21.75100
H  7.94900 43.26800 22.77200
H  3.53300 46.90600 26.43700
H  4.20900 45.75400 25.15600
H  4.00100 47.38700 24.72900
H  6.48400 48.71900 30.11600
H  5.67100 45.08400 32.49000
H  6.23700 46.44100 33.68100
H  7.40700 45.55000 32.71000

