158

Mg 45.34600 4.96900 48.16000
C  43.10300 7.53300 47.38900
C  42.67400 2.77000 47.99600
C  47.45700 2.54400 48.34400
C  47.92900 7.18500 47.39900
N  43.19300 5.18800 47.78500
C  42.50400 6.30600 47.47800
C  41.04400 6.05200 47.24000
C  40.83700 4.59000 47.66000
C  42.35900 4.09900 47.82200
C  39.96200 4.46700 48.88700
C  40.67900 6.35800 45.77200
C  39.47800 7.34300 45.67800
H  38.75700 7.30900 44.32500
N  45.13200 2.90300 48.25500
C  43.97300 2.19400 48.18300
C  44.29600 0.77500 48.39200
C  45.64500 0.65500 48.51800
C  46.16300 2.04900 48.33700
C  43.15000 -0.32400 48.57800
C  46.53700 -0.61900 48.81200
O  45.99900 -1.72800 48.89400
C  48.04900 -0.58700 48.71000
N  47.37300 4.94800 47.83500
C  48.00800 3.81500 48.23000
C  49.54900 3.94000 48.09000
C  49.68500 5.44100 47.86200
C  48.25000 5.91100 47.76800
C  50.47500 3.47200 49.34400
C  50.52300 5.69800 46.60200
C  49.81800 5.41100 45.21700
N  45.52600 7.00900 47.61500
C  46.66400 7.74800 47.42100
C  46.30700 9.11100 47.17600
C  44.87400 9.11600 47.17200
C  44.49000 7.82500 47.40700
C  47.30500 10.23300 46.82800
C  43.66400 9.94400 47.03500
O  43.49300 11.10900 46.74800
C  42.46200 8.88600 47.12000
C  41.60700 9.39200 48.17900
O  41.72800 9.20400 49.33700
O  40.72900 10.27300 47.59500
C  39.84800 10.91600 48.60400
H  41.87600 2.03000 47.90400
H  48.29100 1.86300 48.52800
H  48.65000 7.96600 47.15000
H  40.62900 6.77600 47.94200
H  40.29400 4.05000 46.88400
H  39.14600 3.74600 48.85500
H  39.47000 5.39900 49.16600
H  40.53700 4.20500 49.77500
H  40.22600 5.48400 45.30500
H  41.51200 6.61200 45.11600
H  39.91200 8.34300 45.68700
H  38.74700 7.16500 46.46600
H  43.27300 -1.16900 47.90000
H  42.16600 0.13700 48.49100
H  43.17900 -0.75200 49.58000
H  48.50200 -0.09000 47.85100
H  48.39200 -1.60000 48.92400
H  48.42100 -0.06900 49.59400
H  49.77700 3.29900 47.23800
H  50.08800 5.95900 48.73200
H  49.90900 3.21800 50.24100
H  51.19900 4.25800 49.56200
H  50.96800 2.57800 48.96300
H  51.38400 5.03100 46.63600
H  50.75500 6.76000 46.51500
H  48.96500 4.73700 45.29900
H  50.57400 4.97200 44.56500
H  49.47400 6.30000 44.68900
H  46.83000 11.20100 46.67200
H  47.75500 9.73500 45.96900
H  48.02000 10.37300 47.63900
H  41.91700 8.91300 46.17600
H  39.64500 10.34300 49.50900
H  38.87300 11.18500 48.20000
H  40.27000 11.86400 48.93800
Mg 53.47200 24.64000 44.54500
C  50.69400 26.78700 44.16900
C  51.38800 22.01800 44.23300
C  56.22900 22.78000 43.98200
C  55.54200 27.41400 44.86000
N  51.27700 24.48600 44.10500
C  50.30700 25.44900 44.07400
C  48.90600 24.95400 44.09700
C  49.20100 23.47300 44.63600
C  50.70200 23.26300 44.31400
C  48.96800 23.09000 46.08800
C  48.12300 25.01500 42.79800
C  48.59700 24.14700 41.56900
H  49.64200 24.66500 40.59900
N  53.76500 22.70700 44.14600
C  52.79500 21.77500 44.13100
C  53.42900 20.49800 44.05900
C  54.80800 20.61400 44.01500
C  54.99500 22.08400 44.04700
C  52.69400 19.18400 44.08400
C  55.89700 19.52200 44.15600
O  55.59300 18.33600 43.95900
C  57.40800 19.75000 44.35300
N  55.66700 25.11400 44.15800
C  56.53800 24.10100 44.06100
C  58.01200 24.57700 43.97000
C  57.74800 26.06900 44.40700
C  56.23600 26.24800 44.52100
C  59.17600 23.93500 44.74300
C  58.34500 27.13000 43.48600
C  59.37800 28.09200 44.07100
N  53.20800 26.69900 44.52700
C  54.14700 27.71400 44.76000
C  53.52600 28.97300 44.79100
C  52.14300 28.65100 44.55800
C  51.94300 27.28400 44.43800
C  54.17500 30.27300 44.92900
C  50.85300 29.29100 44.42700
O  50.53500 30.48500 44.50200
C  49.85200 28.09000 44.11700
C  49.16800 28.45100 42.82300
O  49.67700 28.52900 41.72700
O  47.81600 28.68400 43.03100
C  47.01100 28.77500 41.79300
H  50.90500 21.05100 44.38300
H  57.02600 22.13600 43.60300
H  56.25900 28.18200 45.16000
H  48.44700 25.57000 44.87000
H  48.53000 22.85600 44.03900
H  48.37300 23.86300 46.57200
H  49.79300 22.87000 46.76600
H  48.36500 22.18200 46.06200
H  48.23700 26.05200 42.48300
H  47.06100 24.78000 42.87000
H  47.74800 23.69600 41.05500
H  49.03400 23.28700 42.07500
H  52.15000 18.93000 43.17500
H  51.90700 19.24700 44.83600
H  53.32800 18.32000 44.28300
H  57.86200 19.84200 43.36600
H  57.97600 18.95900 44.84200
H  57.50400 20.63800 44.97800
H  58.38000 24.51500 42.94600
H  58.06200 26.33400 45.41600
H  59.94300 23.54100 44.07700
H  58.75900 23.04000 45.20400
H  59.70200 24.59600 45.43100
H  57.50800 27.62600 42.99400
H  58.94100 26.57800 42.76000
H  60.37400 28.04700 43.63000
H  59.54100 27.88600 45.12900
H  59.00400 29.10700 43.93500
H  54.69000 30.59700 44.02400
H  54.93500 30.17400 45.70400
H  53.55200 31.10700 45.25200
H  49.06500 28.11100 44.87100
H  46.66700 29.79300 41.60900
H  46.12400 28.20400 42.06800
H  47.37000 28.31900 40.87100

