158

Mg 27.13700 51.20200 26.00900
C  25.15700 52.21100 28.77200
C  29.46400 49.89700 28.15300
C  28.76700 50.18000 23.42700
C  24.99100 53.01000 24.00500
N  27.25500 51.14100 28.18000
C  26.35000 51.53200 29.15800
C  26.93500 51.34100 30.55600
C  28.36300 50.64800 30.28700
C  28.38700 50.67800 28.75200
C  29.57400 51.29800 31.02000
C  25.93600 50.55100 31.56500
C  25.62800 51.35300 32.84500
H  26.73900 51.59800 33.91400
N  28.92900 50.19000 25.81700
C  29.75000 49.69200 26.79100
C  30.83500 49.00300 26.15800
C  30.56900 48.89700 24.79100
C  29.39500 49.78100 24.65500
C  31.91500 48.43300 26.98500
C  31.29400 48.21900 23.61500
O  30.90100 48.09800 22.48600
C  32.48900 47.39500 24.07500
N  27.10800 51.73900 23.98000
C  27.81300 51.00200 23.08900
C  27.25800 51.20300 21.63900
C  26.13800 52.20600 21.82300
C  26.05400 52.31500 23.37800
C  28.37400 51.63100 20.63400
C  24.84100 51.72600 21.01000
C  24.09400 50.54100 21.49800
N  25.36900 52.43000 26.26200
C  24.53400 53.04500 25.33300
C  23.25400 53.43300 25.94200
C  23.52100 53.22400 27.29500
C  24.78400 52.57100 27.43800
C  22.11100 54.10700 25.25600
C  22.93800 53.35100 28.66100
O  21.83600 53.74900 28.97000
C  24.07500 52.86000 29.67100
C  24.79900 54.00300 30.25100
O  25.57400 54.68700 29.65700
O  24.28800 54.27400 31.49700
C  24.73700 55.51400 32.15400
H  30.16600 49.45500 28.86200
H  29.10400 49.53500 22.61200
H  24.34600 53.61500 23.36500
H  27.06500 52.28700 31.08200
H  28.24300 49.64300 30.69200
H  30.34500 50.55000 31.20900
H  29.17300 51.79300 31.90400
H  29.86600 52.12100 30.36700
H  26.39000 49.58400 31.78000
H  25.00800 50.27500 31.06400
H  24.73900 51.04700 33.39700
H  25.44900 52.37600 32.51100
H  31.93500 48.97400 27.93100
H  32.90000 48.54800 26.53400
H  31.74300 47.36000 27.07900
H  33.16700 48.06100 24.60900
H  32.90000 46.81900 23.24700
H  32.15600 46.65600 24.80300
H  26.77200 50.36100 21.14600
H  26.45900 53.19800 21.50400
H  28.20500 52.64500 20.27100
H  28.26800 50.94500 19.79400
H  29.37200 51.69300 21.06900
H  25.22300 51.54100 20.00600
H  24.05000 52.47500 20.96700
H  24.08600 49.95900 20.57700
H  23.09400 50.79900 21.84700
H  24.77400 50.05900 22.20100
H  22.33900 55.13400 24.97200
H  21.35800 54.16000 26.04200
H  21.73200 53.59600 24.37100
H  23.77000 52.15100 30.44100
H  24.27800 55.75700 33.11300
H  24.59300 56.42000 31.56600
H  25.82600 55.49500 32.14100
Mg 5.04300 54.56000 39.90800
C  5.46700 51.02800 39.26000
C  8.21900 54.98300 38.63400
C  4.45300 57.86800 39.84500
C  1.75000 53.99100 40.74700
N  6.64000 53.08200 38.86400
C  6.61700 51.74200 38.83600
C  7.98200 51.17400 38.42400
C  8.93000 52.48700 38.54400
C  7.83300 53.63700 38.57800
C  10.01600 52.40600 39.70100
C  7.99100 50.31000 37.07200
C  8.69300 50.86700 35.79800
H  7.85100 50.75700 34.50600
N  6.16700 56.13900 39.35300
C  7.49800 56.13000 38.93800
C  8.03900 57.47600 38.80400
C  6.91900 58.34400 38.97100
C  5.75300 57.45400 39.39300
C  9.49700 57.75400 38.41100
C  6.96200 59.75400 38.72000
O  7.97200 60.30600 38.29000
C  5.69400 60.74100 38.66900
N  3.36500 55.68800 40.23800
C  3.36900 57.05000 40.21600
C  2.04400 57.58300 40.61500
C  1.06800 56.45300 40.62700
C  2.09900 55.27100 40.57200
C  2.07500 58.36300 41.92200
C  0.06700 56.35700 39.50400
C  -0.75600 57.60100 39.38400
N  3.81500 52.94900 40.06500
C  2.58600 52.85700 40.51700
C  2.28700 51.45200 40.72900
C  3.41200 50.70100 40.24600
C  4.31800 51.65900 39.84700
C  0.96300 50.97300 41.21500
C  3.97800 49.38400 40.05800
O  3.44500 48.30500 40.29100
C  5.35200 49.52900 39.41600
C  5.22700 48.84300 38.07800
O  4.47300 49.24000 37.20500
O  5.90000 47.61600 37.96800
C  5.52800 46.76400 36.89100
H  9.26300 55.15900 38.36200
H  4.32400 58.95200 39.86100
H  0.70500 53.85400 41.03400
H  8.31900 50.47000 39.18500
H  9.48500 52.62200 37.61600
H  10.01000 51.44600 40.21800
H  9.89100 53.09700 40.53500
H  11.05200 52.55300 39.39800
H  6.95300 50.10100 36.81300
H  8.36000 49.29300 37.19700
H  9.58300 50.24600 35.69800
H  8.90500 51.93500 35.73700
H  10.21600 56.98900 38.70200
H  9.75800 58.61700 39.02300
H  9.71300 57.93700 37.35800
H  6.14400 61.66700 38.31000
H  5.35500 60.74200 39.70500
H  5.02000 60.30800 37.93000
H  1.74700 58.25500 39.81000
H  0.62000 56.24100 41.59800
H  1.62800 59.31900 41.65000
H  3.13000 58.57000 42.10200
H  1.64200 57.82600 42.76600
H  -0.52700 55.50300 39.83200
H  0.68900 56.20400 38.62200
H  -0.38000 58.51700 39.83900
H  -1.79400 57.42500 39.66600
H  -0.78200 57.74100 38.30300
H  0.14700 51.64800 40.95800
H  1.04000 50.66100 42.25600
H  0.88600 50.07200 40.60700
H  6.15500 49.03200 39.96100
H  4.78000 46.14100 37.38100
H  6.45100 46.23200 36.66300
H  5.29900 47.28200 35.96000

