158

Mg 48.31200 35.56800 28.21400
C  46.31900 34.14100 30.79500
C  48.83100 38.19000 30.08600
C  49.73300 37.05100 25.53200
C  47.44500 32.80400 26.17000
N  47.87200 35.96000 30.21100
C  47.07700 35.31300 31.13900
C  47.09000 35.96600 32.52700
C  47.49300 37.44300 32.15600
C  48.06600 37.17100 30.67100
C  46.33600 38.44100 32.10300
C  48.08700 35.32400 33.52500
C  47.65900 35.20300 34.97900
H  48.53800 35.84000 36.10700
N  49.26900 37.41700 27.85800
C  49.41200 38.37100 28.84300
C  50.11200 39.48400 28.26600
C  50.45100 39.09000 26.89500
C  49.72500 37.83000 26.69900
C  50.38600 40.78400 28.95300
C  51.26600 39.93900 25.82900
O  51.38800 39.63200 24.67300
C  51.91700 41.26700 26.17000
N  48.66700 34.95500 26.10200
C  49.31900 35.73800 25.24700
C  49.50200 35.01600 23.87900
C  48.95900 33.59800 24.25000
C  48.22300 33.79100 25.54900
C  48.79800 35.72200 22.63700
C  50.01500 32.49000 24.38500
C  50.15800 31.29700 23.39100
N  47.09500 33.77900 28.34400
C  46.79700 32.83000 27.45000
C  45.97400 31.74800 28.13400
C  45.71400 32.29400 29.37200
C  46.44800 33.54800 29.48100
C  45.57000 30.36500 27.65800
C  44.96100 32.09500 30.63900
O  44.18000 31.15600 30.90000
C  45.28800 33.34000 31.53100
C  45.72200 32.90100 32.85400
O  46.79200 32.45600 33.13300
O  44.70100 33.11000 33.78400
C  44.92300 32.54300 35.08800
H  48.86900 39.14900 30.60800
H  50.35700 37.39800 24.70500
H  47.25400 31.94000 25.53000
H  46.07900 35.91900 32.93300
H  48.22500 37.94500 32.78800
H  46.45500 39.24100 32.83500
H  45.36600 37.95600 32.21100
H  46.33000 38.84100 31.09000
H  48.99900 35.91700 33.45400
H  48.27700 34.30700 33.18200
H  47.73500 34.14500 35.23000
H  46.69400 35.67100 35.17400
H  49.71800 41.61500 28.72500
H  51.39800 41.10800 28.71100
H  50.42000 40.48400 30.00000
H  52.28500 41.79300 25.28900
H  52.63400 41.11100 26.97700
H  51.10000 41.93900 26.43300
H  50.56500 35.08900 23.65100
H  48.21800 33.26000 23.52500
H  49.42300 36.42200 22.08400
H  47.92200 36.27600 22.97500
H  48.44300 35.05700 21.84900
H  50.12800 32.16800 25.42100
H  51.01300 32.88600 24.19800
H  50.14800 30.40300 24.01400
H  51.08100 31.24900 22.81300
H  49.34100 31.33000 22.67000
H  46.06400 29.61600 28.27800
H  45.83700 30.29100 26.60400
H  44.49300 30.39700 27.82200
H  44.47500 34.04900 31.68600
H  44.02300 32.00800 35.38900
H  45.13800 33.30300 35.83900
H  45.75500 31.83900 35.09300
Mg 17.76300 52.65200 26.02900
C  19.82100 50.93200 28.37700
C  15.54300 53.26600 28.48300
C  15.68700 53.85100 23.68400
C  19.84700 51.32300 23.47700
N  17.65600 52.05700 28.09200
C  18.60800 51.45800 28.90700
C  18.15700 51.50500 30.39000
C  16.64300 51.76400 30.30100
C  16.63500 52.45500 28.88100
C  15.70000 50.45500 30.54300
C  18.97600 52.60000 31.15000
C  19.23500 52.62900 32.63800
H  18.36400 51.62400 33.42400
N  15.81300 53.38500 26.05400
C  15.14900 53.77100 27.20000
C  13.94100 54.49500 26.83100
C  13.95400 54.66500 25.41600
C  15.21700 54.03700 25.00900
C  12.99000 54.98800 27.89400
C  12.95600 55.34100 24.54000
O  13.15700 55.46500 23.30200
C  11.66400 55.89500 25.10800
N  17.78200 52.53800 23.95700
C  16.83700 53.16200 23.19300
C  17.12800 53.03400 21.68600
C  18.47800 52.25700 21.64700
C  18.72200 52.02300 23.12600
C  15.98200 52.52100 20.83500
C  19.64000 52.80500 20.72600
C  20.67600 53.72900 21.41900
N  19.48800 51.44200 25.94800
C  20.19900 50.96600 24.82800
C  21.38900 50.33100 25.25000
C  21.25900 50.24700 26.64200
C  20.13200 50.94900 27.02800
C  22.44100 49.63700 24.34500
C  21.93800 49.70100 27.82500
O  22.93000 49.09500 27.97100
C  20.98200 50.18200 29.03000
C  20.44200 48.99200 29.75600
O  19.61700 48.25600 29.25600
O  20.87000 48.90200 31.07600
C  20.05400 47.87300 31.80700
H  14.77000 53.39100 29.24400
H  15.09900 54.27800 22.86900
H  20.60300 51.04900 22.73800
H  18.44600 50.58300 30.89400
H  16.31800 52.37900 31.14000
H  15.07100 50.61800 31.41800
H  16.24100 49.51300 30.63500
H  15.01200 50.31600 29.70900
H  18.52700 53.57100 30.94100
H  19.95200 52.59200 30.66400
H  18.97800 53.62500 33.00000
H  20.31200 52.56100 32.78600
H  12.07100 54.41900 28.03400
H  12.80500 56.04800 27.72100
H  13.44000 54.99500 28.88700
H  11.79000 56.57500 25.95000
H  11.01400 55.08300 25.43600
H  10.97800 56.42300 24.44600
H  17.22300 54.07100 21.36500
H  18.19100 51.25100 21.33700
H  16.30100 51.67500 20.22700
H  15.72400 53.31800 20.13700
H  15.06100 52.36900 21.39800
H  19.08100 53.43000 20.03000
H  20.13700 52.05900 20.10600
H  20.97100 54.41700 20.62700
H  21.57200 53.14200 21.62100
H  20.18500 54.19200 22.27500
H  23.06800 50.32000 23.77200
H  21.94400 48.95200 23.65800
H  23.10600 49.13700 25.04900
H  21.55400 50.75500 29.76000
H  20.27700 48.02800 32.86300
H  20.50900 46.89100 31.68400
H  18.99300 47.77300 31.58000

