158

Mg -2.33600 17.72200 26.26400
C  -2.70400 15.42200 28.89600
C  -2.31200 20.17700 28.60100
C  -2.26300 20.01800 23.69200
C  -2.09100 15.16700 23.96600
N  -2.45100 17.80800 28.51700
C  -2.65000 16.72400 29.34100
C  -2.66800 17.21200 30.88500
C  -2.62200 18.77400 30.72300
C  -2.45400 18.95900 29.21400
C  -3.89900 19.52500 31.28000
C  -1.49400 16.55800 31.73300
C  -1.07600 17.24100 33.00500
H  -0.96300 16.50300 34.35200
N  -2.30000 19.76000 26.11700
C  -2.29000 20.59000 27.18200
C  -2.31300 21.98900 26.75900
C  -2.23300 21.97600 25.35500
C  -2.25400 20.54900 24.98900
C  -2.52900 23.11600 27.67100
C  -2.00600 23.16200 24.35300
O  -1.87600 22.93900 23.15100
C  -1.92500 24.59100 24.85900
N  -2.32400 17.61400 24.16000
C  -2.40700 18.68200 23.34900
C  -2.45200 18.25600 21.89800
C  -2.19400 16.76000 21.94900
C  -2.12900 16.46900 23.43200
C  -3.88300 18.53700 21.33100
C  -0.93800 16.35000 21.23700
C  0.42200 16.69400 21.79100
N  -2.56300 15.67000 26.30600
C  -2.41000 14.73800 25.26500
C  -2.42700 13.46400 25.84000
C  -2.59800 13.65000 27.23000
C  -2.56600 15.03000 27.50800
C  -2.34800 12.13300 25.02200
C  -2.73800 12.92300 28.44900
O  -2.78600 11.68800 28.54500
C  -2.79100 14.07500 29.57100
C  -1.57600 13.73100 30.32800
O  -0.44200 13.95400 30.00400
O  -1.82700 13.03200 31.47000
C  -0.72300 12.71100 32.37900
H  -2.13200 20.98800 29.30900
H  -2.22100 20.67500 22.82000
H  -2.08400 14.41000 23.17900
H  -3.64000 16.92200 31.28400
H  -1.79300 19.32600 31.16600
H  -3.56800 20.43400 31.78300
H  -4.47500 18.81000 31.86700
H  -4.48400 19.93700 30.45700
H  -0.61500 16.25500 31.16400
H  -2.02800 15.72400 32.18800
H  -1.72200 18.05900 33.32500
H  -0.15200 17.77900 32.79500
H  -1.65800 23.77100 27.65900
H  -2.74100 22.77900 28.68500
H  -3.37100 23.71200 27.31700
H  -1.07900 24.60800 25.54600
H  -2.88900 24.80900 25.31800
H  -1.66800 25.28900 24.06100
H  -1.70600 18.88200 21.40900
H  -3.00500 16.10800 21.62300
H  -4.31700 17.65300 20.86300
H  -3.88200 19.30400 20.55700
H  -4.66400 18.92600 21.98500
H  -0.94900 16.69100 20.20100
H  -1.07500 15.26900 21.19100
H  1.00700 17.00500 20.92400
H  0.91200 15.76800 22.09000
H  0.47500 17.54900 22.46500
H  -2.61100 12.30200 23.97800
H  -2.97900 11.36200 25.46500
H  -1.32100 11.79700 24.87800
H  -3.68500 13.87700 30.16300
H  -1.12900 12.24800 33.27800
H  -0.35800 13.69100 32.68700
H  -0.00800 11.98800 31.98600
Mg -11.77700 38.21300 41.93900
C  -9.58300 35.63500 40.89600
C  -9.50900 40.44100 40.53400
C  -14.13100 40.47100 41.92800
C  -13.94600 35.79200 43.13000
N  -9.68000 38.09200 41.03500
C  -9.01200 36.96600 40.72800
C  -7.79100 37.23400 39.91100
C  -7.59800 38.83400 40.12200
C  -9.00100 39.17200 40.63700
C  -6.51900 39.11700 41.19100
C  -7.95800 36.86200 38.38800
C  -6.91300 35.92500 37.75500
H  -5.99900 36.56000 36.70300
N  -11.82400 40.15700 41.40200
C  -10.78700 40.94600 40.83100
C  -11.19400 42.29700 40.67500
C  -12.58800 42.30700 40.97000
C  -12.88600 40.94400 41.49600
C  -10.34000 43.39200 40.06700
C  -13.44700 43.55800 40.80500
O  -12.99300 44.59400 40.27800
C  -14.93000 43.54400 41.10700
N  -13.79800 38.12000 42.29700
C  -14.45900 39.27500 42.53600
C  -15.87700 39.05000 43.17200
C  -15.97500 37.50400 43.26000
C  -14.48600 37.10100 42.98500
C  -16.08200 39.89600 44.54200
C  -16.86000 36.83400 42.16100
C  -17.33600 35.42200 42.47800
N  -11.90400 36.11000 41.95400
C  -12.74100 35.29100 42.60400
C  -12.28100 33.88900 42.46000
C  -11.06100 33.98400 41.72300
C  -10.84600 35.40000 41.54700
C  -13.08500 32.70300 42.76900
C  -10.04800 33.21000 40.99200
O  -9.94400 31.99000 40.77300
C  -9.19600 34.32400 40.31000
C  -7.69800 33.91900 40.37400
O  -6.89700 34.24700 41.25300
O  -7.36900 33.22400 39.23300
C  -6.06800 32.52500 39.33200
H  -8.81200 41.18900 40.14800
H  -14.97900 41.13900 41.76400
H  -14.62300 35.08100 43.60800
H  -6.97700 36.63900 40.32500
H  -7.34700 39.33600 39.18800
H  -5.74600 38.36100 41.32500
H  -7.00000 39.41200 42.12400
H  -5.99800 39.99000 40.79800
H  -7.92400 37.77500 37.79400
H  -8.95900 36.49400 38.16400
H  -7.31500 35.08800 37.18400
H  -6.28700 35.49600 38.53700
H  -10.80300 43.82500 39.18100
H  -9.38000 43.05000 39.68000
H  -10.14600 44.15500 40.82200
H  -15.47100 42.86400 40.44800
H  -15.28000 44.55400 40.89300
H  -15.09500 43.51100 42.18400
H  -16.71200 39.31000 42.52200
H  -16.32800 37.06100 44.19200
H  -16.68400 39.32400 45.24700
H  -16.65800 40.77700 44.25800
H  -15.11300 40.00700 45.03000
H  -16.24900 36.81500 41.25900
H  -17.73000 37.45300 41.94100
H  -17.73600 35.10800 43.44200
H  -16.66800 34.60300 42.21100
H  -18.18800 35.19200 41.83800
H  -14.14100 32.86400 42.55300
H  -13.04900 32.53400 43.84500
H  -12.88500 31.79200 42.20600
H  -9.51300 34.46100 39.27600
H  -5.52000 32.51200 40.27400
H  -5.37500 32.90300 38.58000
H  -6.28700 31.50500 39.01800

