158

Mg -1.93100 17.51100 27.32100
C  -2.10300 15.47900 30.18000
C  -2.39700 20.24500 29.34200
C  -2.00300 19.36200 24.52200
C  -2.09900 14.61600 25.42200
N  -2.21300 17.79800 29.49500
C  -2.14800 16.83800 30.41600
C  -2.27500 17.46000 31.82000
C  -2.78300 18.94300 31.52200
C  -2.38400 19.04200 30.00400
C  -4.28900 19.15800 31.82400
C  -0.93900 17.45200 32.63300
C  -1.12500 16.83900 34.07200
H  -0.07500 17.16700 35.19100
N  -1.94800 19.47900 26.98500
C  -2.12900 20.43100 27.96600
C  -2.20200 21.69400 27.34200
C  -2.02300 21.52600 25.96800
C  -2.02700 20.02400 25.73400
C  -2.21300 23.01300 28.08100
C  -1.83300 22.54000 24.88200
O  -1.67500 22.22400 23.70400
C  -1.72100 23.98500 25.18600
N  -1.93200 17.02700 25.23000
C  -1.95700 18.00800 24.29600
C  -1.86000 17.30200 22.85800
C  -1.64300 15.82900 23.12700
C  -1.93300 15.78700 24.68300
C  -2.94900 17.60100 21.85100
C  -0.25600 15.20400 22.80400
C  1.08100 15.92900 23.08600
N  -2.19600 15.44500 27.71900
C  -2.27000 14.42400 26.80800
C  -2.25000 13.16900 27.51900
C  -2.17900 13.52100 28.87000
C  -2.10000 14.93500 28.91200
C  -2.23100 11.79100 26.93500
C  -2.11000 13.04300 30.22600
O  -2.14000 11.90800 30.69400
C  -2.12500 14.31800 31.12200
C  -0.86900 14.16000 31.90700
O  0.22400 14.55400 31.46800
O  -1.00500 13.56000 33.13900
C  0.18900 13.35500 33.94000
H  -2.42200 21.05900 30.07000
H  -1.96600 19.91100 23.57900
H  -1.93600 13.74700 24.78100
H  -2.97600 16.83800 32.37600
H  -2.19100 19.68900 32.05300
H  -4.59400 18.44800 32.59300
H  -4.79000 19.13300 30.85700
H  -4.35100 20.16000 32.25000
H  -0.46400 18.41900 32.79900
H  -0.17300 16.93800 32.05200
H  -1.26400 15.75800 34.07200
H  -2.00900 17.26100 34.55000
H  -3.10100 23.54500 27.74100
H  -1.35700 23.60800 27.76200
H  -2.13000 23.01800 29.16700
H  -0.79600 24.10700 25.74900
H  -2.56500 24.30700 25.79600
H  -1.67000 24.46300 24.20700
H  -0.91400 17.67200 22.46300
H  -2.37400 15.21500 22.60100
H  -3.68800 18.27800 22.28000
H  -3.56200 16.71200 21.70100
H  -2.59600 18.07400 20.93400
H  -0.25500 14.92800 21.75000
H  -0.28500 14.25600 23.34100
H  1.77500 15.25200 23.58300
H  1.02200 16.86400 23.64400
H  1.63400 16.05600 22.15500
H  -1.45800 11.72100 26.16900
H  -3.20200 11.47500 26.55500
H  -1.84900 11.13700 27.71900
H  -2.93300 14.36900 31.85200
H  -0.20300 12.71500 34.73100
H  0.69100 14.26200 34.27700
H  0.88700 12.77700 33.33600
Mg 8.79300 48.43200 25.85000
C  7.00700 48.17700 28.87600
C  11.54300 49.31400 27.69100
C  10.44200 49.01400 22.90700
C  5.90200 47.93200 24.10400
N  9.21900 48.78400 28.01600
C  8.37700 48.45200 29.10500
C  9.07000 48.73900 30.44800
C  10.44200 49.30900 29.99900
C  10.44400 49.12900 28.46600
C  10.97800 50.67300 30.48500
C  9.11600 47.54100 31.42200
C  9.85800 47.88500 32.69800
H  8.96500 47.65100 33.97600
N  10.75000 48.99100 25.38900
C  11.75800 49.27300 26.28500
C  12.97800 49.47700 25.59200
C  12.73400 49.39700 24.17800
C  11.26600 49.10400 24.10700
C  14.28900 49.82600 26.31200
C  13.63100 49.39500 22.97600
O  13.27900 49.06700 21.87100
C  15.16300 49.46900 23.28100
N  8.24300 48.64700 23.87700
C  9.14500 48.80800 22.84800
C  8.38400 48.77000 21.46200
C  7.03900 48.12300 21.84700
C  7.00800 48.26700 23.39000
C  8.27200 50.18300 20.72400
C  6.86200 46.68400 21.43400
C  7.70900 45.64500 22.20500
N  6.82800 48.19300 26.32900
C  5.75300 47.84000 25.52000
C  4.52000 47.58300 26.23200
C  4.98800 47.65000 27.58100
C  6.38300 48.07200 27.59000
C  3.16800 47.41300 25.78300
C  4.61200 47.53200 28.91500
O  3.54900 47.13600 29.38800
C  5.86800 47.77000 29.78800
C  6.08400 46.41100 30.41500
O  6.69300 45.41400 29.97400
O  5.34200 46.40400 31.50600
C  5.51100 45.22100 32.36200
H  12.43100 49.45400 28.31100
H  10.93600 49.07300 21.93500
H  5.00700 47.62000 23.56100
H  8.32300 49.37600 30.92100
H  11.18600 48.62700 30.41100
H  11.77000 50.54500 31.22200
H  10.30800 51.26700 31.10700
H  11.28800 51.30900 29.65500
H  9.57000 46.74900 30.82500
H  8.07000 47.36900 31.67600
H  10.34100 48.85900 32.77900
H  10.57200 47.06400 32.76800
H  14.07600 50.12500 27.33900
H  14.96500 50.50400 25.79100
H  14.83300 48.88200 26.28800
H  15.49400 50.42100 23.69700
H  15.75500 49.20700 22.40400
H  15.56800 48.70600 23.94600
H  8.87700 48.05100 20.80900
H  6.18900 48.58900 21.34800
H  7.20800 50.37900 20.59000
H  8.78200 50.01300 19.77600
H  8.84700 50.82600 21.39000
H  7.10800 46.67100 20.37200
H  5.79000 46.50200 21.50600
H  8.51500 46.16000 22.72600
H  8.04700 44.98600 21.40500
H  6.92300 45.19000 22.80800
H  2.97400 46.41600 26.18000
H  3.01700 47.45800 24.70500
H  2.48700 48.15400 26.20200
H  5.57400 48.58700 30.44700
H  5.38300 44.31500 31.77100
H  4.77500 45.29100 33.16200
H  6.47200 45.19100 32.87600

