158

Mg 49.98500 46.02400 43.35300
C  46.56200 46.34500 42.49300
C  49.75500 42.72700 42.11200
C  53.37900 45.70700 43.53700
C  50.21700 49.36300 44.19900
N  48.40300 44.72300 42.31400
C  47.06300 45.08000 42.13400
C  46.24800 43.95100 41.39400
C  47.20600 42.72700 41.59700
C  48.55100 43.35200 42.10200
C  46.74400 41.71900 42.68200
C  46.05300 44.40000 39.88700
C  44.92300 43.65700 39.10400
H  45.38500 43.07100 37.75900
N  51.39800 44.43300 42.82000
C  51.07200 43.14100 42.46900
C  52.27800 42.35900 42.35000
C  53.38100 43.17500 42.80500
C  52.76600 44.51100 43.00200
C  52.23800 40.89600 41.96300
C  54.88700 42.79800 42.85200
O  55.25200 41.67000 42.57400
C  55.97400 43.78000 43.27400
N  51.54800 47.34200 43.75500
C  52.86600 47.02800 43.81500
C  53.78100 48.12600 44.24700
C  52.74300 49.30000 44.56500
C  51.40700 48.62700 44.14100
C  54.92800 47.77000 45.33400
C  53.16000 50.57600 43.79000
C  52.73400 51.94500 44.38500
N  48.66300 47.52600 43.43200
C  48.88500 48.86800 43.80100
C  47.64600 49.59900 43.73800
C  46.71900 48.65700 43.18700
C  47.36900 47.40300 43.08200
C  47.47300 51.05800 44.10800
C  45.33600 48.49300 42.65900
O  44.40100 49.30400 42.36400
C  45.18100 46.96600 42.31100
C  44.13200 46.42000 43.23700
O  43.96600 46.72700 44.41100
O  43.53500 45.35700 42.58900
C  42.70600 44.42900 43.30600
H  49.63100 41.71100 41.73100
H  54.46100 45.64100 43.67100
H  50.31800 50.41700 44.46500
H  45.29100 43.85100 41.90600
H  47.34000 42.24700 40.62700
H  46.40800 40.79100 42.22100
H  45.98000 42.21300 43.28300
H  47.51800 41.54600 43.43000
H  47.00900 44.18300 39.41200
H  45.95600 45.48200 39.80000
H  44.09600 44.34600 38.93700
H  44.50000 42.94600 39.81400
H  52.59200 40.56800 40.98600
H  51.36200 40.25100 42.02900
H  52.92900 40.49300 42.70300
H  55.60400 43.98000 44.28000
H  55.95300 44.61600 42.57500
H  56.93600 43.27200 43.21100
H  54.38700 48.39500 43.38200
H  52.74600 49.56100 45.62300
H  55.92400 48.15000 45.10700
H  55.16400 46.70800 45.39000
H  54.67300 48.24000 46.28400
H  52.51100 50.50400 42.91800
H  54.18700 50.67100 43.43700
H  53.50800 52.69300 44.21200
H  52.57400 51.88400 45.46200
H  51.88800 52.34000 43.82300
H  47.48500 51.27000 45.17700
H  46.49200 51.37200 43.75200
H  48.29500 51.54200 43.57900
H  44.68300 46.92000 41.34200
H  42.00100 43.90700 42.66000
H  42.23600 44.82300 44.20700
H  43.37900 43.61100 43.56600
Mg 43.49000 42.13800 27.00900
C  42.33400 44.26000 29.50600
C  45.22100 40.36900 29.42500
C  44.88600 40.17000 24.47500
C  42.42600 44.31400 24.54600
N  43.64700 42.28200 29.07000
C  42.96200 43.09600 29.93100
C  43.22200 42.75700 31.42700
C  44.35700 41.75600 31.32400
C  44.43600 41.44900 29.81400
C  45.75500 42.23300 31.87200
C  41.91400 42.19700 32.05100
C  42.03400 41.94000 33.53000
H  41.32800 42.86100 34.51600
N  44.80000 40.50700 26.91600
C  45.37800 39.92200 28.05500
C  46.13000 38.72700 27.66600
C  46.10100 38.70100 26.25800
C  45.19800 39.76200 25.83800
C  46.79500 37.94300 28.78200
C  46.76600 37.83400 25.28300
O  46.69100 37.99000 24.06200
C  47.63500 36.73200 25.73700
N  43.60800 42.18000 24.84700
C  44.19200 41.31700 24.02400
C  44.04800 41.61100 22.51200
C  43.18700 42.90900 22.58300
C  43.03100 43.12100 24.13500
C  45.32600 41.61000 21.65200
C  41.88800 42.88600 21.75700
C  40.71400 41.96700 22.35800
N  42.50100 43.94000 26.97600
C  42.10800 44.66800 25.93800
C  41.57600 45.89600 26.40700
C  41.52400 45.70900 27.82200
C  42.14500 44.53200 28.09900
C  41.11900 47.09000 25.57100
C  41.17500 46.33400 29.10900
O  40.77100 47.48300 29.40400
C  41.50700 45.33000 30.28300
C  42.38500 45.91700 31.33900
O  43.42500 46.48600 31.10800
O  41.82300 45.86100 32.59200
C  42.58800 46.59000 33.57900
H  45.57400 39.76600 30.26400
H  45.24100 39.60200 23.61200
H  41.92300 44.94800 23.81300
H  43.49500 43.58800 32.07700
H  44.21300 40.83800 31.89400
H  45.65300 43.12000 32.49700
H  46.50300 42.42400 31.10200
H  46.09600 41.43300 32.52900
H  41.65400 41.31100 31.47300
H  41.19000 42.96400 31.77700
H  43.08800 41.89000 33.80400
H  41.73800 40.89400 33.61900
H  46.09500 37.54800 29.51900
H  47.45700 38.62400 29.31600
H  47.39700 37.12200 28.39300
H  48.48100 37.03300 26.35400
H  48.02600 36.32000 24.80600
H  47.09300 35.97800 26.30700
H  43.44500 40.87900 21.97400
H  43.76000 43.80300 22.33400
H  46.13300 41.49700 22.37600
H  45.58900 42.39100 20.93800
H  45.30900 40.67700 21.09000
H  42.23600 42.56300 20.77600
H  41.60100 43.91400 21.53700
H  40.33600 41.29300 21.58900
H  39.88900 42.49400 22.83600
H  41.06900 41.25900 23.10700
H  40.39400 46.61100 24.91300
H  41.98100 47.48300 25.03300
H  40.75500 47.83400 26.28000
H  40.61900 44.83900 30.67900
H  43.64500 46.33200 33.51300
H  42.21000 46.39300 34.58200
H  42.49700 47.65200 33.35100

