158

Mg -10.05900 38.28000 40.81400
C  -7.99800 35.46800 40.08600
C  -7.69300 40.23200 39.22900
C  -12.34900 40.81200 40.94500
C  -12.62600 35.96100 41.65000
N  -8.09300 37.85700 39.73900
C  -7.39800 36.70500 39.61600
C  -6.07300 36.87900 38.86900
C  -5.87400 38.41500 38.87100
C  -7.31600 38.86100 39.24000
C  -4.75000 39.04000 39.74000
C  -6.16300 36.28400 37.44300
C  -4.82100 35.56400 36.98600
H  -4.26900 35.79500 35.61200
N  -9.99600 40.23400 40.31800
C  -8.87100 40.91200 39.73600
C  -9.17100 42.29800 39.49300
C  -10.54800 42.43600 39.96500
C  -11.01800 41.14500 40.43800
C  -8.26200 43.34200 38.72400
C  -11.21600 43.82800 40.06000
O  -10.64500 44.77300 39.60600
C  -12.48400 44.02600 40.81900
N  -12.21300 38.34900 41.19700
C  -12.90800 39.53800 41.18500
C  -14.36700 39.27300 41.69500
C  -14.41300 37.72100 41.92200
C  -13.00000 37.32800 41.55800
C  -14.79800 40.07900 42.98900
C  -15.47300 36.99800 41.07900
C  -16.94000 37.34200 41.43800
N  -10.36600 36.13200 40.89000
C  -11.37800 35.38700 41.30300
C  -10.93800 34.05700 41.48400
C  -9.67700 33.96700 40.95400
C  -9.31000 35.31600 40.61300
C  -11.90300 32.92900 41.97100
C  -8.55000 33.19800 40.53500
O  -8.35800 32.03000 40.60300
C  -7.45400 34.11300 39.87500
C  -6.16700 33.91800 40.53600
O  -5.23600 33.34600 39.97600
O  -6.22000 34.22400 41.89000
C  -5.06600 33.83900 42.68500
H  -7.09200 40.95200 38.67000
H  -13.10400 41.60000 40.98400
H  -13.30700 35.25700 42.13400
H  -5.43300 36.42400 39.62500
H  -5.62000 38.61600 37.83000
H  -5.24000 39.48200 40.60800
H  -4.18000 39.68400 39.06900
H  -4.14100 38.36400 40.34000
H  -6.47700 37.03000 36.71300
H  -7.05300 35.66000 37.52800
H  -4.91000 34.48500 37.11300
H  -4.01600 35.79800 37.68200
H  -7.76300 43.94700 39.48100
H  -8.94300 43.92500 38.10300
H  -7.61100 42.81900 38.02400
H  -12.38100 43.66400 41.84200
H  -13.30900 43.51900 40.31900
H  -12.59900 45.10900 40.78000
H  -15.00100 39.63600 40.88600
H  -14.58600 37.45200 42.96500
H  -14.66600 41.15400 42.87100
H  -13.96400 39.96200 43.68300
H  -15.72800 39.75700 43.45700
H  -15.40900 35.91000 41.05600
H  -15.14200 37.32700 40.09400
H  -17.55200 37.47700 40.54600
H  -17.11000 38.16300 42.13600
H  -17.35300 36.49800 41.99000
H  -12.91200 33.07400 41.58400
H  -11.89500 32.82000 43.05500
H  -11.66900 31.95000 41.55200
H  -7.38000 33.70800 38.86600
H  -5.41100 33.96300 43.71100
H  -4.23200 34.53000 42.56800
H  -4.73200 32.80300 42.61800
Mg -3.74100 26.18800 25.69600
C  -2.37300 27.40900 28.60200
C  -5.86300 24.19400 27.41200
C  -4.26600 24.48800 22.81500
C  -1.28200 28.04700 23.85400
N  -4.07300 25.81800 27.76700
C  -3.44400 26.54100 28.81600
C  -3.97500 26.05800 30.20100
C  -5.04000 24.87600 29.72500
C  -4.96600 24.99600 28.18900
C  -4.71700 23.41600 30.25000
C  -4.63300 27.26000 31.00900
C  -5.68500 26.91200 32.13700
H  -5.33200 25.74500 33.06000
N  -5.00200 24.59200 25.21300
C  -5.86500 23.94400 26.01100
C  -6.76300 23.07200 25.22900
C  -6.17000 23.08200 23.88900
C  -5.15600 24.13100 23.94800
C  -7.82400 22.31500 25.87300
C  -6.43400 22.20400 22.70100
O  -5.78300 22.21600 21.63600
C  -7.58000 21.22500 22.70600
N  -2.85800 26.25200 23.59900
C  -3.20600 25.39300 22.66500
C  -2.49300 25.53000 21.26000
C  -1.57000 26.68600 21.65700
C  -1.96400 27.12400 23.08900
C  -1.84700 24.19000 20.73900
C  -1.51200 27.86100 20.62700
C  -0.13700 28.47200 20.58300
N  -2.33100 27.63600 26.05400
C  -1.41600 28.33400 25.24400
C  -0.71300 29.32000 26.08600
C  -0.96600 28.84000 27.38200
C  -1.95700 27.89200 27.30100
C  0.21800 30.25700 25.61700
C  -0.56600 29.01900 28.77100
O  0.32100 29.72300 29.22400
C  -1.46200 28.12400 29.64100
C  -0.62400 27.33300 30.55000
O  0.17900 26.46700 30.27200
O  -0.83700 27.73200 31.79400
C  -0.27400 26.89800 32.79800
H  -6.52200 23.55300 28.00100
H  -4.52600 24.00000 21.87200
H  -0.52100 28.47300 23.19700
H  -3.20300 25.57100 30.79700
H  -6.07400 25.08700 29.99500
H  -3.65900 23.29700 30.48200
H  -4.91800 22.70500 29.44900
H  -5.27800 23.06800 31.11700
H  -4.81400 28.01300 30.24300
H  -3.78600 27.57700 31.61800
H  -6.61700 26.69500 31.61500
H  -5.91200 27.76900 32.77200
H  -8.62100 22.15000 25.14800
H  -8.20000 22.78000 26.78400
H  -7.41500 21.33300 26.11200
H  -7.46500 20.76700 23.68800
H  -7.47200 20.45600 21.94200
H  -8.58500 21.59100 22.49400
H  -3.28900 25.78200 20.55900
H  -0.57200 26.26600 21.78800
H  -2.48500 23.67500 20.02200
H  -1.47000 23.62000 21.58800
H  -0.96500 24.57100 20.22300
H  -2.13400 28.69400 20.95700
H  -1.80000 27.70000 19.58800
H  -0.09100 28.85800 19.56400
H  0.58600 27.68000 20.77900
H  -0.10000 29.32300 21.26300
H  -0.15600 30.62400 24.66100
H  1.28100 30.02100 25.66300
H  0.20500 31.15900 26.22900
H  -2.13800 28.71500 30.25900
H  0.73100 27.29600 32.94000
H  -0.29400 25.83100 32.57700
H  -0.91300 27.08900 33.66000

