158

Mg 24.59100 -5.88600 45.54600
C  26.98100 -3.63300 44.16600
C  22.18600 -4.41800 43.55400
C  22.67800 -8.50200 46.18600
C  27.11000 -7.14800 47.65600
N  24.65000 -4.33000 43.88000
C  25.69100 -3.51300 43.55100
C  25.28400 -2.50000 42.51500
C  23.73400 -2.53000 42.67800
C  23.44600 -3.82800 43.46000
C  23.03000 -1.39600 43.41500
C  25.83700 -2.80200 41.06600
C  26.46600 -1.67500 40.22000
H  26.05900 -1.73500 38.78800
N  22.65500 -6.45000 44.96400
C  21.80700 -5.65200 44.23500
C  20.55100 -6.37300 44.04500
C  20.69800 -7.58400 44.72900
C  22.03400 -7.56900 45.29700
C  19.34600 -6.01100 43.14500
C  19.66700 -8.75000 44.81500
O  18.55500 -8.52400 44.36300
C  19.94900 -10.16300 45.39800
N  24.92100 -7.67900 46.61900
C  23.97800 -8.62100 46.76000
C  24.44500 -9.79600 47.56700
C  25.82500 -9.31400 48.16800
C  26.02600 -7.92800 47.49500
C  23.53600 -10.55900 48.50600
C  27.03400 -10.30800 48.04200
C  27.84800 -10.40400 49.34600
N  26.63700 -5.47600 45.91300
C  27.46800 -5.99700 46.83800
C  28.79300 -5.34100 46.74200
C  28.65100 -4.45700 45.65800
C  27.34000 -4.58400 45.16500
C  30.06100 -5.70700 47.51600
C  29.33800 -3.39900 44.90100
O  30.47300 -2.91900 45.07700
C  28.27000 -2.85900 43.90100
C  28.05900 -1.36800 44.08600
O  27.38200 -0.86400 44.96400
O  28.68400 -0.63300 43.13900
C  28.47700 0.84000 43.23100
H  21.47200 -3.89700 42.91300
H  22.08200 -9.36900 46.47800
H  27.86600 -7.42200 48.39500
H  25.65900 -1.52800 42.83500
H  23.35500 -2.59900 41.65900
H  22.59900 -1.78600 44.33700
H  22.31600 -0.80300 42.84300
H  23.76500 -0.63800 43.68900
H  24.94900 -3.04900 40.48300
H  26.52500 -3.63900 41.18900
H  27.50700 -1.93600 40.40800
H  26.20300 -0.74700 40.72800
H  18.38500 -6.29500 43.57300
H  19.39000 -6.58700 42.22100
H  19.34700 -4.92100 43.15200
H  19.17500 -10.79800 44.96600
H  19.95600 -10.23100 46.48500
H  20.98300 -10.45200 45.21000
H  24.68500 -10.64200 46.92200
H  25.62900 -9.13300 49.22500
H  24.08400 -10.84200 49.40500
H  23.15600 -11.41800 47.95200
H  22.68200 -9.95500 48.81300
H  27.71600 -10.08100 47.22300
H  26.83300 -11.35900 47.83400
H  28.91300 -10.40200 49.11400
H  27.66700 -11.35700 49.84300
H  27.52500 -9.64300 50.05600
H  30.63200 -6.45500 46.96500
H  29.93900 -6.15800 48.50100
H  30.69200 -4.85400 47.76500
H  28.49200 -3.07700 42.85600
H  29.46200 1.30300 43.28800
H  27.81200 1.25300 43.98900
H  28.00600 1.23500 42.33000
Mg 56.00800 23.10200 44.36500
C  53.77100 25.60400 43.24600
C  53.92600 20.69200 43.18900
C  58.43400 20.82000 44.69800
C  58.27500 25.58700 45.27400
N  54.06900 23.13600 43.29600
C  53.31300 24.24200 43.03100
C  51.90400 23.82700 42.53000
C  51.90400 22.26000 42.81500
C  53.40300 21.97500 43.17400
C  50.94100 21.75800 43.93600
C  51.64400 24.14800 41.03300
C  50.26300 24.60700 40.81000
H  49.49700 23.84100 39.73000
N  56.12200 21.02300 44.05400
C  55.14600 20.27100 43.63500
C  55.54800 18.92600 43.71100
C  56.95900 18.90900 44.01000
C  57.23600 20.25700 44.24900
C  54.69100 17.67700 43.36000
C  57.80800 17.60100 44.16200
O  57.36500 16.48600 44.02800
C  59.19200 17.69800 44.62200
N  58.05300 23.21200 44.87300
C  58.79800 22.14900 44.95100
C  60.23600 22.53000 45.41500
C  60.07700 23.99900 45.87400
C  58.74500 24.27100 45.38700
C  60.92500 21.66200 46.53800
C  61.20000 24.98500 45.22700
C  61.98300 25.89800 46.18300
N  56.06700 25.23100 44.32300
C  57.00000 26.04200 44.74300
C  56.53600 27.39900 44.57900
C  55.23200 27.27800 44.04300
C  55.03700 25.89500 43.82500
C  57.29100 28.57900 44.98600
C  54.12300 27.98400 43.58500
O  53.95500 29.21200 43.60100
C  53.09200 26.93800 43.07100
C  52.74900 27.32700 41.59400
O  53.36300 27.11400 40.55600
O  51.52500 27.87100 41.63600
C  51.05700 28.53000 40.37400
H  53.16900 19.93500 42.97100
H  59.21800 20.06200 44.65700
H  58.93500 26.37900 45.63400
H  51.09100 24.23100 43.13300
H  51.64200 21.75800 41.88400
H  51.52900 21.59500 44.83900
H  50.64500 20.75300 43.63300
H  50.06000 22.38200 44.08600
H  51.88600 23.26400 40.44300
H  52.32100 24.92600 40.67800
H  50.35100 25.67300 40.59900
H  49.65300 24.75500 41.70200
H  54.58300 17.16700 44.31700
H  55.16800 17.01600 42.63700
H  53.69600 17.90700 42.98100
H  59.93200 17.97100 43.87000
H  59.47800 16.66100 44.79800
H  59.23200 18.06200 45.64900
H  60.88400 22.43000 44.54400
H  60.12900 23.98800 46.96200
H  61.95100 21.42900 46.25300
H  60.46800 20.67200 46.53500
H  60.90200 22.15700 47.50800
H  60.74700 25.62500 44.47000
H  61.86800 24.33100 44.66700
H  61.46600 25.94200 47.14200
H  62.14800 26.90500 45.80000
H  62.98100 25.51300 46.39700
H  58.20600 28.62700 44.39500
H  57.52900 28.45800 46.04300
H  56.68800 29.45500 44.74900
H  52.21600 26.78400 43.70100
H  51.72200 28.31400 39.53900
H  51.04700 29.59800 40.59100
H  50.02500 28.26300 40.14600

