158

Mg 24.03900 -4.62300 46.08400
C  26.18400 -2.22300 44.52300
C  21.54100 -3.29400 44.10100
C  22.22000 -7.25400 46.76400
C  26.83900 -5.95500 47.69600
N  23.88300 -3.00400 44.37700
C  24.92700 -2.17000 44.04000
C  24.38900 -1.01700 43.12100
C  22.82400 -1.26900 43.21100
C  22.70800 -2.60600 43.95700
C  22.01300 -0.09100 43.72300
C  25.00800 -1.24800 41.64800
C  25.02000 -0.04400 40.77200
H  24.39700 -0.30000 39.37000
N  22.17600 -5.20400 45.56400
C  21.26100 -4.51600 44.70000
C  20.02100 -5.30400 44.62300
C  20.17500 -6.46100 45.47800
C  21.51000 -6.29200 46.06600
C  18.91500 -4.79100 43.77100
C  19.09700 -7.55400 45.71100
O  18.07900 -7.45800 45.03900
C  19.21400 -8.55200 46.79100
N  24.43100 -6.27800 47.12300
C  23.52300 -7.30000 47.26500
C  24.10400 -8.56100 47.85900
C  25.41700 -7.96100 48.44300
C  25.58100 -6.62800 47.76000
C  23.26100 -9.34900 48.89600
C  26.59000 -8.98100 48.33700
C  27.65800 -8.92200 49.45100
N  26.15500 -4.20400 46.20700
C  27.13100 -4.79600 46.92100
C  28.42900 -4.17800 46.66200
C  28.07100 -3.10900 45.73000
C  26.68900 -3.14200 45.51200
C  29.69600 -4.72000 46.97900
C  28.62000 -1.98400 44.92200
O  29.76600 -1.63600 44.75100
C  27.46400 -1.36900 44.08600
C  27.24300 0.11400 44.40300
O  26.79400 0.55800 45.44700
O  27.54500 0.85500 43.35600
C  27.45800 2.32000 43.53300
H  20.67100 -2.76100 43.71300
H  21.67100 -8.18500 46.91900
H  27.66100 -6.44500 48.22000
H  24.66200 -0.06400 43.57300
H  22.44200 -1.53900 42.22700
H  22.72000 0.73800 43.75000
H  21.66600 -0.35400 44.72200
H  21.23200 0.05800 42.97800
H  24.43000 -1.97800 41.08200
H  26.02600 -1.63400 41.70800
H  25.99700 0.40500 40.59600
H  24.41500 0.68600 41.31000
H  19.08900 -5.24000 42.79200
H  18.87400 -3.70900 43.64500
H  17.92100 -5.18800 43.97800
H  18.34000 -9.20200 46.83200
H  19.33100 -8.17600 47.80700
H  20.01100 -9.26000 46.56300
H  24.40200 -9.24500 47.06400
H  25.13700 -7.74500 49.47400
H  22.60400 -10.18900 48.67400
H  22.70100 -8.55500 49.39000
H  23.95600 -9.68600 49.66500
H  27.12000 -8.74200 47.41500
H  26.26500 -10.01600 48.22500
H  27.95400 -9.91100 49.80100
H  27.28300 -8.36200 50.30700
H  28.41800 -8.34200 48.92700
H  30.49100 -4.05900 46.63400
H  29.76700 -5.76300 46.66900
H  29.74600 -4.62700 48.06400
H  27.67400 -1.68100 43.06300
H  27.93500 2.62700 44.46300
H  26.41000 2.59700 43.64800
H  28.02500 2.81100 42.74200
Mg 47.87200 24.84700 29.60700
C  49.05700 27.13000 31.89000
C  46.56800 22.99600 32.02200
C  47.08300 22.39200 27.25500
C  49.57700 26.62600 27.06600
N  47.92200 25.05400 31.76600
C  48.36600 26.08200 32.48700
C  47.94500 26.00000 34.02400
C  47.46600 24.42800 34.00900
C  47.28100 24.11200 32.51200
C  48.47500 23.49800 34.73600
C  46.79000 26.91200 34.48500
C  47.02900 27.97600 35.56400
H  45.94800 28.04200 36.69600
N  46.91000 22.96400 29.66900
C  46.43000 22.35700 30.79200
C  45.79400 21.16500 30.54200
C  45.97400 20.94300 29.15800
C  46.72100 22.13600 28.59500
C  45.09300 20.24600 31.58400
C  45.61500 19.78500 28.29900
O  45.77900 19.80500 27.06400
C  44.77000 18.70900 28.81200
N  48.34400 24.53600 27.46100
C  47.89300 23.41800 26.77100
C  48.47200 23.51000 25.27000
C  49.04300 24.95600 25.20700
C  49.01600 25.40400 26.72700
C  49.36300 22.37700 24.61600
C  48.27000 25.88700 24.21900
C  48.72000 26.06100 22.71200
N  48.96000 26.56700 29.42100
C  49.56100 27.18600 28.35500
C  50.09700 28.37600 28.74700
C  49.95600 28.44200 30.08800
C  49.25200 27.27600 30.45500
C  50.70100 29.46700 27.99000
C  50.14900 29.22800 31.30000
O  50.59600 30.34600 31.53300
C  49.63500 28.42000 32.53800
C  50.79000 28.08200 33.42000
O  51.53600 27.17700 33.25200
O  50.86700 29.01400 34.49300
C  51.85800 28.84900 35.59600
H  46.10400 22.55500 32.90700
H  46.91200 21.66800 26.45500
H  50.01800 27.18600 26.23900
H  48.83000 26.19200 34.63000
H  46.48600 24.27300 34.46100
H  48.30700 22.42900 34.60100
H  48.36800 23.78900 35.78100
H  49.46200 23.71800 34.32900
H  46.10300 26.14500 34.84200
H  46.26500 27.36500 33.64400
H  47.04100 28.91700 35.01400
H  48.07000 27.92400 35.88300
H  45.72900 19.37300 31.72400
H  44.12800 19.83800 31.28200
H  44.96500 20.63300 32.59500
H  44.60300 17.88900 28.11300
H  43.89500 19.24500 29.17800
H  45.26500 18.32000 29.70200
H  47.58600 23.49700 24.63500
H  50.07500 24.79900 24.89300
H  50.30600 22.74800 24.21300
H  48.76000 22.02800 23.77700
H  49.48200 21.55500 25.32200
H  48.28300 26.90900 24.59600
H  47.21400 25.61600 24.19800
H  49.59100 25.44000 22.50200
H  49.05200 27.08700 22.54900
H  47.93500 25.80300 22.00200
H  51.08300 29.05800 27.05400
H  51.47700 29.93100 28.59800
H  49.89200 30.12800 27.67700
H  48.88900 28.95300 33.12700
H  51.60200 29.62800 36.31400
H  52.88700 29.03500 35.28900
H  51.83800 27.88500 36.10400

