158

Mg 54.69700 23.75900 44.49600
C  52.15800 25.87100 43.35800
C  52.78300 21.07600 43.57500
C  57.40000 21.90400 45.01100
C  56.33100 26.56900 45.81700
N  52.73100 23.56900 43.39900
C  51.90400 24.54300 43.07100
C  50.59200 23.93400 42.47300
C  50.60000 22.40900 43.11800
C  52.10800 22.32000 43.35700
C  49.76600 22.21900 44.40800
C  50.54800 23.97700 40.85100
C  49.12700 24.05700 40.35700
H  48.74600 23.71800 38.93300
N  55.06000 21.83000 44.07500
C  54.15800 20.83000 43.71200
C  54.72000 19.47800 43.79300
C  56.07000 19.68100 44.31000
C  56.26600 21.19300 44.45100
C  53.89000 18.22800 43.38700
C  57.00800 18.50000 44.71600
O  56.70400 17.30800 44.71200
C  58.49400 18.86400 45.06400
N  56.69700 24.26500 45.09900
C  57.61200 23.33100 45.28700
C  58.90700 23.95300 45.84300
C  58.44800 25.37400 46.29000
C  57.07600 25.43300 45.75900
C  59.54600 23.16100 46.97400
C  59.42400 26.52800 45.87700
C  59.84900 27.41200 47.02400
N  54.40700 25.83700 44.57900
C  55.11900 26.85800 45.15700
C  54.37100 28.07400 45.10500
C  53.22300 27.78600 44.29300
C  53.29700 26.39600 44.01900
C  54.75700 29.36400 45.59200
C  51.99400 28.31900 43.82100
O  51.49800 29.47900 43.94000
C  51.29900 27.13800 43.14100
C  51.02200 27.45500 41.70400
O  51.87500 27.54200 40.83800
O  49.69700 27.60300 41.41500
C  49.53500 27.96500 40.00100
H  52.06800 20.25500 43.49100
H  58.30100 21.34400 45.27200
H  56.94200 27.36600 46.24600
H  49.74500 24.57200 42.72500
H  50.38300 21.63300 42.38400
H  50.45700 22.10100 45.24400
H  49.13500 21.33100 44.43700
H  49.10400 23.08000 44.49700
H  50.97800 23.03200 40.52100
H  51.14500 24.81400 40.49100
H  48.91400 25.12600 40.35900
H  48.58600 23.48900 41.11400
H  53.42700 18.48700 42.43500
H  53.07400 17.90400 44.03300
H  54.48300 17.36600 43.08000
H  58.90000 19.54000 44.31100
H  59.15000 18.00000 44.96700
H  58.49900 19.13000 46.12100
H  59.56300 24.02100 44.97500
H  58.36900 25.38500 47.37700
H  60.28200 22.45800 46.58300
H  58.83200 22.51300 47.48300
H  59.95300 23.87500 47.69000
H  58.85900 27.03700 45.09600
H  60.39100 26.08900 45.63100
H  60.65200 27.00100 47.63600
H  58.94400 27.59900 47.60200
H  60.12400 28.37100 46.58600
H  55.81600 29.31600 45.84700
H  54.29700 29.78800 46.48500
H  54.68300 30.15000 44.84100
H  50.35800 26.92200 43.64700
H  49.66000 29.03700 39.84800
H  48.50800 27.70100 39.74900
H  50.17500 27.35700 39.36300
Mg 47.67200 16.21500 27.58000
C  45.75300 16.25700 30.56000
C  50.06500 17.99600 29.25200
C  49.24500 16.43200 24.76300
C  44.80900 14.87500 26.00500
N  47.82700 16.90700 29.70500
C  47.02400 16.74200 30.79700
C  47.64200 17.22600 32.10200
C  48.93300 18.08100 31.57700
C  48.94200 17.60300 30.01300
C  48.78500 19.60500 31.62900
C  48.06300 15.97400 33.02300
C  47.68900 16.23000 34.55900
H  47.74400 17.62300 35.16500
N  49.53700 17.00700 27.12000
C  50.37800 17.65100 27.92600
C  51.50200 18.09300 27.17500
C  51.32600 17.59200 25.84600
C  49.95000 16.99200 25.82600
C  52.69900 18.61700 27.95000
C  52.17300 17.62800 24.61000
O  51.92800 16.91700 23.55500
C  53.49900 18.41600 24.64600
N  47.04200 15.74300 25.64500
C  47.92800 15.89300 24.62900
C  47.26200 15.41200 23.23200
C  45.89400 14.83800 23.68100
C  45.89500 15.12300 25.18900
C  47.22000 16.60200 22.28500
C  45.73200 13.29200 23.41100
C  44.84800 12.78600 22.23500
N  45.63700 15.70600 28.08700
C  44.70700 15.15400 27.38900
C  43.53000 14.86600 28.28100
C  43.94300 15.25300 29.51700
C  45.18800 15.82700 29.32600
C  42.21700 14.19600 27.91700
C  43.58600 15.29500 30.91400
O  42.51900 14.99300 31.40600
C  44.72600 15.91500 31.65300
C  44.15400 17.01900 32.50100
O  43.78100 18.11200 32.04200
O  44.06300 16.71900 33.85800
C  43.59500 17.72900 34.75600
H  50.76100 18.57300 29.86400
H  49.75400 16.45800 23.79800
H  43.98000 14.33200 25.54600
H  46.93500 17.97700 32.45500
H  49.88700 17.68900 31.92900
H  47.95500 19.81900 32.30200
H  48.46300 20.05300 30.68800
H  49.74600 20.08100 31.82400
H  49.11000 15.67700 32.95900
H  47.36700 15.17200 32.77400
H  48.35500 15.66300 35.21000
H  46.70800 15.78000 34.70600
H  53.32000 17.83200 28.38100
H  52.41400 19.34700 28.70700
H  53.35200 19.17000 27.27500
H  53.39800 19.30500 25.26800
H  53.73700 18.69300 23.61900
H  54.30100 17.79100 25.03800
H  47.91700 14.68200 22.75600
H  45.02900 15.39400 23.31800
H  47.84800 17.46500 22.51000
H  46.19900 16.96800 22.39600
H  47.54700 16.16600 21.34100
H  45.40700 12.74000 24.29300
H  46.74400 12.93200 23.22900
H  45.41300 12.08600 21.61900
H  44.41500 13.58900 21.63800
H  43.93700 12.23700 22.47300
H  42.30100 13.15500 28.23000
H  41.92600 14.33700 26.87600
H  41.34000 14.57400 28.44300
H  45.11400 15.17800 32.35600
H  43.07400 17.22400 35.56800
H  42.92800 18.45600 34.29200
H  44.42700 18.28500 35.18800

