158

Mg 25.88000 0.02700 29.00300
C  27.91400 -0.23300 31.83900
C  23.23100 0.26300 31.01900
C  23.87600 0.43700 26.16900
C  28.50900 -0.60400 26.88100
N  25.64000 0.05400 31.21400
C  26.58600 0.04200 32.17500
C  26.00100 0.37600 33.55500
C  24.47200 0.51600 33.26300
C  24.40600 0.30400 31.74900
C  23.35000 -0.13700 34.10500
C  26.72800 1.55400 34.26000
C  26.82400 1.39200 35.79400
H  26.37200 2.41400 36.78000
N  23.85200 0.24700 28.68200
C  22.91000 0.28700 29.66700
C  21.62000 0.40600 29.06300
C  21.80000 0.59200 27.65200
C  23.23000 0.44400 27.43900
C  20.33700 0.47400 29.94900
C  20.76700 0.85300 26.61600
O  20.92600 0.84800 25.38700
C  19.37800 1.24500 26.97600
N  26.16500 0.05500 26.88800
C  25.18600 0.22300 25.92800
C  25.84800 0.14300 24.53800
C  27.29000 -0.30500 24.80200
C  27.31700 -0.25400 26.30600
C  25.04800 -0.77800 23.51100
C  28.32300 0.53200 24.07100
C  28.77900 1.83600 24.74000
N  27.72100 -0.51200 29.27500
C  28.76200 -0.72200 28.30000
C  30.03300 -0.91600 28.98300
C  29.74100 -0.79500 30.37800
C  28.35800 -0.47500 30.50400
C  31.33700 -1.21100 28.38900
C  30.32300 -0.75600 31.70200
O  31.49100 -0.83400 32.05200
C  29.18100 -0.27300 32.66300
C  29.02300 -1.24500 33.83600
O  28.28300 -2.17000 33.81200
O  29.71700 -0.85400 34.99100
C  29.37600 -1.48800 36.25500
H  22.31900 0.44200 31.59200
H  23.13000 0.31200 25.38200
H  29.34100 -0.84100 26.21500
H  26.21600 -0.46700 34.21200
H  24.14000 1.54300 33.41700
H  22.77800 -0.89000 33.56300
H  22.69100 0.59400 34.57300
H  23.70000 -0.68600 34.97900
H  26.23800 2.51000 34.07400
H  27.65400 1.85200 33.76700
H  27.88600 1.15800 35.86800
H  26.33200 0.46200 36.07700
H  19.42700 0.05800 29.51800
H  20.12400 1.51200 30.20700
H  20.40700 0.04100 30.94700
H  19.24500 1.88000 27.85200
H  18.85800 0.29700 27.10900
H  18.91700 1.67900 26.08900
H  25.88600 1.14500 24.11100
H  27.50900 -1.33400 24.52000
H  24.04100 -0.96400 23.88400
H  25.54900 -1.73700 23.37900
H  25.05300 -0.28300 22.53900
H  27.81500 0.88000 23.17100
H  29.19600 -0.07200 23.82300
H  28.46800 1.99500 25.77300
H  28.27800 2.64000 24.20000
H  29.85300 2.02200 24.74200
H  32.00200 -0.38400 28.63900
H  31.23200 -1.32000 27.30900
H  31.69600 -2.17900 28.73800
H  29.50400 0.71200 33.00000
H  30.29700 -1.76300 36.76900
H  28.68600 -2.33200 36.27500
H  28.80600 -0.73800 36.80400
Mg 6.62900 53.44400 41.46400
C  6.38600 49.95700 41.63900
C  9.89600 52.91500 40.28000
C  6.67000 56.59200 40.41500
C  3.17400 53.62600 42.21700
N  7.89400 51.61100 40.87500
C  7.57900 50.30300 41.11400
C  8.72400 49.37100 40.73900
C  9.97200 50.35400 40.70100
C  9.25300 51.70700 40.62700
C  11.06100 50.12900 41.82700
C  8.54900 48.46200 39.50600
C  7.89300 49.05500 38.24300
H  6.78900 48.26600 37.52800
N  8.06300 54.59600 40.57700
C  9.32400 54.19500 40.19500
C  10.05000 55.45600 39.73300
C  9.16100 56.56700 39.77900
C  7.92700 55.98600 40.28300
C  11.51500 55.45200 39.22300
C  9.42600 58.03000 39.39000
O  10.47700 58.42000 38.89800
C  8.43000 59.09500 39.45100
N  5.00300 54.78200 41.12400
C  5.40400 56.08300 40.85600
C  4.19100 57.00200 41.03600
C  3.09100 56.10200 41.68300
C  3.71300 54.77000 41.66300
C  4.45900 58.27300 41.87500
C  1.72300 55.92300 40.88500
C  0.42700 56.29000 41.62100
N  5.07900 52.16700 42.03600
C  3.73200 52.34400 42.38600
C  3.23700 51.07800 42.91900
C  4.27800 50.15200 42.68500
C  5.35200 50.83700 42.05700
C  1.91700 50.94700 43.56900
C  4.62200 48.74900 42.82900
O  4.02900 47.86100 43.39300
C  5.92200 48.58700 42.03400
C  5.53300 47.65000 40.92700
O  4.78100 47.97600 40.00300
O  5.89200 46.36700 41.25900
C  5.64500 45.28900 40.26300
H  10.95600 52.80200 40.04300
H  6.54400 57.66000 40.22400
H  2.16700 53.69300 42.63500
H  8.83600 48.65400 41.55300
H  10.47200 50.20600 39.74400
H  11.24200 50.98200 42.48100
H  11.93600 49.86400 41.23500
H  10.93900 49.20700 42.39500
H  8.09800 47.53600 39.86300
H  9.53900 48.15400 39.17000
H  8.69700 48.97700 37.51100
H  7.60800 50.10200 38.34900
H  12.23100 54.94400 39.86900
H  12.00700 56.42100 39.30100
H  11.69300 55.10900 38.20400
H  8.19000 59.35300 40.48300
H  7.54000 58.69000 38.97100
H  8.78700 59.94800 38.87400
H  3.82300 57.39300 40.08700
H  2.81000 56.37200 42.70100
H  4.13900 59.17400 41.35100
H  5.53500 58.27500 42.05000
H  3.95000 58.33600 42.83600
H  1.59500 54.94400 40.42400
H  1.80500 56.61200 40.04400
H  0.49000 56.21900 42.70700
H  -0.26800 55.48300 41.38800
H  0.14500 57.30500 41.33900
H  1.23000 50.74300 42.74700
H  1.56200 51.90900 43.93800
H  1.87400 50.11600 44.27300
H  6.75200 48.06200 42.50600
H  4.62000 45.37100 39.90300
H  5.76100 44.33500 40.77800
H  6.36100 45.46600 39.46000

