158

Mg 49.29000 47.20700 43.63000
C  45.98700 47.76100 42.83200
C  49.00000 44.11400 42.14000
C  52.60700 47.04200 43.80500
C  49.45100 50.55900 44.73200
N  47.70900 46.13400 42.54500
C  46.47800 46.55800 42.29100
C  45.63700 45.61100 41.32800
C  46.57700 44.36200 41.27300
C  47.82800 44.86700 42.01600
C  45.96700 43.03600 41.69400
C  45.32200 46.38400 39.97600
C  43.78100 46.34900 39.64700
H  43.30300 45.77800 38.35300
N  50.62700 45.66200 43.11700
C  50.32100 44.43900 42.59000
C  51.51700 43.64300 42.64900
C  52.61200 44.51000 43.08900
C  51.97800 45.79900 43.34900
C  51.55300 42.25300 42.03200
C  53.96400 44.14000 43.34100
O  54.27400 42.98600 43.10600
C  55.04000 44.98000 43.70200
N  50.87600 48.64900 44.15400
C  52.12500 48.21200 44.27100
C  53.02200 49.33900 44.89500
C  52.01900 50.52200 45.13000
C  50.69700 49.85900 44.68300
C  53.95200 48.92300 46.05800
C  52.31300 51.84000 44.51500
C  51.96200 53.07400 45.41800
N  48.01800 48.87700 43.86200
C  48.19400 50.14800 44.34600
C  46.95700 50.91500 44.30200
C  46.03300 49.97000 43.74200
C  46.76700 48.70100 43.52400
C  46.82800 52.37700 44.71400
C  44.65400 49.77000 43.44200
O  43.69000 50.51700 43.43900
C  44.56300 48.28700 42.83700
C  43.73100 47.43600 43.72600
O  43.67100 47.55300 44.94100
O  43.03000 46.54500 42.95200
C  42.04800 45.65700 43.69800
H  49.00900 43.07600 41.80100
H  53.60600 46.97400 44.24100
H  49.57300 51.60600 45.01500
H  44.76800 45.23800 41.86900
H  46.88500 44.14100 40.25100
H  44.88500 42.92000 41.75200
H  46.36700 42.67400 42.64200
H  46.22100 42.23200 41.00300
H  45.95100 46.01900 39.16500
H  45.46400 47.45300 40.13800
H  43.45600 47.38600 39.72800
H  43.24800 45.81800 40.43600
H  51.55900 41.49700 42.81800
H  52.24800 42.11700 41.20400
H  50.68200 41.93600 41.45800
H  55.02000 45.75500 42.93600
H  55.98100 44.43200 43.75200
H  54.83400 45.42200 44.67600
H  53.66300 49.56600 44.04300
H  51.78500 50.62300 46.19000
H  53.75200 47.85100 46.07500
H  53.76700 49.50300 46.96200
H  54.92100 49.19400 45.64100
H  51.78300 51.83300 43.56200
H  53.38700 51.92400 44.34700
H  51.13800 53.68600 45.04900
H  52.77700 53.79600 45.46500
H  51.77500 52.80200 46.45700
H  47.24700 52.89700 43.85300
H  47.37400 52.49000 45.65100
H  45.80600 52.73700 44.83600
H  44.13700 48.33500 41.83500
H  42.49200 45.12000 44.53600
H  41.85400 44.86400 42.97600
H  41.13000 46.14200 44.03100
Mg -12.37100 16.26200 41.81400
C  -9.50200 14.33300 41.29600
C  -10.78200 18.96900 40.37100
C  -15.32000 17.58800 41.65800
C  -13.95400 13.10500 42.98200
N  -10.45200 16.54900 40.65400
C  -9.37900 15.61000 40.69700
C  -8.12900 16.19000 40.06000
C  -8.54700 17.64300 39.78600
C  -9.97900 17.79000 40.37400
C  -7.62600 18.76600 40.30300
C  -7.63400 15.47700 38.76500
C  -6.06100 15.30300 38.71200
H  -5.32700 16.16400 37.59300
N  -12.89200 18.07200 41.20000
C  -12.15500 19.09900 40.73100
C  -13.01200 20.28300 40.49000
C  -14.27400 19.90000 40.96300
C  -14.23400 18.48800 41.31400
C  -12.43800 21.68300 40.11100
C  -15.52400 20.84500 41.06400
O  -15.53200 21.99400 40.71100
C  -16.90900 20.35600 41.36100
N  -14.41000 15.38900 42.15500
C  -15.39300 16.25400 41.96500
C  -16.74300 15.48800 42.22900
C  -16.34200 14.14000 42.84400
C  -14.83600 14.20800 42.64800
C  -17.95500 16.16800 42.94400
C  -16.94500 12.86600 42.20100
C  -17.16500 11.61300 43.08800
N  -11.88200 14.10300 42.26000
C  -12.59100 13.01200 42.62900
C  -11.75500 11.85400 42.66400
C  -10.53900 12.35200 42.27200
C  -10.69900 13.71400 41.89300
C  -12.11800 10.51800 43.33600
C  -9.13800 11.98600 42.03700
O  -8.52100 10.92900 42.31400
C  -8.41100 13.27000 41.47000
C  -7.45500 13.81800 42.54300
O  -7.80000 14.64000 43.36000
O  -6.23300 13.32100 42.33600
C  -5.13500 14.06800 43.07600
H  -10.21700 19.86600 40.10900
H  -16.32600 17.97400 41.48400
H  -14.39100 12.12600 43.18700
H  -7.37700 16.21000 40.84900
H  -8.62800 17.82800 38.71500
H  -6.60400 18.53100 40.00700
H  -7.59300 18.85000 41.38900
H  -7.86300 19.70200 39.79700
H  -7.93900 15.96900 37.84200
H  -8.12500 14.50700 38.68700
H  -5.76900 14.28600 38.45300
H  -5.69000 15.49400 39.71900
H  -11.39400 21.61700 39.80400
H  -12.42500 22.38100 40.94800
H  -13.08800 22.07300 39.32800
H  -17.56300 21.22300 41.44800
H  -16.88500 19.81200 42.30500
H  -17.32200 19.72800 40.57200
H  -17.14700 15.28900 41.23700
H  -16.58600 14.16300 43.90600
H  -18.80100 16.24800 42.26100
H  -17.62300 17.10000 43.40300
H  -18.30500 15.48800 43.72000
H  -16.29100 12.54200 41.39200
H  -17.88600 13.23100 41.78900
H  -18.14100 11.15500 42.92300
H  -17.03000 11.74800 44.16100
H  -16.49500 10.89200 42.62100
H  -12.41800 9.79000 42.58200
H  -12.88000 10.79800 44.06200
H  -11.21400 10.15400 43.82400
H  -7.90600 13.16600 40.50900
H  -5.34800 14.07600 44.14500
H  -5.08100 15.10500 42.74400
H  -4.21600 13.49400 42.95800

