158

Mg 23.99900 -5.13900 45.30900
C  25.86200 -2.55600 43.71100
C  21.24800 -4.30000 43.64300
C  22.58500 -8.20800 46.19800
C  27.05300 -6.25500 46.67000
N  23.70100 -3.75400 43.67700
C  24.47300 -2.74000 43.24500
C  23.77400 -1.88200 42.17400
C  22.27600 -2.24000 42.48800
C  22.37200 -3.44600 43.40200
C  21.46200 -1.13500 43.23000
C  24.26300 -2.15600 40.73700
C  24.64600 -1.03200 39.85800
H  24.09200 -1.15900 38.41900
N  22.04900 -6.02800 45.12900
C  21.11100 -5.50300 44.39500
C  19.94900 -6.41300 44.47200
C  20.27600 -7.52900 45.26000
C  21.70800 -7.31200 45.60700
C  18.66600 -6.12900 43.60600
C  19.37300 -8.72500 45.60100
O  18.21600 -8.68000 45.25400
C  19.87000 -9.82800 46.34700
N  24.70500 -6.94600 46.32600
C  23.93800 -8.02900 46.58100
C  24.76000 -9.24500 47.11700
C  26.08500 -8.51800 47.53600
C  25.97300 -7.12400 46.73900
C  24.18700 -10.01900 48.30400
C  27.41300 -9.31400 47.17000
C  28.44200 -9.48400 48.29800
N  26.02700 -4.41500 45.41400
C  27.14400 -5.03100 45.96600
C  28.25500 -4.14300 45.76600
C  27.75400 -3.18000 44.88600
C  26.41900 -3.40100 44.66500
C  29.66800 -4.19400 46.34600
C  28.16700 -2.10500 44.08900
O  29.30100 -1.64900 43.96700
C  26.89200 -1.60800 43.17200
C  26.56700 -0.27600 43.65200
O  26.00300 0.02000 44.69300
O  27.10900 0.61700 42.69600
C  26.85000 2.03700 42.99900
H  20.32500 -3.89300 43.22500
H  22.25800 -9.24000 46.33900
H  27.99300 -6.54400 47.14600
H  23.86700 -0.81000 42.35000
H  21.68800 -2.40600 41.58500
H  22.23000 -0.48700 43.65200
H  20.75300 -1.51900 43.96400
H  20.90100 -0.50800 42.53800
H  23.46100 -2.64100 40.18200
H  25.12100 -2.81700 40.86300
H  25.72800 -0.98700 39.98000
H  24.25600 -0.11000 40.29100
H  18.79700 -6.74400 42.71600
H  18.62000 -5.09000 43.28100
H  17.72500 -6.39600 44.08800
H  20.52800 -10.25900 45.59200
H  18.99500 -10.44300 46.55700
H  20.27800 -9.43700 47.27900
H  24.99400 -9.96100 46.33000
H  26.08000 -8.30700 48.60500
H  24.69300 -9.79300 49.24200
H  24.39200 -11.06300 48.06600
H  23.13800 -9.85200 48.55000
H  27.97700 -8.88400 46.34200
H  27.10200 -10.32600 46.91300
H  28.16000 -10.17000 49.09700
H  28.87700 -8.54400 48.63600
H  29.28200 -10.01500 47.85100
H  30.33200 -3.59400 45.72400
H  29.95300 -5.23400 46.50000
H  29.52900 -3.69100 47.30300
H  27.14600 -1.69200 42.11500
H  27.36000 2.51800 42.16500
H  27.35400 2.25700 43.94100
H  25.77500 2.21500 42.98700
Mg -12.81200 16.68000 41.77100
C  -9.77200 15.03900 41.27300
C  -11.42300 19.60400 40.56900
C  -15.88300 17.94000 41.53700
C  -14.26300 13.50800 42.68500
N  -10.86600 17.16300 40.80700
C  -9.73100 16.36900 40.90200
C  -8.57100 17.22200 40.47100
C  -9.12400 18.62100 40.17600
C  -10.55300 18.51000 40.63400
C  -8.33800 19.79500 40.83200
C  -7.68900 16.55600 39.42300
C  -6.11900 16.48300 39.66400
H  -5.37500 15.34700 39.01900
N  -13.45400 18.53100 41.27000
C  -12.75700 19.59600 40.77700
C  -13.65500 20.70200 40.50900
C  -15.00000 20.31200 40.84500
C  -14.78900 18.83900 41.26100
C  -13.12600 22.02500 40.00100
C  -16.29300 21.21500 40.81800
O  -16.29800 22.35400 40.35700
C  -17.65300 20.75700 41.51800
N  -14.80200 15.79600 42.28100
C  -15.91300 16.57400 41.97400
C  -17.16500 15.71100 42.06600
C  -16.63300 14.36500 42.48000
C  -15.10500 14.52300 42.41000
C  -18.45900 16.36900 42.78700
C  -17.24900 13.25600 41.64800
C  -17.49600 11.84800 42.32200
N  -12.24500 14.76400 41.96300
C  -12.90100 13.59300 42.40100
C  -11.92200 12.59100 42.65200
C  -10.70300 13.13400 42.18100
C  -10.91500 14.37600 41.72300
C  -12.20100 11.12300 43.16600
C  -9.31300 12.76900 42.04300
O  -8.68400 11.73800 42.15400
C  -8.68000 14.02000 41.42300
C  -7.68900 14.45700 42.46900
O  -7.91600 15.14600 43.46500
O  -6.51500 13.85600 42.15100
C  -5.47500 13.93600 43.23900
H  -10.90700 20.47900 40.16800
H  -16.87600 18.30300 41.26800
H  -14.65000 12.53600 42.99700
H  -7.87600 17.44400 41.28100
H  -9.06300 18.96800 39.14400
H  -7.38200 19.51500 41.27400
H  -8.92700 20.29500 41.60000
H  -8.00300 20.45300 40.03000
H  -7.70300 17.14000 38.50300
H  -8.10800 15.59300 39.13400
H  -6.03400 16.32900 40.73900
H  -5.61900 17.41600 39.40600
H  -13.89000 22.73600 39.68500
H  -12.54900 21.73400 39.12300
H  -12.52900 22.42000 40.82300
H  -18.31600 21.49900 41.96300
H  -17.41000 20.13000 42.37500
H  -18.23500 20.26900 40.73600
H  -17.45300 15.58400 41.02200
H  -16.68100 14.19200 43.55500
H  -18.75500 15.86200 43.70500
H  -19.27600 16.25300 42.07500
H  -18.37900 17.44000 42.97300
H  -16.59600 13.09400 40.79000
H  -18.23700 13.53400 41.28000
H  -18.53400 11.69400 42.61500
H  -17.03400 11.81000 43.30900
H  -17.04000 11.13900 41.63100
H  -11.23600 10.66300 43.37700
H  -12.76100 10.51000 42.45900
H  -12.71500 11.09800 44.12600
H  -8.15300 13.66200 40.53900
H  -5.29800 14.98700 43.46500
H  -4.51200 13.66100 42.80800
H  -5.59400 13.34400 44.14600

