158

Mg 34.67900 3.21600 30.35300
C  32.33300 4.19900 32.58300
C  36.98500 2.85700 32.67700
C  36.93600 2.52700 27.86400
C  32.11300 3.54900 27.85000
N  34.71000 3.75400 32.33000
C  33.67100 4.08100 33.03000
C  34.02000 3.93600 34.54700
C  35.55000 3.94800 34.56900
C  35.79200 3.45100 33.10700
C  36.28600 5.23900 34.91300
C  33.35000 2.62200 35.27500
C  32.93200 2.83400 36.74600
H  33.61900 3.94300 37.59600
N  36.70200 2.88600 30.26300
C  37.41200 2.61500 31.37400
C  38.76200 2.29600 31.04700
C  38.83900 2.23500 29.59500
C  37.40800 2.53800 29.18100
C  39.77500 2.11600 32.09500
C  39.97900 2.05800 28.67800
O  39.85300 2.04200 27.42900
C  41.28100 1.63600 29.27300
N  34.56700 3.09400 28.15500
C  35.59800 2.68600 27.40600
C  35.21800 2.48100 25.94700
C  33.67000 2.77100 26.01300
C  33.40900 3.12100 27.41900
C  36.04500 3.38300 24.94800
C  32.89500 1.65300 25.42900
C  32.70400 0.43600 26.24300
N  32.63900 3.70400 30.19100
C  31.73000 3.93500 29.15900
C  30.43900 4.33200 29.65300
C  30.60400 4.48800 31.03000
C  31.94400 4.12800 31.28900
C  29.14800 4.58600 28.93000
C  30.02500 4.88200 32.29400
O  28.86600 5.20000 32.51300
C  31.09200 4.68000 33.33900
C  31.27300 5.99000 34.07100
O  31.50600 7.01500 33.55700
O  30.98500 5.75000 35.39400
C  30.85600 7.03000 36.21700
H  37.63700 2.60500 33.51600
H  37.60300 2.14500 27.08800
H  31.43200 3.56900 26.99600
H  33.75200 4.87100 35.03800
H  35.81000 3.20300 35.32000
H  35.70100 6.10300 34.59800
H  37.16200 5.33900 34.27300
H  36.75500 5.23700 35.89700
H  33.97000 1.72800 35.21000
H  32.37300 2.47400 34.81500
H  33.06900 1.91700 37.31900
H  31.85900 3.02400 36.79000
H  39.61700 1.16000 32.59400
H  39.63800 2.82200 32.91300
H  40.82100 2.30000 31.84800
H  41.37300 0.62800 29.67800
H  41.69200 2.44100 29.88100
H  42.02700 1.49800 28.49000
H  35.44400 1.41600 25.89100
H  33.42400 3.57000 25.31300
H  36.93600 3.82500 25.39400
H  35.50100 4.24600 24.56600
H  36.43600 2.83300 24.09200
H  33.47400 1.22900 24.60800
H  32.03800 2.13700 24.96000
H  33.19700 -0.46000 25.86800
H  31.71200 0.01600 26.07800
H  32.95700 0.58200 27.29300
H  28.85400 5.60900 29.16800
H  28.43900 3.80800 29.21300
H  29.22900 4.56600 27.84300
H  30.71900 3.90700 34.01100
H  30.24900 7.75200 35.67100
H  31.79900 7.50800 36.48100
H  30.21900 6.78200 37.06600
Mg 9.99500 47.15500 25.88200
C  7.44400 47.45300 28.41700
C  12.19400 48.28700 28.24800
C  12.25100 47.04400 23.38400
C  7.41300 46.61000 23.46800
N  9.79700 47.94600 28.11200
C  8.72100 47.80000 28.93200
C  9.20000 47.77700 30.46200
C  10.64400 48.43100 30.30900
C  10.90400 48.19400 28.81100
C  10.76800 49.94000 30.62500
C  9.26000 46.30200 31.02100
C  8.76700 46.03400 32.40700
H  9.86800 45.67000 33.39400
N  11.95300 47.66800 25.81800
C  12.64300 48.07400 26.86400
C  14.01000 48.23400 26.40900
C  14.10400 47.98400 24.96900
C  12.72800 47.48400 24.67800
C  15.12400 48.61300 27.42100
C  15.27900 48.08900 23.94100
O  15.24200 47.93600 22.73800
C  16.62800 48.47800 24.52400
N  9.84400 46.77600 23.77700
C  10.93600 46.73800 23.00300
C  10.61400 46.27000 21.54500
C  9.06800 46.09900 21.53600
C  8.71200 46.54700 23.04000
C  11.07900 47.27400 20.44800
C  8.57100 44.63900 21.02800
C  8.16000 44.47100 19.55000
N  7.91400 47.12100 25.84100
C  7.04400 46.81300 24.77100
C  5.61600 46.84800 25.30600
C  5.76600 47.01100 26.71500
C  7.14800 47.24900 27.01200
C  4.33200 46.70700 24.50300
C  5.02500 47.04800 27.95800
O  3.86000 46.82000 28.14300
C  6.06600 47.41700 29.09800
C  5.85600 46.49400 30.23200
O  5.79900 45.23900 30.22800
O  5.66600 47.26000 31.35000
C  5.13200 46.71600 32.59700
H  12.90300 48.71200 28.96100
H  13.01300 47.10700 22.60400
H  6.69300 46.55800 22.64900
H  8.39800 48.29500 30.98900
H  11.35000 47.76700 30.80800
H  11.40700 50.15400 31.48200
H  9.75000 50.21900 30.89800
H  11.17400 50.40800 29.72800
H  10.30000 45.98300 30.94500
H  8.68400 45.64800 30.36700
H  8.10400 45.16900 32.39200
H  8.24500 46.91100 32.79000
H  15.90300 47.87800 27.22200
H  14.74600 48.49700 28.43700
H  15.45800 49.64200 27.29000
H  16.57200 49.29700 25.24100
H  17.29500 48.61800 23.67400
H  16.96200 47.57300 25.03200
H  11.04200 45.29700 21.30600
H  8.60200 46.84300 20.89000
H  11.45600 48.22200 20.83100
H  10.42700 47.45200 19.59300
H  11.92900 46.73300 20.03100
H  7.73900 44.25000 21.61600
H  9.40300 43.98500 21.29100
H  7.34300 45.17600 19.39800
H  7.82700 43.45500 19.33900
H  8.96300 44.77500 18.87900
H  3.83900 45.74600 24.64500
H  4.65000 46.85500 23.47000
H  3.55300 47.37900 24.86500
H  5.78000 48.43000 29.38200
H  5.14400 45.63400 32.72900
H  4.17700 47.18400 32.83700
H  5.87200 47.03500 33.33100

