158

Mg 26.06300 -0.70200 29.10000
C  27.65100 -0.60700 32.32400
C  23.06400 -0.33600 30.74600
C  24.67700 -0.47600 26.12700
C  29.32900 -1.35500 27.74600
N  25.38100 -0.59700 31.33000
C  26.29300 -0.44300 32.44800
C  25.50100 -0.09400 33.70600
C  23.99800 -0.09900 33.16300
C  24.11300 -0.35700 31.68100
C  22.98900 -1.14700 33.92900
C  25.91400 1.31200 34.23900
C  25.36300 1.61200 35.61900
H  26.37800 2.01400 36.75800
N  24.09900 -0.61600 28.57600
C  23.02200 -0.43400 29.37600
C  21.85400 -0.36600 28.55200
C  22.29200 -0.28600 27.23300
C  23.75400 -0.46100 27.22100
C  20.43000 -0.22200 29.11600
C  21.38600 -0.07500 25.93500
O  21.84800 -0.09700 24.79800
C  19.95500 0.43600 26.18500
N  26.95200 -0.74700 27.23400
C  26.12600 -0.69100 26.14000
C  26.99300 -0.82800 24.84400
C  28.44000 -1.05000 25.43200
C  28.24100 -1.01300 26.89000
C  26.51800 -1.95100 23.89100
C  29.57700 -0.05200 24.91100
C  29.47600 0.59000 23.54500
N  28.01700 -1.01400 29.83300
C  29.20900 -1.34400 29.10800
C  30.23200 -1.45500 30.03200
C  29.66800 -1.10300 31.30200
C  28.36800 -0.90500 31.13100
C  31.60000 -1.81600 29.72400
C  30.01400 -0.84700 32.69600
O  31.06400 -0.71000 33.23300
C  28.65600 -0.42200 33.41900
C  28.44400 -1.34600 34.61300
O  28.23800 -2.51400 34.51900
O  28.75500 -0.62800 35.70600
C  28.66300 -1.32600 37.03000
H  22.12300 -0.09800 31.24700
H  24.30700 -0.32300 25.11100
H  30.30200 -1.51200 27.27500
H  25.67400 -0.89200 34.42700
H  23.61700 0.86200 33.50900
H  22.03900 -0.79300 34.32900
H  23.55800 -1.43300 34.81300
H  22.79800 -2.07700 33.39400
H  25.54300 2.05100 33.52800
H  26.98300 1.49000 34.34800
H  24.77700 0.74700 35.92900
H  24.68600 2.43800 35.40200
H  19.91200 0.68700 28.81000
H  20.20800 -0.18900 30.18200
H  19.87900 -1.12000 28.83800
H  19.58700 0.77600 25.21800
H  20.04100 1.28400 26.86400
H  19.34900 -0.40800 26.51500
H  26.80600 0.14600 24.39200
H  28.71600 -2.07400 25.17800
H  26.22700 -2.81500 24.49000
H  27.22600 -2.26900 23.12600
H  25.73600 -1.58200 23.22700
H  30.50600 -0.61100 25.02200
H  29.54800 0.79700 25.59400
H  30.41900 0.46900 23.01100
H  29.43100 1.67400 23.65200
H  28.69900 0.21200 22.88000
H  32.26600 -0.99700 29.99600
H  31.70900 -1.98500 28.65200
H  31.93400 -2.71900 30.23400
H  28.76900 0.55000 33.89800
H  27.86500 -0.72600 37.46800
H  29.57000 -1.47800 37.61400
H  28.26400 -2.33200 36.90600
Mg 47.43500 15.40200 28.76300
C  45.26400 15.05100 31.39800
C  49.11500 17.79400 30.58700
C  49.52400 15.86200 26.14900
C  45.14500 13.84200 26.64900
N  47.09600 16.43300 30.75100
C  46.30500 15.89100 31.74400
C  46.50600 16.57400 33.08100
C  47.58400 17.60900 32.70800
C  48.00400 17.29900 31.30100
C  47.26900 19.02900 32.98600
C  46.89100 15.52300 34.15300
C  47.68500 15.98400 35.34600
H  47.14900 17.06400 36.26100
N  49.09600 16.58200 28.41100
C  49.66300 17.44100 29.28800
C  51.01600 17.74800 28.86200
C  51.17200 17.20100 27.56900
C  49.89300 16.48700 27.33600
C  51.99500 18.47400 29.76600
C  52.38000 17.20600 26.60800
O  52.41000 16.62200 25.51400
C  53.59900 18.05100 26.88400
N  47.39500 14.90700 26.67600
C  48.37200 15.16000 25.80900
C  48.10000 14.51600 24.39500
C  46.67000 13.97800 24.58500
C  46.29800 14.29300 26.06300
C  48.23000 15.62900 23.33200
C  46.41600 12.55900 24.08900
C  47.05500 11.52200 25.07200
N  45.55800 14.59200 28.93700
C  44.73700 13.93000 28.02300
C  43.51100 13.49300 28.68000
C  43.72200 13.87400 30.00600
C  44.93000 14.58700 30.10000
C  42.41800 12.81900 28.02300
C  43.15000 13.92000 31.30700
O  42.13000 13.32700 31.80500
C  44.09600 14.68100 32.29000
C  43.30300 15.73600 32.98700
O  42.54900 16.50900 32.48500
O  43.43900 15.54800 34.31300
C  42.76900 16.53100 35.10600
H  49.84200 18.35200 31.18000
H  50.13900 16.01000 25.25900
H  44.42000 13.30100 26.03700
H  45.53500 17.02800 33.28400
H  48.38800 17.31400 33.38200
H  47.80500 19.40200 33.85900
H  46.19900 19.04700 33.19400
H  47.46800 19.54300 32.04600
H  47.45200 14.74400 33.63800
H  45.97300 15.13300 34.59100
H  48.68100 16.33100 35.07000
H  47.67100 15.14500 36.04100
H  52.79600 19.01200 29.26000
H  52.55700 17.82200 30.43400
H  51.51600 19.30400 30.28600
H  53.40400 19.12200 26.91600
H  54.26600 17.86500 26.04200
H  54.09200 17.75200 27.80900
H  48.77300 13.70600 24.11400
H  45.97600 14.66100 24.09600
H  47.39100 15.61900 22.63600
H  49.06500 15.56300 22.63600
H  48.23200 16.59900 23.82900
H  46.82400 12.52500 23.07800
H  45.37800 12.22700 24.07500
H  47.71500 10.90800 24.46000
H  46.24400 10.92400 25.48700
H  47.64700 12.00600 25.85000
H  42.81600 12.48000 27.06700
H  41.58400 13.51100 27.89900
H  42.04200 11.96800 28.59200
H  44.37000 14.08000 33.15800
H  41.77600 16.71500 34.69700
H  43.34900 17.40000 35.41700
H  42.67700 16.09200 36.10000

