158

Mg 48.53400 35.98900 28.79800
C  46.32600 34.55600 31.10900
C  48.89900 38.64500 30.86200
C  50.07900 37.65800 26.23700
C  47.71100 33.31400 26.58000
N  47.81200 36.44800 30.74200
C  47.06500 35.67100 31.56500
C  47.27900 36.06800 32.97600
C  47.49300 37.60000 32.70900
C  48.15900 37.59100 31.35600
C  46.22100 38.59700 32.90800
C  48.53900 35.37700 33.58800
C  48.68700 35.33200 35.07100
H  47.87800 36.13700 36.04100
N  49.45400 37.90200 28.61100
C  49.53700 38.77700 29.60000
C  50.27300 39.93800 29.12900
C  50.78900 39.52300 27.83600
C  50.08900 38.34100 27.47200
C  50.45400 41.22300 29.90200
C  51.83400 40.23700 26.98300
O  52.22000 39.86800 25.88200
C  52.51300 41.52100 27.51000
N  48.98100 35.43200 26.81400
C  49.48200 36.33800 25.92100
C  49.55100 35.89100 24.52300
C  49.00200 34.40500 24.60500
C  48.54300 34.33500 26.05600
C  48.71700 36.75100 23.47300
C  50.00800 33.17700 24.29000
C  50.00800 32.79400 22.76400
N  47.30500 34.21200 28.77200
C  47.01400 33.30100 27.78800
C  46.14500 32.37800 28.26600
C  45.82200 32.80800 29.55100
C  46.55800 33.94500 29.84000
C  45.70300 31.06800 27.57900
C  45.01700 32.50500 30.74400
O  44.14600 31.64600 30.89300
C  45.32200 33.62300 31.75900
C  45.70200 33.06700 33.13000
O  46.77200 32.53400 33.40000
O  44.66000 33.33600 34.05100
C  44.83100 32.79600 35.34600
H  49.01800 39.50400 31.52600
H  50.66500 38.14400 25.45500
H  47.52000 32.58100 25.79300
H  46.41100 35.96500 33.62800
H  48.23400 37.96800 33.41800
H  46.36200 39.28000 33.74600
H  45.35100 38.00900 33.20300
H  45.91000 39.11600 32.00200
H  49.39000 35.90300 33.15500
H  48.61200 34.46400 32.99700
H  49.70300 35.69900 35.21800
H  48.65700 34.26000 35.26800
H  50.23600 41.95100 29.12000
H  51.47100 41.27700 30.29200
H  49.69000 41.42600 30.65100
H  51.80200 42.28800 27.81500
H  53.06900 41.85800 26.63500
H  53.12300 41.38400 28.40300
H  50.62200 35.96700 24.33600
H  48.15100 34.34600 23.92600
H  48.72200 37.80000 23.76800
H  47.67400 36.44200 23.55100
H  48.97600 36.67300 22.41700
H  49.82500 32.29800 24.90900
H  51.03200 33.45200 24.54200
H  49.49000 31.85100 22.59100
H  50.98000 32.60900 22.30800
H  49.44200 33.58300 22.26700
H  44.92900 30.55300 28.14900
H  46.65900 30.54400 27.55600
H  45.29800 31.08100 26.56700
H  44.42900 34.15000 32.09600
H  45.22800 33.63700 35.91500
H  45.49200 31.93100 35.38400
H  43.87900 32.41000 35.71100
Mg 27.16100 50.48200 26.07600
C  25.07900 51.51400 28.68600
C  29.50600 49.71700 28.40600
C  29.28300 49.98300 23.47200
C  24.69200 51.47300 23.82900
N  27.14900 50.42200 28.34500
C  26.27500 51.00400 29.17500
C  26.64700 50.76300 30.66200
C  28.24300 50.39900 30.48600
C  28.33600 50.19500 29.01100
C  29.09700 51.59900 30.99800
C  25.80300 49.64800 31.34800
C  25.22600 50.05800 32.71600
H  25.47800 49.17900 33.95300
N  29.07600 49.86600 25.93900
C  29.89000 49.60300 27.04300
C  31.20900 49.15800 26.57400
C  31.22000 49.23100 25.14500
C  29.80900 49.73700 24.81000
C  32.38100 48.83300 27.50200
C  32.27700 48.81700 24.14800
O  32.14000 49.00200 22.92600
C  33.61500 48.25800 24.55100
N  27.06600 50.77900 23.88500
C  28.01800 50.40600 23.06100
C  27.50200 50.19600 21.60900
C  25.99500 50.55800 21.81100
C  25.92800 51.00100 23.23800
C  28.22600 50.99200 20.51400
C  24.88800 49.60300 21.27200
C  23.99800 50.15200 20.13200
N  25.37400 51.41400 26.16900
C  24.39300 51.72700 25.20400
C  23.20900 52.32700 25.76000
C  23.40300 52.19800 27.09800
C  24.72500 51.62300 27.30900
C  22.00300 52.87700 25.05000
C  22.78600 52.48700 28.43100
O  21.69300 52.86100 28.85000
C  23.86100 52.02600 29.48700
C  24.26800 53.21200 30.37600
O  25.15900 53.95300 30.11500
O  23.69200 53.13800 31.60900
C  23.88000 54.29600 32.54500
H  30.36600 49.49200 29.04000
H  29.98200 49.72800 22.67400
H  23.86600 51.62800 23.13100
H  26.34600 51.62400 31.26000
H  28.43000 49.50400 31.07900
H  29.92400 51.76000 30.30700
H  29.40900 51.35900 32.01500
H  28.45000 52.46900 30.88700
H  26.44000 48.78000 31.51700
H  24.97100 49.30700 30.73200
H  24.14700 50.02900 32.56300
H  25.45300 51.07800 33.02500
H  33.13100 48.11900 27.16000
H  31.99000 48.63800 28.50000
H  32.94100 49.76700 27.54000
H  34.23300 48.80700 25.26100
H  34.14400 48.06500 23.61800
H  33.51300 47.27900 25.02100
H  27.56700 49.12000 21.44500
H  25.84000 51.49400 21.27500
H  29.06800 51.57400 20.89000
H  27.51700 51.49300 19.85400
H  28.62200 50.17200 19.91500
H  24.14700 49.45400 22.05700
H  25.36700 48.69700 20.89900
H  24.26800 51.10900 19.68600
H  22.93100 50.25000 20.32900
H  24.06800 49.51500 19.25000
H  22.34500 52.98600 24.02100
H  21.85000 53.87800 25.45200
H  21.12400 52.24300 24.94000
H  23.59900 51.24600 30.20100
H  24.12700 55.22600 32.03200
H  24.63600 54.15200 33.31700
H  22.95900 54.50900 33.08700

