158

Mg 16.46100 -1.56100 27.82900
C  15.28500 0.37600 30.43700
C  18.40900 -3.30900 30.00600
C  17.64300 -3.13100 25.18000
C  14.75800 0.76400 25.60400
N  16.95400 -1.42900 29.94500
C  16.25800 -0.61900 30.84400
C  16.82000 -0.69700 32.24500
C  17.95500 -1.76600 32.07300
C  17.80600 -2.19200 30.60200
C  19.36000 -1.34100 32.46000
C  15.77800 -1.19100 33.24200
C  15.87000 -0.60400 34.65100
H  17.25800 -0.18300 35.18800
N  17.78000 -3.09600 27.62100
C  18.45300 -3.79400 28.65200
C  19.26100 -4.91200 28.07800
C  19.03900 -4.79900 26.58700
C  18.11800 -3.63400 26.41500
C  20.08100 -5.80500 28.96200
C  19.60400 -5.68900 25.44300
O  19.51600 -5.52000 24.23500
C  20.45500 -7.00400 25.85400
N  16.25000 -1.20400 25.57900
C  16.81200 -2.09100 24.77000
C  16.59300 -1.64400 23.29700
C  15.51100 -0.51000 23.44400
C  15.48000 -0.26100 24.93400
C  17.84400 -1.25600 22.42800
C  14.02800 -0.85200 22.96800
C  13.82200 -0.79500 21.46800
N  15.15000 0.08900 27.91100
C  14.52900 0.92600 26.93300
C  13.70300 1.91900 27.58400
C  14.00000 1.73400 28.97100
C  14.79700 0.54500 29.09200
C  12.98100 3.02800 26.94200
C  13.85900 2.40300 30.22000
O  13.37100 3.49500 30.53700
C  14.67700 1.49200 31.23800
C  15.67900 2.30000 32.05000
O  16.88100 2.59100 31.80500
O  14.94700 2.72300 33.15000
C  15.59500 3.74600 33.88600
H  18.90900 -3.87900 30.79200
H  18.13600 -3.65100 24.35600
H  14.12900 1.39100 24.96700
H  17.31400 0.22600 32.54700
H  17.72800 -2.64500 32.67600
H  19.39600 -0.32700 32.85700
H  20.01000 -1.41700 31.58800
H  19.76700 -2.05400 33.17700
H  15.68800 -2.27500 33.30900
H  14.78200 -0.83200 32.98400
H  15.53200 -1.40500 35.30900
H  15.19900 0.24000 34.81300
H  20.17200 -5.38800 29.96500
H  21.04400 -5.91400 28.46200
H  19.67400 -6.81500 28.91800
H  19.81500 -7.68400 26.41600
H  21.34800 -6.69900 26.40100
H  20.80300 -7.46100 24.92800
H  16.05500 -2.38100 22.70200
H  15.87900 0.42500 23.02200
H  17.92800 -0.21100 22.12900
H  17.86600 -1.85900 21.51900
H  18.75300 -1.53900 22.95900
H  13.29300 -0.17400 23.40200
H  13.80500 -1.82800 23.39800
H  14.16800 0.15200 21.05300
H  12.73700 -0.84300 21.37600
H  14.22500 -1.65600 20.93400
H  13.53800 3.36700 26.06900
H  12.88100 3.86600 27.63100
H  12.00900 2.69500 26.57700
H  13.89800 1.12000 31.90300
H  14.97800 3.96400 34.75800
H  15.75800 4.63700 33.28100
H  16.63000 3.51800 34.14100
Mg 47.58300 16.38900 28.39600
C  45.90300 16.17800 31.55100
C  50.00800 18.15800 30.03800
C  48.93200 16.97300 25.40900
C  44.93400 14.68900 26.99100
N  47.73400 17.33200 30.52700
C  47.01200 17.02300 31.63000
C  47.58700 17.70300 32.90500
C  48.88500 18.44100 32.34600
C  48.89000 17.97500 30.86200
C  48.79100 20.03800 32.30500
C  47.92900 16.68300 33.98600
C  47.63900 17.00100 35.51100
H  47.53800 18.45900 35.89400
N  49.32900 17.33200 27.87800
C  50.24500 17.85200 28.70300
C  51.41600 18.19900 27.93500
C  51.19900 17.86900 26.56500
C  49.76100 17.40800 26.54600
C  52.63000 18.85100 28.63800
C  52.01600 18.05800 25.30600
O  51.57700 17.74900 24.20300
C  53.49800 18.53900 25.46900
N  46.94900 15.94200 26.47500
C  47.65000 16.34400 25.38900
C  46.97700 15.79900 24.12400
C  45.83100 14.83800 24.56100
C  45.90200 15.17700 26.13000
C  46.54600 16.98600 23.24000
C  46.11600 13.34800 24.19200
C  45.50900 12.78000 22.91400
N  45.69800 15.61200 29.09900
C  44.80600 14.93000 28.33100
C  43.83400 14.44700 29.21500
C  44.11900 14.97200 30.48600
C  45.35900 15.57200 30.38500
C  42.72300 13.66400 28.91500
C  43.63400 15.13900 31.80000
O  42.65600 14.77700 32.43600
C  44.87700 15.81900 32.58900
C  44.17000 17.01700 33.31200
O  43.88600 18.12200 32.79900
O  43.86900 16.65200 34.56200
C  43.02300 17.59600 35.21700
H  50.82300 18.68600 30.53900
H  49.40100 17.00500 24.42400
H  44.15200 14.14800 26.45400
H  46.88900 18.38900 33.38400
H  49.82400 18.08000 32.76600
H  49.59500 20.53300 32.85000
H  47.92100 20.40600 32.84900
H  48.70900 20.29600 31.24900
H  48.99500 16.45400 33.96100
H  47.54600 15.68000 33.79800
H  48.33000 16.46200 36.15900
H  46.67900 16.51400 35.68600
H  53.55000 18.46800 28.19500
H  52.74200 18.70300 29.71200
H  52.61900 19.89200 28.31500
H  53.52000 19.55500 25.86500
H  54.10000 18.56600 24.56100
H  54.00900 17.76900 26.04700
H  47.62700 15.18100 23.50400
H  44.85700 15.09400 24.14400
H  47.00400 16.87200 22.25700
H  46.77200 17.98700 23.60600
H  45.46200 17.01200 23.13300
H  45.79600 12.82100 25.09000
H  47.19300 13.28400 24.03300
H  46.27100 12.59500 22.15700
H  44.77700 13.45200 22.46500
H  45.03500 11.82000 23.11700
H  42.89800 12.75100 28.34600
H  41.96900 14.26700 28.41000
H  42.34900 13.29400 29.86900
H  45.35300 15.15700 33.31200
H  43.55400 18.45300 35.63200
H  42.57900 17.00800 36.02100
H  42.25100 17.85900 34.49400

