158

Mg -8.35700 40.26400 42.87700
C  -7.35700 36.88700 41.62500
C  -5.92700 41.55700 40.83300
C  -9.70500 43.29900 43.31700
C  -11.22500 38.75100 44.05000
N  -6.94600 39.29400 41.34700
C  -6.61700 37.93300 41.04600
C  -5.36500 37.79900 40.17500
C  -5.09100 39.32100 39.79600
C  -6.01400 40.14200 40.76500
C  -3.58200 39.79300 39.74400
C  -5.68300 36.82000 39.04700
C  -4.75200 35.60800 38.83700
H  -3.82000 35.59800 37.64400
N  -7.63800 42.21500 42.46100
C  -6.64500 42.46300 41.58400
C  -6.44300 43.93700 41.46700
C  -7.49400 44.47900 42.33500
C  -8.33900 43.31500 42.82500
C  -5.27400 44.56200 40.73900
C  -7.71900 45.91900 42.68900
O  -6.95800 46.69500 42.16000
C  -8.67700 46.41100 43.61800
N  -10.16000 40.99200 43.72800
C  -10.50200 42.28100 43.80800
C  -11.91400 42.53700 44.41100
C  -12.45200 41.03300 44.61900
C  -11.25200 40.22000 44.05500
C  -12.09100 43.58500 45.57500
C  -13.76200 40.57700 43.92300
C  -14.66700 39.72400 44.80300
N  -9.16300 38.20700 42.93500
C  -10.29900 37.76600 43.54200
C  -10.30400 36.42600 43.64100
C  -9.15000 36.07200 42.95500
C  -8.52400 37.16800 42.46800
C  -11.45000 35.51700 44.17700
C  -8.35100 34.92300 42.61800
O  -8.50300 33.74200 42.85500
C  -7.23000 35.39500 41.63800
C  -5.94800 34.94500 42.24800
O  -5.32300 35.47200 43.17300
O  -5.50300 33.79200 41.53000
C  -4.23200 33.22400 42.06600
H  -5.14700 41.98500 40.19900
H  -10.16200 44.29000 43.33000
H  -12.03500 38.23800 44.57200
H  -4.60100 37.52700 40.90400
H  -5.43800 39.49700 38.77800
H  -2.88200 38.98200 39.54300
H  -3.29400 40.26400 40.68400
H  -3.50800 40.43800 38.86800
H  -5.48000 37.46900 38.19500
H  -6.74400 36.58100 39.12000
H  -5.41900 34.75200 38.73100
H  -4.18300 35.49000 39.76000
H  -5.59400 44.72600 39.71000
H  -4.48400 43.82500 40.59000
H  -4.74400 45.40900 41.17400
H  -8.41700 47.43200 43.89900
H  -8.70100 45.72500 44.46400
H  -9.67900 46.54600 43.21200
H  -12.50300 42.94700 43.59100
H  -12.49100 40.84300 45.69200
H  -11.11700 44.07500 45.56700
H  -12.36100 43.08000 46.50200
H  -12.75700 44.41800 45.35400
H  -13.41800 40.00900 43.05800
H  -14.28400 41.49200 43.64300
H  -15.64700 40.19500 44.87900
H  -14.30800 39.93700 45.81000
H  -14.54200 38.67100 44.55000
H  -12.18400 35.41400 43.37800
H  -11.99700 35.80700 45.07400
H  -10.87500 34.59200 44.23400
H  -7.41100 34.94200 40.66400
H  -3.73100 32.76300 41.21500
H  -4.33600 32.45300 42.83000
H  -3.52700 33.95900 42.45300
Mg -5.20800 24.65000 26.20700
C  -3.16800 26.24000 28.59100
C  -6.25400 22.50400 28.57200
C  -7.14800 23.25200 23.88700
C  -3.84100 26.75500 23.83400
N  -4.58000 24.31700 28.30200
C  -3.88700 25.16900 29.13300
C  -4.15500 24.86400 30.62700
C  -4.72400 23.41000 30.47600
C  -5.29500 23.40900 28.99400
C  -3.57300 22.35500 30.52700
C  -5.22300 25.84300 31.20300
C  -5.14000 26.20400 32.69000
H  -4.61200 25.14300 33.61700
N  -6.57100 23.03500 26.20700
C  -6.85700 22.33300 27.31900
C  -7.87900 21.44900 26.96900
C  -8.24800 21.59000 25.56900
C  -7.30200 22.63200 25.14300
C  -8.62700 20.59700 28.03100
C  -9.33800 20.86900 24.71400
O  -9.36100 21.09300 23.47600
C  -10.24800 19.72900 25.28600
N  -5.41700 24.91400 24.17600
C  -6.35100 24.30200 23.47100
C  -6.27700 24.77200 21.97700
C  -5.45900 26.08500 22.08500
C  -4.79100 25.88200 23.41700
C  -5.63300 23.69900 21.05500
C  -6.32800 27.37900 22.14600
C  -6.19600 28.18000 20.83900
N  -3.65600 26.09500 26.12700
C  -3.30400 26.89500 25.10600
C  -2.36300 27.82600 25.55400
C  -2.33900 27.60800 26.97300
C  -3.05400 26.52200 27.22700
C  -1.57800 28.83800 24.79400
C  -1.85300 28.19100 28.25200
O  -1.08200 29.11800 28.54300
C  -2.36300 27.23600 29.34000
C  -1.25200 26.70600 30.16500
O  -0.27700 26.06300 29.78200
O  -1.54800 26.95200 31.51600
C  -0.65800 26.39000 32.52700
H  -6.60700 21.77200 29.30100
H  -7.69300 22.82100 23.04400
H  -3.31800 27.47200 23.19700
H  -3.29100 24.92900 31.28800
H  -5.55100 23.13600 31.13100
H  -3.35000 22.08200 29.49500
H  -3.66900 21.39300 31.02900
H  -2.63000 22.83700 30.78600
H  -6.19000 25.37100 31.03200
H  -5.19100 26.81300 30.70600
H  -6.14100 26.30900 33.10900
H  -4.54700 27.09800 32.87900
H  -9.65000 20.95800 28.13700
H  -8.18000 20.46500 29.01600
H  -8.73500 19.57800 27.65900
H  -10.76100 20.19900 26.12600
H  -9.68100 18.82000 25.48500
H  -10.99500 19.53200 24.51700
H  -7.27500 24.90500 21.55900
H  -4.67500 26.14200 21.33100
H  -4.86400 24.18600 20.45600
H  -6.45500 23.34900 20.43000
H  -5.22100 22.88000 21.64300
H  -5.99700 27.99400 22.98200
H  -7.38800 27.13700 22.21800
H  -5.79300 27.71100 19.94200
H  -5.62000 29.08200 21.04600
H  -7.22100 28.47900 20.62300
H  -2.27900 29.28200 24.08700
H  -0.86000 28.27600 24.19700
H  -0.99000 29.51400 25.41400
H  -3.02900 27.83700 29.96000
H  0.25000 26.99200 32.49300
H  -0.19000 25.42800 32.31600
H  -1.08500 26.37400 33.53000

