158

Mg -2.26900 17.20900 27.49000
C  -2.64300 14.98800 30.32600
C  -2.68000 19.83400 29.66100
C  -1.92500 19.30100 24.88300
C  -2.27100 14.47300 25.49700
N  -2.72100 17.35900 29.73900
C  -2.67000 16.36600 30.67600
C  -2.79000 16.95400 32.08300
C  -2.89100 18.50300 31.82100
C  -2.73300 18.59200 30.30900
C  -4.15400 19.17500 32.44000
C  -1.64300 16.51700 33.03200
C  -1.22700 17.38300 34.24100
H  -0.96000 16.69600 35.59300
N  -2.16900 19.30100 27.32600
C  -2.40700 20.21400 28.28500
C  -2.05100 21.55500 27.78600
C  -1.76600 21.37200 26.43500
C  -1.93400 19.96400 26.17100
C  -2.22200 22.74700 28.64700
C  -1.49300 22.36100 25.33900
O  -1.42500 22.12900 24.11900
C  -1.30100 23.77200 25.75600
N  -2.18000 16.92500 25.51700
C  -2.05900 17.94300 24.61000
C  -1.91100 17.36300 23.13500
C  -1.59000 15.88000 23.41700
C  -2.03600 15.73300 24.87400
C  -3.27700 17.65700 22.28000
C  -0.18200 15.31000 23.05700
C  0.94900 16.10100 23.66500
N  -2.48500 15.16500 27.72100
C  -2.53700 14.14800 26.85600
C  -2.72800 12.90700 27.48600
C  -2.77800 13.14600 28.86200
C  -2.55700 14.54200 28.98300
C  -2.75100 11.66900 26.70700
C  -2.89800 12.52400 30.22400
O  -2.91500 11.40500 30.62800
C  -2.80400 13.76400 31.20400
C  -1.75400 13.49300 32.20200
O  -0.59100 13.53900 32.02300
O  -2.35200 13.12000 33.38600
C  -1.41600 12.59600 34.33600
H  -2.56400 20.57100 30.45800
H  -1.66000 19.75500 23.92600
H  -2.25600 13.63700 24.79400
H  -3.71300 16.52600 32.47400
H  -2.04200 19.03700 32.24900
H  -4.84600 19.38000 31.62300
H  -3.78100 20.08200 32.91500
H  -4.75800 18.54200 33.08900
H  -0.71400 16.37800 32.48000
H  -2.05100 15.63000 33.51800
H  -1.93900 18.20800 34.27300
H  -0.23500 17.80500 34.08400
H  -1.23900 23.19800 28.78300
H  -2.62300 22.50200 29.63000
H  -2.79900 23.53000 28.15500
H  -0.82200 23.69700 26.73200
H  -2.31100 24.14600 25.92500
H  -0.80700 24.30400 24.94300
H  -1.02300 17.82000 22.70000
H  -2.18500 15.13400 22.89100
H  -3.84700 18.44500 22.77100
H  -3.89400 16.76000 22.22000
H  -3.08000 17.91100 21.23800
H  -0.10700 15.59400 22.00800
H  -0.04500 14.23200 23.13800
H  0.66600 16.85500 24.40000
H  1.63600 16.56900 22.96000
H  1.52700 15.42400 24.29500
H  -3.73600 11.53400 26.26200
H  -2.48300 10.81400 27.32800
H  -2.03700 11.81400 25.89600
H  -3.76300 13.96400 31.68100
H  -0.99300 13.47800 34.81700
H  -0.59200 12.05200 33.87400
H  -1.91900 11.94600 35.05200
Mg 28.55300 59.10000 42.44500
C  25.94000 57.30800 40.87300
C  30.73900 56.86300 41.30100
C  30.88100 61.43400 42.91100
C  26.07600 61.49000 43.40700
N  28.38200 57.31900 41.07500
C  27.19700 56.70200 40.66600
C  27.53600 55.31200 39.97500
C  29.09200 55.14600 40.30200
C  29.41100 56.48700 40.92200
C  29.40000 53.89900 41.15500
C  27.07000 55.36800 38.50400
C  26.72100 54.03200 37.87800
H  27.41200 53.64500 36.55400
N  30.56200 59.09800 42.22100
C  31.32600 58.07300 41.69400
C  32.73200 58.46400 41.64000
C  32.77300 59.81100 42.08100
C  31.35200 60.20700 42.42400
C  33.85000 57.55800 41.16700
C  34.06600 60.61500 42.22700
O  35.08500 60.15500 41.71900
C  34.11600 61.88900 42.93400
N  28.49300 61.17800 42.98200
C  29.62400 61.89900 43.16900
C  29.36900 63.27900 43.46900
C  27.81600 63.35500 43.78200
C  27.43400 61.92100 43.36500
C  30.22400 63.93600 44.58600
C  27.06500 64.40000 42.93000
C  25.97900 65.29600 43.62700
N  26.45600 59.29400 42.29800
C  25.62100 60.26900 42.83100
C  24.21700 59.80800 42.69200
C  24.32200 58.69300 41.84200
C  25.70800 58.42300 41.66200
C  23.04000 60.51100 43.27100
C  23.59600 57.68800 41.20700
O  22.36600 57.56400 41.15200
C  24.55400 56.72300 40.52500
C  24.31700 55.33700 41.02100
O  24.17500 54.95900 42.19400
O  24.23400 54.56800 39.89900
C  24.06400 53.11500 39.97400
H  31.54400 56.12700 41.25300
H  31.70400 62.11700 43.12800
H  25.32400 62.23500 43.67600
H  26.89200 54.56000 40.43000
H  29.51400 55.21100 39.29900
H  28.50400 53.28100 41.18200
H  29.75500 54.12500 42.16100
H  30.24900 53.38500 40.70400
H  27.89500 55.70400 37.87500
H  26.25100 56.03600 38.23700
H  25.64300 53.94000 37.74000
H  26.88100 53.21700 38.58500
H  34.19600 57.90100 40.19200
H  33.69400 56.48200 41.08000
H  34.70700 57.58900 41.84000
H  33.54400 62.54300 42.27700
H  35.11900 62.26600 43.13500
H  33.63100 61.77100 43.90300
H  29.52600 63.85100 42.55500
H  27.58700 63.38000 44.84700
H  30.94300 64.61200 44.12300
H  30.69300 63.08900 45.08600
H  29.63100 64.41500 45.36600
H  26.68600 63.83700 42.07700
H  27.89300 65.00800 42.56500
H  26.41100 66.29600 43.64900
H  25.87400 64.95900 44.65800
H  24.99800 65.20900 43.15900
H  22.50800 59.86800 43.97300
H  22.27900 60.73700 42.52500
H  23.21400 61.40600 43.86900
H  24.50400 56.67500 39.43800
H  25.03200 52.73300 40.29600
H  23.72500 52.82100 38.98000
H  23.41500 52.78900 40.78700

