158

Mg -1.71800 16.74300 26.01100
C  -2.02100 14.57000 28.64400
C  -2.32500 19.48600 28.38900
C  -2.13500 18.88000 23.54000
C  -2.02500 14.02800 23.79200
N  -2.21900 16.94700 28.17700
C  -2.10600 15.89900 29.07900
C  -2.49500 16.38800 30.52200
C  -2.79400 17.84600 30.23200
C  -2.37000 18.13300 28.83600
C  -4.33600 18.17400 30.48200
C  -1.44900 16.07700 31.59100
C  -1.69400 16.90400 32.94200
H  -1.53300 16.33900 34.33800
N  -1.98100 18.86900 25.91600
C  -2.12800 19.83800 26.96100
C  -2.01100 21.11700 26.39900
C  -1.97300 20.97000 25.00400
C  -2.07200 19.50600 24.76800
C  -2.06400 22.37500 27.27700
C  -1.88100 22.07000 23.93300
O  -2.01700 21.83700 22.73700
C  -1.70200 23.45700 24.35400
N  -2.22500 16.47700 23.94900
C  -2.22400 17.53500 23.11100
C  -2.34900 17.05800 21.64000
C  -2.12400 15.56000 21.76400
C  -2.10600 15.36100 23.26800
C  -3.77500 17.39000 21.12800
C  -0.79600 15.10600 21.10000
C  0.47100 15.40400 21.91200
N  -1.89800 14.68800 26.09700
C  -1.98400 13.69800 25.13400
C  -1.87700 12.41900 25.75000
C  -1.83800 12.66800 27.12300
C  -1.87800 14.07700 27.28400
C  -1.76700 11.19800 25.05000
C  -1.79700 12.12700 28.44200
O  -1.59400 10.99100 28.80900
C  -1.98600 13.26500 29.48900
C  -0.89800 13.26000 30.42700
O  0.17400 13.77500 30.21300
O  -1.21500 12.55800 31.55500
C  -0.16200 12.50400 32.61600
H  -2.24000 20.33500 29.07000
H  -2.08700 19.55300 22.68100
H  -1.91800 13.18100 23.11200
H  -3.41000 15.85600 30.78300
H  -2.28600 18.54400 30.89800
H  -4.44900 19.00600 31.17700
H  -4.87700 17.49000 31.13500
H  -4.79800 18.35500 29.51100
H  -0.45200 16.26900 31.19300
H  -1.53600 15.06800 31.99300
H  -2.70800 17.29300 32.84600
H  -0.98100 17.72700 32.89200
H  -2.86600 23.06400 27.01300
H  -1.14100 22.94300 27.15600
H  -2.16900 22.17200 28.34200
H  -2.67900 23.88500 24.57700
H  -1.29400 23.96300 23.47900
H  -1.13000 23.66200 25.25900
H  -1.75600 17.63300 20.92800
H  -2.99200 15.00100 21.41600
H  -3.93600 18.34500 21.62800
H  -4.52500 16.73400 21.56900
H  -3.82200 17.44400 20.04100
H  -0.67700 15.38900 20.05400
H  -0.83200 14.01700 21.06400
H  0.22800 16.08700 22.72600
H  1.18800 15.94000 21.29100
H  0.94000 14.56000 22.41800
H  -0.81300 11.02100 24.55300
H  -2.60600 11.04200 24.37100
H  -1.77800 10.49400 25.88200
H  -2.95200 13.09800 29.96600
H  -0.42000 13.16100 33.44700
H  0.82100 12.71600 32.19600
H  -0.24900 11.47900 32.97600
Mg 41.52400 7.35900 29.55300
C  43.32200 9.08400 32.04200
C  39.02200 6.64300 31.81000
C  39.79100 5.87100 27.07300
C  44.15700 7.98200 27.39700
N  41.20300 7.86100 31.68000
C  42.14500 8.47600 32.50900
C  41.58100 8.55400 33.94600
C  40.15700 7.90700 33.80100
C  40.12000 7.41500 32.38400
C  39.80400 6.79300 34.85100
C  41.63400 9.99800 34.50600
C  40.66000 10.34900 35.57500
H  41.01100 11.41200 36.63300
N  39.73800 6.30400 29.48800
C  38.84200 6.13800 30.54600
C  37.61600 5.53300 30.06100
C  37.89600 5.19500 28.73500
C  39.20000 5.84100 28.33700
C  36.42400 5.25100 30.89700
C  37.04100 4.43900 27.71000
O  37.39600 4.17000 26.54900
C  35.70000 3.93900 28.15500
N  41.96100 6.80000 27.52600
C  41.05000 6.30900 26.67700
C  41.63900 6.14800 25.29900
C  42.88500 6.97900 25.33300
C  43.05300 7.29600 26.83300
C  41.78400 4.64800 24.82600
C  42.82900 8.31700 24.46000
C  41.93300 9.36700 25.07500
N  43.40100 8.33400 29.65300
C  44.31300 8.58500 28.64700
C  45.34100 9.43900 29.09500
C  45.06100 9.58500 30.49600
C  43.78100 8.99100 30.71600
C  46.48000 9.90300 28.27900
C  45.53500 10.16800 31.74900
O  46.55600 10.83600 31.96200
C  44.41700 9.89600 32.78800
C  44.97000 9.09500 33.98600
O  45.05500 7.90300 34.00200
O  45.20900 9.92100 34.96900
C  45.39400 9.36400 36.29900
H  38.19300 6.65600 32.52000
H  39.21900 5.50800 26.21700
H  44.93700 8.15100 26.65200
H  42.26600 7.93800 34.52900
H  39.50700 8.77500 33.91200
H  38.86500 7.05800 35.33700
H  40.51500 6.55900 35.64400
H  39.72900 5.81600 34.37400
H  41.58400 10.68400 33.66100
H  42.58600 10.12100 35.02100
H  40.53400 9.44400 36.16900
H  39.78900 10.75400 35.06100
H  36.31500 4.16800 30.96200
H  35.53700 5.77300 30.53700
H  36.45800 5.58800 31.93300
H  35.65200 3.25700 29.00400
H  35.16800 3.50700 27.30900
H  35.13000 4.81000 28.48100
H  40.90700 6.57200 24.61100
H  43.68400 6.31000 25.01400
H  41.43600 3.91800 25.55600
H  42.82100 4.42000 24.57700
H  41.13800 4.44900 23.97100
H  42.40600 7.92300 23.53600
H  43.85300 8.68900 24.50000
H  42.51700 10.27500 25.21900
H  41.52200 9.06700 26.03900
H  41.10500 9.52500 24.38400
H  46.96600 10.70400 28.83600
H  46.15500 10.31300 27.32300
H  47.24800 9.13900 28.16300
H  43.89500 10.79500 33.11600
H  45.39700 8.27600 36.36200
H  44.62800 9.66500 37.01400
H  46.38000 9.64100 36.67400

