158

Mg -2.86700 17.72900 27.03600
C  -3.25600 15.40500 29.60800
C  -3.24400 20.24500 29.36300
C  -3.00700 19.97600 24.51000
C  -3.09100 15.16700 24.82400
N  -3.52500 17.80900 29.26400
C  -3.38500 16.74800 30.07500
C  -3.27800 17.19700 31.50300
C  -3.59500 18.74700 31.42300
C  -3.48400 18.94500 29.91700
C  -4.93100 19.21700 32.10400
C  -1.95600 16.73500 32.21300
C  -1.40100 17.62200 33.42300
H  -1.15100 16.79900 34.70700
N  -2.98000 19.85600 26.98600
C  -2.99200 20.67100 28.07300
C  -2.72900 21.99100 27.67100
C  -2.54100 22.03700 26.26000
C  -2.83400 20.58600 25.81400
C  -2.78100 23.20200 28.60500
C  -2.05200 23.17000 25.31800
O  -1.90800 22.94400 24.12700
C  -1.52300 24.38500 25.95500
N  -3.20500 17.62200 25.01100
C  -3.30800 18.67700 24.11800
C  -3.49700 18.27700 22.69300
C  -3.56700 16.71700 22.81200
C  -3.24800 16.47300 24.28200
C  -4.74900 18.86400 21.86800
C  -2.56100 16.00000 21.92800
C  -1.07700 16.00200 22.37400
N  -3.02900 15.69900 27.16100
C  -3.04700 14.78800 26.17200
C  -3.08800 13.46500 26.72400
C  -3.19400 13.67600 28.00000
C  -3.12600 15.03600 28.26900
C  -3.09000 12.24300 25.97400
C  -3.21800 12.99500 29.20100
O  -3.25400 11.80500 29.42000
C  -3.30400 14.05700 30.30800
C  -2.17900 13.65900 31.19300
O  -1.04300 13.67900 30.87200
O  -2.66100 13.23700 32.40900
C  -1.78900 12.78400 33.47400
H  -3.04600 21.04800 30.07600
H  -2.82900 20.58300 23.62000
H  -3.30400 14.32400 24.16300
H  -4.03000 16.68900 32.10700
H  -2.68900 19.23100 31.78900
H  -5.31800 18.27500 32.49200
H  -5.55000 19.68600 31.33900
H  -4.83100 19.96600 32.89000
H  -1.12600 16.68200 31.50800
H  -2.11300 15.72800 32.59900
H  -2.16600 18.34900 33.69800
H  -0.49100 18.11900 33.08500
H  -3.11600 24.04900 28.00700
H  -1.77000 23.50700 28.87700
H  -3.55000 23.15500 29.37600
H  -0.77500 24.21500 26.73000
H  -2.33000 25.07000 26.21400
H  -1.05800 24.97800 25.16700
H  -2.55400 18.48600 22.18800
H  -4.56000 16.30600 22.62600
H  -5.31600 19.51500 22.53200
H  -5.37300 18.04100 21.51800
H  -4.44400 19.51100 21.04600
H  -2.68700 16.50100 20.96800
H  -2.95300 15.00100 21.73700
H  -0.97500 16.75800 23.15200
H  -0.45900 16.30300 21.52900
H  -0.78700 15.04800 22.81600
H  -2.93800 11.35000 26.58100
H  -2.35300 12.22000 25.17100
H  -4.07600 12.19100 25.51200
H  -4.28500 13.88200 30.74900
H  -1.83200 13.52900 34.26900
H  -0.73400 12.65500 33.23000
H  -2.13200 11.87800 33.97200
Mg 26.88300 49.27000 26.33900
C  24.91000 50.62100 28.99300
C  29.20600 48.31200 28.74700
C  29.03900 48.71200 23.91600
C  24.60700 50.82400 24.05000
N  27.04500 49.53800 28.60600
C  26.08100 49.94500 29.47000
C  26.44700 49.62800 30.85900
C  27.94100 49.10500 30.83700
C  28.07900 48.88500 29.27900
C  28.94400 50.16900 31.38300
C  25.42700 48.54900 31.47600
C  24.80800 48.78500 32.86500
H  25.61700 49.54200 33.96700
N  28.88200 48.54800 26.30400
C  29.61400 48.10700 27.36600
C  30.88000 47.53500 26.87300
C  30.85300 47.68100 25.42200
C  29.57400 48.31000 25.11700
C  31.95900 46.96500 27.68400
C  31.89800 47.37400 24.29200
O  31.80300 47.60700 23.11500
C  33.28000 46.92000 24.69100
N  26.86300 49.76600 24.28300
C  27.83800 49.24600 23.51800
C  27.51000 49.35500 22.03100
C  26.02800 50.03300 22.08000
C  25.76400 50.17000 23.54400
C  28.57700 50.17300 21.21600
C  25.02300 49.05400 21.32300
C  24.79400 49.16700 19.75800
N  25.07600 50.39700 26.46900
C  24.33300 51.04800 25.43900
C  23.32700 51.85200 26.09300
C  23.47600 51.66400 27.49800
C  24.61900 50.79300 27.60600
C  22.34600 52.72700 25.40500
C  22.91600 52.02400 28.82500
O  21.98700 52.73300 29.22000
C  23.90100 51.39200 29.81000
C  24.51300 52.48300 30.63800
O  25.27800 53.39900 30.28800
O  23.99700 52.43700 31.92600
C  24.37200 53.52300 32.82800
H  29.98900 47.89300 29.38200
H  29.65900 48.43000 23.06100
H  24.01100 51.40900 23.34700
H  26.44000 50.50600 31.50500
H  28.09200 48.18100 31.39500
H  29.97800 49.86600 31.21900
H  28.84300 50.23600 32.46600
H  28.66000 51.12600 30.94500
H  25.95900 47.60000 31.54700
H  24.63700 48.45400 30.73200
H  24.55400 47.77200 33.17700
H  23.87500 49.30800 32.65100
H  31.90300 47.16200 28.75400
H  32.89900 47.25000 27.21100
H  31.88500 45.90100 27.45900
H  33.11700 46.06000 25.34100
H  33.84100 47.65900 25.26300
H  33.85200 46.67200 23.79600
H  27.43900 48.35600 21.60000
H  25.98300 50.99900 21.57500
H  28.73400 51.03000 21.87100
H  28.11100 50.42500 20.26400
H  29.53100 49.65800 21.10400
H  23.99300 49.13000 21.67000
H  25.33600 48.03500 21.54900
H  24.69800 48.18700 19.29100
H  25.46800 49.80900 19.19100
H  23.82100 49.60400 19.53200
H  21.64000 52.07600 24.88900
H  22.87000 53.27600 24.62200
H  21.78100 53.46100 25.97900
H  23.39600 50.67100 30.45300
H  23.68300 53.67200 33.66000
H  24.46200 54.45100 32.26400
H  25.32700 53.26500 33.28500

