158

Mg 25.35800 1.48300 30.19900
C  27.62500 1.60200 32.80000
C  22.85000 1.47800 32.40700
C  23.36800 1.25700 27.61100
C  28.22500 1.04800 28.04600
N  25.23700 1.56000 32.34900
C  26.30500 1.72200 33.18200
C  25.86900 1.73300 34.64600
C  24.34700 1.30600 34.49200
C  24.13200 1.54400 33.02800
C  23.99600 -0.08000 35.00700
C  26.16200 3.03700 35.36200
C  27.18800 2.90700 36.53700
H  26.96800 3.76500 37.79300
N  23.38600 1.38700 30.04100
C  22.53100 1.36900 31.05900
C  21.19000 1.24600 30.50900
C  21.28500 1.12900 29.08700
C  22.74400 1.24800 28.84000
C  19.88300 1.21900 31.40700
C  20.21700 0.95600 28.06600
O  20.44300 0.72400 26.85700
C  18.81500 1.23500 28.43100
N  25.79500 1.24400 28.14700
C  24.72800 1.22300 27.25700
C  25.23700 1.43200 25.83500
C  26.79700 1.66300 26.00100
C  26.97500 1.27800 27.46600
C  24.85400 0.19100 24.93800
C  27.31300 3.07700 25.52000
C  26.93900 4.33800 26.28500
N  27.47000 1.20600 30.37000
C  28.50600 0.96000 29.42300
C  29.78100 0.71900 30.02900
C  29.43500 0.92700 31.41300
C  28.07900 1.28000 31.52400
C  31.13000 0.52600 29.46300
C  30.04200 0.92100 32.73700
O  31.21300 0.73700 33.08300
C  28.87100 1.33000 33.66200
C  28.71300 0.18800 34.72400
O  28.06500 -0.84100 34.61400
O  29.56200 0.56000 35.78900
C  29.85500 -0.53300 36.66400
H  22.12900 1.36800 33.22000
H  22.76000 1.28200 26.70400
H  29.04600 0.88100 27.34600
H  26.34300 0.97100 35.26400
H  23.66400 1.96300 35.03000
H  24.82600 -0.71600 34.69900
H  23.04400 -0.32900 34.53800
H  23.80700 -0.20400 36.07400
H  25.28800 3.47700 35.84300
H  26.47800 3.77900 34.62900
H  28.08500 3.29600 36.05600
H  27.33900 1.90200 36.93100
H  19.43300 2.18100 31.16100
H  20.10500 1.21900 32.47400
H  19.18100 0.40400 31.22800
H  18.32200 1.45200 27.48400
H  18.87300 2.07300 29.12600
H  18.32200 0.34400 28.82000
H  24.75800 2.35200 25.50000
H  27.39700 0.94400 25.44300
H  25.64900 -0.55500 24.90500
H  24.61600 0.53500 23.93100
H  23.93100 -0.28000 25.27500
H  26.99400 3.07500 24.47800
H  28.39700 2.96100 25.51100
H  26.85600 4.10600 27.34700
H  26.01300 4.74700 25.88100
H  27.72200 5.08500 26.15700
H  31.21600 1.23600 28.64100
H  31.18500 -0.52900 29.19400
H  31.80800 0.81400 30.26700
H  29.20600 2.28100 34.07600
H  29.77100 -1.48000 36.13100
H  29.33500 -0.29900 37.59300
H  30.92100 -0.39200 36.84200
Mg 27.27200 50.55200 26.62500
C  25.01500 51.80200 29.13500
C  29.49200 50.02100 29.42200
C  29.46000 49.77900 24.51300
C  24.90100 51.50700 24.30200
N  27.35400 51.12800 28.98800
C  26.20400 51.27500 29.72200
C  26.42600 51.17300 31.24500
C  27.98300 50.84400 31.32800
C  28.32200 50.72800 29.82800
C  28.86600 51.81200 32.22500
C  25.57200 50.05400 31.92400
C  24.62100 50.61800 32.98000
H  24.47300 49.75400 34.30200
N  29.21400 49.96200 26.93000
C  29.94000 49.71500 28.10800
C  31.22200 49.23500 27.71100
C  31.32500 49.20700 26.26300
C  29.95600 49.67000 25.84200
C  32.43800 49.00200 28.70600
C  32.58800 48.75400 25.34700
O  32.53500 48.88700 24.12100
C  33.89500 48.30200 25.92600
N  27.20000 50.70300 24.68100
C  28.26400 50.33500 23.99000
C  27.85000 50.01800 22.53000
C  26.41600 50.57700 22.35500
C  26.14200 51.06500 23.84100
C  28.76600 50.59400 21.49900
C  25.30400 49.63200 21.82900
C  24.44000 50.08700 20.66600
N  25.40000 51.44400 26.64600
C  24.55700 51.74800 25.60200
C  23.22700 52.13100 26.12800
C  23.41700 52.19700 27.48800
C  24.71800 51.78800 27.78100
C  22.08400 52.61200 25.23900
C  22.71700 52.55100 28.68900
O  21.58800 52.86800 28.90800
C  23.72800 52.24300 29.89800
C  23.91600 53.41600 30.83800
O  24.59800 54.41000 30.59300
O  23.15300 53.19200 31.93600
C  23.24100 54.24900 32.89700
H  30.07700 49.66000 30.27100
H  30.16600 49.35000 23.79900
H  24.21700 51.72300 23.47800
H  26.12700 52.19000 31.49800
H  28.10700 49.86000 31.78000
H  28.30200 52.70000 32.51100
H  29.84100 52.03600 31.79200
H  29.05800 51.31300 33.17500
H  26.20200 49.26200 32.32900
H  25.11800 49.52700 31.08500
H  23.62100 50.55400 32.55000
H  24.86800 51.64200 33.26100
H  32.37800 49.56100 29.64000
H  33.35800 49.31100 28.21000
H  32.32600 47.96100 29.00900
H  34.43000 47.56600 25.32700
H  33.64800 47.69100 26.79400
H  34.57400 49.12300 26.15400
H  27.85000 48.93500 22.40700
H  26.48800 51.46400 21.72500
H  29.63500 50.87000 22.09600
H  28.43700 51.53600 21.05900
H  29.08100 49.84100 20.77700
H  24.67100 49.37500 22.67800
H  25.70600 48.66300 21.53200
H  23.40000 50.12200 20.99200
H  24.50100 49.37000 19.84800
H  24.86100 51.00600 20.25900
H  22.12300 52.40300 24.17000
H  22.09800 53.69600 25.34400
H  21.11800 52.29800 25.63600
H  23.35200 51.42100 30.50600
H  23.24600 55.27700 32.53600
H  23.90000 54.06000 33.74400
H  22.32400 54.18000 33.48300

