158

Mg 42.21800 41.70800 26.36100
C  41.35000 43.86800 28.99000
C  43.06000 39.43500 28.62300
C  43.56600 39.99700 23.81300
C  41.62800 44.32700 24.02300
N  42.25200 41.65900 28.63400
C  41.78800 42.56800 29.51300
C  41.79300 42.07400 30.94900
C  42.45500 40.63800 30.77200
C  42.60300 40.56000 29.27800
C  43.68100 40.46100 31.63500
C  40.46500 42.02800 31.61100
C  40.38800 41.76600 33.20400
H  39.77000 42.80400 34.14300
N  43.04000 39.87700 26.26200
C  43.27400 39.04500 27.29800
C  43.87600 37.81000 26.86700
C  44.11600 37.96700 25.41800
C  43.51900 39.32500 25.08000
C  44.30100 36.76300 27.78200
C  44.83000 37.06000 24.44600
O  45.07300 37.37200 23.29000
C  45.21300 35.69200 24.87500
N  42.68900 42.25900 24.26300
C  43.19400 41.27000 23.42000
C  43.03100 41.62400 21.93100
C  42.09800 42.88500 22.02000
C  42.15500 43.22700 23.53200
C  44.48000 41.79000 21.28700
C  40.63800 42.55400 21.67500
C  39.92800 41.38100 22.44200
N  41.61700 43.72600 26.39400
C  41.50000 44.66300 25.38100
C  41.08900 45.90100 25.99100
C  41.01500 45.64600 27.42700
C  41.35600 44.28400 27.56600
C  40.78900 47.17600 25.36200
C  40.80700 46.21400 28.70400
O  40.56500 47.36300 29.02800
C  40.90900 45.14000 29.78000
C  42.03300 45.55900 30.70100
O  43.22800 45.37100 30.52100
O  41.54200 46.15700 31.80300
C  42.42500 46.69200 32.81400
H  43.25600 38.64800 29.35400
H  43.87100 39.37600 22.96800
H  41.35800 45.00400 23.21000
H  42.45400 42.73700 31.50600
H  41.68600 40.00400 31.21300
H  44.16300 41.35600 32.02700
H  44.36200 39.78400 31.11900
H  43.31300 39.89400 32.49000
H  39.79500 41.35000 31.08200
H  39.98800 43.00500 31.53200
H  41.39000 41.58400 33.59000
H  39.85400 40.81700 33.25600
H  43.82700 35.81700 27.52000
H  44.05900 36.88500 28.83800
H  45.37300 36.63900 27.62600
H  46.18800 35.84300 25.33800
H  45.39300 35.16600 23.93800
H  44.50400 35.09700 25.45000
H  42.63100 40.75000 21.41700
H  42.45100 43.71700 21.41000
H  45.14700 41.11800 21.82600
H  44.82800 42.76900 21.61800
H  44.59900 41.54100 20.23300
H  40.60500 42.28800 20.61800
H  39.97900 43.39600 21.88300
H  40.50200 40.91800 23.24500
H  39.56900 40.70300 21.66800
H  39.08800 41.85100 22.95400
H  39.75200 47.34100 25.65100
H  41.00600 47.03900 24.30200
H  41.30500 48.06500 25.72600
H  40.04300 44.99300 30.42500
H  42.77600 45.88000 33.45000
H  42.10500 47.61700 33.29500
H  43.22100 47.06700 32.17200
Mg -11.86000 38.48500 42.02400
C  -9.62300 36.04800 40.74900
C  -9.70700 40.95800 40.70100
C  -14.35700 40.77500 42.28700
C  -13.98800 35.90700 42.97300
N  -9.93900 38.43200 40.88300
C  -9.23600 37.33700 40.48900
C  -8.03900 37.78000 39.64000
C  -8.05600 39.28900 39.76900
C  -9.35400 39.61800 40.45100
C  -6.83900 39.89700 40.57300
C  -8.04100 37.27900 38.16900
C  -6.94900 36.33300 37.66800
H  -5.88100 36.91400 36.73900
N  -11.96300 40.55400 41.59100
C  -10.90200 41.40300 41.23100
C  -11.39600 42.84200 41.13900
C  -12.77800 42.78100 41.58300
C  -13.11400 41.35200 41.82900
C  -10.50200 44.09600 40.85200
C  -13.72500 44.03100 41.70400
O  -13.39000 45.13600 41.29300
C  -15.08600 43.92600 42.26700
N  -13.86400 38.38800 42.44800
C  -14.64500 39.47600 42.68900
C  -16.13100 39.02900 43.26600
C  -15.95600 37.50100 43.24100
C  -14.51100 37.24300 42.77900
C  -16.40300 39.60300 44.70800
C  -17.01100 36.83200 42.28400
C  -17.03000 37.13500 40.76500
N  -11.86100 36.37700 41.91400
C  -12.69100 35.46700 42.44000
C  -12.14300 34.10700 42.40200
C  -10.93100 34.26700 41.67000
C  -10.81700 35.67700 41.39000
C  -12.79900 32.85000 42.92000
C  -9.74600 33.62100 41.04600
O  -9.38800 32.45700 40.95700
C  -8.90300 34.79600 40.46700
C  -7.58900 34.68400 41.17700
O  -7.33200 35.19100 42.23400
O  -6.76300 33.98200 40.34100
C  -5.34900 34.00100 40.66100
H  -9.16900 41.70900 40.11900
H  -15.21600 41.42200 42.48000
H  -14.63100 35.16600 43.45200
H  -7.18100 37.33700 40.14500
H  -8.30900 39.75100 38.81500
H  -6.88200 40.97300 40.74200
H  -5.87000 39.71400 40.10800
H  -6.84200 39.27300 41.46700
H  -8.13100 38.03000 37.38400
H  -8.97900 36.72800 38.11200
H  -7.43300 35.43800 37.27700
H  -6.25000 35.98900 38.43000
H  -9.53800 43.91900 41.32900
H  -10.94400 44.93200 41.39600
H  -10.44800 44.24200 39.77300
H  -15.70100 43.32200 41.60200
H  -15.51800 44.92600 42.22100
H  -15.08400 43.51900 43.27900
H  -16.87200 39.41200 42.56400
H  -16.00500 37.19800 44.28700
H  -16.01100 40.61200 44.83600
H  -16.01500 38.94200 45.48200
H  -17.44500 39.63300 45.02900
H  -17.98200 37.11200 42.69000
H  -17.00200 35.74300 42.33200
H  -15.99500 37.34600 40.49600
H  -17.73200 37.93100 40.51800
H  -17.39700 36.24000 40.26200
H  -12.15500 32.05400 42.54600
H  -13.82000 32.80700 42.54200
H  -12.61800 32.86000 43.99500
H  -8.89600 34.63900 39.38800
H  -4.67100 33.65600 39.88000
H  -5.17700 33.25100 41.43200
H  -5.10300 34.98400 41.06200

