158

Mg 47.24200 16.15100 28.10400
C  45.26600 15.75600 30.96200
C  49.32400 18.30100 29.83000
C  48.82900 17.03700 25.15100
C  44.60600 14.73100 26.24900
N  47.10600 17.05300 30.11300
C  46.40400 16.62400 31.16400
C  46.94700 17.21300 32.54700
C  48.02400 18.19600 32.09800
C  48.21000 17.85300 30.56600
C  47.73000 19.72100 32.37800
C  47.52400 16.15800 33.62500
C  46.60800 16.10900 34.93100
H  46.61100 17.47700 35.64000
N  48.97800 17.37400 27.61300
C  49.64700 18.16100 28.48500
C  50.78700 18.71500 27.83400
C  50.71500 18.28600 26.48400
C  49.46900 17.47700 26.35200
C  51.75500 19.61800 28.42300
C  51.60600 18.58600 25.29800
O  51.36600 18.21300 24.18200
C  52.78200 19.41700 25.47300
N  46.78800 15.83100 26.05600
C  47.58000 16.30700 25.07300
C  47.13200 15.88100 23.70900
C  45.88100 14.91100 24.07500
C  45.76000 15.18500 25.56600
C  46.78300 16.99800 22.68300
C  46.07800 13.38700 23.67600
C  45.18200 12.88200 22.52500
N  45.38300 15.22300 28.42900
C  44.46600 14.62300 27.61900
C  43.35900 14.02900 28.41500
C  43.65900 14.41600 29.74300
C  44.89600 15.14200 29.71800
C  42.23600 13.16900 27.90900
C  43.20900 14.38600 31.08600
O  42.24600 13.81900 31.54500
C  44.19200 15.18900 31.95800
C  43.27600 16.27500 32.51800
O  42.65500 17.04500 31.80200
O  43.31900 16.27800 33.94400
C  42.70900 17.41700 34.64100
H  50.00200 18.90800 30.43400
H  49.23500 17.25200 24.16000
H  43.88100 14.31600 25.54600
H  46.10100 17.76400 32.95500
H  49.00500 17.96000 32.51000
H  48.65300 20.16700 32.75000
H  46.87800 19.84700 33.04500
H  47.47700 20.24500 31.45600
H  48.61400 16.14200 33.63900
H  47.28400 15.18300 33.19900
H  47.05100 15.38600 35.61600
H  45.61700 15.77100 34.62900
H  51.95500 20.48600 27.79500
H  52.60700 19.08200 28.84000
H  51.36100 20.07400 29.33100
H  53.46800 19.25100 24.64300
H  53.37500 19.01400 26.29300
H  52.47300 20.44600 25.66000
H  47.89000 15.21300 23.30000
H  44.95700 15.30400 23.65200
H  45.73100 16.98700 22.39700
H  47.33100 16.99000 21.74100
H  47.07200 17.97700 23.06700
H  45.71900 12.77600 24.50400
H  47.09100 13.04300 23.46900
H  45.70700 12.90700 21.57000
H  44.25300 13.42600 22.35200
H  44.90700 11.84100 22.69200
H  42.36700 12.88200 26.86600
H  41.30600 13.73800 27.89600
H  42.04000 12.35200 28.60400
H  44.58400 14.52700 32.73000
H  43.01300 18.35800 34.18000
H  42.82900 17.32100 35.72000
H  41.65000 17.32000 34.40300
Mg 48.33100 35.29400 27.68800
C  46.10700 33.57700 29.81500
C  48.62800 37.79200 30.10400
C  50.20700 36.94300 25.52300
C  47.97900 32.50800 25.42200
N  47.35500 35.68500 29.71900
C  46.68300 34.71300 30.47300
C  46.84200 35.05800 31.97400
C  47.25600 36.58100 31.92900
C  47.81300 36.74600 30.48700
C  46.08100 37.55800 32.30500
C  47.90600 34.16900 32.59200
C  47.97900 34.08700 34.09000
H  47.07200 34.94800 34.94100
N  49.23600 37.14200 27.77600
C  49.27900 38.05100 28.86500
C  50.16300 39.11000 28.46800
C  50.59400 38.91100 27.10900
C  49.95700 37.62900 26.77400
C  50.39600 40.30700 29.39700
C  51.36100 39.78300 26.25100
O  51.60000 39.49400 25.06800
C  51.78700 41.15200 26.72000
N  48.76300 34.91500 25.58600
C  49.75000 35.72100 25.05800
C  50.19700 35.12500 23.71600
C  49.70000 33.61600 23.81100
C  48.70900 33.64800 24.98200
C  49.68200 35.86400 22.45200
C  50.80700 32.60300 24.12600
C  51.57600 32.14300 22.87600
N  47.28200 33.43300 27.55700
C  47.19000 32.46900 26.56800
C  46.17800 31.53100 26.92300
C  45.67300 31.85200 28.18000
C  46.38000 33.05500 28.48500
C  45.84400 30.24700 26.13100
C  44.78900 31.49200 29.26500
O  43.96100 30.61800 29.42200
C  45.11600 32.52900 30.39700
C  45.56700 31.89800 31.65400
O  46.54500 31.18400 31.73500
O  44.70400 32.23900 32.65200
C  45.07600 31.72500 33.96200
H  48.62100 38.50700 30.93100
H  51.08800 37.34000 25.01500
H  47.99300 31.64600 24.75100
H  45.89200 34.77900 32.42900
H  48.01100 36.78800 32.68700
H  45.20700 36.94800 32.53200
H  45.69300 38.03300 31.40300
H  46.31700 38.27100 33.09500
H  48.90800 34.37600 32.21400
H  47.77000 33.16100 32.20100
H  48.99000 34.39900 34.35500
H  47.96500 33.00500 34.22300
H  49.84600 40.21600 30.33400
H  50.05000 41.19600 28.87000
H  51.45300 40.35700 29.65800
H  50.86200 41.72000 26.81000
H  52.54900 41.68200 26.14800
H  52.14600 40.94700 27.72800
H  51.28400 35.14500 23.78700
H  49.27000 33.31600 22.85500
H  49.21200 35.16300 21.76100
H  50.47600 36.37700 21.91000
H  48.96700 36.64600 22.71000
H  50.50600 31.66700 24.59700
H  51.52400 33.18400 24.70600
H  52.63700 32.34400 23.02400
H  51.16900 32.58900 21.96900
H  51.54600 31.05500 22.81700
H  45.14500 29.68500 26.75000
H  46.68300 29.58300 25.92500
H  45.38600 30.35000 25.14700
H  44.21600 33.05200 30.72000
H  44.60000 30.78300 34.23400
H  44.79000 32.47400 34.69900
H  46.14000 31.59400 34.16200

