158

Mg 16.71200 51.86700 26.38400
C  18.45700 50.39100 29.14500
C  14.18100 52.74800 28.57400
C  15.08700 53.07000 23.78200
C  19.16600 50.48500 24.30300
N  16.33700 51.44400 28.61300
C  17.28100 51.01500 29.49200
C  16.91400 51.37400 30.90500
C  15.41100 51.78100 30.73700
C  15.24200 52.03800 29.21900
C  14.42300 50.67700 31.22300
C  17.87300 52.43400 31.50800
C  18.18300 52.25800 33.05800
H  17.08000 51.69600 33.88800
N  14.83200 52.73400 26.15700
C  13.96600 53.06700 27.15500
C  12.87600 53.84100 26.61000
C  13.10100 53.95400 25.26600
C  14.35200 53.22300 24.92700
C  11.76800 54.33600 27.47600
C  12.25700 54.61400 24.15800
O  12.71000 54.79900 23.04100
C  10.85500 55.21200 24.57100
N  16.99000 51.67400 24.27500
C  16.22800 52.35200 23.40600
C  16.85700 52.35700 21.93500
C  18.19600 51.58900 22.16700
C  18.09900 51.18600 23.61700
C  16.13400 51.50800 20.84800
C  19.47900 52.28300 21.81600
C  20.61800 51.46200 21.19700
N  18.43000 50.70000 26.56500
C  19.38600 50.21600 25.65600
C  20.41000 49.42400 26.25100
C  20.09000 49.56000 27.66300
C  18.88100 50.26800 27.75900
C  21.54300 48.73500 25.51600
C  20.53300 49.20600 28.98100
O  21.50800 48.54900 29.32200
C  19.60000 49.86100 30.01900
C  19.21000 48.81500 30.98700
O  18.51400 47.84400 30.80400
O  19.69300 49.20200 32.22000
C  19.32600 48.43700 33.38900
H  13.39900 53.20500 29.18400
H  14.62300 53.46100 22.87400
H  20.05800 50.15300 23.76700
H  17.08600 50.48900 31.51800
H  15.29500 52.75300 31.21600
H  13.47200 51.07700 31.57300
H  14.89500 50.08600 32.00800
H  14.24200 50.02800 30.36600
H  17.35300 53.39100 31.47400
H  18.73400 52.51900 30.84500
H  18.33700 53.25700 33.46700
H  19.16800 51.79400 33.10200
H  10.91200 53.70400 27.23900
H  11.53900 55.34000 27.11800
H  12.00300 54.31500 28.54000
H  10.20300 55.34400 23.70800
H  10.94300 56.11900 25.17000
H  10.26100 54.48200 25.12000
H  16.97700 53.39900 21.63600
H  18.27600 50.62800 21.65900
H  15.63200 50.59800 21.17700
H  16.80700 51.28400 20.02100
H  15.36400 52.08100 20.33200
H  19.81300 52.70100 22.76500
H  19.35100 53.14400 21.15900
H  20.32500 50.50200 20.77100
H  21.30200 51.29100 22.02800
H  21.13400 52.10600 20.48600
H  21.41300 47.66400 25.35900
H  22.41000 49.04100 26.10100
H  21.65700 49.09700 24.49400
H  20.07600 50.68000 30.55700
H  18.23700 48.42700 33.33800
H  19.63400 48.87900 34.33600
H  19.57200 47.38000 33.28400
Mg -2.02600 34.76000 26.27300
C  -4.01100 33.10600 28.74800
C  -1.13100 36.95800 28.66700
C  -0.44200 36.37900 23.86000
C  -3.64400 32.76200 23.78100
N  -2.68600 35.01400 28.47600
C  -3.38300 34.20900 29.28200
C  -3.23700 34.62000 30.76200
C  -2.45500 36.00100 30.68900
C  -2.12300 36.06800 29.17000
C  -3.14100 37.33100 31.27100
C  -2.70400 33.45900 31.55900
C  -2.25200 33.91000 32.98500
H  -2.44700 33.02900 34.22700
N  -0.78500 36.32700 26.27800
C  -0.62700 37.14500 27.35800
C  0.34700 38.07300 26.96900
C  0.63600 37.92700 25.58000
C  -0.20000 36.83700 25.15400
C  0.98500 39.02100 28.06300
C  1.61200 38.71100 24.62600
O  1.86700 38.41600 23.45200
C  2.27600 39.89400 25.18700
N  -2.20300 34.70500 24.12700
C  -1.32500 35.44100 23.36700
C  -1.43300 35.13000 21.84100
C  -2.19700 33.75800 21.88400
C  -2.71200 33.68300 23.35400
C  -2.15600 36.24800 21.08000
C  -1.39200 32.47600 21.35100
C  -0.15600 32.09500 22.26400
N  -3.38900 33.20800 26.26600
C  -3.99600 32.53000 25.18200
C  -4.82300 31.40400 25.66600
C  -4.78800 31.56800 27.10200
C  -4.01100 32.73800 27.35200
C  -5.51600 30.36800 24.82700
C  -5.30800 31.08300 28.31300
O  -5.97800 30.13300 28.61000
C  -4.69100 31.93900 29.41400
C  -5.71000 32.33100 30.37700
O  -6.29000 33.42100 30.30300
O  -5.89600 31.39800 31.39600
C  -6.69000 31.86600 32.47800
H  -0.75100 37.48300 29.54600
H  0.23600 36.82000 23.12500
H  -4.08900 32.04000 23.09300
H  -4.24500 34.73500 31.16100
H  -1.53500 35.73400 31.20900
H  -4.03700 37.05900 31.82900
H  -3.37500 38.08100 30.51500
H  -2.50300 37.73200 32.05900
H  -1.95400 32.91800 30.98300
H  -3.53800 32.77500 31.71200
H  -2.58700 34.91000 33.25700
H  -1.18000 33.93700 32.78800
H  2.05400 39.05400 28.27300
H  0.45200 38.96600 29.01100
H  0.72000 40.03300 27.75900
H  1.44600 40.53500 25.48500
H  2.85000 40.27000 24.34100
H  3.00100 39.60100 25.94700
H  -0.53300 34.98800 21.24300
H  -3.07500 33.89100 21.25200
H  -1.67500 36.50600 20.13700
H  -2.12600 37.18700 21.63400
H  -3.16100 35.98900 20.74600
H  -1.21800 32.73600 20.30700
H  -2.09900 31.64700 21.31600
H  -0.08700 32.69200 23.17400
H  0.72600 32.27600 21.64900
H  -0.15900 31.09000 22.68700
H  -6.02400 30.79000 23.95900
H  -6.26600 29.82400 25.40200
H  -4.89000 29.51200 24.57800
H  -3.91800 31.35900 29.91800
H  -6.72700 31.04100 33.18900
H  -7.69700 32.16900 32.19100
H  -6.18500 32.67600 33.00500

