158

Mg 43.31400 42.26400 26.78400
C  42.15500 44.46300 29.30500
C  44.31200 40.18900 29.39100
C  44.76600 40.40000 24.49800
C  43.06900 44.96200 24.54800
N  43.23500 42.24000 29.05300
C  42.55200 43.22400 29.82400
C  42.52400 42.96800 31.38100
C  43.49600 41.73600 31.43900
C  43.75400 41.36600 29.87200
C  44.84000 41.90700 32.28500
C  41.07200 42.82100 31.86100
C  40.65700 43.38100 33.19900
H  41.58900 43.37300 34.35600
N  44.33900 40.46300 26.92100
C  44.65000 39.77300 28.05700
C  45.26200 38.51700 27.60800
C  45.15100 38.45600 26.22600
C  44.76500 39.79200 25.77500
C  45.67900 37.39300 28.48600
C  45.44200 37.29200 25.17300
O  45.25300 37.53500 23.95400
C  45.64800 35.90000 25.58400
N  43.84800 42.59700 24.73200
C  44.35400 41.63400 24.05000
C  44.45100 41.97200 22.60200
C  43.77200 43.45000 22.61800
C  43.52900 43.73700 23.99800
C  45.81900 41.84700 21.91400
C  42.47300 43.56000 21.65900
C  41.16200 42.82500 22.13600
N  42.73900 44.26500 26.88200
C  42.57400 45.22000 25.87700
C  42.05000 46.49200 26.43400
C  41.76300 46.18200 27.73400
C  42.28500 44.89900 27.99200
C  41.73000 47.71900 25.67500
C  41.09500 46.68200 28.95300
O  40.44000 47.72400 29.08800
C  41.41900 45.62700 30.01000
C  42.20300 46.39200 31.00100
O  43.39700 46.62900 30.87500
O  41.43500 46.74200 32.14000
C  42.14400 47.41200 33.18400
H  44.72100 39.57500 30.19600
H  45.26000 39.75600 23.76800
H  42.95900 45.82000 23.88300
H  43.08300 43.78800 31.83200
H  42.95600 40.93400 31.94200
H  45.02600 42.92100 32.63900
H  45.60900 41.60200 31.57500
H  45.01100 41.27100 33.15300
H  40.95200 41.73900 31.90200
H  40.42200 43.09700 31.03100
H  39.74100 42.93600 33.58800
H  40.48000 44.43400 32.98400
H  45.67200 37.87900 29.46200
H  46.67700 37.02000 28.26000
H  44.92700 36.60500 28.49900
H  46.32000 35.66000 26.40700
H  45.85100 35.35000 24.66500
H  44.65000 35.63300 25.93200
H  43.81900 41.25800 22.07400
H  44.44000 44.25400 22.30800
H  46.55900 41.50300 22.63600
H  45.98700 42.89800 21.67900
H  45.93200 41.35600 20.94800
H  42.81600 43.19200 20.69200
H  42.28500 44.62000 21.48900
H  41.17700 42.67700 23.21600
H  40.88900 41.90500 21.61900
H  40.33700 43.51200 21.95000
H  42.51900 47.73600 24.92400
H  41.75700 48.53000 26.40300
H  40.76200 47.65700 25.17600
H  40.47600 45.25200 30.41000
H  42.42100 48.41000 32.84400
H  43.03600 46.83500 33.42500
H  41.45800 47.48000 34.02800
Mg -5.98700 25.02300 25.52200
C  -4.04700 26.23600 28.45100
C  -7.49200 22.75100 27.56600
C  -7.01400 23.33900 22.72800
C  -3.53700 26.63700 23.60300
N  -5.70300 24.55000 27.74900
C  -5.11600 25.33400 28.73500
C  -5.55900 24.89200 30.18800
C  -6.43200 23.61700 29.77700
C  -6.59600 23.63400 28.24900
C  -5.85000 22.25900 30.23500
C  -6.44400 25.90100 31.01600
C  -6.44000 25.72500 32.59300
H  -5.71700 24.58300 33.27000
N  -7.23700 23.38500 25.17100
C  -7.86900 22.62600 26.16900
C  -8.80100 21.76800 25.57200
C  -8.47700 21.70000 24.20600
C  -7.55800 22.84800 23.92700
C  -9.66500 20.75100 26.35100
C  -8.94900 20.73600 23.04500
O  -8.69700 20.96500 21.91000
C  -9.75900 19.57000 23.44400
N  -5.38500 25.05100 23.45700
C  -6.02800 24.27100 22.50200
C  -5.61500 24.74200 21.08500
C  -4.60700 25.88100 21.39100
C  -4.47700 25.88200 22.87900
C  -5.12300 23.61800 20.21500
C  -4.79900 27.36200 20.79100
C  -3.59400 28.09600 20.13800
N  -4.28200 26.30900 25.86400
C  -3.38000 26.81800 24.96400
C  -2.38000 27.54900 25.64500
C  -2.55900 27.37900 27.00100
C  -3.76100 26.62700 27.13000
C  -1.37700 28.45500 25.04600
C  -2.05300 27.77700 28.35500
O  -1.08300 28.42300 28.70200
C  -3.09400 27.09300 29.34600
C  -2.28700 26.16500 30.23700
O  -1.80900 25.06500 30.02000
O  -2.25400 26.80000 31.49200
C  -1.47400 26.08700 32.51300
H  -8.09200 22.09400 28.20000
H  -7.19100 22.66100 21.89000
H  -2.76800 27.06700 22.95900
H  -4.68200 24.67100 30.79600
H  -7.43500 23.75900 30.17900
H  -4.77400 22.38600 30.35700
H  -5.93600 21.56700 29.39700
H  -6.30000 21.90700 31.16300
H  -7.42900 25.79600 30.56100
H  -6.12300 26.92100 30.80500
H  -7.47900 25.96900 32.81500
H  -5.83400 26.56200 32.94100
H  -9.23700 19.77100 26.14000
H  -10.65000 20.96500 25.93400
H  -9.71500 20.93200 27.42400
H  -10.15600 18.94500 22.64400
H  -10.58900 19.90400 24.06600
H  -9.03900 18.86000 23.85100
H  -6.52200 25.25200 20.76200
H  -3.61000 25.67000 21.00400
H  -4.08400 23.76100 19.91600
H  -5.79200 23.57900 19.35600
H  -5.14300 22.70700 20.81400
H  -5.06500 27.96300 21.66100
H  -5.62200 27.32700 20.07800
H  -3.34200 28.93300 20.79000
H  -3.90400 28.44700 19.15400
H  -2.66400 27.52800 20.17000
H  -1.38700 28.50100 23.95700
H  -0.34500 28.25700 25.33500
H  -1.59400 29.44200 25.45500
H  -3.67000 27.90000 29.79900
H  -0.50000 25.93100 32.04800
H  -1.87300 25.20300 33.01000
H  -1.26900 26.78800 33.32200

