158

Mg 44.73700 4.42200 45.77100
C  42.86800 7.58400 45.84400
C  41.71500 2.85500 45.35600
C  46.51300 1.71300 45.12000
C  47.58800 6.42800 45.21600
N  42.54000 5.21000 45.50300
C  42.00800 6.44500 45.62000
C  40.48900 6.37300 45.53100
C  40.20500 4.84300 45.48700
C  41.59200 4.24000 45.47300
C  39.24400 4.27000 46.53800
C  39.85200 7.13800 44.37600
C  40.70600 7.43400 43.10100
H  40.09400 7.01700 41.78200
N  44.21900 2.47800 45.47000
C  42.91100 2.01300 45.30200
C  42.97500 0.62200 44.91400
C  44.37100 0.27500 44.96400
C  45.10300 1.49600 45.22400
C  41.75600 -0.22000 44.69800
C  44.86300 -1.16800 44.63500
O  44.04700 -2.04700 44.30400
C  46.33900 -1.50900 44.54700
N  46.76600 4.18700 45.03700
C  47.24200 2.88800 45.03900
C  48.74600 2.88000 44.71100
C  49.04300 4.41900 44.77400
C  47.76100 5.05900 44.97200
C  49.64000 2.02500 45.65200
C  49.75500 4.91600 43.54100
C  51.11500 5.39200 43.77100
N  45.21900 6.54500 45.76500
C  46.44800 7.18300 45.59500
C  46.26000 8.66900 45.71800
C  44.89900 8.86000 45.96200
C  44.30100 7.53200 45.94800
C  47.32000 9.71200 45.61200
C  43.88200 9.85600 46.19800
O  43.95600 11.06800 46.31500
C  42.51600 9.08800 46.02500
C  41.76000 9.31800 47.27400
O  41.90800 8.63000 48.29400
O  40.94500 10.40700 47.14700
C  40.15000 10.65100 48.37800
H  40.77500 2.32600 45.18700
H  47.03100 0.76500 44.96000
H  48.53800 6.96500 45.18200
H  40.14400 6.79000 46.47600
H  39.74500 4.57200 44.53700
H  39.83700 3.66200 47.22100
H  38.44200 3.64700 46.14300
H  38.79600 5.05100 47.15200
H  39.64900 8.10500 44.83400
H  38.98100 6.58400 44.02600
H  41.69500 7.01700 43.29000
H  40.82000 8.51800 43.10500
H  41.93800 -0.95500 43.91400
H  40.89000 0.33800 44.34200
H  41.49400 -0.68400 45.64900
H  46.30500 -2.58500 44.37600
H  46.77200 -1.36700 45.53700
H  46.84200 -0.97000 43.74400
H  48.74800 2.48500 43.69600
H  49.57500 4.74900 45.66600
H  48.90700 1.70900 46.39400
H  50.50900 2.60600 45.96000
H  50.02400 1.16800 45.10000
H  49.28300 5.70900 42.96100
H  49.95000 4.05400 42.90300
H  51.80900 4.72900 43.25600
H  51.37100 5.22800 44.81800
H  51.39400 6.42600 43.56700
H  46.90400 10.69100 45.84900
H  47.66100 9.81800 44.58200
H  48.08400 9.55000 46.37300
H  41.93000 9.48900 45.19800
H  40.70200 10.40900 49.28600
H  39.16400 10.18900 48.32900
H  39.94800 11.72200 48.34900
Mg 17.06600 52.99600 25.59500
C  18.56700 51.20400 28.33500
C  14.37700 53.40800 27.74700
C  15.25200 54.40000 23.08300
C  19.37900 51.63200 23.57700
N  16.67100 52.55700 27.84000
C  17.41800 51.94800 28.70400
C  16.85500 52.05300 30.07600
C  15.38800 52.39800 29.82500
C  15.44900 52.87500 28.37800
C  14.39500 51.28800 30.00900
C  17.60600 53.09900 30.93500
C  17.98800 52.64400 32.37000
H  17.14400 53.26700 33.50100
N  15.11000 53.86200 25.46700
C  14.14900 53.92000 26.44600
C  12.96600 54.57800 25.94100
C  13.26400 54.96800 24.60400
C  14.61400 54.42500 24.31200
C  11.76400 54.88100 26.80900
C  12.49100 55.89800 23.63800
O  13.01800 56.35800 22.66800
C  11.18700 56.38900 24.04100
N  17.19600 52.99500 23.65700
C  16.40200 53.66900 22.74000
C  17.03000 53.75800 21.29900
C  18.36400 52.87300 21.54100
C  18.40500 52.49500 23.05800
C  16.12000 53.15600 20.25500
C  19.56900 53.68500 20.98500
C  20.33000 54.57600 21.93700
N  18.83600 51.74300 25.89000
C  19.57600 51.20000 24.93200
C  20.57400 50.31000 25.55300
C  20.37000 50.44900 26.93000
C  19.17700 51.16000 27.06100
C  21.77300 49.65500 24.81000
C  20.71000 50.12600 28.27200
O  21.68300 49.58500 28.65200
C  19.49500 50.53800 29.18600
C  18.97700 49.28700 29.92600
O  18.19700 48.44400 29.48800
O  19.56100 49.18600 31.18200
C  19.11500 48.11000 32.04300
H  13.55400 53.52700 28.45500
H  14.84800 55.00000 22.26600
H  20.08900 51.30800 22.81300
H  16.92400 51.09400 30.58900
H  15.04600 53.31900 30.29900
H  14.56700 50.79700 30.96700
H  14.51700 50.62100 29.15500
H  13.41200 51.75000 29.91700
H  16.99500 54.00100 30.94200
H  18.52200 53.39700 30.42500
H  19.05100 52.77200 32.57600
H  17.78100 51.57600 32.44600
H  11.81000 54.41900 27.79500
H  10.86800 54.63200 26.24000
H  11.76300 55.95000 27.01800
H  10.79500 57.04500 23.26400
H  11.30500 57.06400 24.88900
H  10.44400 55.59600 24.12200
H  17.20200 54.78400 20.97400
H  18.34400 51.93100 20.99200
H  16.08700 53.81500 19.38700
H  15.09200 52.97600 20.56900
H  16.52400 52.21600 19.87800
H  19.17200 54.29500 20.17300
H  20.29600 52.99600 20.55700
H  20.03000 54.33900 22.95700
H  20.10600 55.59900 21.63500
H  21.40000 54.37400 21.87700
H  21.82100 48.57400 24.94500
H  22.69900 50.10800 25.16300
H  21.66500 49.76400 23.73100
H  19.93800 51.19700 29.93200
H  19.28300 48.28500 33.10600
H  19.52300 47.12600 31.80900
H  18.04100 47.96800 31.92700

