158

Mg 30.36200 58.08600 40.33400
C  27.56600 56.16100 39.33700
C  32.46100 55.68800 39.48700
C  32.89600 60.43300 40.21400
C  28.05500 60.87700 40.57800
N  29.97600 56.15300 39.54400
C  28.81900 55.51500 39.22900
C  29.09300 54.04800 38.97800
C  30.61900 53.90300 39.22900
C  31.08400 55.39000 39.40600
C  31.05400 52.78600 40.25100
C  28.54600 53.50300 37.61500
C  29.32400 53.89900 36.33300
H  28.44500 54.35400 35.23300
N  32.35900 58.06200 39.90100
C  33.07000 56.96900 39.53600
C  34.43900 57.24800 39.26200
C  34.59400 58.62100 39.59500
C  33.25800 59.12600 39.93700
C  35.39400 56.18500 38.72700
C  35.96100 59.27800 39.59800
O  36.96900 58.57300 39.37700
C  36.14700 60.70500 39.91400
N  30.46700 60.42600 40.32400
C  31.66700 61.04400 40.43400
C  31.48800 62.50200 40.70800
C  29.94600 62.63300 41.03600
C  29.38700 61.24900 40.59400
C  32.42500 63.22100 41.76100
C  29.22100 63.76800 40.24800
C  27.95100 64.42900 40.76300
N  28.21600 58.40300 40.34100
C  27.45400 59.57700 40.40400
C  26.06400 59.19500 40.44400
C  26.04600 57.88000 40.06500
C  27.37600 57.45600 39.85200
C  25.02100 60.12800 40.71200
C  25.19500 56.76000 39.74900
O  23.94900 56.64500 39.72900
C  26.10800 55.59500 39.18800
C  25.79700 54.26200 39.80300
O  26.43900 53.64700 40.65200
O  24.92900 53.60700 38.97100
C  24.62300 52.18600 39.31000
H  33.09100 54.81300 39.30700
H  33.71000 61.16100 40.18300
H  27.32400 61.67600 40.72300
H  28.54000 53.47300 39.72100
H  31.00400 53.50500 38.29000
H  30.43900 51.90300 40.07800
H  30.85800 53.17800 41.24900
H  32.09900 52.48400 40.18300
H  27.56500 53.97000 37.53300
H  28.39000 52.44100 37.80400
H  29.95300 53.06400 36.02500
H  30.14100 54.58300 36.56400
H  36.04500 56.43900 37.89000
H  34.97900 55.23800 38.38200
H  35.85900 55.74500 39.60900
H  35.72300 60.96300 40.88500
H  35.62500 61.14100 39.06300
H  37.21600 60.91300 39.95300
H  31.69500 62.98600 39.75400
H  29.62700 62.68800 42.07700
H  31.89400 63.56200 42.65000
H  32.85500 64.10500 41.29000
H  33.17600 62.51700 42.11900
H  29.11600 63.36100 39.24200
H  29.96000 64.53000 39.99700
H  28.34700 65.37800 41.12500
H  27.49900 63.98700 41.65100
H  27.27200 64.58100 39.92400
H  25.05200 60.94700 39.99300
H  24.92000 60.57400 41.70200
H  24.18000 59.47500 40.47700
H  25.71700 55.50200 38.17500
H  25.22900 51.64600 38.58200
H  23.59600 52.02600 38.98200
H  24.87800 51.93400 40.33900
Mg -11.79000 37.28400 41.79200
C  -9.72100 34.70600 40.76900
C  -9.54400 39.55100 40.60800
C  -14.25200 39.56800 42.03200
C  -14.14200 34.84600 42.95600
N  -9.98200 37.10500 40.58900
C  -9.24100 35.96600 40.38100
C  -7.91800 36.19900 39.57100
C  -7.82400 37.76200 39.84800
C  -9.18200 38.23500 40.38600
C  -6.62000 38.40600 40.68500
C  -7.99700 35.75100 38.04400
C  -6.82500 34.92300 37.41300
H  -6.24600 35.53600 36.17800
N  -11.83400 39.34100 41.34500
C  -10.73900 40.06900 40.95700
C  -11.21800 41.51100 40.93300
C  -12.66100 41.49600 41.25700
C  -12.97000 40.09400 41.60200
C  -10.33400 42.66800 40.60500
C  -13.56300 42.72300 41.35400
O  -13.11800 43.82100 41.06800
C  -15.01900 42.75400 41.85000
N  -13.93800 37.14100 42.29600
C  -14.70200 38.33800 42.31800
C  -16.23300 37.98800 42.65800
C  -16.12800 36.52400 43.13000
C  -14.64700 36.11600 42.80400
C  -16.94400 38.84200 43.69200
C  -17.23800 35.56200 42.43600
C  -18.22400 34.96400 43.48400
N  -11.95800 35.20100 41.84200
C  -12.88500 34.33400 42.48600
C  -12.30900 33.03000 42.52800
C  -11.00100 33.10600 41.94500
C  -10.90400 34.39800 41.42100
C  -12.97700 31.74100 43.07600
C  -9.75000 32.38000 41.70100
O  -9.38800 31.28700 42.06300
C  -8.90400 33.38000 40.74400
C  -7.59900 33.60500 41.25300
O  -7.29300 34.00300 42.32900
O  -6.70900 33.29200 40.29000
C  -5.33100 33.39700 40.80100
H  -8.74700 40.21800 40.27300
H  -15.03800 40.32600 42.04300
H  -14.89800 34.22500 43.44100
H  -7.08800 35.74500 40.11100
H  -7.65300 38.24300 38.88500
H  -6.08100 39.08600 40.02600
H  -5.86100 37.64000 40.84400
H  -6.99100 38.97600 41.53700
H  -8.16900 36.62300 37.41300
H  -8.90000 35.16300 37.87800
H  -7.26800 33.93900 37.26100
H  -6.04700 34.77700 38.16200
H  -10.67300 43.34400 39.82000
H  -9.35800 42.21600 40.42900
H  -10.13900 43.22200 41.52300
H  -15.70700 42.43000 41.06900
H  -15.18200 43.79900 42.11200
H  -15.17500 42.17900 42.76200
H  -16.82900 38.14600 41.75900
H  -16.24700 36.49800 44.21300
H  -17.65200 39.49300 43.17800
H  -16.29200 39.53200 44.22700
H  -17.57500 38.24900 44.35400
H  -16.72700 34.82900 41.81200
H  -17.77000 36.11400 41.66200
H  -17.86500 33.96400 43.72600
H  -19.24200 34.96800 43.09400
H  -18.29000 35.66300 44.31800
H  -12.29200 31.23300 43.75500
H  -13.04900 31.07500 42.21700
H  -13.89700 31.95900 43.61900
H  -8.85400 33.13400 39.68300
H  -4.99800 34.43400 40.78200
H  -4.66900 32.84800 40.13100
H  -5.05300 33.09200 41.81000

