158

Mg 8.96900 4.12800 27.86400
C  10.32700 2.39300 30.58700
C  7.14000 6.01000 30.10900
C  7.30000 5.73800 25.25200
C  10.21400 1.78200 25.68500
N  8.68100 4.07000 30.08900
C  9.47800 3.41800 30.99000
C  9.17200 3.94200 32.43500
C  8.12400 5.01300 32.19900
C  7.97000 5.08200 30.68400
C  6.69600 4.77300 32.93400
C  10.44900 4.39200 33.26900
C  10.28600 5.44400 34.41400
H  10.83900 5.24400 35.78600
N  7.58300 5.81100 27.72800
C  7.03100 6.45500 28.74900
C  6.22300 7.54200 28.24100
C  6.21200 7.42200 26.82500
C  7.06100 6.29700 26.49900
C  5.47500 8.61000 29.16400
C  5.51100 8.26600 25.84100
O  5.75000 8.06200 24.66800
C  4.77500 9.51200 26.27300
N  8.74600 3.74300 25.74900
C  8.01400 4.56400 24.91900
C  8.05100 4.04800 23.47500
C  8.94000 2.78700 23.55300
C  9.36500 2.75200 25.02300
C  6.62800 3.80900 22.83800
C  10.12500 2.81100 22.59900
C  10.42400 1.42000 22.03400
N  10.02900 2.46300 28.07400
C  10.58200 1.66100 27.06500
C  11.54100 0.78200 27.71100
C  11.48200 1.06900 29.04700
C  10.50100 2.04900 29.22900
C  12.22400 -0.35300 26.88200
C  12.00300 0.72900 30.36200
O  12.92700 -0.06200 30.68300
C  11.28900 1.66100 31.42400
C  10.82400 0.89900 32.58900
O  9.87200 0.08800 32.59700
O  11.77300 0.97200 33.58600
C  11.50200 0.26100 34.79300
H  6.72700 6.81000 30.72600
H  6.91500 6.20600 24.34300
H  10.66400 1.07600 24.98400
H  8.69500 3.13600 32.99300
H  8.46800 6.03400 32.36500
H  6.70000 4.32200 33.92700
H  6.11300 4.19100 32.22000
H  6.21000 5.73500 33.09900
H  11.21300 4.79500 32.60400
H  10.81000 3.56400 33.88000
H  9.21200 5.48700 34.59400
H  10.77000 6.32800 33.99800
H  4.41800 8.68900 28.91200
H  5.87000 9.62100 29.06400
H  5.59800 8.19300 30.16400
H  3.74000 9.43500 26.60800
H  4.76800 10.15600 25.39300
H  5.41000 10.06500 26.96500
H  8.54500 4.87500 22.96500
H  8.36300 1.89000 23.32800
H  5.88200 3.75400 23.63200
H  6.55400 2.85000 22.32600
H  6.38900 4.66700 22.21000
H  10.97800 3.07300 23.22500
H  9.94500 3.48800 21.76400
H  11.30200 1.09000 22.58900
H  10.65000 1.48400 20.97000
H  9.65600 0.64800 22.07900
H  13.15200 -0.58800 27.40300
H  12.53600 -0.16300 25.85500
H  11.53100 -1.19400 26.90100
H  12.06400 2.29600 31.85200
H  10.90100 0.97500 35.35500
H  12.39800 0.06400 35.38200
H  10.97700 -0.69400 34.81000
Mg 30.10200 57.88000 40.85600
C  27.44000 56.08300 39.54800
C  32.30900 55.51200 39.36000
C  32.70700 59.95800 41.37700
C  27.79000 60.24700 41.84900
N  29.84000 56.00400 39.63800
C  28.68900 55.46900 39.22900
C  28.86800 54.21400 38.37700
C  30.33200 53.80100 38.78400
C  30.89400 55.18900 39.27600
C  30.48600 52.80700 40.01900
C  28.69000 54.50200 36.96400
C  27.71100 53.53800 36.25900
H  26.92400 54.20200 35.11600
N  32.20800 57.67700 40.45900
C  32.86100 56.61900 39.89400
C  34.32600 56.90000 39.84100
C  34.42700 58.21600 40.44500
C  33.12200 58.70800 40.80500
C  35.32400 55.91600 39.24000
C  35.70600 58.97100 40.64600
O  36.75800 58.51900 40.20400
C  35.89000 60.22600 41.48200
N  30.24600 59.75500 41.68000
C  31.45700 60.46200 41.71100
C  31.20200 61.80200 42.48300
C  29.68200 61.88300 42.51600
C  29.14800 60.50000 42.00800
C  31.82200 61.85200 43.87900
C  29.09600 63.22900 41.99500
C  29.09900 64.31700 43.06100
N  28.01800 58.15500 40.85500
C  27.17000 59.13600 41.22200
C  25.78600 58.90500 40.98800
C  25.86400 57.64400 40.28300
C  27.26400 57.29900 40.27500
C  24.64200 59.65400 41.42200
C  25.07300 56.58700 39.59100
O  23.90400 56.58200 39.23600
C  26.03800 55.51800 39.10400
C  25.60900 54.31000 39.82200
O  25.68800 54.10600 41.04900
O  24.88600 53.48300 38.93700
C  24.48000 52.11100 39.49000
H  32.93300 54.70500 38.97000
H  33.43300 60.77200 41.44200
H  27.12300 61.05400 42.15700
H  28.23400 53.41000 38.75000
H  30.96600 53.47700 37.95900
H  30.60000 53.41100 40.92000
H  31.35600 52.22700 39.71300
H  29.61700 52.15700 40.11800
H  29.67900 54.52000 36.50700
H  28.33700 55.51200 36.75500
H  26.90100 53.27000 36.93700
H  28.34700 52.72800 35.90300
H  35.74300 56.34600 38.33100
H  34.92000 54.97500 38.86700
H  36.11500 55.76900 39.97600
H  35.50000 60.95800 40.77500
H  36.95400 60.39300 41.65200
H  35.26500 60.23000 42.37500
H  31.63300 62.66300 41.97100
H  29.37200 61.87700 43.56000
H  32.74400 61.27300 43.91900
H  31.13600 61.56600 44.67700
H  32.22900 62.85500 44.00700
H  28.11000 63.13600 41.54100
H  29.84500 63.58600 41.28800
H  29.48000 65.30000 42.78400
H  29.45400 64.07400 44.06300
H  28.04200 64.49500 43.26000
H  23.75600 59.06800 41.17700
H  24.63200 60.58600 40.85800
H  24.53700 59.82800 42.49200
H  25.74600 55.31700 38.07400
H  24.59300 51.37700 38.69300
H  23.40100 52.15800 39.63500
H  25.08900 51.65600 40.27200

