158

Mg 42.91500 42.21100 25.75800
C  42.07500 44.58200 28.36800
C  43.76500 40.02300 28.29100
C  43.94000 40.12600 23.32900
C  42.31300 44.63200 23.45100
N  42.87400 42.29400 28.13000
C  42.41600 43.32500 28.90600
C  42.49200 42.90700 30.41700
C  43.13800 41.50700 30.34300
C  43.25100 41.20800 28.81200
C  44.47100 41.29000 31.08600
C  41.11400 42.96700 30.99600
C  40.85500 42.27400 32.36100
H  41.25800 43.09200 33.59700
N  43.76500 40.33200 25.78600
C  44.01200 39.57900 26.97700
C  44.46800 38.23900 26.55400
C  44.56700 38.24800 25.08200
C  44.08900 39.59800 24.67600
C  45.00100 37.15700 27.38400
C  44.93700 37.11600 24.13500
O  45.19600 37.31800 23.01800
C  45.16800 35.73100 24.63600
N  43.07900 42.45300 23.71000
C  43.43000 41.35500 22.91000
C  43.28800 41.73300 21.45100
C  42.52200 42.98700 21.51300
C  42.56100 43.38600 23.00200
C  44.66600 41.86000 20.70700
C  41.05600 42.88200 20.95600
C  40.00900 42.34200 22.06000
N  42.50100 44.29100 25.84500
C  42.21300 45.06600 24.79500
C  41.84000 46.37300 25.27100
C  41.70300 46.18900 26.62900
C  42.06900 44.90700 26.95900
C  41.51500 47.45800 24.35200
C  41.29900 46.80400 27.83900
O  40.88800 47.93700 28.06700
C  41.54100 45.80200 29.09500
C  42.58100 46.41200 29.95600
O  43.64400 46.82800 29.49900
O  42.10400 46.62500 31.23200
C  42.95500 47.51700 32.03600
H  44.12400 39.31900 29.04500
H  44.27300 39.46500 22.52600
H  41.94800 45.41500 22.78300
H  43.01800 43.65600 31.00900
H  42.42300 40.80100 30.76600
H  45.23600 41.30800 30.31000
H  44.36100 40.31900 31.57000
H  44.66800 42.17300 31.69300
H  40.41100 42.45300 30.34000
H  40.69600 43.94500 31.23400
H  41.34100 41.30300 32.45700
H  39.78400 42.08800 32.44900
H  45.25100 37.58300 28.35600
H  45.99900 36.81300 27.11200
H  44.41600 36.24500 27.49700
H  44.99200 34.97100 23.87500
H  44.31500 35.50400 25.27600
H  46.16200 35.62700 25.07100
H  42.71500 41.02800 20.84900
H  42.92100 43.76500 20.86100
H  45.36600 41.17300 21.18300
H  45.09500 42.85600 20.81400
H  44.59700 41.65900 19.63800
H  41.01600 42.19300 20.11200
H  40.78300 43.86600 20.57500
H  40.55800 41.66000 22.70900
H  39.31400 41.62800 21.61600
H  39.38600 43.06300 22.58800
H  42.41200 47.80100 23.83600
H  41.17500 48.33600 24.90000
H  40.74800 47.24800 23.60700
H  40.57800 45.58700 29.55700
H  43.47300 46.84500 32.72100
H  42.34700 48.22500 32.60000
H  43.75800 47.94000 31.43300
Mg 9.91700 47.71700 25.65200
C  7.90500 48.04400 28.44800
C  12.58200 48.84400 27.49900
C  11.60100 47.62400 22.90800
C  6.88100 47.08900 23.64300
N  10.12200 48.47700 27.64200
C  9.19600 48.40700 28.68700
C  9.81400 48.72000 30.10600
C  11.22400 49.31500 29.67000
C  11.32900 48.89400 28.15400
C  11.28000 50.84500 29.89000
C  9.86200 47.50600 31.04200
C  9.36000 47.88200 32.46100
H  9.34600 46.77100 33.47000
N  11.85600 48.08700 25.22200
C  12.83700 48.50300 26.13800
C  14.07000 48.50600 25.42900
C  13.81500 48.28000 24.03000
C  12.39900 47.99600 23.98300
C  15.38900 48.79000 25.99500
C  14.74000 48.32500 22.82200
O  14.30200 48.24700 21.70000
C  16.21200 48.56600 23.06600
N  9.25000 47.39200 23.62400
C  10.22300 47.38700 22.74100
C  9.69300 46.97000 21.38400
C  8.24800 46.45200 21.59500
C  8.08400 47.02700 23.01600
C  9.67900 48.15700 20.40500
C  8.12600 44.90100 21.57700
C  8.28200 44.14000 22.80900
N  7.83700 47.47900 25.95800
C  6.73800 47.29200 25.09300
C  5.50900 47.36800 25.81300
C  5.94400 47.52500 27.16300
C  7.33900 47.59900 27.20200
C  4.09200 47.31700 25.19100
C  5.49600 47.68500 28.53400
O  4.32400 47.68200 29.01300
C  6.77000 47.79500 29.46200
C  6.88800 46.54700 30.27700
O  7.39500 45.52600 29.80200
O  6.28000 46.57600 31.53700
C  6.25000 45.38400 32.36600
H  13.47300 49.15600 28.04800
H  12.07600 47.59200 21.92500
H  6.00200 46.93000 23.01600
H  9.24200 49.50200 30.60500
H  11.98500 48.70400 30.15600
H  10.27000 51.20900 30.07700
H  11.71000 51.35300 29.02700
H  11.92100 51.10200 30.73400
H  10.90100 47.21100 31.19500
H  9.38900 46.55800 30.78400
H  8.36900 48.32500 32.36000
H  10.02600 48.69200 32.75900
H  15.32500 48.70600 27.08000
H  15.77000 49.77600 25.73000
H  16.09000 48.04900 25.61000
H  16.70000 47.67100 23.45200
H  16.45200 49.47500 23.61800
H  16.77100 48.71400 22.14200
H  10.37900 46.22700 20.97900
H  7.53200 46.90100 20.90700
H  10.16600 49.01300 20.87200
H  8.68100 48.53300 20.17900
H  10.28000 47.94700 19.52000
H  8.92600 44.50700 20.95100
H  7.19400 44.60500 21.09500
H  9.13900 44.43000 23.41700
H  8.48000 43.10100 22.54500
H  7.36800 44.09800 23.40100
H  3.62000 46.33500 25.16000
H  4.22600 47.76200 24.20500
H  3.51700 48.00200 25.81400
H  6.73100 48.69600 30.07500
H  5.19300 45.11800 32.39800
H  6.56900 45.65900 33.37200
H  7.01900 44.62500 32.23100

