158

Mg 2.61200 -0.61600 43.66500
C  6.21500 -0.07500 43.48600
C  2.15900 2.17600 41.88000
C  -0.46200 -1.72100 42.99000
C  3.48100 -3.92500 44.75000
N  4.10000 0.73400 42.67000
C  5.44500 0.83200 42.76900
C  5.95600 2.17000 42.25400
C  4.63500 3.01900 42.20600
C  3.53200 1.93300 42.20500
C  4.63200 4.13100 43.26600
C  6.77000 2.20300 40.97100
C  6.11900 1.53900 39.72900
H  6.21200 2.43500 38.47200
N  1.05200 0.14800 42.57700
C  0.99900 1.34800 42.01600
C  -0.31400 1.59900 41.54500
C  -1.16900 0.54500 41.91000
C  -0.19200 -0.41900 42.48800
C  -0.71900 2.86600 40.79300
C  -2.65100 0.41800 41.85100
O  -3.37500 1.16000 41.26100
C  -3.34100 -0.62000 42.65400
N  1.68300 -2.58200 43.66700
C  0.36200 -2.63700 43.59500
C  -0.25100 -4.00200 44.13600
C  1.05400 -4.74100 44.57000
C  2.16000 -3.71700 44.32200
C  -1.26300 -3.68600 45.30800
C  1.29800 -6.20300 44.05800
C  1.39300 -7.32400 45.16500
N  4.40900 -1.75400 44.22500
C  4.58900 -3.00900 44.76300
C  5.87400 -3.19500 45.30700
C  6.59100 -2.05400 44.74800
C  5.66400 -1.27900 44.10900
C  6.33100 -4.38800 46.06800
C  7.86400 -1.45300 44.66100
O  8.92000 -1.90000 45.08100
C  7.73300 -0.15700 43.77900
C  8.39400 1.00400 44.51700
O  9.37900 1.60600 44.05000
O  7.89600 1.10900 45.77300
C  8.45500 2.22600 46.63800
H  2.01000 3.23100 41.63800
H  -1.43500 -2.19700 42.85400
H  3.69000 -4.92000 45.14900
H  6.59200 2.61500 43.01800
H  4.58100 3.53800 41.24800
H  5.38700 4.03700 44.04600
H  3.64600 4.09700 43.72900
H  4.89300 5.05600 42.75000
H  7.75000 1.76600 41.16500
H  7.14100 3.20800 40.76600
H  5.05200 1.45700 39.93600
H  6.54000 0.54900 39.55600
H  -0.95200 2.62600 39.75500
H  0.06600 3.62200 40.78800
H  -1.59100 3.34400 41.23800
H  -4.17700 -0.03000 43.02900
H  -2.84200 -0.82700 43.60000
H  -3.59600 -1.49100 42.05000
H  -0.74500 -4.59000 43.36300
H  1.12800 -4.81100 45.65600
H  -1.60800 -2.67500 45.09200
H  -0.89600 -3.88500 46.31400
H  -2.17000 -4.28000 45.20100
H  2.18400 -6.11600 43.42900
H  0.43400 -6.51600 43.47200
H  2.34700 -7.84200 45.06400
H  0.64200 -8.10700 45.05500
H  1.21500 -6.89800 46.15200
H  7.03400 -4.85500 45.37900
H  5.53900 -5.08300 46.34800
H  6.82500 -4.15400 47.01100
H  8.42600 -0.25100 42.94300
H  9.43400 1.94100 47.02200
H  7.80400 2.35400 47.50400
H  8.47100 3.05000 45.92500
Mg 46.49300 45.14600 43.58000
C  42.97400 44.88300 43.36700
C  46.66600 41.72900 42.74400
C  49.88300 45.45600 43.45900
C  46.13500 48.65800 43.69700
N  45.00400 43.56500 42.76100
C  43.59700 43.67900 42.99300
C  42.98900 42.29900 42.88800
C  44.15100 41.30600 42.68700
C  45.36800 42.24200 42.68200
C  44.25500 40.18900 43.77500
C  41.81100 42.17200 41.89100
C  42.12800 42.70200 40.44700
H  41.88900 41.70300 39.22000
N  48.04600 43.75300 43.26400
C  47.94600 42.42500 42.97700
C  49.31900 41.86300 42.97600
C  50.19000 42.94900 43.04400
C  49.36400 44.11200 43.30900
C  49.68100 40.29600 42.85400
C  51.71100 42.75700 42.85300
O  52.18500 41.70400 42.49500
C  52.64300 43.96000 42.70100
N  47.81300 46.72900 43.55400
C  49.15800 46.68100 43.62800
C  49.83700 48.03400 43.90800
C  48.65700 49.03900 43.62800
C  47.41500 48.07600 43.58000
C  50.46400 48.08000 45.30100
C  48.79300 49.98000 42.44300
C  48.59200 51.47000 42.72200
N  44.92500 46.53100 43.51700
C  44.93800 47.89800 43.67100
C  43.60800 48.35800 43.93100
C  42.77500 47.21900 43.80000
C  43.64500 46.11900 43.60300
C  43.16700 49.80600 44.18100
C  41.33500 46.67400 43.67800
O  40.27700 47.24700 43.61500
C  41.49900 45.19000 43.43500
C  40.73600 44.48700 44.53800
O  39.49800 44.41300 44.46300
O  41.52300 44.17000 45.58500
C  40.93000 43.22500 46.56000
H  46.83800 40.65400 42.65200
H  50.96800 45.58400 43.48600
H  45.98400 49.69700 44.00000
H  42.61100 42.19300 43.90500
H  44.00300 40.89200 41.68900
H  43.31100 40.03000 44.29700
H  45.04500 40.43300 44.48500
H  44.37400 39.20700 43.31700
H  40.85100 42.56900 42.22000
H  41.71800 41.08900 41.81600
H  43.08900 43.20900 40.36100
H  41.33700 43.43000 40.26900
H  49.83200 39.97200 41.82400
H  48.83500 39.69600 43.18900
H  50.52200 40.09100 43.51700
H  52.21400 44.48600 41.84800
H  53.62200 43.68900 42.30600
H  52.81100 44.66200 43.51800
H  50.53300 48.27700 43.10600
H  48.61400 49.64900 44.53000
H  51.48600 48.41300 45.12000
H  50.53400 47.07200 45.71000
H  49.95800 48.79500 45.94800
H  48.01500 49.70300 41.73200
H  49.78000 49.78500 42.02300
H  49.44900 52.08900 42.45600
H  48.36800 51.61200 43.77900
H  47.69700 51.76400 42.17300
H  43.03600 50.35500 43.24800
H  43.85900 50.35600 44.81700
H  42.19100 49.74000 44.66300
H  41.02000 44.84500 42.51900
H  41.41100 43.38400 47.52500
H  40.95900 42.18800 46.22500
H  39.89900 43.43000 46.84800

