158

Mg 2.09500 -1.64400 43.71400
C  5.50400 -1.41200 43.18500
C  1.68100 1.18000 41.75500
C  -1.19500 -2.53300 43.30600
C  2.67600 -4.76700 45.13300
N  3.45600 -0.41400 42.39200
C  4.77400 -0.42700 42.49300
C  5.34300 0.72000 41.59100
C  4.13600 1.76200 41.55700
C  3.05200 0.76500 41.82700
C  4.24800 3.04700 42.44400
C  5.77800 0.15400 40.17300
C  6.44600 1.07300 39.14700
H  5.83600 1.22700 37.72000
N  0.42300 -0.70800 42.81300
C  0.48500 0.46300 42.06800
C  -0.88900 0.90600 41.87700
C  -1.77200 -0.14200 42.26900
C  -0.86900 -1.19000 42.88500
C  -1.18500 2.17600 41.20500
C  -3.36600 -0.21900 42.23200
O  -3.97000 0.71800 41.74300
C  -4.15300 -1.24200 42.75800
N  0.98200 -3.38500 44.08200
C  -0.28900 -3.53800 43.82200
C  -0.84500 -4.92100 44.22400
C  0.26300 -5.42200 45.17500
C  1.41600 -4.50000 44.74400
C  -2.28500 -4.82700 45.00300
C  0.57900 -6.94600 45.14200
C  1.02300 -7.64900 46.48700
N  3.76900 -2.97000 44.16300
C  3.80700 -4.08500 44.83900
C  5.25000 -4.48500 44.94900
C  5.96500 -3.36500 44.34400
C  4.97700 -2.51500 43.89700
C  5.82800 -5.78800 45.56500
C  7.26000 -2.68900 44.16100
O  8.35300 -2.99000 44.59600
C  6.97100 -1.42900 43.31600
C  7.72600 -0.31800 43.86600
O  8.91700 -0.36400 44.02400
O  6.96900 0.61300 44.41900
C  7.63900 1.45600 45.47600
H  1.52700 2.20900 41.42400
H  -2.22600 -2.88600 43.24800
H  2.95600 -5.68100 45.66100
H  6.26000 1.21900 41.90200
H  3.97600 2.07000 40.52400
H  5.29200 3.11000 42.74900
H  3.52900 2.94800 43.25700
H  3.86300 3.94000 41.95100
H  4.94600 -0.44500 39.80300
H  6.52700 -0.61200 40.37700
H  7.40000 0.57000 38.99200
H  6.47200 2.08800 39.54200
H  -2.23400 2.42900 41.35900
H  -1.05700 2.06300 40.12900
H  -0.61100 2.91300 41.76600
H  -5.23500 -1.13300 42.68200
H  -3.90400 -1.43800 43.80100
H  -4.08100 -2.19000 42.22400
H  -1.04600 -5.45200 43.29400
H  0.05700 -5.11500 46.20000
H  -2.60600 -3.81300 45.24200
H  -2.25000 -5.41900 45.91700
H  -3.04000 -5.26300 44.34800
H  1.38400 -7.02500 44.41300
H  -0.34600 -7.45500 44.87000
H  0.17500 -8.11700 46.98800
H  1.38700 -6.95900 47.24900
H  1.82800 -8.32300 46.19600
H  6.90300 -5.61000 45.58200
H  5.58300 -6.60700 44.88900
H  5.46200 -6.01600 46.56600
H  7.33000 -1.67600 42.31700
H  7.00800 1.83900 46.27800
H  8.00900 2.38100 45.03400
H  8.50000 1.04000 45.99900
Mg 5.89700 54.34600 39.90700
C  4.99400 50.91300 39.80400
C  8.86200 53.72700 39.07900
C  6.07700 57.66700 39.24300
C  2.25400 54.89200 40.21400
N  6.79600 52.51500 39.25000
C  6.35300 51.22100 39.36700
C  7.50700 50.25100 39.31100
C  8.75200 51.15400 39.42800
C  8.16000 52.57900 39.26800
C  9.54900 51.05700 40.71700
C  7.52200 49.44200 37.94600
C  7.41200 50.13900 36.51300
H  6.19000 49.98100 35.64200
N  7.37900 55.55200 39.45100
C  8.63100 55.08800 39.12500
C  9.50600 56.23900 39.03700
C  8.66900 57.46600 39.20600
C  7.28300 56.90200 39.29200
C  10.95300 56.03700 38.70400
C  9.08200 58.89100 39.34800
O  10.27400 59.09500 39.06200
C  8.23400 60.05300 39.77500
N  4.35700 56.05200 39.53400
C  4.73400 57.33500 39.35200
C  3.54000 58.37800 39.42100
C  2.31900 57.43200 39.60400
C  2.99300 56.05900 39.82100
C  3.67400 59.35800 40.55400
C  1.44700 57.47500 38.39800
C  0.21900 58.41400 38.43100
N  3.98300 53.21200 39.98900
C  2.63500 53.54200 40.28000
C  1.86800 52.38400 40.61400
C  2.77700 51.33100 40.36500
C  4.05000 51.87900 40.02000
C  0.46300 52.33400 41.17500
C  2.84800 49.92200 40.30600
O  2.01500 49.04700 40.42400
C  4.33700 49.57500 40.00000
C  4.26500 48.62200 38.87200
O  4.15700 48.90700 37.71000
O  4.61100 47.36900 39.34400
C  4.77800 46.31400 38.30500
H  9.92200 53.48000 38.99000
H  6.20100 58.71500 38.96400
H  1.17100 55.03700 40.22900
H  7.24000 49.61800 40.15800
H  9.46200 51.03300 38.61100
H  9.46300 50.06900 41.17000
H  9.13600 51.72300 41.47500
H  10.62700 51.11100 40.56100
H  6.69900 48.72800 37.92500
H  8.46600 48.90500 38.03800
H  8.26500 49.80200 35.92600
H  7.50400 51.22300 36.59000
H  11.37100 56.89700 38.17900
H  11.21100 55.17600 38.08800
H  11.51600 55.94000 39.63200
H  8.93800 60.75800 40.21600
H  7.54700 59.67200 40.53000
H  7.83900 60.46200 38.84400
H  3.41900 58.94900 38.50000
H  1.64600 57.67500 40.42500
H  3.38800 58.92400 41.51200
H  3.14100 60.26300 40.26100
H  4.66300 59.79100 40.70400
H  1.05900 56.46200 38.28900
H  2.02900 57.70500 37.50600
H  -0.25700 58.51500 39.40700
H  -0.47100 57.95700 37.72200
H  0.46000 59.43800 38.14600
H  0.34300 51.58000 41.95300
H  -0.11800 52.00400 40.31400
H  0.06000 53.33000 41.35900
H  4.61600 49.09900 40.94100
H  4.75600 45.29200 38.68400
H  5.69000 46.53500 37.75100
H  3.89100 46.44100 37.68400

