158

Mg -1.57100 18.38600 26.89100
C  -2.32500 16.35600 29.75600
C  -2.39500 21.17000 28.76200
C  -1.17100 20.16300 23.99800
C  -1.32900 15.38100 25.03000
N  -2.27400 18.67800 29.02200
C  -2.25600 17.74000 30.05200
C  -2.48800 18.40100 31.38400
C  -2.93600 19.91800 30.99200
C  -2.54400 19.97100 29.46900
C  -4.42400 20.34800 31.15500
C  -1.28200 18.25600 32.40600
C  -1.64200 17.72400 33.86800
H  -0.43400 17.53700 34.86200
N  -1.79400 20.31400 26.41500
C  -2.02600 21.33000 27.36100
C  -1.95400 22.60300 26.70200
C  -1.46200 22.32500 25.36500
C  -1.40700 20.91100 25.22300
C  -2.25800 23.95600 27.35600
C  -1.18900 23.30800 24.21700
O  -0.90300 22.93500 23.06100
C  -1.06600 24.77800 24.50400
N  -1.07000 17.86400 24.82500
C  -1.02300 18.78600 23.81800
C  -0.94200 18.08200 22.40600
C  -0.95100 16.60300 22.79800
C  -1.14700 16.56200 24.34100
C  -2.14700 18.58000 21.43000
C  0.41000 15.87300 22.33200
C  0.15100 14.49600 21.76800
N  -1.72800 16.27600 27.29100
C  -1.58900 15.20400 26.40600
C  -1.93200 14.02000 27.11000
C  -2.16900 14.37900 28.40600
C  -2.02900 15.78200 28.45100
C  -2.16100 12.64500 26.48900
C  -2.56100 13.84500 29.69300
O  -2.70500 12.68900 29.98700
C  -2.61200 15.15000 30.68800
C  -1.53300 14.81300 31.67200
O  -0.33300 14.64100 31.36700
O  -1.98800 14.60600 32.92800
C  -1.26700 13.63400 33.75500
H  -2.45900 22.04300 29.41600
H  -1.16300 20.60200 22.99800
H  -1.33700 14.49200 24.39600
H  -3.33500 17.89000 31.84200
H  -2.25200 20.60000 31.49800
H  -4.77400 20.71200 30.18900
H  -4.54200 21.10500 31.93100
H  -4.96400 19.45400 31.46600
H  -0.78000 19.21500 32.53700
H  -0.49500 17.64200 31.96800
H  -2.15000 16.76300 33.78700
H  -2.31800 18.41800 34.36700
H  -3.15100 24.34300 26.86600
H  -1.30800 24.48300 27.44200
H  -2.52300 23.85800 28.40900
H  -1.26400 25.38100 23.61800
H  -0.13900 25.00100 25.03100
H  -1.92600 25.06800 25.10700
H  -0.00800 18.41000 21.95100
H  -1.73300 16.12900 22.20500
H  -2.90100 17.79400 21.37500
H  -1.77000 18.75000 20.42200
H  -2.63000 19.49800 21.76500
H  1.10500 15.82700 23.16900
H  0.82800 16.54700 21.58400
H  0.86900 14.34100 20.96200
H  -0.87500 14.43800 21.40500
H  0.24400 13.70000 22.50600
H  -2.18900 12.59200 25.40100
H  -3.10700 12.20200 26.80000
H  -1.46300 11.94300 26.94600
H  -3.52600 15.23700 31.27500
H  -0.60200 14.25200 34.35900
H  -0.64700 12.93500 33.19500
H  -1.89300 13.08500 34.45800
Mg 9.03900 48.86400 25.96400
C  6.97900 48.98000 28.71300
C  11.69200 49.83900 27.81200
C  10.90000 48.67600 23.16900
C  6.11600 48.15800 23.97700
N  9.24300 49.33000 27.98600
C  8.31000 49.32400 28.96400
C  8.95500 49.60600 30.34700
C  10.25600 50.35900 29.95300
C  10.44600 49.86500 28.47100
C  10.00600 51.95900 29.94800
C  9.33600 48.27500 31.14200
C  9.63800 48.48300 32.70200
H  9.20500 47.30800 33.58900
N  10.96600 49.18500 25.54900
C  11.96100 49.50300 26.46200
C  13.30300 49.38100 25.81500
C  13.02200 49.14200 24.43700
C  11.57000 49.02100 24.35100
C  14.54100 49.56800 26.52700
C  14.00200 49.16300 23.20000
O  13.61100 49.30200 22.07200
C  15.47900 49.18200 23.41100
N  8.55600 48.60300 23.84800
C  9.54400 48.54700 22.94700
C  9.06200 48.03000 21.57600
C  7.53300 47.84800 21.79100
C  7.36900 48.16900 23.29700
C  9.33200 49.05100 20.48300
C  7.00000 46.43300 21.41300
C  5.81800 46.44900 20.48200
N  6.98000 48.70300 26.20700
C  5.93000 48.34400 25.35100
C  4.69900 48.31400 26.09700
C  5.04900 48.51400 27.45500
C  6.44400 48.73200 27.42000
C  3.34000 48.02900 25.47400
C  4.53700 48.67600 28.77700
O  3.40900 48.59400 29.26300
C  5.82500 48.89700 29.62800
C  5.94600 47.80500 30.54700
O  6.11900 46.70800 30.21200
O  5.64200 48.29000 31.81400
C  5.52600 47.29200 32.86400
H  12.45400 50.18200 28.51500
H  11.59300 48.47900 22.34900
H  5.22600 47.90800 23.39500
H  8.31500 50.23200 30.96800
H  11.16300 50.04400 30.46900
H  9.99000 52.24700 28.89700
H  10.88300 52.54400 30.22300
H  9.10600 52.11100 30.54300
H  10.21600 47.90000 30.62000
H  8.54100 47.54300 30.99700
H  9.28300 49.47400 32.98300
H  10.72500 48.41600 32.73800
H  14.28000 49.62800 27.58400
H  15.02800 50.53400 26.39600
H  15.24300 48.75300 26.35400
H  15.82400 48.18500 23.68600
H  15.71100 49.92800 24.17000
H  15.89000 49.58500 22.48500
H  9.52500 47.05300 21.43300
H  6.82900 48.58500 21.40400
H  9.72600 50.02200 20.78300
H  8.48700 49.14300 19.80000
H  10.09400 48.58700 19.85800
H  6.65900 45.96500 22.33600
H  7.80800 45.95900 20.85600
H  5.47700 47.45100 20.22000
H  4.95100 45.95000 20.91400
H  6.08100 46.00300 19.52300
H  3.23900 46.96100 25.28000
H  3.15100 48.62800 24.58400
H  2.57000 48.18700 26.22900
H  5.77200 49.88000 30.09600
H  6.27700 46.50900 32.76700
H  4.55900 46.80500 32.74100
H  5.67600 47.60200 33.89900

