158

Mg 25.81100 0.23800 29.19200
C  27.59700 0.12300 32.24200
C  22.81900 0.24700 30.85900
C  24.22800 0.37500 26.23500
C  28.81500 -0.61800 27.58900
N  25.29700 0.20500 31.33700
C  26.22500 0.34700 32.39900
C  25.42900 0.51200 33.74800
C  23.97700 0.53500 33.22100
C  24.00500 0.33600 31.62100
C  23.02200 -0.51200 33.93100
C  25.92800 1.83100 34.46400
C  26.70200 1.68400 35.77900
H  26.12500 2.72300 36.74300
N  23.79000 0.20200 28.65300
C  22.68400 0.10700 29.46800
C  21.48600 0.19600 28.72400
C  21.87100 0.42100 27.34900
C  23.37000 0.29700 27.38000
C  20.05600 0.07700 29.34200
C  20.99400 0.73800 26.10100
O  21.50100 0.94400 24.99900
C  19.52500 0.76400 26.22500
N  26.46400 -0.10900 27.14800
C  25.65700 0.15500 26.14700
C  26.43700 0.24700 24.77600
C  27.87300 -0.01800 25.24600
C  27.74200 -0.27600 26.74800
C  25.93200 -0.74400 23.66800
C  28.94100 1.08300 24.90400
C  29.97200 0.58900 23.85600
N  27.75300 -0.19100 29.74800
C  28.86100 -0.55100 29.00800
C  30.08800 -0.74800 29.87700
C  29.62300 -0.46300 31.18300
C  28.23500 -0.15700 31.01300
C  31.32500 -1.31700 29.37900
C  30.03700 -0.34800 32.57500
O  31.11400 -0.46900 33.12900
C  28.69400 0.17400 33.34600
C  28.50900 -0.88500 34.38900
O  27.93900 -1.96500 34.21300
O  28.97600 -0.45600 35.59500
C  28.51700 -1.14500 36.82500
H  21.90400 0.43800 31.42300
H  23.73300 0.48900 25.26800
H  29.77200 -0.83100 27.10800
H  25.48000 -0.35600 34.40600
H  23.43000 1.47700 33.24700
H  22.73000 -1.32700 33.27000
H  22.12900 -0.04900 34.35100
H  23.28100 -1.07200 34.82900
H  24.99000 2.36400 34.61600
H  26.59800 2.29300 33.73900
H  27.70500 2.03400 35.53900
H  26.60300 0.64100 36.08000
H  20.04100 -0.01100 30.42800
H  19.37700 -0.58600 28.80300
H  19.52300 0.99500 29.09400
H  19.18800 0.65500 25.19500
H  19.23700 1.72400 26.65500
H  19.00400 -0.03700 26.75000
H  26.25000 1.22000 24.32200
H  28.29500 -0.95600 24.88400
H  25.25900 -1.35800 24.26500
H  26.71000 -1.37200 23.23400
H  25.40600 -0.17800 22.90000
H  29.55400 1.38700 25.75200
H  28.35700 1.90100 24.48300
H  29.81000 1.30400 23.05000
H  29.76200 -0.37000 23.38100
H  31.01500 0.60100 24.17200
H  31.69900 -0.66700 28.58800
H  31.09500 -2.32400 29.03200
H  32.04100 -1.28800 30.19900
H  28.87300 1.15200 33.79400
H  28.14300 -0.42200 37.54900
H  29.31300 -1.53600 37.45900
H  27.79700 -1.95700 36.72000
Mg 16.69400 51.50600 25.54200
C  18.30200 50.59700 28.42800
C  13.98000 52.46200 27.53300
C  15.03800 52.14800 22.83300
C  19.27800 50.02900 23.68500
N  16.28700 51.65100 27.74300
C  17.11100 51.20600 28.73700
C  16.58600 51.48000 30.14700
C  15.10000 51.98800 29.84000
C  15.13700 52.15700 28.27800
C  13.73600 51.24500 30.30300
C  17.51900 52.38300 31.10600
C  17.89200 51.92800 32.51300
H  16.94100 51.02500 33.35500
N  14.75300 52.15900 25.23600
C  13.83200 52.51800 26.11500
C  12.64500 53.06600 25.45000
C  12.91800 53.08100 24.06700
C  14.27200 52.39600 23.95300
C  11.51200 53.59700 26.16100
C  12.07300 53.57500 22.88400
O  12.53100 53.68700 21.73300
C  10.65400 53.84900 23.20100
N  17.03700 51.07900 23.52700
C  16.23200 51.50000 22.57200
C  16.80700 51.10800 21.15600
C  18.23000 50.77800 21.55200
C  18.17000 50.55100 23.03100
C  15.97500 49.97000 20.54100
C  19.29100 51.89200 21.17800
C  20.73200 51.43800 20.90500
N  18.49300 50.59400 25.90700
C  19.39300 49.99300 25.11400
C  20.45100 49.36200 25.87600
C  19.97700 49.52600 27.15600
C  18.85000 50.32100 27.16500
C  21.69000 48.65400 25.31100
C  20.32400 49.22700 28.52800
O  21.22300 48.62500 29.02200
C  19.19000 49.82200 29.41100
C  18.61700 48.78700 30.32500
O  17.76400 47.92200 30.07400
O  19.33200 48.92300 31.50400
C  19.28500 47.89400 32.50300
H  13.09300 52.69600 28.12500
H  14.56400 52.33300 21.86700
H  20.13300 49.61400 23.14700
H  16.44900 50.47600 30.55000
H  14.96000 52.95700 30.31900
H  13.18700 50.78600 29.48100
H  13.12000 52.03400 30.73600
H  13.89700 50.47600 31.05800
H  17.22900 53.43400 31.09900
H  18.46800 52.46100 30.57400
H  18.00200 52.82200 33.12700
H  18.90900 51.53600 32.52800
H  11.77400 54.09400 27.09500
H  10.87500 52.74300 26.39200
H  11.02200 54.33700 25.52900
H  10.54000 54.85600 23.60200
H  10.20300 52.97900 23.67800
H  10.07600 53.80200 22.27800
H  16.73600 52.04800 20.60700
H  18.53400 49.84300 21.08300
H  15.38500 49.55300 21.35700
H  16.50000 49.12700 20.09100
H  15.23900 50.42000 19.87400
H  19.23200 52.58100 22.02100
H  18.95100 52.39400 20.27300
H  21.49600 52.00500 21.43800
H  20.79100 51.70600 19.85000
H  20.85800 50.37100 21.08600
H  22.40300 49.47800 25.34500
H  21.44300 48.32100 24.30300
H  21.83400 47.76600 25.92500
H  19.72600 50.54700 30.02300
H  19.89900 47.04600 32.19600
H  18.24000 47.67000 32.71800
H  19.70500 48.25600 33.44200

