158

Mg -2.53900 17.14100 27.41400
C  -2.71700 14.81100 29.88600
C  -2.74300 19.69400 29.68300
C  -2.57700 19.34000 24.78600
C  -3.37600 14.54000 25.09400
N  -2.74600 17.18400 29.58700
C  -2.66900 16.08800 30.42000
C  -2.59800 16.60100 31.95700
C  -2.78800 18.21700 31.79100
C  -2.77500 18.41400 30.21600
C  -4.01200 18.84400 32.69100
C  -1.24400 16.19500 32.52400
C  -0.81200 16.90900 33.77700
H  -0.59400 16.11500 35.07900
N  -2.38100 19.16600 27.27400
C  -2.48600 20.11500 28.30300
C  -2.27100 21.42200 27.81100
C  -2.08900 21.31600 26.39600
C  -2.35300 19.90000 26.08400
C  -2.46200 22.64000 28.69000
C  -1.76600 22.39300 25.30600
O  -1.82100 22.17300 24.12900
C  -1.42200 23.75000 25.77200
N  -3.08000 16.93600 25.28000
C  -2.87100 18.02300 24.36100
C  -3.11600 17.52200 22.91300
C  -3.09600 15.98000 23.07700
C  -3.15000 15.81600 24.54700
C  -4.46600 18.18900 22.42000
C  -1.87000 15.36500 22.29300
C  -1.08700 14.22700 23.01100
N  -2.92000 15.04700 27.39000
C  -3.13000 14.15200 26.38300
C  -3.20000 12.73400 26.93400
C  -3.07400 13.00100 28.36000
C  -2.81400 14.38300 28.55300
C  -3.46800 11.43000 26.18700
C  -3.14000 12.38900 29.70000
O  -3.36300 11.26200 30.05000
C  -2.88400 13.60500 30.63700
C  -1.78600 13.20700 31.49900
O  -0.61700 13.39000 31.20000
O  -2.24100 12.71100 32.67300
C  -1.29500 12.23500 33.61000
H  -2.83500 20.50100 30.41300
H  -2.39200 19.94700 23.89600
H  -3.66900 13.74600 24.40400
H  -3.44400 16.24000 32.54200
H  -1.86000 18.70800 32.08700
H  -3.64600 19.56700 33.41900
H  -4.55000 18.01500 33.15100
H  -4.71000 19.46300 32.12800
H  -0.48800 16.24300 31.74000
H  -1.18900 15.15300 32.83800
H  -1.52300 17.71600 33.95500
H  0.08100 17.50300 33.58600
H  -2.37100 22.34400 29.73500
H  -3.45400 23.05300 28.50900
H  -1.62300 23.33500 28.67200
H  -2.24300 24.07100 26.41300
H  -1.53200 24.33400 24.85800
H  -0.43200 23.79600 26.22600
H  -2.33100 17.90200 22.25800
H  -4.03800 15.59700 22.68300
H  -5.18200 17.38200 22.26600
H  -4.10300 18.56300 21.46300
H  -4.79300 18.97400 23.10200
H  -1.14200 16.16600 22.16800
H  -2.14100 14.95100 21.32200
H  -0.80300 14.73400 23.93300
H  -0.21800 13.93700 22.42100
H  -1.83500 13.43500 23.05800
H  -3.62500 11.75300 25.15800
H  -4.34400 10.92000 26.58800
H  -2.53500 10.90100 26.37800
H  -3.74200 13.68600 31.30400
H  -0.44000 11.88100 33.03500
H  -1.66700 11.42500 34.23700
H  -1.00600 13.00700 34.32400
Mg -0.94300 33.61300 26.39600
C  -2.78800 32.18800 28.98000
C  0.63900 35.59500 28.69300
C  0.44300 35.25200 23.80600
C  -3.22000 32.05000 24.19500
N  -1.19100 33.96900 28.59400
C  -1.83300 33.12200 29.47200
C  -1.47900 33.46600 30.95700
C  -0.50700 34.64600 30.71100
C  -0.28300 34.71600 29.22000
C  -1.03800 35.94900 31.40600
C  -0.81600 32.18200 31.74900
C  -1.30000 31.89800 33.18600
H  -0.26500 32.07600 34.27500
N  0.32200 35.22400 26.27400
C  0.98500 35.81000 27.34800
C  2.02200 36.67100 26.84000
C  1.84300 36.67500 25.45800
C  0.80500 35.73500 25.09500
C  2.78700 37.77200 27.76700
C  2.55700 37.56500 24.47700
O  2.35300 37.62800 23.29000
C  3.65900 38.51900 25.00900
N  -1.36100 33.63400 24.30400
C  -0.55400 34.34800 23.41600
C  -1.14100 34.15200 21.99400
C  -2.23200 33.07600 22.16300
C  -2.33000 32.93400 23.65000
C  -1.71400 35.48900 21.38700
C  -1.79100 31.73400 21.30300
C  -1.20800 30.51400 22.01900
N  -2.55900 32.26000 26.45400
C  -3.33600 31.64000 25.48200
C  -4.15000 30.64900 26.13700
C  -4.04100 30.85500 27.48900
C  -3.03400 31.86000 27.61600
C  -5.07600 29.74900 25.37500
C  -4.49000 30.40300 28.74700
O  -5.24600 29.49600 28.99600
C  -3.72900 31.23200 29.79300
C  -4.72000 31.91700 30.69000
O  -5.40700 32.89900 30.49400
O  -4.70800 31.08600 31.83000
C  -5.68700 31.49700 32.81900
H  1.12700 36.23000 29.43600
H  0.99600 35.51300 22.90100
H  -3.78000 31.44800 23.47600
H  -2.37900 33.70600 31.52200
H  0.44900 34.47600 31.20600
H  -1.57300 35.73500 32.33100
H  -1.68600 36.42200 30.66900
H  -0.18300 36.59400 31.61300
H  0.25500 32.37400 31.69400
H  -1.05600 31.25100 31.23700
H  -1.56300 30.84100 33.16600
H  -2.28200 32.33800 33.36200
H  3.85400 37.88500 27.57500
H  2.75800 37.27700 28.73800
H  2.16200 38.64600 27.95100
H  3.17400 39.24200 25.66500
H  4.33500 38.96600 24.28100
H  4.27400 37.76500 25.50100
H  -0.36600 33.88000 21.27800
H  -3.22500 33.36000 21.81500
H  -1.75500 36.17000 22.23600
H  -2.76300 35.30800 21.15100
H  -1.24600 35.87800 20.48200
H  -1.04900 31.98100 20.54400
H  -2.70500 31.37700 20.82900
H  -1.77700 29.60700 21.81600
H  -1.10700 30.60700 23.10100
H  -0.17700 30.35300 21.70400
H  -5.97700 30.22400 24.98900
H  -5.27800 28.91100 26.04200
H  -4.49000 29.27100 24.58900
H  -3.17500 30.53500 30.42200
H  -6.63700 31.87100 32.43700
H  -5.15900 32.30000 33.33300
H  -5.94700 30.65600 33.46300

