158

Mg 0.74000 8.04300 26.06900
C  1.39800 10.26400 28.53500
C  1.21900 5.49100 28.07400
C  0.24900 6.03600 23.28700
C  0.52700 10.76600 23.77900
N  1.17700 7.99200 28.11800
C  1.34000 8.94000 29.02200
C  1.53400 8.34200 30.51100
C  1.55800 6.84500 30.25600
C  1.28400 6.75000 28.67200
C  2.91500 6.09600 30.70400
C  0.42000 8.91900 31.33600
C  0.19700 8.45000 32.80800
H  1.43200 8.12500 33.58400
N  0.65200 6.04100 25.71900
C  0.89700 5.12300 26.73000
C  0.78200 3.81700 26.26300
C  0.51300 3.93700 24.81000
C  0.45800 5.40800 24.52300
C  0.99200 2.59200 27.18400
C  0.46900 2.86900 23.79100
O  0.10700 2.95100 22.63400
C  0.67600 1.54100 24.25400
N  0.48300 8.40700 23.85100
C  0.32800 7.40100 22.99200
C  -0.13700 7.82900 21.57700
C  -0.39000 9.37700 21.78800
C  0.19700 9.57000 23.23400
C  0.90500 7.52100 20.50900
C  -1.85300 9.93100 21.68300
C  -2.24100 11.01200 20.69400
N  1.08700 10.06500 26.09600
C  0.97400 11.09500 25.11100
C  1.35300 12.32100 25.66100
C  1.50900 12.12400 27.04600
C  1.35900 10.70400 27.24000
C  1.43100 13.58900 24.98100
C  1.84600 12.72400 28.34700
O  2.28100 13.84000 28.59100
C  1.58800 11.58300 29.34600
C  2.81900 11.60500 30.19700
O  4.01500 11.39700 29.92700
O  2.47600 11.85500 31.50600
C  3.65400 11.97100 32.37600
H  1.41700 4.63700 28.72600
H  -0.04400 5.29500 22.54100
H  0.25500 11.58700 23.11300
H  2.48100 8.72200 30.89400
H  0.76600 6.35900 30.82500
H  2.66000 5.25300 31.34700
H  3.59200 6.76700 31.23300
H  3.41400 5.59900 29.87200
H  -0.52900 8.76800 30.82200
H  0.56400 9.99900 31.36700
H  -0.55300 7.66300 32.88900
H  -0.21300 9.35200 33.26200
H  1.04900 2.79700 28.25300
H  1.90200 2.08700 26.85900
H  0.19400 1.88100 26.97300
H  1.63900 1.46300 24.76000
H  0.68800 0.82200 23.43400
H  -0.09400 1.21500 24.95300
H  -1.08300 7.34000 21.34600
H  0.27100 10.01600 21.20200
H  0.89800 6.49900 20.12900
H  1.93700 7.69900 20.81100
H  0.79500 8.20100 19.66400
H  -2.13800 10.25200 22.68400
H  -2.47300 9.03700 21.60100
H  -3.15900 10.79600 20.14700
H  -1.52100 11.15600 19.88900
H  -2.20200 11.96100 21.22900
H  0.49000 14.11300 24.81600
H  1.84200 13.38200 23.99300
H  2.11800 14.19500 25.57200
H  0.66000 11.80800 29.87100
H  4.28100 11.08800 32.24900
H  3.41800 12.00000 33.44000
H  4.23100 12.89000 32.27700
Mg 25.73800 1.74700 29.55400
C  27.75300 1.15500 32.49100
C  23.14300 2.12800 31.53400
C  23.89100 1.66100 26.76300
C  28.58600 0.57300 27.63800
N  25.55900 1.65400 31.77300
C  26.42100 1.53500 32.82000
C  25.75300 1.70700 34.21200
C  24.31800 1.72300 33.79800
C  24.29900 1.86900 32.23800
C  23.36300 0.56900 34.40100
C  26.22500 3.00400 35.07400
C  26.65500 2.72700 36.41500
H  26.57600 3.73000 37.54000
N  23.74800 2.18000 29.18200
C  22.83200 2.32100 30.12900
C  21.53500 2.55200 29.49000
C  21.71500 2.35100 28.07800
C  23.15500 1.96900 27.99300
C  20.32500 2.96500 30.27100
C  20.74500 2.45900 26.91600
O  21.12300 2.27700 25.76500
C  19.32500 2.76000 27.14200
N  26.14300 1.02300 27.58200
C  25.21800 1.27200 26.56800
C  25.87100 1.23900 25.14500
C  27.40300 1.09600 25.47300
C  27.40900 0.79700 26.97000
C  25.23700 0.19600 24.10400
C  28.28900 2.29800 24.95500
C  28.82700 2.23000 23.58600
N  27.73000 0.98700 29.96600
C  28.75000 0.61300 29.07500
C  29.99800 0.47100 29.84400
C  29.61300 0.61800 31.14500
C  28.25400 0.87200 31.22500
C  31.33900 0.04700 29.23400
C  30.13100 0.50000 32.52200
O  31.24600 0.24900 32.99700
C  28.92300 0.96900 33.39800
C  28.72000 -0.05600 34.46800
O  27.90500 -0.92900 34.55200
O  29.64700 0.20100 35.45800
C  29.51200 -0.58700 36.66100
H  22.26600 1.86200 32.12800
H  23.31900 1.79600 25.84200
H  29.40900 0.36400 26.95100
H  25.94300 0.83800 34.84200
H  23.87700 2.63300 34.20400
H  23.96800 -0.30400 34.64900
H  22.56200 0.28800 33.71700
H  23.01900 0.96600 35.35600
H  25.47500 3.79500 35.06400
H  27.11500 3.19500 34.47400
H  27.72900 2.68000 36.23500
H  26.39100 1.72300 36.74800
H  19.98300 3.95600 29.97200
H  20.62800 2.90200 31.31600
H  19.42400 2.36800 30.12900
H  18.77800 2.52900 26.22800
H  19.06300 3.77700 27.43100
H  18.92500 2.01200 27.82800
H  25.61600 2.17900 24.65700
H  27.74000 0.23100 24.90300
H  24.22400 -0.07000 24.40600
H  25.87300 -0.68000 23.98200
H  25.13200 0.69100 23.13800
H  29.00800 2.69100 25.67400
H  27.50200 3.02900 24.76800
H  28.60300 1.28200 23.09700
H  29.89200 2.44100 23.68200
H  28.50000 3.14200 23.08600
H  31.35400 -0.74100 28.48100
H  31.87700 -0.39900 30.07100
H  31.99600 0.86900 28.95000
H  29.04000 1.89200 33.96600
H  28.45800 -0.62900 36.93400
H  30.19100 -0.14700 37.39200
H  29.87000 -1.58500 36.40900

