158

Mg 1.00100 8.36100 26.40300
C  1.81500 10.22800 29.11700
C  1.19600 5.49900 28.46700
C  0.79400 6.49500 23.67400
C  1.37800 11.19600 24.35000
N  1.41900 7.93000 28.57000
C  1.51600 8.91100 29.44300
C  1.52600 8.36400 30.90400
C  1.56600 6.74800 30.68300
C  1.40500 6.71200 29.11200
C  2.82600 5.95800 31.21700
C  0.32800 8.95100 31.79500
C  -0.09700 8.28300 33.16800
H  1.07200 7.71300 33.97100
N  0.95500 6.25000 26.10700
C  1.09600 5.23600 27.06000
C  1.03400 3.99200 26.39100
C  0.79700 4.28400 24.95000
C  0.89200 5.75600 24.86600
C  0.96800 2.71900 27.13400
C  0.51600 3.33000 23.87100
O  -0.02600 3.69000 22.83200
C  0.72200 1.94300 24.04400
N  1.05200 8.85600 24.31900
C  0.77800 7.85500 23.44400
C  0.62300 8.39900 22.01100
C  0.46600 9.93200 22.31800
C  0.98900 10.06100 23.75900
C  1.76400 7.90500 21.09200
C  -0.95300 10.45900 22.15600
C  -1.33000 10.70600 20.69500
N  1.67000 10.29100 26.61100
C  1.82200 11.31300 25.69500
C  2.13300 12.51600 26.42500
C  2.21300 12.14100 27.74400
C  1.88800 10.77300 27.81400
C  2.46400 13.83400 25.81800
C  2.58800 12.54400 29.08900
O  2.89500 13.68200 29.49100
C  2.22500 11.33700 30.07000
C  3.45200 10.93600 30.79100
O  4.38400 10.23600 30.27500
O  3.51000 11.52200 32.02500
C  4.76600 11.49900 32.77000
H  1.17400 4.60300 29.09000
H  0.65400 5.85100 22.80400
H  1.37300 12.11300 23.75700
H  2.50600 8.63500 31.29700
H  0.64000 6.23800 30.94800
H  3.57500 6.53700 31.75700
H  3.28300 5.45300 30.36600
H  2.44200 5.24800 31.95000
H  -0.53000 8.93800 31.12200
H  0.59100 9.99100 31.99200
H  -0.86900 7.52600 33.03000
H  -0.56000 9.04700 33.79300
H  0.26300 2.01000 26.70000
H  0.74600 2.76800 28.20000
H  1.91500 2.18600 27.04300
H  1.66200 1.71700 24.54700
H  0.86500 1.56200 23.03300
H  -0.13100 1.40500 24.45900
H  -0.25100 8.00300 21.49500
H  1.13300 10.54300 21.71100
H  2.34300 7.09600 21.53800
H  2.51000 8.69700 21.16500
H  1.41400 7.76400 20.07000
H  -1.01700 11.30200 22.84500
H  -1.59200 9.70100 22.60800
H  -0.50300 10.44200 20.03500
H  -1.36500 11.79000 20.58400
H  -2.31300 10.38000 20.35500
H  1.48300 14.30700 25.84000
H  3.03100 13.81600 24.88700
H  3.06200 14.41400 26.52200
H  1.53800 11.76600 30.80000
H  5.05700 12.52700 32.98300
H  5.56500 10.83900 32.43200
H  4.51300 11.20900 33.79000
Mg -5.40300 25.09200 25.91100
C  -3.82800 26.21200 28.91200
C  -7.33100 22.99300 28.00800
C  -6.46100 23.33600 23.20700
C  -3.06200 26.78600 24.05400
N  -5.48800 24.66900 28.19700
C  -4.84800 25.32000 29.23500
C  -5.31000 24.85400 30.62300
C  -6.25700 23.65700 30.24300
C  -6.42400 23.79900 28.74600
C  -5.91200 22.25300 30.71800
C  -6.02700 25.96900 31.44800
C  -5.68900 26.16100 32.94800
H  -5.10800 25.00100 33.76800
N  -6.82300 23.48200 25.64700
C  -7.57600 22.84800 26.63900
C  -8.56000 22.01800 26.00300
C  -8.24200 21.99600 24.60700
C  -7.13100 22.95700 24.44100
C  -9.71500 21.38600 26.77600
C  -8.94200 21.12700 23.49800
O  -8.66200 21.25100 22.31300
C  -9.90100 20.00600 23.81800
N  -4.80800 24.97700 23.85800
C  -5.48300 24.26000 22.98800
C  -4.75200 24.51900 21.64800
C  -3.80200 25.69200 21.84100
C  -3.87300 25.85500 23.34500
C  -4.21400 23.17100 21.08100
C  -4.06300 27.02800 21.08600
C  -3.10400 27.34000 19.98600
N  -3.86100 26.34700 26.30100
C  -3.08000 26.96200 25.44200
C  -2.15700 27.85600 26.14000
C  -2.39900 27.54500 27.55500
C  -3.44700 26.63800 27.56500
C  -1.16400 28.85000 25.62000
C  -2.02300 27.90900 28.95100
O  -1.12000 28.70400 29.32200
C  -3.00800 27.16300 29.85300
C  -2.15000 26.34300 30.93700
O  -1.59600 25.29100 30.78000
O  -2.00200 27.11400 32.04300
C  -1.18500 26.53400 33.16400
H  -7.87400 22.22300 28.56100
H  -6.79100 22.74800 22.34800
H  -2.34500 27.38600 23.49000
H  -4.43000 24.43200 31.11000
H  -7.17800 23.82300 30.80100
H  -5.99900 21.65800 29.80900
H  -6.62500 21.90500 31.46600
H  -4.88300 22.30000 31.07400
H  -7.09700 25.80100 31.33000
H  -5.75400 26.84900 30.86600
H  -6.52900 26.57200 33.50700
H  -4.99000 26.99600 32.98300
H  -9.87900 21.85900 27.74400
H  -9.39000 20.39800 27.10500
H  -10.67100 21.41200 26.25300
H  -9.73300 19.35900 22.95700
H  -10.89500 20.36000 24.09200
H  -9.66100 19.51300 24.76000
H  -5.46100 24.89600 20.91100
H  -2.78100 25.33200 21.71100
H  -4.99700 22.42500 21.21700
H  -3.34100 22.76000 21.58700
H  -3.91600 23.36600 20.05100
H  -3.95600 27.86500 21.77600
H  -5.03900 26.96000 20.60600
H  -2.35200 28.06300 20.30200
H  -3.56100 27.77200 19.09600
H  -2.58200 26.41500 19.74200
H  -0.35900 28.79300 26.35200
H  -1.61200 29.83700 25.73600
H  -0.80400 28.70900 24.60100
H  -3.62400 27.87500 30.40300
H  -0.15300 26.88400 33.13900
H  -1.17700 25.44500 33.10200
H  -1.65300 26.72400 34.13000

