158

Mg 53.47200 24.21000 44.47800
C  50.74100 26.21400 43.42800
C  51.90400 21.47600 43.12000
C  56.40700 22.57000 44.44700
C  54.96700 27.08900 45.67400
N  51.74100 23.97500 43.03300
C  50.68000 24.86400 42.92800
C  49.57100 24.24700 42.07500
C  49.75700 22.76700 42.43300
C  51.24900 22.72300 42.85100
C  48.87700 21.98300 43.34300
C  49.68400 24.61500 40.53500
C  48.39600 24.98500 39.74700
H  47.96500 24.12400 38.61200
N  54.05800 22.29300 43.90900
C  53.26300 21.29300 43.34600
C  53.93900 19.97500 43.32400
C  55.22900 20.33900 43.77300
C  55.28000 21.79000 44.11500
C  53.28700 18.68100 42.88000
C  56.34800 19.26200 43.89700
O  56.19000 18.19000 43.42300
C  57.73600 19.50400 44.48800
N  55.45200 24.76500 45.07500
C  56.44600 23.90400 44.87100
C  57.81500 24.70100 44.90900
C  57.34700 26.17000 45.15900
C  55.83500 26.05200 45.25500
C  58.86000 24.18100 45.96200
C  57.93600 27.18300 44.09100
C  58.25200 28.59600 44.60900
N  53.00000 26.22300 44.65300
C  53.66500 27.19200 45.34700
C  52.84200 28.41300 45.34700
C  51.65900 28.02800 44.65100
C  51.83200 26.71700 44.14000
C  53.16600 29.70300 45.93300
C  50.22400 28.44400 44.34500
O  49.62500 29.47700 44.57900
C  49.58200 27.21700 43.54200
C  49.14500 27.68500 42.25600
O  49.87300 27.95300 41.31500
O  47.77200 27.86000 42.25000
C  47.21100 28.42500 40.97200
H  51.26400 20.60000 42.99900
H  57.30900 22.00000 44.21600
H  55.32200 28.03900 46.07800
H  48.62500 24.58500 42.49700
H  49.65700 22.13800 41.54900
H  48.85200 20.92500 43.08200
H  47.89300 22.45100 43.31700
H  49.23900 22.11000 44.36300
H  50.12600 23.79400 39.97100
H  50.41500 25.39700 40.32600
H  48.50500 25.96400 39.28000
H  47.61200 25.04100 40.50300
H  52.56300 18.80400 42.07500
H  52.66300 18.23100 43.65300
H  53.95800 17.89300 42.53900
H  58.37300 20.16100 43.89600
H  58.26900 18.55500 44.42100
H  57.60500 19.72000 45.54900
H  58.24300 24.68100 43.90600
H  57.64800 26.55000 46.13500
H  58.38100 23.67300 46.79900
H  59.52200 24.99500 46.25900
H  59.66500 23.53800 45.60600
H  57.24600 27.26200 43.25100
H  58.85400 26.77200 43.67100
H  57.66900 29.28200 43.99400
H  59.30000 28.82200 44.41200
H  57.99000 28.68400 45.66300
H  53.27200 30.40000 45.10100
H  54.04300 29.61300 46.57300
H  52.37900 30.03000 46.61300
H  48.78800 26.83400 44.18300
H  47.09100 27.69400 40.17300
H  47.78500 29.29100 40.64000
H  46.16700 28.72300 41.06500
Mg 36.72500 49.75900 24.66200
C  36.32600 48.03600 27.71200
C  35.92400 52.68800 26.25800
C  36.71100 51.34800 21.66400
C  37.18100 46.74600 23.17400
N  35.91200 50.22800 26.76000
C  36.14200 49.43300 27.84000
C  35.85500 50.19900 29.11600
C  35.63900 51.63900 28.64900
C  35.82200 51.53900 27.05600
C  34.30200 52.32100 29.08600
C  37.06900 50.09400 30.18200
C  36.68100 49.88300 31.75200
H  35.19100 49.77500 32.13100
N  36.32000 51.74900 24.04100
C  36.10700 52.79000 24.89700
C  36.28600 54.04000 24.14100
C  36.30000 53.63700 22.74100
C  36.45500 52.19500 22.76500
C  36.49900 55.44700 24.75900
C  36.34700 54.44200 21.48800
O  36.47000 54.02900 20.34700
C  36.05100 55.95900 21.67800
N  36.66600 49.11800 22.68700
C  36.81200 49.96700 21.57200
C  37.00100 49.17300 20.31100
C  37.42600 47.76200 20.91300
C  37.06500 47.86900 22.40500
C  35.73800 49.22700 19.39500
C  38.80600 47.45300 20.47200
C  39.13800 45.96600 19.96400
N  36.64400 47.80600 25.23400
C  37.00000 46.66000 24.52600
C  36.99400 45.52600 25.40900
C  36.82300 46.06200 26.65500
C  36.51500 47.43100 26.52500
C  37.41200 44.13700 24.95500
C  36.90000 45.71400 28.09100
O  37.10000 44.68000 28.68800
C  36.44700 46.97900 28.80900
C  35.19900 46.68900 29.45200
O  34.07500 46.60600 28.95000
O  35.43400 46.44700 30.73500
C  34.28100 45.83200 31.49500
H  35.95200 53.56700 26.90600
H  36.83400 51.83500 20.69400
H  37.58800 45.83700 22.72800
H  34.87000 49.86700 29.44500
H  36.44400 52.31400 28.94100
H  34.43800 52.75800 30.07500
H  33.50000 51.58800 29.17500
H  33.91900 53.16100 28.50600
H  37.57300 51.06000 30.20600
H  37.88200 49.43400 29.88100
H  37.20400 50.70000 32.24900
H  37.23300 49.03100 32.14900
H  35.56400 56.00200 24.68900
H  37.21800 55.96700 24.12600
H  36.82400 55.35600 25.79600
H  36.87100 56.67500 21.73800
H  35.24800 56.14100 22.39300
H  35.56200 56.24200 20.74600
H  37.87300 49.63500 19.84800
H  36.69100 47.04000 20.55600
H  36.10000 49.79000 18.53400
H  34.87900 49.75900 19.80300
H  35.29100 48.27900 19.09800
H  39.36400 47.67700 21.38100
H  39.21800 48.20000 19.79300
H  39.86700 45.59700 20.68500
H  39.57000 45.98000 18.96300
H  38.26600 45.31800 20.04400
H  36.69300 43.60800 24.33000
H  37.79100 43.47400 25.73300
H  38.31700 44.37200 24.39400
H  37.13800 47.29000 29.59300
H  33.86000 44.92200 31.06800
H  33.46400 46.50000 31.76900
H  34.76200 45.48000 32.40800

