158

Mg 0.98500 7.13700 25.99600
C  1.86900 8.94700 28.90000
C  0.96500 4.30100 27.92100
C  0.62700 5.35200 23.13500
C  1.44500 10.06800 24.19000
N  1.27000 6.69300 28.18400
C  1.51400 7.55400 29.18400
C  1.68600 6.89600 30.53100
C  1.58600 5.37300 30.23900
C  1.29000 5.43500 28.69400
C  2.91300 4.54500 30.55100
C  0.71400 7.45500 31.57100
C  1.20800 7.85800 32.99100
H  2.18300 6.93300 33.70100
N  0.75400 5.04900 25.59200
C  0.77800 4.03300 26.52800
C  0.60400 2.81200 25.78900
C  0.32300 3.10800 24.42700
C  0.64200 4.55200 24.33200
C  0.66500 1.43000 26.50200
C  -0.19500 2.26000 23.34200
O  -0.60000 2.70800 22.25500
C  -0.23900 0.83500 23.56800
N  1.14500 7.56400 23.97300
C  0.83900 6.71100 22.94700
C  0.80700 7.40400 21.60600
C  0.91300 8.87500 22.05900
C  1.35600 8.85100 23.45800
C  1.92200 6.99200 20.69600
C  -0.42200 9.65600 21.85100
C  -0.28400 11.06600 21.44500
N  1.47100 9.10500 26.40700
C  1.56500 10.19600 25.56600
C  1.78900 11.43300 26.29200
C  2.00000 10.94500 27.62700
C  1.85400 9.53700 27.64000
C  1.84500 12.90100 25.89800
C  2.23500 11.36200 28.98000
O  2.42800 12.49700 29.42200
C  2.03700 10.10400 29.87100
C  3.14000 10.03700 30.90000
O  4.19800 9.44400 30.67900
O  2.84100 10.72900 32.03700
C  3.75400 10.76200 33.18000
H  0.89500 3.47800 28.63500
H  0.36100 4.81300 22.22300
H  1.49700 10.98900 23.60600
H  2.68300 7.10000 30.92200
H  0.74800 4.93800 30.78400
H  3.79300 5.02400 30.98000
H  3.30500 3.95400 29.72300
H  2.57900 3.83300 31.30600
H  -0.05800 6.70300 31.72900
H  0.09800 8.27600 31.20300
H  0.41200 7.84300 33.73500
H  1.66500 8.83600 32.84100
H  1.16000 0.66400 25.90500
H  -0.31500 1.03800 26.77200
H  1.18100 1.64500 27.43700
H  -0.81700 0.28600 22.82400
H  -0.78600 0.57100 24.47300
H  0.72200 0.38700 23.82100
H  -0.14200 7.15800 21.12900
H  1.77800 9.27400 21.52900
H  2.63600 7.77500 20.44300
H  1.38300 6.79600 19.76800
H  2.45500 6.09700 21.01500
H  -1.08900 9.52700 22.70300
H  -0.94700 9.09800 21.07600
H  0.74900 11.27800 21.16900
H  -0.53200 11.66500 22.32100
H  -1.01400 11.32400 20.67700
H  2.27100 12.96600 24.89700
H  2.38900 13.42200 26.68600
H  0.83600 13.31100 25.84600
H  1.07800 10.26200 30.36500
H  4.78100 11.03600 32.93800
H  3.80000 9.86000 33.79100
H  3.40000 11.50400 33.89500
Mg -11.34800 16.20800 42.92400
C  -7.89300 16.54200 42.48100
C  -11.59000 19.53200 42.44400
C  -14.70800 15.69800 42.88800
C  -10.93000 12.75600 42.74400
N  -9.84300 17.78300 42.33400
C  -8.53800 17.72800 42.28200
C  -7.91900 19.13600 42.08100
C  -9.07300 20.11100 42.39900
C  -10.27100 19.09900 42.34200
C  -9.03100 20.78800 43.77000
C  -7.37200 19.15000 40.57300
C  -5.90200 19.59200 40.38000
H  -5.05600 18.82800 39.34700
N  -12.95500 17.43600 42.60600
C  -12.84800 18.80900 42.44800
C  -14.22300 19.27800 42.31800
C  -15.15900 18.18400 42.43700
C  -14.28600 16.98900 42.64000
C  -14.47700 20.77300 42.25700
C  -16.67900 18.27300 42.40700
O  -17.29500 19.34700 42.20000
C  -17.63200 17.12000 42.70600
N  -12.66500 14.41800 42.84300
C  -14.01100 14.52300 43.00600
C  -14.63900 13.14200 43.19700
C  -13.45900 12.13000 42.91600
C  -12.27200 13.15500 42.78400
C  -15.33800 12.99500 44.61000
C  -13.58300 11.28100 41.67700
C  -13.43600 9.73900 41.84200
N  -9.80900 14.89100 42.71200
C  -9.75300 13.51300 42.73100
C  -8.34100 13.08000 42.65200
C  -7.65700 14.20700 42.43500
C  -8.48900 15.29500 42.56700
C  -7.86000 11.64900 42.80700
C  -6.24900 14.72300 42.25400
O  -5.21700 14.13000 42.14300
C  -6.38300 16.28700 42.34200
C  -5.59200 16.82700 43.51100
O  -5.57900 16.35600 44.62800
O  -4.64000 17.77700 43.05600
C  -3.51500 18.35600 43.88600
H  -11.65200 20.62200 42.48100
H  -15.77600 15.53400 43.04700
H  -10.83100 11.67100 42.67000
H  -7.11900 19.37000 42.78400
H  -9.02800 20.88400 41.63200
H  -8.19100 20.36800 44.32300
H  -9.95800 20.65500 44.32700
H  -8.93000 21.87100 43.69000
H  -8.00900 19.85300 40.03700
H  -7.38200 18.17500 40.08600
H  -5.46200 19.33000 41.34200
H  -5.87900 20.68100 40.35200
H  -14.87800 21.21700 43.16800
H  -15.14600 20.98400 41.42200
H  -13.56100 21.29100 41.97200
H  -18.64300 17.34000 42.36600
H  -17.51500 16.67100 43.69300
H  -17.20600 16.42500 41.98200
H  -15.34100 13.01800 42.37300
H  -13.25700 11.56000 43.82300
H  -16.37400 12.65700 44.58500
H  -15.31800 13.95300 45.13100
H  -14.79500 12.23400 45.17000
H  -12.85200 11.54000 40.91200
H  -14.52900 11.32300 41.13800
H  -14.38600 9.26400 41.59700
H  -13.11400 9.60900 42.87500
H  -12.67100 9.29600 41.20300
H  -8.14700 11.17000 43.74200
H  -6.79500 11.66600 42.57500
H  -8.33200 11.07300 42.01100
H  -6.00700 16.73000 41.42000
H  -2.59700 17.95600 43.45500
H  -3.50500 18.11500 44.94900
H  -3.65100 19.42100 43.70000

