158

Mg 48.68200 35.47600 27.81800
C  46.72800 33.59900 30.12900
C  48.82500 37.96500 30.15900
C  50.55000 37.21100 25.63500
C  48.06200 33.01500 25.40200
N  47.72200 35.72900 29.78100
C  47.21400 34.79000 30.62100
C  47.42200 35.19000 32.08100
C  47.72100 36.75200 32.04100
C  48.10900 36.86100 30.52300
C  46.55900 37.62200 32.49500
C  48.63600 34.48900 32.73400
C  48.56000 34.22200 34.23100
H  47.55100 35.08800 35.11400
N  49.70600 37.36500 27.90100
C  49.55000 38.25300 28.95700
C  50.46100 39.43300 28.56600
C  50.93100 39.20600 27.20800
C  50.38600 37.95300 26.83800
C  50.64700 40.60900 29.54900
C  51.80800 40.10000 26.35600
O  52.15500 39.76400 25.21200
C  52.41800 41.38300 26.98000
N  49.06200 35.28100 25.81000
C  49.95500 36.10300 25.14400
C  50.57900 35.44300 23.96400
C  49.69700 34.14900 23.81100
C  48.92200 34.08700 25.10100
C  50.60100 36.43300 22.76600
C  50.62100 32.93100 23.61400
C  50.10500 31.80300 22.71800
N  47.54100 33.73900 27.65900
C  47.41500 32.79100 26.60400
C  46.62600 31.63300 27.07800
C  46.27600 31.96700 28.39800
C  46.88900 33.17300 28.73900
C  46.34700 30.43200 26.33200
C  45.49000 31.52200 29.53300
O  44.74500 30.54200 29.65200
C  45.72800 32.59200 30.65400
C  46.26200 31.99600 31.91900
O  47.32700 31.36800 31.99400
O  45.34400 32.34500 32.97800
C  45.61800 31.67800 34.23900
H  48.94000 38.69100 30.96600
H  51.28900 37.67400 24.97900
H  47.98900 32.26400 24.61200
H  46.48300 35.03800 32.61300
H  48.58600 36.95600 32.67100
H  46.82400 38.11900 33.42900
H  45.60600 37.09900 32.57500
H  46.32200 38.43800 31.81200
H  49.55800 34.88800 32.31200
H  48.57900 33.50600 32.26700
H  49.58000 34.47200 34.52200
H  48.46400 33.16000 34.45700
H  50.36800 41.56200 29.10100
H  51.65700 40.60300 29.96100
H  49.97000 40.60200 30.40300
H  53.05000 41.16700 27.84200
H  51.64300 42.11800 27.19500
H  53.08500 41.88800 26.28100
H  51.61600 35.13100 24.08800
H  48.96500 34.25500 23.01000
H  49.81000 37.17300 22.88200
H  50.39400 35.85800 21.86300
H  51.56200 36.93600 22.65500
H  50.69400 32.49800 24.61200
H  51.62000 33.26500 23.33400
H  50.66800 30.89500 22.93100
H  50.30300 32.25000 21.74300
H  49.05200 31.59100 22.90100
H  47.25300 29.83500 26.23100
H  45.95200 30.69800 25.35200
H  45.52500 29.96500 26.87600
H  44.74300 33.02800 30.82400
H  44.64900 31.22800 34.45800
H  45.91700 32.32600 35.06300
H  46.36400 30.89000 34.14200
Mg 9.91900 48.10300 25.64500
C  7.92400 48.21800 28.56200
C  12.49300 49.47500 27.32100
C  11.73400 47.86100 22.85200
C  7.02700 47.35200 23.82800
N  10.15500 48.68000 27.70700
C  9.23800 48.65100 28.75300
C  9.92400 49.09000 29.99200
C  11.09700 49.93700 29.56400
C  11.24700 49.37300 28.04600
C  10.89500 51.47000 29.53000
C  10.31400 47.83000 30.82900
C  10.31000 47.99500 32.43700
H  10.14900 46.72100 33.25100
N  11.91600 48.51800 25.18700
C  12.84600 49.08900 26.03700
C  14.16400 49.00200 25.39700
C  13.91000 48.56600 24.01500
C  12.47600 48.27300 23.97200
C  15.41300 49.29300 26.11700
C  14.80400 48.32400 22.79900
O  14.40500 47.84300 21.77000
C  16.21400 48.65900 22.95900
N  9.42300 47.72600 23.62500
C  10.36000 47.67100 22.68200
C  9.74000 47.33600 21.31300
C  8.25400 46.90800 21.70600
C  8.24200 47.34700 23.09600
C  9.75400 48.61600 20.38700
C  7.84400 45.38000 21.56400
C  8.70600 44.37000 22.30900
N  7.86300 47.88300 26.02800
C  6.78600 47.64800 25.19000
C  5.58500 47.61800 25.96800
C  6.01600 47.73200 27.31900
C  7.37500 47.98500 27.30100
C  4.24600 47.29400 25.42600
C  5.53600 47.75200 28.65000
O  4.43000 47.54500 29.10000
C  6.79200 48.05700 29.55800
C  7.02700 46.90600 30.55400
O  7.52800 45.82200 30.31500
O  6.41600 47.25200 31.77900
C  6.39400 46.08700 32.67400
H  13.30600 50.00900 27.81600
H  12.15900 47.74800 21.85300
H  6.18700 47.11700 23.17200
H  9.22600 49.70000 30.56600
H  11.92200 49.68300 30.23100
H  9.94700 51.70700 30.01400
H  10.75400 51.83600 28.51300
H  11.72100 51.93900 30.06500
H  11.35000 47.64600 30.54600
H  9.74900 46.98200 30.44200
H  9.54900 48.67800 32.81400
H  11.29000 48.46100 32.53900
H  15.36500 48.99200 27.16300
H  15.64700 50.35600 26.05200
H  16.21000 48.69900 25.66900
H  16.73600 48.54900 22.00800
H  16.58000 47.98000 23.72900
H  16.21200 49.70300 23.27100
H  10.11600 46.47400 20.76000
H  7.53600 47.53300 21.17500
H  10.56400 48.64200 19.65800
H  9.69400 49.52700 20.98300
H  8.80500 48.52200 19.85900
H  7.79500 45.02900 20.53300
H  6.83300 45.33200 21.96700
H  9.42500 44.89000 22.94200
H  9.38800 43.80700 21.67200
H  8.17000 43.63100 22.90600
H  3.82500 46.47500 26.00800
H  4.27200 46.99200 24.37900
H  3.53200 48.08900 25.64200
H  6.64400 48.97600 30.12500
H  5.51600 45.48900 32.43200
H  6.17300 46.33900 33.71100
H  7.25900 45.42600 32.60600

