158

Mg -1.73900 17.78500 27.53200
C  -2.40100 15.50500 30.15000
C  -2.00100 20.23800 29.67300
C  -1.56100 19.74400 24.82100
C  -2.39000 14.94900 25.33200
N  -2.02400 17.78100 29.64400
C  -2.22600 16.78900 30.57600
C  -2.20700 17.32900 32.02700
C  -2.27800 18.90500 31.84100
C  -2.14400 19.00400 30.29600
C  -3.47300 19.70700 32.46300
C  -1.04500 16.82400 32.90400
C  -0.71000 17.70700 34.08100
H  -0.37800 16.91000 35.32100
N  -1.47800 19.69800 27.26000
C  -1.66600 20.62500 28.29800
C  -1.37100 21.93800 27.73300
C  -1.24700 21.79000 26.27000
C  -1.39900 20.37300 26.02900
C  -1.44000 23.21000 28.58500
C  -0.96000 22.97400 25.24300
O  -0.94600 22.75800 24.05400
C  -0.61000 24.33500 25.75200
N  -2.07400 17.43400 25.35800
C  -1.83000 18.41700 24.46400
C  -2.13100 17.89900 22.96700
C  -2.23400 16.32900 23.18600
C  -2.17600 16.16400 24.69300
C  -3.42700 18.54100 22.27900
C  -1.02000 15.53600 22.55100
C  0.25400 15.36600 23.34500
N  -2.22400 15.65900 27.64000
C  -2.41700 14.66700 26.67400
C  -2.83400 13.48700 27.34200
C  -2.77400 13.72000 28.67100
C  -2.42000 15.06600 28.84300
C  -3.09200 12.12400 26.80100
C  -2.96000 13.08200 30.00400
O  -3.28900 11.97200 30.31900
C  -2.67900 14.27200 31.01600
C  -1.37800 13.93200 31.60500
O  -0.32700 14.13300 31.04000
O  -1.53200 13.43500 32.88700
C  -0.37600 13.07000 33.71500
H  -1.98900 21.10000 30.34300
H  -1.56500 20.45400 23.99200
H  -2.46800 14.01700 24.76900
H  -3.13800 16.97500 32.46900
H  -1.33500 19.37400 32.11800
H  -3.06700 20.63900 32.85400
H  -3.96700 19.19300 33.28800
H  -4.11000 19.97800 31.62100
H  -0.19500 16.47100 32.31900
H  -1.44900 15.93600 33.38900
H  -1.38600 18.55000 34.22800
H  0.21800 18.14700 33.71600
H  -0.52300 23.78400 28.44900
H  -1.55400 23.02300 29.65300
H  -2.30900 23.73000 28.18100
H  -1.41100 24.78100 26.34200
H  -0.41500 24.92300 24.85500
H  0.28500 24.33300 26.37500
H  -1.23200 18.13500 22.39900
H  -3.18600 15.97500 22.78900
H  -3.85700 19.32200 22.90600
H  -4.19500 17.79500 22.07200
H  -3.13800 19.00200 21.33400
H  -0.50100 16.10500 21.77900
H  -1.45200 14.55100 22.37500
H  0.12700 15.59700 24.40300
H  1.18300 15.72100 22.90100
H  0.52000 14.31000 23.39800
H  -2.13700 11.75500 26.42700
H  -3.73400 12.11700 25.92000
H  -3.48300 11.47400 27.58400
H  -3.46700 14.45000 31.74800
H  -0.40200 11.98000 33.71200
H  -0.59200 13.38500 34.73600
H  0.60400 13.43100 33.40200
Mg -12.63900 37.42400 41.61700
C  -10.19300 34.89600 41.02900
C  -10.48800 39.67700 40.02700
C  -15.03300 39.82700 41.44800
C  -14.94200 34.98800 42.51800
N  -10.72200 37.20400 40.49200
C  -9.87300 36.07500 40.36200
C  -8.49100 36.50100 39.85700
C  -8.48800 38.03900 39.92600
C  -10.01900 38.31000 40.15200
C  -7.60400 38.76900 40.93400
C  -8.29400 35.89300 38.46400
C  -7.06800 35.04800 38.56500
H  -5.92600 35.56900 37.76800
N  -12.66800 39.50200 40.93700
C  -11.68000 40.23400 40.39000
C  -11.96600 41.60400 40.25100
C  -13.39300 41.68900 40.60300
C  -13.79400 40.32400 40.99800
C  -11.01700 42.64700 39.87100
C  -14.25000 42.88600 40.52700
O  -13.82200 43.95800 40.06800
C  -15.68700 42.98400 41.05900
N  -14.71200 37.37600 41.85100
C  -15.48600 38.51100 41.77000
C  -16.94600 38.23600 42.13900
C  -16.98100 36.65000 42.44500
C  -15.47900 36.25400 42.15600
C  -17.51100 39.06400 43.26900
C  -17.98300 35.83700 41.60800
C  -18.55800 34.71000 42.45100
N  -12.61700 35.38500 41.83000
C  -13.57900 34.56600 42.34000
C  -12.95400 33.25800 42.57800
C  -11.62600 33.35400 42.08600
C  -11.45400 34.64200 41.59400
C  -13.69700 32.08200 43.24300
C  -10.35300 32.67200 41.80300
O  -10.06600 31.47900 42.03400
C  -9.33600 33.66400 41.11500
C  -8.00900 33.80400 41.83300
O  -7.10500 33.00700 41.57900
O  -7.90800 34.94000 42.64100
C  -6.68100 35.14200 43.44100
H  -9.81000 40.34800 39.49500
H  -15.81700 40.57200 41.59400
H  -15.68600 34.32000 42.95600
H  -7.75800 36.11600 40.56600
H  -8.30800 38.41700 38.92000
H  -8.13200 38.92800 41.87400
H  -7.27100 39.64300 40.37500
H  -6.74600 38.14100 41.17400
H  -8.16500 36.65600 37.69700
H  -9.19200 35.41800 38.06900
H  -7.50900 34.16100 38.11000
H  -6.63700 34.84200 39.54400
H  -11.07800 42.70200 38.78400
H  -10.02200 42.39800 40.24100
H  -11.28600 43.63600 40.24200
H  -16.48600 42.48300 40.51200
H  -15.91400 44.04800 40.99700
H  -15.65600 42.64800 42.09500
H  -17.50000 38.46900 41.23000
H  -17.02600 36.54600 43.52900
H  -18.46000 38.72000 43.67900
H  -17.65800 40.05600 42.84300
H  -16.87400 39.17300 44.14700
H  -17.39700 35.41200 40.79300
H  -18.77600 36.50500 41.27100
H  -19.64700 34.70100 42.49100
H  -18.30500 34.71900 43.51100
H  -18.19100 33.76000 42.06300
H  -14.27600 31.54000 42.49500
H  -14.33700 32.50000 44.01900
H  -12.94200 31.41900 43.66600
H  -8.99800 33.47800 40.09600
H  -6.30900 36.10900 43.10200
H  -5.86500 34.50800 43.09300
H  -6.79300 34.95700 44.50900

