158

Mg 47.48000 25.02400 27.75000
C  48.25800 27.35700 30.36400
C  46.75200 22.70800 30.26300
C  47.05800 22.85400 25.36600
C  48.75600 27.35800 25.35100
N  47.47500 25.10600 30.07700
C  47.79800 26.15700 30.90900
C  47.52600 25.77500 32.41800
C  47.26200 24.23900 32.31700
C  47.14900 23.98400 30.79500
C  48.28400 23.25900 33.05900
C  46.44800 26.56500 33.10600
C  46.18200 26.14800 34.55400
H  46.32500 27.10200 35.70100
N  46.84900 23.12400 27.78900
C  46.63000 22.31500 28.89900
C  46.10200 21.05500 28.43000
C  46.13000 21.09100 26.98200
C  46.70200 22.40500 26.64400
C  45.89000 19.90200 29.33700
C  45.65700 20.03700 25.98100
O  45.51500 20.19900 24.80300
C  45.11000 18.68600 26.54900
N  47.76100 25.11600 25.58400
C  47.53200 24.04600 24.79800
C  47.88600 24.30600 23.35100
C  48.27700 25.84400 23.36600
C  48.31500 26.11000 24.85500
C  48.82600 23.29400 22.76700
C  47.19400 26.73300 22.75100
C  47.72300 27.53500 21.58600
N  48.27800 26.96400 27.78300
C  48.79900 27.74400 26.69800
C  49.24300 29.03900 27.24800
C  49.08700 28.90000 28.63000
C  48.51000 27.60700 28.97700
C  49.95200 30.12800 26.50000
C  49.35800 29.50700 29.90500
O  49.96000 30.56500 30.13600
C  48.74700 28.62000 31.05500
C  49.70600 28.55500 32.22300
O  50.91300 28.20400 32.09900
O  49.05500 28.89700 33.36400
C  49.75300 29.01700 34.59700
H  46.52200 21.99900 31.06100
H  47.07000 22.06800 24.60900
H  49.18100 28.01500 24.59000
H  48.47000 26.02100 32.90500
H  46.29500 24.05600 32.78500
H  47.80300 22.75500 33.89700
H  49.16600 23.75600 33.46200
H  48.64000 22.60700 32.26100
H  45.48200 26.50800 32.60500
H  46.73600 27.61700 33.11500
H  46.86100 25.34900 34.85100
H  45.22200 25.63800 34.63400
H  44.90200 19.44400 29.30000
H  46.09200 20.17100 30.37400
H  46.51300 19.09400 28.95500
H  45.00000 18.03200 25.68400
H  44.04800 18.82800 26.75300
H  45.75400 18.25800 27.31700
H  46.95300 24.16800 22.80400
H  49.32000 26.01700 23.10000
H  48.38100 22.71100 21.96100
H  49.15000 22.59400 23.53700
H  49.73000 23.82500 22.46800
H  46.63000 27.26800 23.51400
H  46.43200 26.19600 22.18700
H  47.00100 27.65900 20.78000
H  48.65400 27.05900 21.27800
H  48.07100 28.53800 21.83300
H  49.27900 30.98200 26.42700
H  50.21900 29.78200 25.50100
H  50.80300 30.44500 27.10300
H  47.93300 29.29300 31.32300
H  50.81600 28.82000 34.45800
H  49.40600 28.28400 35.32600
H  49.67100 30.06600 34.87900
Mg 35.14000 48.99600 25.46200
C  35.67200 47.39400 28.43900
C  34.11300 51.77500 27.05200
C  34.77900 50.56500 22.38600
C  36.23400 46.12000 23.74400
N  34.79300 49.41100 27.51500
C  35.14800 48.68500 28.58400
C  34.81600 49.46800 29.86500
C  34.29800 50.80300 29.35900
C  34.42400 50.67200 27.83600
C  32.79800 51.16000 29.84300
C  36.02400 49.58600 30.82100
C  35.72600 48.99800 32.20800
H  35.85600 49.93000 33.45600
N  34.51800 50.88100 24.78000
C  34.19100 51.89900 25.63000
C  33.88000 53.12200 24.82300
C  34.19200 52.79400 23.47100
C  34.44600 51.33500 23.49900
C  33.52100 54.49800 25.41600
C  34.27500 53.73600 22.24400
O  34.71400 53.43000 21.16400
C  33.91200 55.20900 22.35200
N  35.40800 48.43300 23.28500
C  35.20900 49.28900 22.24200
C  35.44700 48.55000 20.89100
C  35.98100 47.17100 21.31100
C  35.91900 47.23100 22.91000
C  34.18800 48.55900 19.99200
C  37.38200 46.75500 20.85400
C  38.51000 47.30900 21.74800
N  35.77700 47.09900 25.96100
C  36.25500 46.06100 25.16800
C  36.66200 44.95200 26.00400
C  36.45800 45.44200 27.35100
C  35.93700 46.71400 27.23200
C  37.16900 43.67500 25.48600
C  36.59800 45.08500 28.68700
O  37.09300 44.10400 29.14700
C  36.09200 46.35900 29.50500
C  35.04100 45.92600 30.49500
O  33.89300 45.58700 30.25000
O  35.65900 45.85100 31.71000
C  34.89700 45.13800 32.73500
H  33.81700 52.69100 27.56700
H  34.65200 51.10600 21.44600
H  36.63400 45.26600 23.19200
H  34.05500 48.82900 30.31200
H  34.87100 51.66600 29.69800
H  33.02400 51.85400 30.65200
H  32.35000 50.27100 30.28600
H  32.12700 51.69800 29.17300
H  36.37200 50.60700 30.97700
H  36.85900 49.00200 30.43500
H  36.54900 48.28300 32.21000
H  34.76800 48.48900 32.30600
H  34.30900 55.23900 25.28100
H  33.26500 54.43300 26.47300
H  32.55500 54.75200 24.98100
H  33.84600 55.64900 21.35700
H  34.75400 55.62000 22.90800
H  32.97400 55.23300 22.90600
H  36.30800 48.96100 20.36300
H  35.29700 46.47200 20.83000
H  34.01300 47.53600 19.65800
H  34.39800 49.23200 19.16100
H  33.29800 48.86700 20.54100
H  37.53200 47.02400 19.80900
H  37.46500 45.67200 20.94000
H  38.81700 46.46000 22.35900
H  38.20500 48.16900 22.34500
H  39.38700 47.52000 21.13800
H  38.07000 43.91800 24.92400
H  36.37400 43.21500 24.89800
H  37.45000 42.90500 26.20500
H  36.88100 46.72700 30.16100
H  33.87500 45.41200 32.99700
H  35.47300 45.14600 33.66100
H  34.83800 44.10200 32.40000

