158

Mg 40.88000 9.79100 29.93400
C  42.41200 10.71500 32.88000
C  38.38200 8.31400 31.81900
C  39.75500 8.23000 27.11600
C  43.74100 10.60900 28.21100
N  40.48700 9.53100 32.08000
C  41.21600 10.06100 33.11300
C  40.52000 9.86300 34.50100
C  39.30800 8.90900 34.10500
C  39.30600 9.02100 32.57200
C  39.43500 7.44200 34.61800
C  40.08700 11.16800 35.21000
C  40.58000 11.21200 36.68000
H  41.06000 12.57000 37.08100
N  39.18200 8.67200 29.50000
C  38.28000 8.16300 30.39800
C  37.29400 7.43800 29.67500
C  37.68200 7.42500 28.32000
C  38.96100 8.14600 28.28400
C  36.16700 6.71000 30.37900
C  36.93300 6.80300 27.09900
O  37.37800 6.89600 25.94200
C  35.59100 6.21000 27.26100
N  41.69900 9.21700 27.95900
C  40.99600 8.77000 26.91700
C  41.66800 8.84900 25.53600
C  42.90100 9.74600 25.94800
C  42.80300 9.84600 27.50100
C  41.91000 7.40200 24.98100
C  42.82000 11.14400 25.17600
C  41.69700 12.14800 25.62700
N  42.62600 10.60400 30.41700
C  43.74900 10.93500 29.57600
C  44.70300 11.71300 30.33100
C  44.19500 11.63400 31.63700
C  42.99800 10.94000 31.65500
C  46.04900 12.29900 29.82400
C  44.53100 11.99600 32.98000
O  45.44300 12.66900 33.38100
C  43.39600 11.36000 33.88900
C  44.11600 10.43400 34.82500
O  44.30700 9.26900 34.56100
O  44.51800 11.14000 35.92200
C  44.99300 10.34000 37.04300
H  37.66000 7.74500 32.40800
H  39.40900 7.89600 26.13500
H  44.55500 10.89700 27.54300
H  41.25600 9.29000 35.06600
H  38.34800 9.24500 34.49800
H  39.52300 7.48200 35.70300
H  40.37500 7.05900 34.22000
H  38.68000 6.71100 34.32600
H  39.00400 11.26600 35.13100
H  40.37000 12.06900 34.66500
H  41.45100 10.58400 36.86600
H  39.87500 10.95200 37.47000
H  36.37800 6.45800 31.41800
H  35.97400 5.72300 29.96100
H  35.19000 7.19300 30.36400
H  35.40700 5.18800 26.92900
H  34.99000 6.83500 26.60100
H  35.14800 6.43600 28.23100
H  41.04400 9.45000 24.87400
H  43.86800 9.39500 25.58900
H  41.66300 6.74600 25.81600
H  42.96800 7.34400 24.72400
H  41.37600 7.17100 24.06000
H  42.56900 10.85600 24.15500
H  43.74700 11.71500 25.12900
H  41.16300 11.68700 26.45800
H  40.97400 12.41900 24.85700
H  42.19600 13.05700 25.96300
H  45.88300 13.10100 29.10500
H  46.77600 11.50100 29.67300
H  46.30600 12.80500 30.75500
H  42.91700 12.17700 34.42800
H  45.21400 10.91400 37.94200
H  45.94400 9.93500 36.69800
H  44.35600 9.52200 37.38100
Mg -11.18800 38.53300 41.45800
C  -9.46400 35.54100 40.76000
C  -8.67400 40.24600 39.71300
C  -13.23200 41.21000 41.15400
C  -13.83500 36.63300 42.66700
N  -9.43300 37.92900 40.21400
C  -8.87300 36.63200 40.14600
C  -7.45000 36.65200 39.62000
C  -7.22500 38.19000 39.29500
C  -8.54100 38.88300 39.80100
C  -5.88300 38.63900 39.87300
C  -7.28300 35.74400 38.39500
C  -6.06500 34.71100 38.56300
H  -4.87700 34.76400 37.51100
N  -10.92900 40.49200 40.74700
C  -9.81200 40.97700 40.03100
C  -10.03100 42.39400 39.69200
C  -11.29600 42.77200 40.18900
C  -11.87500 41.49300 40.73500
C  -9.02400 43.25400 39.00200
C  -11.92200 44.19700 40.06200
O  -11.17900 45.08300 39.64400
C  -13.30200 44.52200 40.51600
N  -13.28800 38.81300 41.56600
C  -13.90700 39.99800 41.49400
C  -15.39400 39.95400 41.77500
C  -15.54300 38.55900 42.39800
C  -14.11200 37.97600 42.29300
C  -16.03300 41.09100 42.63000
C  -16.62600 37.62100 41.67200
C  -17.33700 36.72400 42.68200
N  -11.60300 36.44800 41.75100
C  -12.69900 35.88500 42.32500
C  -12.41700 34.47300 42.46600
C  -11.18700 34.29800 41.82600
C  -10.70300 35.54800 41.40900
C  -13.41000 33.44900 42.98900
C  -10.22500 33.33100 41.43800
O  -10.25400 32.11400 41.50400
C  -9.01000 34.10800 40.88600
C  -7.85500 33.82900 41.80000
O  -7.09000 32.83100 41.70800
O  -7.53000 34.82000 42.77500
C  -6.55900 34.56200 43.85700
H  -7.76100 40.72800 39.35800
H  -13.85300 42.10100 41.04700
H  -14.67800 36.10100 43.11300
H  -6.64000 36.39600 40.30300
H  -7.01400 38.33900 38.23600
H  -5.09700 37.90400 39.69900
H  -6.03400 38.54400 40.94800
H  -5.73300 39.69500 39.64700
H  -7.29500 36.37000 37.50400
H  -8.23200 35.20800 38.36700
H  -6.49700 33.71300 38.63600
H  -5.52600 34.89200 39.49300
H  -8.92100 44.22700 39.48300
H  -8.99500 43.41600 37.92400
H  -8.05900 42.76400 39.13500
H  -13.50900 44.09900 41.49900
H  -14.00100 44.06500 39.81600
H  -13.50200 45.59300 40.47400
H  -15.72800 39.88100 40.74000
H  -15.68500 38.70400 43.46800
H  -16.57100 41.64200 41.85800
H  -15.39000 41.85000 43.07600
H  -16.72500 40.64900 43.34700
H  -16.09500 36.96600 40.98200
H  -17.27200 38.28900 41.10100
H  -18.34000 36.49400 42.32400
H  -17.54100 37.19400 43.64400
H  -16.88000 35.73500 42.69300
H  -13.78800 33.60400 43.99900
H  -13.09100 32.41000 42.90600
H  -14.24800 33.50500 42.29400
H  -8.72000 33.60200 39.96500
H  -6.85800 33.67800 44.42100
H  -6.57700 35.36900 44.58900
H  -5.58300 34.52400 43.37500

