158

Mg 46.45700 24.82900 28.42900
C  47.51700 27.23400 30.93000
C  45.17900 22.94600 30.92800
C  45.76600 22.45600 26.04400
C  48.33200 26.73100 26.13800
N  46.21200 25.19000 30.64600
C  46.76000 26.18000 31.47600
C  46.11900 26.03900 32.84100
C  45.58100 24.53500 32.92100
C  45.66900 24.17600 31.42200
C  46.28900 23.54500 34.01700
C  44.96200 27.07100 33.13800
C  44.99700 27.80800 34.56200
H  45.74800 27.11300 35.68000
N  45.59600 22.97800 28.48700
C  45.11200 22.39000 29.64100
C  44.57400 21.13900 29.35800
C  44.57800 20.98400 27.92400
C  45.28700 22.15600 27.40300
C  43.83400 20.23300 30.39900
C  44.04400 19.93600 26.96800
O  44.00800 20.09800 25.76200
C  43.42400 18.64300 27.43400
N  47.05000 24.58700 26.45700
C  46.48100 23.61200 25.69900
C  46.94000 23.84300 24.24500
C  47.66800 25.25800 24.16900
C  47.66600 25.54900 25.68800
C  47.71400 22.65000 23.60500
C  46.77800 26.36000 23.45000
C  47.49300 26.92500 22.22000
N  47.61200 26.68900 28.46400
C  48.33700 27.29500 27.40900
C  48.87600 28.54400 27.88400
C  48.58800 28.57100 29.26300
C  47.85700 27.37300 29.59600
C  49.64700 29.48900 26.95400
C  48.87500 29.25900 30.50700
O  49.66200 30.19600 30.72800
C  48.17100 28.40200 31.58900
C  49.21900 28.12600 32.61100
O  50.05300 27.22500 32.54400
O  48.99900 28.85100 33.76500
C  49.83600 28.57500 34.97500
H  44.81000 22.27200 31.70400
H  45.51500 21.82500 25.18900
H  48.78600 27.24800 25.29000
H  46.96900 26.12300 33.51800
H  44.51800 24.50500 33.15800
H  45.56100 23.23100 34.76500
H  47.17800 24.09500 34.32600
H  46.68400 22.71500 33.43200
H  43.97100 26.65900 32.94800
H  45.14200 27.83800 32.38500
H  43.98700 27.81800 34.97200
H  45.25600 28.85200 34.38700
H  42.79800 20.06100 30.10700
H  44.01400 20.55700 31.42500
H  44.17500 19.21700 30.20500
H  44.11600 18.08100 28.06200
H  43.18400 18.08000 26.53200
H  42.50800 18.85800 27.98400
H  45.99500 23.86000 23.70300
H  48.69600 25.23800 23.80700
H  48.29400 22.19300 24.40700
H  48.33500 23.07700 22.81700
H  47.00600 21.96300 23.14300
H  46.55900 27.20400 24.10400
H  45.80500 25.95300 23.17700
H  47.31000 26.30200 21.34500
H  48.56200 26.87500 22.42600
H  47.25700 27.98200 22.10600
H  48.95800 29.86700 26.19900
H  50.33200 28.78800 26.47600
H  50.13000 30.31400 27.47600
H  47.36300 28.97100 32.04900
H  50.24300 29.53500 35.29100
H  50.63600 27.83700 34.90600
H  49.17800 28.31300 35.80400
Mg -12.26300 15.90400 42.01500
C  -8.98600 15.09000 40.96600
C  -11.97900 18.71100 40.15200
C  -15.31400 16.83200 43.12200
C  -12.73300 12.67200 43.29200
N  -10.69200 16.66000 40.47600
C  -9.35500 16.32100 40.49100
C  -8.44100 17.38300 39.92600
C  -9.46900 18.55900 39.62800
C  -10.83300 17.96700 40.14200
C  -9.08400 19.90400 40.23000
C  -7.65900 16.91300 38.68400
C  -6.09400 17.08300 38.72100
H  -5.33500 17.63900 37.54400
N  -13.51900 17.51400 41.63300
C  -13.20000 18.55500 40.80100
C  -14.28500 19.50400 40.84000
C  -15.27800 18.99000 41.74700
C  -14.74200 17.71000 42.20500
C  -14.33500 20.79100 40.05200
C  -16.57000 19.69800 42.09800
O  -16.81100 20.80700 41.60000
C  -17.72700 18.99000 42.80100
N  -13.79100 14.94900 43.06500
C  -14.96800 15.50900 43.43600
C  -15.89000 14.41400 44.08300
C  -15.16200 13.00600 43.82500
C  -13.80700 13.55600 43.39600
C  -16.14900 14.60400 45.65200
C  -15.85400 12.07400 42.82300
C  -15.51000 10.53400 42.81300
N  -11.16400 14.14200 42.16300
C  -11.48900 12.92600 42.69800
C  -10.25300 12.13500 42.61500
C  -9.23700 12.94900 41.99600
C  -9.86800 14.16100 41.72400
C  -10.21000 10.80900 43.22000
C  -7.80100 12.97700 41.56500
O  -6.89500 12.10100 41.67600
C  -7.60200 14.45000 40.87300
C  -6.58200 15.15700 41.76500
O  -6.89700 15.78100 42.77100
O  -5.30200 14.90000 41.34100
C  -4.18000 15.15800 42.19300
H  -11.87800 19.72600 39.76200
H  -16.34000 17.02800 43.44100
H  -12.85700 11.65500 43.66900
H  -7.70100 17.68000 40.67000
H  -9.67300 18.54900 38.55700
H  -8.16500 19.81000 40.80800
H  -9.88300 20.23900 40.89100
H  -9.01000 20.66300 39.45100
H  -7.95800 17.44800 37.78200
H  -7.88800 15.87100 38.46400
H  -5.63400 16.09600 38.68200
H  -5.86800 17.61700 39.64400
H  -15.31600 21.01600 39.63300
H  -13.69100 20.83900 39.17400
H  -14.18600 21.69400 40.64300
H  -18.62100 19.59100 42.63900
H  -17.67200 19.01100 43.88900
H  -17.87800 17.98100 42.41600
H  -16.83500 14.48100 43.54200
H  -15.14400 12.65900 44.85900
H  -15.86000 13.80600 46.33700
H  -17.21900 14.77700 45.76300
H  -15.69100 15.50500 46.06200
H  -15.84500 12.46100 41.80400
H  -16.91300 12.05400 43.08400
H  -14.57500 10.33900 43.33800
H  -15.37000 10.13500 41.80800
H  -16.37400 10.04000 43.25800
H  -11.13900 10.27600 43.01700
H  -9.92300 10.78500 44.27200
H  -9.34700 10.35300 42.73600
H  -7.09000 14.33000 39.91800
H  -4.37700 15.45500 43.22200
H  -3.62800 15.99000 41.75600
H  -3.50200 14.30600 42.25100

