158

Mg -2.23200 17.87400 27.34500
C  -2.61500 15.56900 30.17200
C  -2.33300 20.25300 29.61300
C  -2.24600 19.78800 24.80200
C  -2.96100 15.01300 25.26700
N  -2.62000 17.88500 29.62600
C  -2.52900 16.90700 30.59100
C  -2.52500 17.48900 32.03300
C  -2.83800 18.96500 31.71100
C  -2.63600 19.04600 30.17000
C  -4.19800 19.53300 32.03700
C  -1.20800 17.19900 32.83100
C  -0.87300 18.11300 34.02600
H  -0.60300 17.43700 35.35200
N  -2.09500 19.78100 27.26200
C  -2.07500 20.64300 28.27300
C  -1.84000 21.93200 27.68700
C  -1.62300 21.78500 26.26200
C  -2.01700 20.39100 26.08000
C  -1.95300 23.21000 28.51500
C  -1.31900 22.80100 25.20700
O  -1.22200 22.55900 24.01900
C  -0.99800 24.23300 25.66600
N  -2.46900 17.40100 25.36500
C  -2.50600 18.46100 24.48300
C  -2.83100 17.94800 23.02800
C  -2.98900 16.48200 23.24600
C  -2.78000 16.29900 24.71700
C  -3.92400 18.69800 22.41100
C  -2.12300 15.59100 22.32700
C  -0.65000 15.43200 22.67200
N  -2.67300 15.68900 27.56600
C  -2.94100 14.70900 26.65700
C  -2.90700 13.43200 27.28600
C  -2.91600 13.72300 28.64400
C  -2.77000 15.12000 28.83600
C  -2.80800 12.11400 26.65400
C  -2.90000 13.15800 29.98800
O  -2.89700 11.92200 30.25900
C  -2.81100 14.38900 30.99500
C  -1.70000 14.07100 31.91800
O  -0.51400 14.18400 31.72700
O  -2.29800 13.45700 33.07800
C  -1.34600 13.32600 34.19000
H  -2.11100 21.11500 30.24600
H  -2.24800 20.56300 24.03300
H  -3.21900 14.14400 24.65800
H  -3.32900 16.94700 32.53000
H  -2.30100 19.75500 32.23600
H  -4.91800 19.61100 31.22200
H  -4.24600 20.40600 32.68800
H  -4.63900 18.74100 32.64200
H  -0.37700 17.21600 32.12600
H  -1.47400 16.23900 33.27400
H  -1.74600 18.75600 34.14200
H  -0.01000 18.73700 33.79300
H  -2.29300 23.05000 29.53800
H  -2.57100 23.93400 27.98400
H  -1.02200 23.77500 28.46800
H  -0.34100 24.19500 26.53500
H  -1.95200 24.74600 25.78900
H  -0.57200 24.74500 24.80300
H  -1.94900 18.12600 22.41300
H  -4.03100 16.16600 23.19200
H  -3.71000 19.76700 22.41200
H  -4.97000 18.56000 22.68400
H  -3.92500 18.59600 21.32600
H  -2.13300 15.99200 21.31300
H  -2.69000 14.66200 22.27400
H  -0.42000 15.83300 23.65900
H  -0.06800 15.95000 21.91000
H  -0.27000 14.41200 22.71900
H  -2.20500 11.50300 27.32600
H  -2.37600 12.15500 25.65400
H  -3.82000 11.73800 26.50200
H  -3.81700 14.51900 31.39500
H  -1.89800 13.37300 35.12800
H  -0.63900 14.15600 34.18000
H  -0.89100 12.34700 34.03900
Mg 49.87600 45.99100 41.85700
C  46.66800 47.22200 41.12300
C  49.11800 43.05600 40.45700
C  53.05000 45.15900 42.44500
C  50.64800 49.35600 42.75300
N  48.08500 45.26200 40.91200
C  46.88800 45.85800 40.71000
C  45.91700 45.09400 39.82400
C  46.61700 43.69700 39.83500
C  48.03500 43.98500 40.46100
C  45.98100 42.51000 40.61900
C  45.78200 45.58100 38.30800
C  44.46200 45.25800 37.66700
H  44.53700 44.76800 36.21600
N  50.93700 44.24300 41.57900
C  50.42100 43.13400 40.98200
C  51.50100 42.12600 40.86900
C  52.68000 42.75900 41.44200
C  52.25800 44.08400 41.91600
C  51.43200 40.74900 40.22300
C  54.06700 42.15500 41.42900
O  54.29900 41.07400 40.90600
C  55.29800 42.82700 42.01000
N  51.59700 47.05900 42.45300
C  52.76300 46.47500 42.63400
C  53.91100 47.58000 42.70800
C  53.13100 48.90100 42.78800
C  51.70500 48.41400 42.64100
C  54.90100 47.39100 43.95800
C  53.51200 50.11500 41.90700
C  54.53600 51.11400 42.53700
N  48.84800 47.83300 42.15100
C  49.32000 49.05400 42.46900
C  48.28200 49.99100 42.51600
C  47.16600 49.32400 42.01600
C  47.59300 47.96100 41.77400
C  48.43200 51.46900 42.84100
C  45.73600 49.50500 41.62600
O  45.04300 50.51800 41.68600
C  45.41300 48.06900 40.92300
C  44.13700 47.52200 41.54200
O  43.88700 47.35800 42.70500
O  43.31600 47.17600 40.51000
C  41.98800 46.60700 40.73200
H  48.96900 42.14400 39.87600
H  54.09800 44.85500 42.40900
H  50.97100 50.39400 42.85800
H  44.98900 44.88200 40.35500
H  46.74100 43.28800 38.83200
H  45.87600 41.67800 39.92300
H  45.07700 42.92600 41.06300
H  46.54000 42.10200 41.46100
H  46.70500 45.33600 37.78100
H  45.79900 46.67000 38.33900
H  43.73100 46.06600 37.68400
H  44.07800 44.43300 38.26600
H  50.38800 40.52300 40.00500
H  51.61100 39.95500 40.94800
H  52.19700 40.61000 39.46000
H  55.17200 43.17800 43.03500
H  55.77300 43.61700 41.42900
H  56.02800 42.02300 42.10000
H  54.49400 47.67700 41.79200
H  53.18200 49.24500 43.82100
H  54.96600 48.21700 44.66600
H  55.84900 47.11100 43.49800
H  54.36700 46.59100 44.47100
H  52.60400 50.64300 41.61600
H  53.92000 49.61000 41.03200
H  55.40300 50.95500 41.89600
H  54.79300 50.91800 43.57800
H  54.30300 52.17700 42.47800
H  48.91200 51.96300 41.99600
H  48.98400 51.57400 43.77500
H  47.48400 52.00800 42.84200
H  45.19600 48.24200 39.86900
H  41.93300 45.62300 40.26500
H  41.35200 47.35900 40.26600
H  41.75400 46.42200 41.78000

