158

Mg 1.23800 8.25300 26.30200
C  1.46800 10.21000 29.06000
C  0.88700 5.43300 28.16700
C  1.09900 6.47100 23.39600
C  1.99900 11.09200 24.26900
N  1.29400 7.80300 28.50600
C  1.18400 8.85400 29.39900
C  1.05200 8.24400 30.84100
C  1.12500 6.66200 30.53400
C  1.12000 6.60000 29.02600
C  2.29000 6.00600 31.14200
C  -0.25700 8.59500 31.56900
C  -0.15800 8.44500 33.14000
H  1.01700 7.69600 33.83600
N  1.09900 6.21300 25.87700
C  0.95600 5.19300 26.76500
C  0.73800 3.94800 26.08900
C  0.81400 4.19500 24.74800
C  1.04900 5.66500 24.58100
C  0.62100 2.63300 26.86000
C  0.74800 3.19200 23.55000
O  0.96700 3.56900 22.41900
C  0.36400 1.77800 23.78600
N  1.67600 8.71200 24.12900
C  1.39500 7.77700 23.18000
C  1.34300 8.36100 21.78700
C  1.51200 9.91900 22.00700
C  1.81700 9.95400 23.55200
C  2.52800 7.69800 20.88400
C  0.39900 10.82900 21.49100
C  -0.79300 11.07900 22.38000
N  1.65600 10.25600 26.54300
C  1.93900 11.28000 25.68700
C  2.10000 12.51800 26.41400
C  2.07200 12.15300 27.77600
C  1.71300 10.77500 27.77900
C  2.34200 13.91100 25.94300
C  2.08700 12.57200 29.09800
O  2.40500 13.67800 29.57100
C  1.59300 11.39300 29.97100
C  2.66800 11.17100 31.02900
O  3.68900 10.58900 30.97200
O  2.13100 11.64600 32.26100
C  2.96000 11.41700 33.46500
H  0.61500 4.57200 28.78000
H  0.87500 6.04500 22.41600
H  2.07600 12.02700 23.70900
H  1.86400 8.66200 31.43700
H  0.23300 6.11600 30.84100
H  1.89400 5.36500 31.93000
H  2.99900 6.76300 31.47700
H  2.83900 5.36800 30.44900
H  -1.10300 7.97800 31.26400
H  -0.38800 9.65400 31.34400
H  -1.08700 8.01300 33.51200
H  -0.09500 9.48500 33.45900
H  0.91200 2.85400 27.88700
H  1.30200 1.88400 26.45600
H  -0.41600 2.30400 26.80000
H  0.27500 1.27000 22.82600
H  -0.62000 1.66200 24.24000
H  1.13100 1.25700 24.35900
H  0.35400 8.12300 21.39300
H  2.40500 10.35200 21.55600
H  2.07100 6.97500 20.20800
H  3.27000 7.21000 21.51700
H  3.08700 8.41500 20.28300
H  -0.15500 10.39000 20.66100
H  0.66300 11.84700 21.20600
H  -0.72700 10.35000 23.18800
H  -1.74900 10.85600 21.90700
H  -0.81200 12.07400 22.82500
H  1.44600 14.34100 25.49600
H  3.21400 14.03300 25.30100
H  2.48200 14.48500 26.85900
H  0.68500 11.59900 30.53800
H  2.26200 11.12200 34.24900
H  3.55200 12.32100 33.60400
H  3.72600 10.64600 33.38400
Mg 26.86700 50.86100 26.47000
C  25.04200 51.84000 29.22400
C  29.28000 49.58400 28.52700
C  28.55300 49.82400 23.68800
C  24.59300 52.39300 24.34500
N  27.04600 50.63900 28.66200
C  26.22200 51.08600 29.60800
C  26.72800 50.72800 31.00200
C  28.13000 50.00800 30.73700
C  28.10500 50.06900 29.23700
C  29.35800 50.58600 31.49400
C  25.79900 49.76200 31.90600
C  25.50000 50.38400 33.22900
H  26.65100 50.43400 34.22300
N  28.68700 49.79500 26.19000
C  29.52700 49.30500 27.13800
C  30.64500 48.61100 26.55400
C  30.40500 48.59900 25.15100
C  29.15400 49.38300 24.94800
C  31.82000 47.92400 27.31900
C  31.20300 47.88100 24.06400
O  30.92100 47.97100 22.87400
C  32.36100 46.98300 24.34100
N  26.63700 51.12200 24.26300
C  27.43800 50.55700 23.35500
C  26.97500 50.81300 21.89600
C  25.55300 51.51100 22.15700
C  25.55500 51.66600 23.67300
C  28.05200 51.75800 21.20500
C  24.24800 50.84600 21.58800
C  23.25800 51.95400 21.08500
N  25.22800 52.05000 26.71600
C  24.33900 52.56200 25.76500
C  23.24400 53.18700 26.50500
C  23.56800 53.00100 27.84200
C  24.63900 52.21700 27.90800
C  22.14600 53.82900 25.86100
C  23.01800 53.19500 29.21700
O  21.95300 53.79800 29.46500
C  24.02100 52.48000 30.15600
C  24.54200 53.59600 31.03100
O  25.33200 54.46500 30.67700
O  23.89200 53.54900 32.25100
C  24.16500 54.63700 33.19200
H  30.05500 49.21300 29.20100
H  29.26400 49.59200 22.89200
H  23.89200 52.89200 23.67300
H  27.00600 51.67400 31.46500
H  28.12800 48.95100 31.00500
H  30.02400 49.90400 32.02400
H  29.07100 51.37800 32.18600
H  29.94200 51.09000 30.72300
H  26.24700 48.77700 32.03000
H  24.85500 49.71100 31.36400
H  24.63300 49.86300 33.63500
H  25.26800 51.42100 32.98300
H  31.75700 48.19000 28.37500
H  32.75100 48.21100 26.83200
H  31.79400 46.83700 27.25500
H  33.08200 47.16400 23.54300
H  31.95700 45.98400 24.18000
H  32.98600 47.04700 25.23200
H  26.92600 49.82700 21.43400
H  25.56500 52.55200 21.83200
H  28.79000 51.13200 20.70300
H  28.51900 52.28500 22.03700
H  27.71000 52.59600 20.59700
H  23.79000 50.19000 22.32900
H  24.51600 50.24600 20.71900
H  22.69400 51.48800 20.27600
H  23.79500 52.85100 20.77700
H  22.61600 52.17800 21.93700
H  22.43400 54.86500 25.67800
H  21.21500 53.78800 26.42500
H  22.06800 53.29700 24.91300
H  23.51100 51.70800 30.73200
H  23.23900 55.08600 33.55200
H  24.77300 55.41200 32.72500
H  24.74800 54.19400 33.99900

