158

Mg 2.31900 -1.07800 44.78700
C  5.57700 -0.46700 43.94500
C  1.36800 1.57800 42.96800
C  -0.80200 -2.38300 44.91400
C  3.53600 -4.20100 46.23400
N  3.40700 0.32000 43.50000
C  4.73200 0.48600 43.40700
C  5.14500 1.65600 42.46700
C  3.80900 2.51900 42.50400
C  2.74900 1.44700 43.00900
C  3.86000 3.81500 43.40300
C  5.56700 1.30500 41.00300
C  6.63700 2.16700 40.51900
H  6.33200 3.05900 39.35300
N  0.45600 -0.39500 44.18000
C  0.29800 0.71700 43.41300
C  -1.10200 0.83000 43.23100
C  -1.79800 -0.25300 43.82400
C  -0.71900 -1.10600 44.35100
C  -1.75500 2.03500 42.50700
C  -3.27600 -0.39000 43.93900
O  -4.06300 0.36300 43.43000
C  -3.85000 -1.50700 44.71800
N  1.49600 -3.03000 45.49700
C  0.15500 -3.23700 45.48200
C  -0.09800 -4.70800 45.82800
C  1.21300 -5.21500 46.46300
C  2.15800 -4.09500 46.08600
C  -1.39900 -5.02200 46.72000
C  1.63500 -6.62200 45.95700
C  1.98200 -7.65700 47.02600
N  4.14000 -2.11800 45.10700
C  4.43300 -3.36900 45.73500
C  5.82800 -3.60800 45.71700
C  6.28300 -2.49800 45.01200
C  5.24600 -1.58300 44.69100
C  6.72400 -4.81100 46.19300
C  7.47800 -1.84700 44.53200
O  8.64500 -2.20900 44.63400
C  7.07300 -0.57200 43.80800
C  7.79000 0.63300 44.45400
O  7.88400 0.87900 45.65800
O  8.49500 1.32500 43.47400
C  9.23500 2.53700 43.91500
H  1.06900 2.45700 42.39400
H  -1.74900 -2.91100 44.78500
H  3.96400 -5.14100 46.58800
H  5.87000 2.29400 42.97200
H  3.38900 2.77800 41.53200
H  2.82500 4.00300 43.68900
H  4.24800 4.66900 42.84800
H  4.26900 3.59600 44.38900
H  4.80600 1.41600 40.23100
H  5.64600 0.22600 40.86800
H  7.35200 1.41600 40.18400
H  7.14600 2.71300 41.31200
H  -2.84100 1.96600 42.45700
H  -1.19500 2.09700 41.57400
H  -1.50400 2.87000 43.16200
H  -4.91900 -1.33000 44.83200
H  -3.41900 -1.54800 45.71900
H  -3.77400 -2.47600 44.22500
H  -0.14100 -5.23300 44.87400
H  1.08900 -5.15900 47.54500
H  -1.92000 -5.93500 46.43100
H  -2.02900 -4.13500 46.78300
H  -1.06600 -5.22800 47.73700
H  2.53200 -6.40600 45.37700
H  0.87800 -7.01800 45.28000
H  3.03500 -7.88000 47.19800
H  1.44100 -8.55100 46.71200
H  1.75200 -7.30500 48.03100
H  6.24300 -5.20000 47.09000
H  7.69100 -4.45700 46.55300
H  6.83200 -5.61100 45.46200
H  7.40300 -0.63600 42.77200
H  9.70200 3.03600 43.06600
H  10.03600 2.27600 44.60600
H  8.57100 3.31800 44.28800
Mg 30.12200 58.41600 40.07000
C  27.30300 56.70000 39.02800
C  31.96100 55.79600 38.76200
C  32.91500 60.27600 40.26700
C  28.20000 61.13400 40.81000
N  29.63800 56.33800 39.15100
C  28.44200 55.89200 38.79300
C  28.44800 54.49800 38.22400
C  29.94100 54.09500 38.55600
C  30.53400 55.50600 38.73500
C  30.27000 53.23400 39.78400
C  27.90000 54.23200 36.84400
C  28.23700 55.27500 35.79500
H  27.13400 55.73300 34.77500
N  32.16300 58.06600 39.64600
C  32.68400 56.89600 39.20100
C  34.16800 56.95500 39.15800
C  34.46400 58.20000 39.69100
C  33.19700 58.92800 39.92500
C  35.09900 55.81500 38.60600
C  35.83300 58.65400 40.01400
O  36.77900 57.90800 39.71100
C  36.09800 59.89700 40.85100
N  30.53300 60.47600 40.29800
C  31.74600 60.98800 40.46600
C  31.64800 62.49400 40.80900
C  30.16700 62.62500 41.39800
C  29.57800 61.30600 40.81300
C  32.64900 63.06100 41.88200
C  29.43400 63.95300 40.91900
C  28.67800 64.67900 42.07400
N  28.18800 58.91800 39.86300
C  27.45000 59.98600 40.35700
C  26.05000 59.80600 40.32400
C  25.92900 58.54100 39.69500
C  27.24800 58.02600 39.51400
C  24.95100 60.76100 40.61300
C  24.96200 57.53800 39.20300
O  23.76000 57.53600 39.14900
C  25.85100 56.35500 38.70700
C  25.38200 55.18800 39.46700
O  25.75500 54.84400 40.54100
O  24.56600 54.45200 38.72600
C  23.86400 53.38400 39.41800
H  32.49900 54.89200 38.46700
H  33.84400 60.81600 40.46200
H  27.58900 61.99400 41.09400
H  27.82100 53.90000 38.88500
H  30.24400 53.59100 37.63800
H  30.70000 53.79600 40.61400
H  30.96900 52.46700 39.45200
H  29.40100 52.71000 40.18200
H  26.83000 54.03600 36.90900
H  28.33600 53.35100 36.37300
H  28.98500 54.84700 35.12800
H  28.65900 56.15400 36.28100
H  35.54100 56.16300 37.67300
H  34.48800 54.95100 38.34600
H  35.77100 55.57400 39.43000
H  35.88100 60.83100 40.33200
H  37.16200 59.96500 41.07900
H  35.55100 59.78300 41.78700
H  31.78800 63.09000 39.90600
H  30.25900 62.42700 42.46600
H  32.98700 62.20400 42.46500
H  32.25000 63.75000 42.62500
H  33.39600 63.63100 41.32900
H  28.73800 63.75600 40.10300
H  30.21800 64.64500 40.61000
H  27.69200 65.09900 41.87700
H  29.30000 65.48500 42.46200
H  28.53600 63.88400 42.80600
H  24.10200 60.26600 41.08300
H  24.68400 61.28700 39.69600
H  25.22800 61.46200 41.40000
H  25.76400 56.01600 37.67500
H  24.65900 52.64700 39.52900
H  23.01800 52.95800 38.88000
H  23.44100 53.74800 40.35500

