158

Mg 47.46500 15.54100 28.40600
C  45.05900 15.26700 30.98000
C  49.40500 17.23400 30.55000
C  49.44800 16.14300 25.80700
C  45.01000 14.33100 26.17500
N  47.17400 16.23800 30.48900
C  46.22700 15.89400 31.37200
C  46.61800 16.15400 32.81500
C  47.85200 17.02700 32.64400
C  48.22400 16.84300 31.17800
C  47.67400 18.48400 33.10300
C  46.83100 14.79400 33.58200
C  46.11100 14.69700 35.00200
H  46.15300 15.87500 35.95200
N  49.22600 16.44500 28.21100
C  49.89100 17.02200 29.23300
C  51.20200 17.60000 28.70000
C  51.24500 17.27200 27.26300
C  49.92900 16.65600 27.01800
C  52.14400 18.30300 29.65900
C  52.37800 17.51100 26.25400
O  52.26000 17.18900 25.05000
C  53.67500 18.07100 26.67600
N  47.14700 15.49100 26.28200
C  48.20600 15.64900 25.46600
C  47.85300 15.19200 24.04000
C  46.51800 14.50900 24.20400
C  46.17700 14.80700 25.67200
C  47.81300 16.34300 22.93300
C  46.57600 12.99300 23.84500
C  45.48700 12.62500 22.82000
N  45.47100 14.86800 28.52900
C  44.63200 14.41600 27.51600
C  43.29900 14.04400 28.12600
C  43.44700 14.23500 29.50500
C  44.73300 14.84000 29.66100
C  42.15000 13.30700 27.50600
C  42.89200 14.12700 30.78800
O  41.86200 13.55100 31.08600
C  43.78200 14.85100 31.77100
C  43.11900 16.04800 32.38700
O  43.40900 17.23000 32.17700
O  42.32700 15.61500 33.33700
C  41.77300 16.57600 34.29300
H  50.01200 17.77700 31.27700
H  50.08200 16.36300 24.94500
H  44.42400 13.85500 25.38600
H  45.81000 16.67100 33.33300
H  48.71700 16.77900 33.26000
H  46.84100 18.61400 33.79400
H  47.43900 19.12900 32.25700
H  48.59600 18.76600 33.61400
H  47.89400 14.59500 33.71500
H  46.61300 13.95500 32.92100
H  46.55100 13.89900 35.60100
H  45.08800 14.37000 34.81700
H  52.68400 19.05600 29.08600
H  52.82800 17.65900 30.21200
H  51.57100 18.94000 30.33300
H  53.66000 19.05000 27.15400
H  54.28500 18.14000 25.77500
H  54.05500 17.34900 27.39900
H  48.72700 14.62000 23.72800
H  45.72500 15.01500 23.65300
H  46.89600 16.91500 22.78800
H  48.23200 15.91400 22.02300
H  48.62400 16.96600 23.30900
H  46.62800 12.41800 24.77000
H  47.47700 12.72900 23.29100
H  44.53300 13.13600 22.95200
H  45.28600 11.55900 22.92800
H  45.84700 12.67700 21.79300
H  42.55500 12.34900 27.18000
H  41.71000 13.89900 26.70400
H  41.41200 13.13000 28.28900
H  44.03600 14.19900 32.60600
H  42.48400 17.31500 34.66400
H  41.34500 16.03800 35.13900
H  40.96000 17.16100 33.86400
Mg 17.09900 52.72500 26.30800
C  18.69800 51.03100 28.99900
C  14.66700 53.85900 28.50000
C  15.68200 54.05600 23.65100
C  19.61200 51.43800 24.19800
N  16.72500 52.42500 28.46600
C  17.52000 51.65800 29.35800
C  16.94200 51.79100 30.81400
C  15.53600 52.38700 30.50400
C  15.66500 53.05500 29.11300
C  14.37100 51.43400 30.50100
C  17.84200 52.63800 31.75600
C  17.99600 51.96400 33.14600
H  17.14000 52.35500 34.34600
N  15.44100 53.86200 26.07800
C  14.58600 54.28800 27.07800
C  13.57500 55.10000 26.54100
C  13.90200 55.25700 25.14200
C  15.06600 54.35400 24.88000
C  12.46800 55.72500 27.32700
C  13.15200 55.98400 24.06800
O  13.38200 55.94900 22.87200
C  11.98300 56.83600 24.44000
N  17.57400 52.72400 24.18800
C  16.73300 53.32400 23.29600
C  17.19100 53.01100 21.82100
C  18.61900 52.40100 22.05800
C  18.60100 52.12100 23.51200
C  16.26500 52.12300 21.00100
C  19.83200 53.36500 21.68500
C  20.58300 53.01400 20.34000
N  18.75000 51.45100 26.48600
C  19.70400 51.12800 25.54300
C  20.69600 50.22300 26.18100
C  20.35000 50.24600 27.57900
C  19.18900 50.96200 27.71200
C  21.96100 49.64300 25.50000
C  20.73700 49.67500 28.92600
O  21.66700 48.97400 29.22800
C  19.69600 50.26800 29.88200
C  19.05400 49.17000 30.56000
O  18.19200 48.44600 30.04400
O  19.51800 49.06800 31.88600
C  18.96500 48.10000 32.78800
H  13.90700 54.21900 29.19700
H  15.06000 54.39800 22.82100
H  20.32600 50.94900 23.53200
H  16.74600 50.78900 31.19800
H  15.33300 53.26000 31.12500
H  13.62400 51.73200 31.23700
H  14.67400 50.41300 30.73300
H  13.77700 51.31400 29.59500
H  17.40900 53.63100 31.87200
H  18.78200 52.84900 31.24500
H  19.06800 51.96300 33.34600
H  17.77700 50.89700 33.09400
H  11.48300 55.44500 26.95400
H  12.62000 56.80400 27.31800
H  12.44700 55.34900 28.35000
H  11.12200 56.23100 24.72300
H  11.69000 57.46600 23.60000
H  12.17100 57.42400 25.33800
H  17.26900 53.92700 21.23500
H  18.74900 51.45400 21.53400
H  15.78500 51.41900 21.68000
H  16.87200 51.59900 20.26200
H  15.54100 52.76900 20.50400
H  20.58000 53.46600 22.47100
H  19.36800 54.33000 21.47900
H  20.89300 53.98600 19.95600
H  19.84900 52.47600 19.74000
H  21.47000 52.39900 20.49100
H  22.28200 50.42400 24.81100
H  21.73000 48.72000 24.96700
H  22.65600 49.37300 26.29400
H  20.22100 50.91700 30.58200
H  19.45100 47.12500 32.75100
H  17.87600 48.10500 32.73800
H  19.18100 48.36400 33.82300

