158

Mg 7.11200 53.00800 41.20100
C  6.72300 49.60900 40.42500
C  10.25200 52.78300 40.10600
C  7.19900 56.24300 41.44200
C  3.57600 53.01300 41.79400
N  8.26700 51.34200 40.41500
C  8.03000 50.03500 40.17000
C  9.20700 49.23700 39.71500
C  10.42100 50.22300 39.93800
C  9.60500 51.60400 40.11800
C  11.37200 49.94600 41.11800
C  9.22600 48.69000 38.22000
C  8.80800 49.74800 37.12500
H  7.78700 49.31800 36.02600
N  8.60200 54.36200 40.87000
C  9.83000 54.08000 40.36700
C  10.56100 55.32400 40.22400
C  9.69500 56.33000 40.65500
C  8.45900 55.65900 41.03300
C  11.99800 55.47000 39.74000
C  10.07900 57.81800 40.70500
O  11.15300 58.21900 40.26200
C  9.29900 58.72700 41.47400
N  5.60800 54.40700 41.40300
C  5.92600 55.68900 41.67000
C  4.68900 56.54000 42.09800
C  3.57900 55.51100 42.30700
C  4.27700 54.23500 41.77600
C  4.85600 57.69200 43.16700
C  2.14200 55.82300 41.76200
C  1.95500 55.66700 40.23900
N  5.47600 51.62600 41.10500
C  4.11900 51.76700 41.39500
C  3.46300 50.44000 41.39000
C  4.49900 49.60100 41.05100
C  5.61800 50.32300 40.80800
C  2.04000 50.19200 41.64500
C  4.76700 48.18000 40.83600
O  4.03500 47.21900 41.04600
C  6.23900 48.12600 40.36600
C  6.09200 47.58600 38.98800
O  5.60600 48.17200 38.07100
O  6.48400 46.23900 39.01600
C  6.23700 45.45600 37.81400
H  11.32800 52.61600 40.03500
H  7.15900 57.33100 41.52200
H  2.55300 53.06300 42.17100
H  9.32700 48.47700 40.48800
H  11.05700 50.31600 39.05800
H  11.20100 50.57700 41.99000
H  12.41000 49.88500 40.79000
H  11.18900 48.94200 41.50000
H  8.72400 47.72700 38.13900
H  10.23900 48.37000 37.97600
H  9.78300 49.89000 36.65900
H  8.47500 50.63200 37.67000
H  12.64600 56.19300 40.23500
H  12.06600 55.75800 38.69100
H  12.45900 54.49400 39.88800
H  8.62000 59.02600 40.67600
H  9.96400 59.51000 41.83800
H  8.72300 58.23800 42.26000
H  4.38700 57.04000 41.17800
H  3.42600 55.33400 43.37200
H  5.88300 57.74200 43.52800
H  4.17300 57.49900 43.99500
H  4.72900 58.61400 42.59900
H  1.86100 56.87200 41.85200
H  1.42200 55.23300 42.32900
H  1.97600 54.60300 40.00600
H  2.69400 56.21000 39.64900
H  0.93700 55.99200 40.02400
H  1.61400 51.06900 42.13200
H  1.96300 49.32100 42.29700
H  1.52200 49.84700 40.75000
H  6.79600 47.41900 40.98000
H  5.20200 45.31500 37.50100
H  6.61500 44.45700 38.02900
H  6.79800 45.94000 37.01400
Mg 0.69500 43.77300 26.09000
C  2.79300 43.32000 28.69400
C  -1.86100 42.40900 27.92100
C  -1.20600 43.64500 23.23300
C  3.56400 44.54300 24.06700
N  0.47300 43.00000 28.08600
C  1.48900 43.00900 28.98500
C  0.89700 42.67600 30.40800
C  -0.58100 42.19200 30.04300
C  -0.66400 42.43000 28.52500
C  -0.92700 40.72000 30.55700
C  0.95200 43.86800 31.39100
C  0.58700 43.54300 32.87800
H  0.40400 42.14200 33.39200
N  -1.32700 43.24800 25.66900
C  -2.22900 42.67300 26.57800
C  -3.56200 42.46200 25.96800
C  -3.37700 42.86700 24.56400
C  -1.88900 43.28400 24.42900
C  -4.77300 41.91400 26.71700
C  -4.33800 42.87500 23.43300
O  -4.08200 43.28100 22.25500
C  -5.74800 42.56600 23.63600
N  1.19000 43.75000 23.91900
C  0.14000 43.88800 22.99000
C  0.63500 44.32800 21.62700
C  2.06400 44.73500 21.99100
C  2.31400 44.29000 23.45400
C  0.51300 43.19700 20.54000
C  2.32100 46.21300 21.77100
C  1.68900 47.20300 22.74600
N  2.86200 43.87800 26.28700
C  3.84500 44.25300 25.39900
C  5.07200 44.29500 26.09100
C  4.77500 43.92400 27.42100
C  3.37800 43.71100 27.46300
C  6.37400 44.68900 25.52000
C  5.27500 43.64900 28.71800
O  6.38800 43.65900 29.11600
C  4.04000 43.28500 29.64200
C  4.32500 41.95600 30.22600
O  4.21000 40.90200 29.64600
O  4.76800 42.11500 31.52600
C  4.80000 40.73200 32.15400
H  -2.61000 41.87000 28.50500
H  -1.82900 43.75500 22.34300
H  4.39800 45.01000 23.54100
H  1.53500 41.92900 30.88000
H  -1.16000 42.94000 30.58400
H  -1.75200 40.53700 31.24600
H  -0.00500 40.40500 31.04600
H  -1.12000 40.07100 29.70200
H  0.19500 44.54900 30.99900
H  1.90900 44.37900 31.28600
H  -0.28600 44.11000 33.19900
H  1.48200 43.88400 33.39900
H  -5.09600 41.01200 26.19600
H  -5.54300 42.67900 26.62400
H  -4.53400 41.59600 27.73200
H  -6.26500 42.59100 22.67700
H  -6.22200 43.29300 24.29500
H  -5.75000 41.58600 24.11300
H  0.04900 45.17800 21.28000
H  2.68500 44.14300 21.31800
H  -0.54100 43.10400 20.28100
H  1.03200 42.29300 20.85600
H  0.93500 43.65500 19.64500
H  1.99000 46.34500 20.74100
H  3.40900 46.25400 21.82700
H  0.75900 46.80800 23.15300
H  1.49000 48.15100 22.24500
H  2.42300 47.48100 23.50300
H  7.12900 44.47700 26.27600
H  6.52800 45.74400 25.29700
H  6.49100 44.03900 24.65200
H  4.06400 44.00300 30.46300
H  5.74400 40.21600 31.97500
H  3.92200 40.11400 31.96900
H  4.78900 41.04200 33.19900

