158

Mg 29.62200 57.54600 41.48800
C  27.17900 55.66300 40.07800
C  31.98500 55.64000 39.78000
C  32.03900 59.96900 42.08200
C  27.14700 60.06800 42.07400
N  29.55700 55.89800 39.95700
C  28.44100 55.22100 39.67700
C  28.74700 53.87100 38.86400
C  30.32800 53.96300 38.68900
C  30.67300 55.20100 39.60200
C  31.05100 52.63000 38.90500
C  28.03500 53.71800 37.50100
C  28.07800 54.98600 36.59400
H  27.11900 55.21700 35.48800
N  31.67500 57.66700 41.11100
C  32.47800 56.75500 40.47100
C  33.79000 57.18200 40.49300
C  33.83600 58.43200 41.16200
C  32.46300 58.71600 41.48200
C  34.84300 56.34900 39.82300
C  35.17900 59.21700 41.48800
O  36.23500 58.71800 41.08600
C  35.20900 60.49400 42.29100
N  29.64000 59.69300 42.01800
C  30.67800 60.52700 42.19700
C  30.33700 61.99100 42.47800
C  28.77100 61.88700 42.47900
C  28.45600 60.45400 42.25700
C  30.97900 62.43800 43.85900
C  28.12100 62.92700 41.49900
C  28.61500 64.30300 41.76800
N  27.51600 57.74900 41.43500
C  26.68700 58.87700 41.57700
C  25.32900 58.36000 41.38700
C  25.42600 57.05100 40.89300
C  26.88300 56.83900 40.76300
C  24.05600 59.08200 41.64500
C  24.68800 55.92700 40.41700
O  23.49800 55.61300 40.41300
C  25.81500 55.03300 39.80000
C  25.56800 53.69200 40.37800
O  25.84900 53.37300 41.51200
O  24.74500 52.97300 39.47900
C  24.13100 51.65800 39.81900
H  32.69100 55.06300 39.17900
H  32.79800 60.75100 42.15800
H  26.40300 60.84700 42.25000
H  28.36700 53.06500 39.49200
H  30.62300 54.25300 37.68100
H  31.53700 52.31100 37.98300
H  30.35500 51.85600 39.22600
H  31.82500 52.94100 39.60700
H  27.03700 53.28400 37.56400
H  28.60100 52.92100 37.01900
H  28.97600 54.96500 35.97700
H  28.10800 55.92100 37.15300
H  34.98500 56.54800 38.76000
H  34.64300 55.28600 39.95200
H  35.73200 56.52400 40.42900
H  34.94100 61.36200 41.68900
H  36.25700 60.69600 42.51100
H  34.66100 60.40100 43.22900
H  30.68900 62.58600 41.63500
H  28.21400 62.22500 43.35200
H  31.41300 63.43200 43.74400
H  31.78500 61.77700 44.17800
H  30.12300 62.42700 44.53400
H  27.04000 63.02400 41.60000
H  28.33800 62.59400 40.48400
H  27.71600 64.90000 41.92300
H  29.24200 64.71300 40.97600
H  29.14600 64.41600 42.71300
H  23.17700 58.48200 41.40900
H  24.01100 59.99200 41.04600
H  23.98900 59.44400 42.67000
H  25.59900 55.06700 38.73200
H  24.18500 51.69700 40.90700
H  24.64800 50.78900 39.41200
H  23.06800 51.63700 39.57800
Mg 27.02000 49.78200 26.70100
C  24.75500 51.00800 29.28200
C  29.27600 49.28700 29.16600
C  29.08000 49.16900 24.28300
C  24.65900 51.30300 24.39900
N  26.90000 50.07000 28.99100
C  25.89200 50.42200 29.88200
C  26.34000 50.29400 31.31600
C  27.93100 50.09700 31.14100
C  28.05700 49.75400 29.63900
C  28.74600 51.41000 31.60000
C  25.61000 49.06600 32.01400
C  24.88600 49.37200 33.29800
H  25.76200 49.92200 34.47400
N  28.88300 49.25600 26.75100
C  29.67600 49.00700 27.86500
C  30.99300 48.52400 27.41600
C  30.96400 48.55600 25.96200
C  29.58400 49.02000 25.60100
C  32.08300 48.17200 28.35800
C  32.05800 48.17400 24.95300
O  31.89500 48.02400 23.75300
C  33.50500 47.88200 25.39200
N  26.90200 50.19500 24.69500
C  27.88500 49.70600 23.87400
C  27.50100 49.75000 22.35100
C  25.96600 50.20000 22.53500
C  25.82700 50.63300 23.92100
C  28.36200 50.68700 21.48300
C  24.92200 49.14700 21.97000
C  24.57700 47.97800 22.83900
N  25.07900 50.89400 26.77100
C  24.26300 51.43600 25.75800
C  23.15600 52.16000 26.35100
C  23.24200 51.93300 27.73000
C  24.44000 51.21700 27.93300
C  22.15300 52.93200 25.56400
C  22.57300 52.18800 28.95400
O  21.49700 52.64500 29.17000
C  23.58700 51.68500 30.08400
C  23.93600 52.71900 31.07800
O  24.53800 53.75900 30.98100
O  23.46300 52.22600 32.27900
C  23.56000 53.16200 33.39400
H  29.96400 49.07800 29.98800
H  29.86000 49.11400 23.52100
H  24.03700 51.70400 23.59600
H  26.13800 51.17000 31.93300
H  28.32600 49.26900 31.73000
H  29.64300 51.15500 32.16600
H  28.15500 52.06300 32.24200
H  29.05900 51.98600 30.73000
H  26.33900 48.28100 32.21200
H  24.75600 48.74400 31.41900
H  24.23900 48.57000 33.65400
H  24.30200 50.27600 33.12600
H  33.06600 48.58100 28.12200
H  32.21300 47.09000 28.32600
H  31.93300 48.50800 29.38300
H  34.13900 47.46200 24.61200
H  33.55000 47.22600 26.26200
H  33.93300 48.84300 25.67900
H  27.59700 48.72400 21.99800
H  25.88400 51.07300 21.88800
H  27.65700 51.20500 20.83300
H  29.00700 50.18000 20.76500
H  28.96400 51.35700 22.09700
H  25.28000 48.67800 21.05400
H  24.03800 49.70200 21.65800
H  24.52400 48.29000 23.88200
H  25.33900 47.20600 22.73300
H  23.58100 47.60500 22.60100
H  22.45600 53.08200 24.52700
H  21.93700 53.90500 26.00500
H  21.31200 52.25400 25.70800
H  23.05600 50.87700 30.58700
H  24.32700 52.84500 34.10100
H  22.67100 53.19200 34.02400
H  23.74300 54.20500 33.13500

