158

Mg 40.32900 9.77800 29.47600
C  42.52500 10.90200 31.93600
C  38.06600 8.81600 31.62400
C  38.57600 8.37400 26.81500
C  43.04000 10.28600 27.01500
N  40.36900 9.76800 31.53400
C  41.30100 10.38500 32.32500
C  40.71300 10.43400 33.71000
C  39.39500 9.57900 33.57600
C  39.27700 9.29200 32.15800
C  39.48000 8.18100 34.30600
C  40.44100 11.91300 34.10400
C  39.85100 12.12700 35.55900
H  40.73000 12.83900 36.50400
N  38.58100 8.84800 29.26500
C  37.77200 8.60000 30.29700
C  36.55200 7.98700 29.84400
C  36.59400 7.95900 28.42400
C  37.93600 8.49000 28.09000
C  35.35300 7.50300 30.70600
C  35.52300 7.52400 27.38300
O  35.83900 7.44900 26.26500
C  34.14600 7.21400 27.86900
N  40.74000 9.40500 27.24200
C  39.87400 8.74900 26.41400
C  40.40600 8.55000 25.04000
C  41.75200 9.39900 25.12400
C  41.86900 9.76200 26.55000
C  40.58200 7.06200 24.63800
C  41.88400 10.69400 24.21400
C  40.88300 11.85300 24.54600
N  42.39700 10.37000 29.42200
C  43.34800 10.58300 28.40200
C  44.55000 11.16000 28.97500
C  44.19900 11.35500 30.35600
C  42.90800 10.73800 30.56400
C  45.87200 11.30300 28.30400
C  44.71600 11.84400 31.61500
O  45.75500 12.37900 31.83700
C  43.65600 11.58600 32.71800
C  44.14900 10.88300 33.92400
O  44.78300 9.89900 33.93800
O  43.74800 11.56200 35.04600
C  44.15000 11.04400 36.35400
H  37.21700 8.64200 32.28800
H  37.97800 8.12900 25.93500
H  43.83400 10.17900 26.27300
H  41.37900 10.11400 34.51100
H  38.46600 10.06900 33.86500
H  39.00900 8.13900 35.28900
H  40.54000 7.93900 34.38400
H  39.22700 7.31400 33.69700
H  39.86400 12.38300 33.30700
H  41.41900 12.38100 33.99100
H  39.78400 11.10900 35.94300
H  38.84400 12.54400 35.54600
H  35.44100 6.41900 30.62300
H  34.37100 7.83700 30.37000
H  35.60000 7.79200 31.72800
H  33.95500 6.43100 28.60300
H  33.49300 7.08500 27.00600
H  33.87900 8.14200 28.37400
H  39.74600 9.04100 24.32400
H  42.62000 8.81700 24.81400
H  41.52900 6.64900 24.98500
H  40.55100 6.99500 23.55100
H  39.70500 6.50500 24.96700
H  41.78300 10.38500 23.17400
H  42.91000 11.04600 24.32300
H  40.18200 11.38800 25.24000
H  40.49200 12.37600 23.67400
H  41.26100 12.62600 25.21500
H  45.97200 12.33800 27.97600
H  45.97700 10.59100 27.48500
H  46.71300 11.03100 28.94100
H  43.23900 12.53100 33.06300
H  43.84100 11.74300 37.13200
H  45.21600 10.83300 36.42800
H  43.54000 10.16600 36.56700
Mg 42.66200 41.48300 26.80600
C  41.62800 43.69100 29.35700
C  43.96200 39.47600 29.26500
C  44.18200 39.81800 24.42300
C  41.79800 44.03400 24.46600
N  42.66200 41.51000 29.01300
C  42.03900 42.41300 29.82800
C  42.18300 42.09800 31.32200
C  42.92100 40.76700 31.28300
C  43.21200 40.53900 29.74400
C  44.28400 40.69800 32.08100
C  40.78600 41.99700 32.07500
C  40.99700 41.66800 33.57900
H  40.05800 42.42100 34.54200
N  43.86900 39.86500 26.85400
C  44.13000 39.03600 27.91300
C  44.83300 37.85000 27.37600
C  44.86500 37.87200 25.96000
C  44.34400 39.26300 25.72800
C  45.25300 36.80300 28.28700
C  45.46500 36.84800 24.87000
O  45.51700 37.11500 23.66400
C  46.02500 35.47200 25.33400
N  43.03200 41.84800 24.71500
C  43.52200 40.94900 23.98700
C  43.44300 41.28100 22.47100
C  42.58600 42.51800 22.54800
C  42.43800 42.85900 24.00700
C  44.77800 41.44800 21.72200
C  41.17600 42.24100 21.92500
C  40.14100 41.34400 22.67800
N  41.74400 43.40800 26.83800
C  41.50600 44.36200 25.80800
C  41.11700 45.58500 26.40500
C  41.17300 45.38100 27.80000
C  41.51000 44.05300 28.00700
C  40.71700 46.82000 25.72500
C  40.92400 46.02000 29.07500
O  40.49100 47.11000 29.38200
C  41.10300 44.91900 30.13900
C  42.05000 45.35600 31.23600
O  43.15000 45.82100 31.00400
O  41.37500 45.24800 32.40600
C  42.07000 45.86500 33.49800
H  44.36300 38.83800 30.05500
H  44.45900 39.18900 23.57500
H  41.57000 44.82300 23.74600
H  42.81300 42.82800 31.82900
H  42.25600 39.96900 31.61400
H  44.12000 41.28600 32.98400
H  45.10400 41.25900 31.63300
H  44.59900 39.68000 32.31100
H  40.18700 41.19600 31.64000
H  40.10800 42.83500 31.91000
H  42.01500 41.88000 33.90500
H  40.84600 40.60600 33.77200
H  46.29400 36.50800 28.15500
H  44.66900 35.97500 27.88600
H  45.13600 37.00200 29.35200
H  46.37100 35.01100 24.40900
H  45.35300 34.83600 25.91000
H  46.93500 35.75400 25.86200
H  42.85300 40.52700 21.95000
H  42.92700 43.40600 22.01500
H  45.70200 41.52800 22.29500
H  44.68200 42.34100 21.10500
H  45.06300 40.65900 21.02600
H  41.24000 41.89300 20.89400
H  40.62800 43.18300 21.91600
H  40.45000 41.06800 23.68600
H  39.95000 40.46700 22.06000
H  39.17700 41.84700 22.75300
H  40.11500 46.55300 24.85600
H  41.59700 47.41300 25.48000
H  40.18700 47.38900 26.48900
H  40.09700 44.73400 30.51600
H  42.87200 46.56400 33.26000
H  42.68700 45.03900 33.85300
H  41.46700 46.17500 34.35200

