158

Mg 24.32200 -5.39600 45.89900
C  26.37000 -3.00400 44.26700
C  21.77700 -4.48800 43.78200
C  22.59400 -7.87900 47.30900
C  27.21700 -6.31900 47.86800
N  24.10100 -3.98400 44.10600
C  25.08200 -3.09400 43.68600
C  24.54600 -2.24000 42.48400
C  22.99700 -2.57100 42.45500
C  22.95700 -3.78200 43.45200
C  21.96300 -1.43800 42.74000
C  25.29700 -2.57800 41.13900
C  25.50100 -1.39900 40.18300
H  24.90000 -1.51600 38.79600
N  22.41600 -5.98300 45.63700
C  21.55300 -5.54900 44.64100
C  20.38900 -6.30800 44.73700
C  20.52200 -7.23900 45.78600
C  21.87000 -7.02700 46.35000
C  19.21600 -5.97600 43.80900
C  19.42000 -8.11100 46.21600
O  18.36500 -8.16700 45.61800
C  19.50700 -9.00300 47.42700
N  24.90200 -6.97300 47.30500
C  23.94800 -7.81200 47.76000
C  24.46400 -8.81100 48.70800
C  25.93600 -8.35800 48.94100
C  26.04100 -7.06700 48.02600
C  23.58600 -9.05300 49.94300
C  27.08000 -9.40900 48.67600
C  27.15300 -9.82800 47.19300
N  26.35000 -4.82600 46.10700
C  27.34700 -5.24800 46.99500
C  28.47600 -4.36600 46.76400
C  28.15100 -3.48200 45.72000
C  26.86800 -3.81700 45.37800
C  29.71300 -4.33500 47.56900
C  28.55300 -2.37800 44.92100
O  29.59100 -1.75400 44.99700
C  27.46300 -2.09700 43.87400
C  27.07700 -0.66300 44.01500
O  26.39300 -0.19100 44.90100
O  27.51700 0.14400 42.98500
C  27.29900 1.52800 43.18100
H  20.98100 -4.13200 43.12400
H  22.08200 -8.78500 47.63800
H  28.13200 -6.63000 48.37700
H  24.68900 -1.18100 42.69800
H  22.78200 -2.98100 41.46900
H  21.17900 -1.70500 43.44900
H  21.50000 -1.17500 41.78900
H  22.53600 -0.56100 43.04000
H  24.80100 -3.35200 40.55300
H  26.31700 -2.91200 41.32900
H  26.56200 -1.29700 39.95600
H  25.26100 -0.42400 40.60800
H  18.62600 -6.87200 43.61800
H  19.66000 -5.70000 42.85200
H  18.64400 -5.17600 44.27800
H  18.64300 -9.65700 47.54300
H  19.58800 -8.30900 48.26400
H  20.36300 -9.66700 47.31300
H  24.45000 -9.74700 48.15000
H  26.01100 -7.93200 49.94100
H  23.30600 -10.10700 49.96900
H  22.69900 -8.42000 49.91300
H  24.16900 -8.78100 50.82300
H  27.05600 -10.24300 49.37800
H  28.05700 -8.99000 48.91600
H  27.00100 -10.90700 47.17200
H  28.22600 -9.85800 47.00600
H  26.66700 -9.24100 46.41400
H  30.60400 -4.33400 46.94100
H  29.78900 -5.18300 48.24800
H  29.68300 -3.43600 48.18500
H  27.81200 -2.09500 42.84200
H  28.12800 1.87500 43.79800
H  26.30100 1.76100 43.54900
H  27.31600 1.95500 42.17800
Mg 34.46700 3.28200 30.12500
C  32.37600 3.91000 32.81100
C  37.21000 3.11800 32.43200
C  36.60200 2.77700 27.54900
C  31.87600 3.73500 28.00100
N  34.76400 3.48300 32.26100
C  33.67700 3.57700 33.21000
C  34.13100 3.42100 34.71400
C  35.70200 3.45000 34.59600
C  35.95900 3.42700 33.03900
C  36.31500 4.72700 35.25300
C  33.52900 2.16300 35.37600
C  32.67300 2.54100 36.65800
H  33.38000 3.44500 37.72200
N  36.54100 2.88100 30.00100
C  37.47900 2.87400 31.06400
C  38.75000 2.41500 30.57600
C  38.67500 2.38800 29.12800
C  37.22400 2.68400 28.83400
C  40.00600 2.07700 31.41200
C  39.76400 2.11000 28.10800
O  39.62000 2.00100 26.94100
C  41.22000 1.94800 28.64200
N  34.28900 3.40800 27.99000
C  35.31900 3.10400 27.17000
C  34.79300 2.93900 25.70800
C  33.23700 2.81200 25.88100
C  33.08100 3.31300 27.37400
C  35.23100 3.96500 24.64600
C  32.69800 1.37100 25.80400
C  31.43400 1.24300 24.89600
N  32.49700 3.92000 30.27300
C  31.55000 4.11300 29.32000
C  30.25900 4.37000 29.97700
C  30.60900 4.34100 31.36800
C  31.88300 4.04200 31.46900
C  28.94300 4.41700 29.39600
C  29.98300 4.42000 32.63700
O  28.86400 4.70200 33.00900
C  31.13000 4.19200 33.66900
C  31.27200 5.38200 34.47500
O  31.85500 6.42200 34.13600
O  30.58100 5.26700 35.68800
C  30.67200 6.45800 36.53800
H  38.05700 2.99400 33.11100
H  37.30200 2.62100 26.72500
H  30.96300 3.77400 27.40400
H  33.60800 4.25700 35.17900
H  36.12900 2.58300 35.10100
H  35.51000 5.26500 35.75300
H  36.97000 5.28700 34.58600
H  36.95300 4.35900 36.05800
H  34.29700 1.43500 35.63800
H  32.79400 1.70800 34.71200
H  32.30900 1.59600 37.06400
H  31.83700 3.09200 36.22800
H  40.28100 1.02500 31.33500
H  39.76100 2.14400 32.47200
H  40.81500 2.79500 31.27500
H  41.60300 2.81400 29.18200
H  41.75000 1.74600 27.71200
H  41.14300 1.04500 29.24600
H  35.13100 1.99900 25.27100
H  32.78400 3.49700 25.16500
H  34.36000 4.57000 24.39300
H  35.61700 3.48100 23.74900
H  35.93200 4.64500 25.13100
H  32.51700 0.90700 26.77400
H  33.47800 0.76500 25.34200
H  30.72500 0.69500 25.51700
H  31.55200 0.60400 24.02000
H  30.95400 2.18100 24.61800
H  28.95700 4.44100 28.30600
H  28.33300 5.24200 29.76500
H  28.35100 3.56400 29.72700
H  30.80600 3.36700 34.30400
H  31.70600 6.57400 36.86300
H  30.13400 6.12400 37.42600
H  30.24900 7.40700 36.20900

