158

Mg 24.84300 -6.28700 45.39500
C  27.07900 -3.92900 43.70000
C  22.36700 -5.13600 43.32100
C  23.09900 -8.97400 46.28000
C  27.78500 -7.70700 46.78800
N  24.76000 -4.75900 43.60200
C  25.80000 -3.88600 43.20800
C  25.34500 -3.05400 42.04000
C  23.74300 -3.26400 42.14100
C  23.57700 -4.45900 43.06600
C  23.05200 -1.99400 42.67800
C  25.95400 -3.58900 40.60400
C  26.48900 -2.58500 39.60300
H  26.02200 -2.76200 38.14200
N  22.98100 -6.88700 44.92700
C  22.10000 -6.29200 44.03900
C  20.79400 -6.92100 44.12200
C  20.93600 -7.97800 45.12100
C  22.41600 -7.98300 45.48000
C  19.61900 -6.45300 43.24000
C  19.82500 -8.80500 45.54100
O  18.65600 -8.72600 45.11900
C  20.12700 -9.88700 46.45000
N  25.24800 -7.98000 46.52300
C  24.38800 -8.97900 46.76900
C  25.03500 -10.27500 47.32500
C  26.38000 -9.68500 47.82000
C  26.49900 -8.39100 46.90700
C  24.23500 -11.11100 48.32700
C  27.56700 -10.68200 47.56100
C  28.82200 -10.49800 48.39400
N  26.92500 -5.91800 45.38300
C  27.97300 -6.54500 46.07000
C  29.19900 -5.92100 45.79600
C  28.84500 -4.81600 44.92600
C  27.44300 -4.88800 44.66500
C  30.56500 -6.32600 46.34300
C  29.41500 -3.60800 44.32300
O  30.51400 -3.12300 44.46100
C  28.30200 -3.09100 43.33200
C  28.17500 -1.61000 43.60300
O  27.55600 -1.11800 44.49400
O  28.82600 -0.93000 42.60800
C  28.85500 0.55900 42.67900
H  21.46000 -4.72800 42.87100
H  22.59800 -9.92600 46.46800
H  28.65700 -8.29700 47.07800
H  25.64700 -2.03900 42.29900
H  23.36000 -3.51200 41.15100
H  23.80000 -1.20500 42.60800
H  22.61900 -2.07500 43.67400
H  22.24000 -1.68600 42.01900
H  25.21300 -4.18600 40.07200
H  26.68000 -4.33300 40.93100
H  27.57800 -2.58400 39.64400
H  26.11800 -1.61200 39.92600
H  18.75100 -7.11200 43.23600
H  19.98800 -6.41700 42.21500
H  19.19600 -5.47200 43.46100
H  19.26400 -10.36400 46.91400
H  20.71900 -9.50700 47.28200
H  20.54300 -10.74800 45.92500
H  25.12600 -10.93200 46.46000
H  26.27000 -9.41300 48.87000
H  24.67900 -11.13600 49.32200
H  24.09800 -12.10200 47.89300
H  23.24100 -10.69200 48.47900
H  27.95500 -10.42900 46.57400
H  27.14600 -11.68700 47.61000
H  29.17600 -11.38900 48.91200
H  28.64000 -9.74100 49.15700
H  29.66200 -10.08400 47.83600
H  30.81400 -7.35700 46.09500
H  30.52600 -6.20300 47.42600
H  31.28500 -5.58000 46.00700
H  28.61400 -3.06000 42.28800
H  29.85800 0.87600 42.96300
H  28.16400 0.92700 43.43800
H  28.69000 1.06300 41.72700
Mg 48.16200 46.01800 44.10800
C  44.96000 46.64900 42.91600
C  48.15900 42.94200 42.53900
C  51.46400 45.87900 44.68100
C  48.13000 49.40700 45.40900
N  46.65100 45.00800 42.84300
C  45.46800 45.41000 42.46600
C  44.83200 44.36400 41.57100
C  45.65800 43.04500 41.90000
C  46.94300 43.70100 42.44700
C  45.01100 42.23100 43.09700
C  44.78900 44.70800 40.02700
C  43.76300 44.05100 39.16800
H  44.18500 43.26700 37.92100
N  49.62000 44.50900 43.70400
C  49.39200 43.36500 43.04200
C  50.61700 42.67800 42.96300
C  51.67400 43.47600 43.58400
C  50.96600 44.69600 43.96000
C  50.68600 41.32100 42.31200
C  53.08100 42.94600 43.82700
O  53.44500 41.88300 43.35800
C  54.18300 43.72700 44.54200
N  49.57800 47.44300 44.89600
C  50.91400 47.11000 45.08100
C  51.67300 48.23500 45.80300
C  50.64200 49.38600 45.84600
C  49.32000 48.74900 45.44800
C  52.29600 47.94400 47.24000
C  51.02300 50.62100 44.92600
C  51.95100 51.66100 45.50600
N  46.86400 47.67700 44.17400
C  47.00700 48.97100 44.75600
C  45.78300 49.67400 44.62100
C  44.94700 48.80000 43.99000
C  45.64600 47.61300 43.72800
C  45.42600 51.02200 45.12100
C  43.67100 48.62900 43.39200
O  42.73600 49.40700 43.38100
C  43.57500 47.23300 42.72600
C  42.52800 46.38700 43.43000
O  42.75700 45.59900 44.31200
O  41.42400 46.38200 42.64300
C  40.50700 45.36300 43.06800
H  48.08200 41.89200 42.25000
H  52.54500 45.74900 44.77300
H  47.99200 50.36500 45.91600
H  43.79600 44.25100 41.88800
H  45.90800 42.40200 41.05600
H  43.96500 42.53400 43.14100
H  45.52500 42.42500 44.03800
H  45.08300 41.14900 42.99500
H  45.73000 44.51200 39.51400
H  44.70100 45.79400 39.99100
H  42.95300 44.69500 38.82500
H  43.30700 43.29300 39.80600
H  49.84600 41.06400 41.66700
H  50.66700 40.52900 43.06000
H  51.61000 41.31100 41.73300
H  53.73600 44.05300 45.48100
H  54.31100 44.59400 43.89400
H  55.16000 43.25000 44.62300
H  52.49400 48.49300 45.13400
H  50.59600 49.67700 46.89500
H  51.56700 47.82600 48.04200
H  53.07300 48.68200 47.43800
H  52.64900 46.93300 47.03800
H  50.09800 51.07700 44.57500
H  51.55400 50.30800 44.02700
H  51.48700 52.64600 45.44700
H  52.90600 51.60600 44.98400
H  52.23600 51.54300 46.55100
H  44.64800 51.43300 44.47900
H  46.30600 51.66500 45.09900
H  45.02800 50.94500 46.13300
H  43.25400 47.39500 41.69700
H  40.88500 44.34100 43.04800
H  39.60800 45.47900 42.46300
H  40.22900 45.45300 44.11800

