158

Mg 26.16800 50.32900 26.22100
C  24.04900 51.48600 28.76400
C  28.58500 49.62200 28.52700
C  28.11100 49.29700 23.62700
C  23.78200 51.48600 23.88000
N  26.35100 50.74900 28.42500
C  25.32000 51.01800 29.24300
C  25.75200 50.85900 30.71100
C  27.25000 50.25700 30.69100
C  27.46000 50.18300 29.17000
C  28.29900 51.09500 31.48800
C  24.58300 50.13700 31.51900
C  25.03300 49.42400 32.76200
H  24.13600 49.40500 34.00100
N  28.09200 49.71600 26.08900
C  28.90700 49.39000 27.18000
C  30.12300 48.74400 26.68900
C  30.07700 48.84200 25.24500
C  28.71200 49.31800 24.94100
C  31.24200 48.28000 27.63500
C  31.19500 48.53200 24.27300
O  31.11400 48.71600 23.03600
C  32.58900 48.10200 24.75700
N  26.06100 50.57500 24.06400
C  26.91700 49.95300 23.25300
C  26.38300 50.03200 21.81800
C  24.93400 50.55700 21.91900
C  24.92500 50.88700 23.41500
C  27.29300 50.84900 20.84200
C  23.87500 49.44100 21.51800
C  23.89500 48.12900 22.31200
N  24.25800 51.26800 26.27200
C  23.46100 51.62400 25.26900
C  22.14200 52.11500 25.80900
C  22.32200 51.98900 27.22100
C  23.67300 51.53300 27.41500
C  21.05100 52.64800 24.98500
C  21.65500 52.20500 28.51900
O  20.53800 52.43100 28.85000
C  22.83400 51.98700 29.55200
C  23.14500 53.22400 30.30500
O  23.66100 54.21400 29.77600
O  23.03800 53.09900 31.64400
C  23.48900 54.30100 32.47200
H  29.26000 49.24700 29.29800
H  28.74100 48.85300 22.85400
H  23.06300 51.67700 23.08100
H  25.69800 51.89100 31.05600
H  27.27900 49.23400 31.06700
H  29.01200 50.40800 31.94500
H  27.78800 51.65200 32.27400
H  28.95600 51.66400 30.83100
H  24.04000 49.39400 30.93500
H  23.83700 50.90700 31.71600
H  26.03800 49.76300 33.01300
H  25.19800 48.35500 32.62700
H  32.10200 48.94700 27.57500
H  31.64800 47.31000 27.34900
H  30.91400 48.17100 28.66900
H  33.20800 47.91900 23.87800
H  32.45000 47.20000 25.35400
H  32.98200 48.80200 25.49500
H  26.24900 49.05000 21.36700
H  24.82600 51.47000 21.33400
H  28.15900 51.11100 21.45000
H  26.84700 51.75700 20.43700
H  27.54500 50.20200 20.00100
H  24.11900 49.21700 20.47900
H  22.90000 49.91600 21.41200
H  23.86200 47.33700 21.56500
H  23.03900 47.86600 22.93300
H  24.83000 48.00600 22.86000
H  20.90300 51.98800 24.13000
H  21.37000 53.61600 24.59700
H  20.13800 52.68500 25.57900
H  22.40400 51.23300 30.21100
H  24.44900 53.97800 32.87400
H  22.87300 54.59800 33.32100
H  23.61200 55.21300 31.88900
Mg 9.19500 47.32300 28.04700
C  7.49000 46.93500 31.06700
C  12.03600 47.61800 29.80000
C  10.62800 48.43200 25.13900
C  6.06200 47.36100 26.40700
N  9.65700 47.41100 30.29300
C  8.85500 47.02000 31.24400
C  9.58800 46.98800 32.60700
C  11.04400 47.33800 32.14500
C  10.94600 47.47500 30.65800
C  11.69300 48.53600 32.84200
C  9.50900 45.66100 33.45500
C  9.31900 45.85300 34.96700
H  10.00900 44.94100 35.96500
N  11.12600 47.70600 27.45000
C  12.15000 47.77400 28.36400
C  13.40700 47.99700 27.55000
C  13.02300 48.17300 26.18200
C  11.58300 48.12100 26.20300
C  14.89600 47.86800 28.19600
C  13.85100 48.25500 24.91900
O  13.41300 48.15200 23.79100
C  15.32000 48.36800 25.17900
N  8.38200 47.93700 26.05800
C  9.22800 48.37800 25.04100
C  8.39800 48.88600 23.81800
C  7.05000 48.23900 24.09000
C  7.14500 47.70900 25.59700
C  8.41800 50.40100 23.64800
C  6.70800 47.11500 23.01500
C  6.56200 47.65000 21.57500
N  7.10400 47.18700 28.49700
C  5.97600 47.31700 27.77600
C  4.79200 47.20300 28.67200
C  5.30900 47.02900 29.97700
C  6.75400 47.07700 29.82000
C  3.34900 47.19300 28.27600
C  4.98100 46.86600 31.41000
O  3.90300 46.82300 31.94300
C  6.32400 46.60300 32.10900
C  6.25000 45.16200 32.55000
O  6.66700 44.22100 31.96900
O  5.63700 45.17200 33.75400
C  5.76200 43.81800 34.46100
H  12.94800 47.73800 30.38800
H  11.13500 48.73900 24.22200
H  5.18300 47.43100 25.76300
H  9.22900 47.81500 33.22000
H  11.74300 46.51400 32.29000
H  11.52500 49.43600 32.25000
H  12.72400 48.20100 32.73500
H  11.39800 48.58300 33.89100
H  10.41500 45.06300 33.36200
H  8.65400 45.08100 33.10700
H  8.26700 45.82800 35.25300
H  9.68800 46.85100 35.20200
H  14.90700 48.02300 29.27500
H  15.44800 48.74000 27.84500
H  15.26200 46.85900 28.00500
H  15.59900 49.30300 25.66500
H  15.74100 48.35000 24.17400
H  15.70700 47.50700 25.72400
H  8.82500 48.37700 22.95400
H  6.20600 48.91600 23.95800
H  8.81200 50.82200 24.57300
H  7.37000 50.65000 23.48300
H  8.96200 50.82100 22.80100
H  5.73500 46.67400 23.23300
H  7.43200 46.30200 23.05800
H  7.34500 47.23900 20.93800
H  6.69400 48.73100 21.62100
H  5.61300 47.32100 21.15400
H  3.26200 47.25100 27.19100
H  2.85600 47.98500 28.83900
H  2.82300 46.26900 28.51600
H  6.46800 47.18800 33.01700
H  6.63200 43.21200 34.20600
H  4.90500 43.21200 34.17000
H  5.71000 43.83900 35.54900

