158

Mg 35.06700 2.77200 30.64100
C  32.74300 3.72000 33.09400
C  37.57200 3.14700 32.96300
C  37.27000 2.11400 28.22300
C  32.49900 2.91200 28.24200
N  35.13600 3.40100 32.74100
C  34.03100 3.48200 33.56700
C  34.43000 3.35300 35.00800
C  36.02200 3.42400 34.97500
C  36.24200 3.26300 33.52400
C  36.63800 4.75800 35.59800
C  33.81700 2.01200 35.66800
C  33.52500 2.05900 37.19100
H  34.31300 3.05500 38.07600
N  37.15400 2.57600 30.59400
C  37.98900 2.79700 31.61000
C  39.39900 2.72800 31.18200
C  39.35400 2.40100 29.79200
C  37.89900 2.29400 29.48300
C  40.59300 2.88100 32.15400
C  40.39700 2.24700 28.71600
O  40.20900 2.22400 27.55400
C  41.83100 2.30900 29.06700
N  34.94300 2.53700 28.55700
C  36.01200 2.29100 27.74600
C  35.54300 2.07800 26.22400
C  33.99500 2.08100 26.37100
C  33.79100 2.64000 27.76400
C  36.14700 2.93300 25.08400
C  33.28400 0.73400 26.00200
C  31.91800 0.97900 25.22900
N  33.07800 3.33300 30.58300
C  32.15500 3.35200 29.51900
C  30.83500 3.72000 30.06800
C  31.04900 3.85800 31.44000
C  32.38700 3.57300 31.67700
C  29.65200 4.04500 29.16800
C  30.41400 4.27100 32.68500
O  29.25700 4.56700 32.91700
C  31.40800 3.94600 33.84600
C  31.41500 5.22500 34.74000
O  31.60300 6.39900 34.43800
O  31.37400 4.85100 36.09400
C  31.33800 5.99500 37.02000
H  38.21400 3.37800 33.81600
H  37.89700 1.91400 27.35100
H  31.77500 2.98800 27.42900
H  33.99900 4.21300 35.52000
H  36.36600 2.61500 35.61900
H  35.90900 5.56100 35.70200
H  37.43100 5.02900 34.90100
H  37.12000 4.39800 36.50700
H  34.38000 1.07900 35.64100
H  32.87600 1.79000 35.16500
H  33.68800 1.08000 37.64200
H  32.47100 2.33500 37.13800
H  40.22500 2.71800 33.16700
H  41.05600 3.86500 32.08500
H  41.30100 2.11700 31.83100
H  42.04600 1.45700 29.71100
H  41.90100 3.29600 29.52400
H  42.46300 2.30000 28.17800
H  35.98800 1.15800 25.84400
H  33.50500 2.80400 25.71900
H  36.75000 2.49800 24.28700
H  36.79800 3.72500 25.45800
H  35.33500 3.44500 24.56800
H  33.01200 0.15000 26.88100
H  33.89800 0.03400 25.43500
H  31.78700 2.01000 24.90200
H  31.15900 0.69100 25.95800
H  31.92100 0.48400 24.25800
H  29.01000 4.80600 29.61200
H  29.14800 3.08200 29.09200
H  30.07000 4.48000 28.26100
H  31.21200 2.97400 34.29700
H  32.28400 6.28800 37.47600
H  30.73300 5.76400 37.89600
H  30.81500 6.85500 36.60100
Mg 16.76000 52.00800 26.46300
C  18.98800 50.62200 28.76700
C  14.78900 53.09500 29.15000
C  14.75700 53.44800 24.17000
C  18.81700 50.94000 23.87500
N  16.92700 51.90400 28.67800
C  17.97000 51.41100 29.37000
C  17.70300 51.52000 30.88600
C  16.19100 51.93000 31.04100
C  15.94900 52.40300 29.52400
C  15.26500 50.69500 31.24800
C  18.71300 52.32000 31.60700
C  18.70400 52.11000 33.12700
H  17.55700 51.33500 33.81300
N  15.04900 53.13600 26.63100
C  14.42900 53.51000 27.82100
C  13.21600 54.23700 27.48600
C  13.14300 54.26600 26.00500
C  14.31400 53.60200 25.52200
C  12.25900 54.80100 28.55300
C  12.13200 55.04500 25.08700
O  12.21500 55.08700 23.85000
C  10.96800 55.62600 25.69100
N  16.86100 52.28500 24.31400
C  15.85600 52.87300 23.58800
C  16.15700 52.91700 22.10200
C  17.46700 52.01800 21.99100
C  17.79500 51.76700 23.45900
C  15.08300 52.29600 21.19800
C  18.66900 52.38200 21.07100
C  19.34300 53.73700 21.34500
N  18.35300 50.81000 26.28800
C  19.12900 50.47700 25.19800
C  20.26200 49.60600 25.60700
C  20.21900 49.59100 27.02900
C  19.07300 50.42400 27.40000
C  21.21300 48.87100 24.74200
C  20.90100 49.18300 28.23500
O  21.83800 48.45400 28.35100
C  20.17100 49.91500 29.43700
C  19.73900 48.77600 30.28800
O  18.80000 48.00300 30.08300
O  20.40600 48.89600 31.48500
C  19.99800 48.00000 32.60400
H  14.08200 53.29500 29.95800
H  14.20300 53.90900 23.35000
H  19.48900 50.53600 23.11500
H  17.87400 50.52100 31.28700
H  16.03300 52.81700 31.65400
H  14.82800 50.46100 30.27700
H  14.52300 50.95000 32.00500
H  15.89600 49.85500 31.53800
H  18.53000 53.31800 31.20900
H  19.64800 51.83800 31.31900
H  18.81400 53.05600 33.65800
H  19.60900 51.57000 33.40600
H  12.56100 54.62000 29.58500
H  11.26500 54.37100 28.43100
H  12.16000 55.88600 28.50800
H  11.43800 56.50000 26.14000
H  10.79000 54.91600 26.49800
H  10.15400 55.60800 24.96700
H  16.41200 53.88200 21.66300
H  17.24200 51.01500 21.62800
H  14.37100 51.75900 21.82500
H  15.35700 51.52900 20.47400
H  14.55800 53.15300 20.77600
H  18.06000 52.43600 20.16900
H  19.35300 51.54400 20.93700
H  20.30200 53.68800 21.86200
H  18.65100 54.37300 21.89700
H  19.51700 54.20600 20.37700
H  20.60200 48.39000 23.97800
H  21.80800 48.23100 25.39300
H  21.86600 49.57500 24.22500
H  20.86000 50.59600 29.93700
H  19.26500 48.54600 33.19800
H  20.93200 47.86000 33.14700
H  19.58500 47.12600 32.09900

