158

Mg -9.89700 39.60500 42.50900
C  -8.68700 36.52000 41.61400
C  -7.23200 41.11800 41.02300
C  -11.61100 42.60200 42.85000
C  -13.03800 37.91600 43.14700
N  -8.25100 38.86700 41.19600
C  -7.88100 37.56800 41.12300
C  -6.60200 37.39400 40.34000
C  -6.07900 38.87400 40.46300
C  -7.23800 39.71100 40.93900
C  -4.85000 38.99100 41.41800
C  -6.87400 36.85800 38.91400
C  -6.10500 35.50700 38.55500
H  -5.06400 35.59300 37.36800
N  -9.42000 41.63100 42.17400
C  -8.23100 42.01800 41.61000
C  -8.19700 43.43700 41.65400
C  -9.38700 43.91400 42.25100
C  -10.17200 42.68900 42.47800
C  -6.99900 44.24900 41.09700
C  -9.74700 45.42100 42.49500
O  -9.05800 46.37200 42.13900
C  -10.98300 45.76700 43.35100
N  -12.00200 40.18600 42.85900
C  -12.44000 41.48200 42.93900
C  -13.91500 41.56800 43.04700
C  -14.40400 40.07500 43.20300
C  -13.05800 39.35300 43.04100
C  -14.29100 42.44100 44.30300
C  -15.52100 39.51300 42.31400
C  -16.68900 38.94100 43.14100
N  -10.71800 37.65000 42.48300
C  -11.94600 37.11400 42.83800
C  -11.90700 35.70600 42.84100
C  -10.58300 35.38500 42.39000
C  -9.94900 36.59000 42.19000
C  -13.10300 34.77600 43.21000
C  -9.60000 34.33700 42.15700
O  -9.75500 33.09800 42.22300
C  -8.30400 34.98400 41.66600
C  -7.18600 34.69300 42.63000
O  -7.05000 35.23100 43.72100
O  -6.21900 33.82200 42.03600
C  -5.10000 33.63100 42.92800
H  -6.35500 41.66400 40.66900
H  -12.02800 43.60900 42.91300
H  -14.00500 37.42300 43.25900
H  -6.00200 36.68600 40.91300
H  -5.85900 39.22900 39.45700
H  -4.49000 37.96300 41.44000
H  -5.02900 39.44600 42.39300
H  -4.14200 39.57200 40.82700
H  -6.76300 37.54700 38.07700
H  -7.94000 36.65000 38.81400
H  -6.84100 34.74000 38.31500
H  -5.65000 34.96500 39.38400
H  -7.25800 45.27200 40.82200
H  -6.66500 43.82600 40.15000
H  -6.15300 44.37100 41.77400
H  -10.86200 46.76700 43.76700
H  -11.12700 45.01100 44.12300
H  -11.77500 45.68200 42.60700
H  -14.32400 41.98200 42.12600
H  -14.71500 39.91400 44.23500
H  -15.16000 42.03200 44.81900
H  -14.59400 43.45100 44.03000
H  -13.45500 42.40000 45.00200
H  -15.09800 38.63000 41.83600
H  -15.73900 40.31400 41.60700
H  -17.56200 39.11000 42.51100
H  -16.76200 39.40300 44.12600
H  -16.66800 37.85500 43.05300
H  -12.93600 34.31200 44.18200
H  -13.28100 33.93600 42.53900
H  -14.00000 35.39600 43.22500
H  -8.03200 34.65500 40.66400
H  -5.33800 33.02100 43.79900
H  -4.70100 34.58700 43.26900
H  -4.27000 33.17900 42.38400
Mg -0.25000 43.36200 25.98200
C  2.01800 42.67700 28.73200
C  -2.73100 41.88600 27.90200
C  -2.18700 43.11300 23.30800
C  2.55800 43.81100 23.92400
N  -0.32100 42.28900 28.06100
C  0.64300 42.46000 29.06600
C  0.03900 42.08100 30.39400
C  -1.44800 41.67200 30.04200
C  -1.54900 41.98100 28.59200
C  -1.90500 40.19700 30.46200
C  0.20400 43.22900 31.42500
C  0.44200 43.03400 32.93600
H  0.40800 41.54800 33.45000
N  -2.35300 42.86600 25.70100
C  -3.13500 42.24900 26.59000
C  -4.51100 42.11900 26.05200
C  -4.33200 42.35500 24.63700
C  -2.95900 42.79100 24.49100
C  -5.56600 41.55000 26.86400
C  -5.28900 42.24500 23.41500
O  -4.92400 42.58300 22.32100
C  -6.64400 41.67500 23.65300
N  0.15800 43.46500 23.90500
C  -0.85100 43.41100 23.00300
C  -0.36300 43.89200 21.61000
C  1.14000 43.93800 21.76800
C  1.32900 43.80600 23.29400
C  -0.90500 43.00200 20.46900
C  1.75500 45.16300 21.03200
C  2.10900 46.43200 21.91900
N  1.85000 43.25300 26.21700
C  2.83400 43.51700 25.24400
C  4.16300 43.47400 25.90600
C  3.84800 43.06700 27.21200
C  2.46500 42.92800 27.36900
C  5.50500 43.76500 25.33200
C  4.49900 42.72600 28.52300
O  5.66300 42.53900 28.85900
C  3.29100 42.60400 29.58300
C  3.55600 41.42500 30.33900
O  3.38800 40.23900 30.04000
O  4.10600 41.87300 31.48700
C  4.60600 40.78400 32.30600
H  -3.49200 41.46800 28.56400
H  -2.85400 43.28900 22.46200
H  3.41500 44.05800 23.29400
H  0.55600 41.19100 30.75200
H  -2.27200 42.26100 30.44500
H  -2.34100 40.28700 31.45700
H  -1.03500 39.54000 30.46800
H  -2.58900 39.88600 29.67300
H  -0.71100 43.82200 31.41100
H  0.98400 43.91600 31.09600
H  -0.35300 43.52100 33.50200
H  1.42800 43.35100 33.27600
H  -6.39900 42.24500 26.75500
H  -5.30500 41.67900 27.91500
H  -5.92700 40.56100 26.58400
H  -6.54000 40.77900 24.26500
H  -7.00900 41.49400 22.64200
H  -7.33200 42.43400 24.02500
H  -0.79200 44.88800 21.49500
H  1.47500 42.99100 21.34500
H  -1.48300 42.24000 20.99100
H  -0.08500 42.53100 19.92700
H  -1.50400 43.39000 19.64500
H  1.10600 45.50300 20.22500
H  2.68700 44.75200 20.64600
H  1.84100 46.34000 22.97100
H  1.93300 47.42200 21.49700
H  3.19900 46.40900 21.94100
H  5.58200 44.83900 25.16300
H  5.53000 43.26100 24.36600
H  6.26500 43.50400 26.06900
H  3.14800 43.50800 30.17600
H  4.21200 40.99600 33.29900
H  5.68900 40.81700 32.42300
H  4.31200 39.77100 32.02900

