158

Mg 42.75600 3.32300 46.19000
C  40.91000 6.27200 46.49400
C  39.92700 1.61100 46.27000
C  44.55800 0.70100 45.18900
C  45.54900 5.43500 45.61200
N  40.64200 3.94100 46.30600
C  40.12100 5.18400 46.57000
C  38.56500 5.08200 46.88900
C  38.40500 3.54500 46.97600
C  39.73600 2.98000 46.47800
C  37.97000 3.05100 48.35100
C  37.63000 5.85500 45.81500
C  38.02400 5.53900 44.45500
H  38.44200 6.56400 43.40400
N  42.30200 1.38000 45.92500
C  41.05000 0.89200 46.07600
C  41.07500 -0.53000 45.78800
C  42.36100 -0.78100 45.18500
C  43.14600 0.45000 45.43700
C  39.92600 -1.43500 46.03700
C  42.81700 -2.06000 44.56100
O  41.92200 -2.92300 44.51800
C  44.13200 -2.17800 43.79500
N  44.72400 3.11300 45.10900
C  45.28100 1.91800 45.11000
C  46.80700 2.06400 45.05300
C  47.05700 3.57900 44.90000
C  45.66800 4.12800 45.14900
C  47.64900 1.30400 46.20300
C  47.46200 4.00500 43.40500
C  48.86600 4.00700 43.04200
N  43.20700 5.40200 45.99900
C  44.37400 6.09200 45.93300
C  44.14800 7.52200 46.16100
C  42.81300 7.60500 46.33800
C  42.27400 6.32200 46.21800
C  45.13500 8.58500 46.07600
C  41.77200 8.51500 46.69000
O  41.78600 9.70300 46.95500
C  40.51100 7.71700 46.74600
C  39.86300 7.88300 48.10200
O  40.27100 7.74700 49.24100
O  38.56600 8.28700 47.81400
C  37.64900 8.41800 48.90700
H  39.02600 0.99400 46.28400
H  45.31500 -0.07400 45.04900
H  46.40500 6.11200 45.63900
H  38.42300 5.63300 47.81900
H  37.64200 3.33400 46.22700
H  37.15800 2.32900 48.26600
H  37.66700 3.94200 48.90100
H  38.74500 2.47900 48.86100
H  37.68700 6.94200 45.88700
H  36.57400 5.65600 46.00000
H  37.04000 5.26400 44.07400
H  38.52900 4.59500 44.25400
H  39.26400 -1.14800 46.85400
H  40.08600 -2.50600 46.16600
H  39.44900 -1.31900 45.06400
H  44.84000 -2.36500 44.60300
H  44.25500 -1.18400 43.36600
H  44.06700 -2.95600 43.03500
H  47.01900 1.65000 44.06700
H  47.68000 4.03200 45.67100
H  47.14900 0.96300 47.11000
H  48.32500 2.05400 46.61300
H  48.15900 0.40400 45.85900
H  47.13800 5.03600 43.26700
H  46.95100 3.36300 42.68700
H  49.32800 3.46900 43.87000
H  49.17100 5.05300 43.06600
H  49.12600 3.43600 42.15100
H  44.76500 9.22000 45.27100
H  46.05000 8.19700 45.62900
H  45.20300 9.12000 47.02300
H  39.84500 7.98200 45.92500
H  38.04300 8.97800 49.75600
H  37.38900 7.43300 49.29300
H  36.79600 8.91100 48.44200
Mg 1.18400 41.91900 26.21200
C  3.21000 42.54500 28.98900
C  -1.26700 40.81400 28.54200
C  -0.59200 40.93300 23.69100
C  3.90400 42.61000 24.11700
N  1.09100 41.69300 28.52000
C  1.98300 42.10900 29.42100
C  1.39600 42.08300 30.89500
C  0.01500 41.41500 30.63500
C  -0.06600 41.28700 29.14400
C  -0.24900 40.07400 31.38800
C  1.17200 43.65700 31.25400
C  1.27800 44.03800 32.78400
H  1.19400 42.83600 33.70600
N  -0.70700 41.00700 26.09900
C  -1.54000 40.63800 27.17400
C  -2.73500 40.04000 26.64800
C  -2.53400 39.97400 25.24000
C  -1.27300 40.71200 24.91300
C  -3.79700 39.45400 27.59200
C  -3.32900 39.16200 24.21100
O  -3.06900 39.18200 23.00200
C  -4.49200 38.40100 24.64100
N  1.57300 41.89200 24.19800
C  0.60600 41.46500 23.32800
C  1.01800 41.59700 21.81100
C  2.34000 42.49100 22.07800
C  2.70100 42.35300 23.50100
C  1.31600 40.27900 21.00500
C  2.24300 43.97300 21.68500
C  3.37900 44.67100 20.91400
N  3.15800 42.42200 26.42700
C  4.14400 42.62500 25.49100
C  5.35400 42.94000 26.15700
C  5.07900 42.89200 27.53800
C  3.70500 42.55100 27.66900
C  6.54900 43.56600 25.50700
C  5.61300 43.02300 28.85400
O  6.79500 43.21800 29.19500
C  4.48700 42.73500 29.83100
C  4.88100 41.61300 30.69700
O  4.71800 40.44700 30.36300
O  5.34400 42.07400 31.88500
C  5.84100 41.07100 32.80100
H  -2.08700 40.69400 29.25200
H  -1.09700 40.52700 22.81300
H  4.66200 42.84700 23.36800
H  2.11000 41.55100 31.52400
H  -0.82400 42.09300 30.79100
H  0.56200 39.89600 32.09300
H  -0.36300 39.32500 30.60300
H  -1.17600 40.32500 31.90300
H  0.17200 44.00200 30.99300
H  1.92900 44.29900 30.80200
H  0.43500 44.70400 32.96600
H  2.22200 44.53700 33.00000
H  -4.81300 39.60100 27.22300
H  -3.90500 39.90600 28.57800
H  -3.59400 38.39200 27.72700
H  -4.92400 37.81000 23.83300
H  -5.21700 39.10800 25.04200
H  -4.18600 37.63800 25.35700
H  0.15400 42.02900 21.30600
H  3.17500 42.09800 21.49900
H  0.69700 39.54200 21.51700
H  2.34800 39.93300 21.07300
H  1.13300 40.55000 19.96500
H  2.10000 44.62000 22.55100
H  1.37800 44.11500 21.03700
H  2.98200 44.89600 19.92400
H  4.28800 44.06900 20.89000
H  3.69800 45.56700 21.44600
H  6.94000 44.13500 26.35100
H  6.20900 44.30800 24.78400
H  7.27200 42.85700 25.10600
H  4.38600 43.63600 30.43700
H  6.92000 41.11000 32.94500
H  5.56100 40.06200 32.49900
H  5.45700 41.24200 33.80600

