158

Mg 48.84000 45.43400 42.90000
C  45.40600 45.45800 41.66700
C  48.90200 41.99400 41.98100
C  52.17900 45.41600 43.17400
C  48.87100 48.87700 42.71400
N  47.39600 43.90900 41.82100
C  46.00000 44.16000 41.50200
C  45.25600 42.88700 41.19000
C  46.38800 41.80800 41.25900
C  47.67300 42.57000 41.76400
C  46.11800 40.62700 42.29200
C  44.46300 42.95000 39.79300
C  45.24400 43.29300 38.50100
H  45.44600 42.32200 37.29300
N  50.30500 43.87700 42.76800
C  50.11400 42.54600 42.42000
C  51.34000 41.88500 42.71600
C  52.30500 42.81000 43.16900
C  51.60600 44.15100 43.03600
C  51.59500 40.41800 42.43900
C  53.78000 42.64000 43.63800
O  54.18800 41.47800 43.63800
C  54.77700 43.62900 44.26000
N  50.32400 46.95800 42.74800
C  51.61900 46.65300 43.14000
C  52.36500 48.00900 43.26600
C  51.40100 49.05200 42.60100
C  50.15400 48.27600 42.70300
C  52.78100 48.39100 44.77200
C  51.70600 49.37200 41.13700
C  52.30100 50.68100 40.74200
N  47.44400 46.88800 42.48400
C  47.62500 48.21300 42.59700
C  46.27100 48.86100 42.48000
C  45.46200 47.76700 41.98000
C  46.16200 46.58200 42.06200
C  45.90800 50.33300 42.60200
C  44.13400 47.47900 41.60800
O  43.13500 48.23300 41.58600
C  44.05500 46.02800 41.29100
C  42.81700 45.44900 41.91500
O  41.79600 44.98200 41.36100
O  42.94300 45.41100 43.27100
C  41.70900 45.24800 44.06400
H  48.92700 40.90500 41.89700
H  53.26600 45.33900 43.24000
H  48.85200 49.96800 42.77200
H  44.52900 42.78400 41.99600
H  46.66800 41.37600 40.29800
H  46.81000 40.80700 43.11500
H  46.22100 39.62200 41.88400
H  45.13500 40.69200 42.75900
H  43.60700 43.57900 40.03800
H  44.11600 41.94300 39.56100
H  46.23700 43.69800 38.69700
H  44.68100 44.16200 38.15900
H  51.61000 39.78500 43.32600
H  52.48600 40.17500 41.85900
H  50.78900 39.92100 41.90000
H  55.50700 43.22200 44.96000
H  54.12900 44.29900 44.82400
H  55.30200 44.18400 43.48100
H  53.32400 47.83400 42.77800
H  51.33700 49.98800 43.15600
H  53.86500 48.28600 44.82600
H  52.29800 47.74500 45.50400
H  52.52100 49.39400 45.10900
H  50.91200 49.14800 40.42400
H  52.42900 48.65400 40.75100
H  53.37600 50.53700 40.63100
H  52.06000 51.41700 41.50900
H  51.82800 51.12600 39.86700
H  44.90400 50.57000 42.25000
H  46.55200 50.97900 42.00600
H  46.03200 50.65500 43.63500
H  43.99600 46.00900 40.20300
H  41.34600 44.22200 44.01700
H  40.95000 45.96600 43.75400
H  42.01700 45.55700 45.06400
Mg 6.66800 54.10300 41.49200
C  6.06500 50.58600 41.77300
C  9.87400 53.41900 40.34600
C  7.00300 57.28900 40.78600
C  3.45100 54.58400 42.68300
N  7.72900 52.14300 40.96100
C  7.30100 50.89900 41.14900
C  8.41500 49.92300 40.67100
C  9.66900 50.82600 40.71800
C  9.07300 52.26800 40.63500
C  10.50400 50.57700 41.92900
C  8.02700 49.23000 39.26600
C  8.38100 50.13300 38.04800
H  7.17000 50.44200 37.17800
N  8.21900 55.17300 40.57900
C  9.48800 54.75800 40.29200
C  10.35000 55.86900 39.89300
C  9.53900 57.04000 40.11500
C  8.17200 56.53100 40.49000
C  11.78100 55.85800 39.47800
C  10.10000 58.42700 40.04200
O  11.26200 58.65300 39.74200
C  9.19100 59.67500 40.26900
N  5.33500 55.67900 41.52700
C  5.75600 56.92700 41.26300
C  4.74900 57.99000 41.68900
C  3.64500 57.16500 42.42400
C  4.09000 55.70100 42.09600
C  5.25400 59.21500 42.57200
C  2.07800 57.36700 42.09300
C  1.20900 57.89400 43.23700
N  5.03900 52.92800 42.14600
C  3.80500 53.25800 42.58600
C  3.10400 52.07000 43.06600
C  4.02700 51.01100 42.76000
C  5.15100 51.59400 42.21600
C  1.68500 52.03300 43.57300
C  4.22500 49.60400 42.88100
O  3.39900 48.81100 43.34600
C  5.46400 49.26100 42.13700
C  5.15300 48.45300 40.90800
O  4.22300 48.72900 40.10500
O  5.90600 47.28600 40.92000
C  5.53400 46.24800 40.03200
H  10.96300 53.40800 40.26000
H  7.08500 58.37000 40.65500
H  2.57700 54.82400 43.29200
H  8.60900 49.08800 41.34400
H  10.28900 50.70900 39.82800
H  10.09900 49.74600 42.50800
H  10.41700 51.42300 42.61100
H  11.51900 50.26400 41.68500
H  6.96400 49.00000 39.20000
H  8.53300 48.26400 39.26300
H  9.08100 49.62400 37.38600
H  8.79100 51.10700 38.31800
H  11.75100 56.60200 38.68200
H  12.15200 54.86900 39.20500
H  12.43900 56.15700 40.29400
H  8.41200 59.71800 39.50800
H  9.82900 60.54600 40.11600
H  8.74000 59.76700 41.25700
H  4.30300 58.37000 40.77000
H  3.83900 57.36700 43.47700
H  4.56400 59.38900 43.39800
H  5.34100 60.09600 41.93600
H  6.21200 59.04600 43.06300
H  1.65800 56.43100 41.72700
H  2.19200 58.04200 41.24400
H  1.72300 57.71700 44.18300
H  0.21900 57.44500 43.16700
H  1.10100 58.97800 43.21400
H  0.91800 52.03100 42.79900
H  1.57900 52.87800 44.25400
H  1.65400 51.12600 44.17700
H  6.10000 48.63800 42.76600
H  5.99300 46.41900 39.05900
H  4.47000 46.19900 39.80400
H  5.91800 45.29700 40.40200

