158

Mg 52.64600 24.22700 44.44000
C  49.77900 26.19300 43.90900
C  50.91200 21.46200 43.54800
C  55.47000 22.40400 44.54200
C  54.47200 27.15900 45.04000
N  50.57300 23.89600 43.73300
C  49.55600 24.81300 43.68700
C  48.29900 24.04200 43.46300
C  48.62600 22.55400 43.47700
C  50.14900 22.66400 43.53900
C  48.01500 21.68400 44.70200
C  47.48000 24.40900 42.16400
C  48.25900 24.32700 40.81300
H  47.60000 23.46300 39.70200
N  53.17200 22.19800 43.96500
C  52.29600 21.21200 43.76000
C  52.94300 19.95300 43.68000
C  54.36000 20.18300 43.93200
C  54.41800 21.65100 44.16300
C  52.32000 18.60700 43.36100
C  55.49400 19.16300 44.00700
O  55.20500 17.99000 43.81800
C  56.92800 19.47100 44.50500
N  54.72200 24.76500 44.48800
C  55.63200 23.74900 44.80400
C  56.99700 24.35800 45.12100
C  56.68200 25.93700 45.13200
C  55.17000 25.96700 44.82300
C  57.57900 23.73300 46.48700
C  57.51800 26.81000 44.11700
C  58.69400 27.64700 44.71300
N  52.26600 26.25800 44.56000
C  53.06500 27.33800 44.88700
C  52.24900 28.50800 45.09800
C  50.95100 28.12700 44.64900
C  51.00800 26.75900 44.31500
C  52.69400 29.92100 45.59100
C  49.57000 28.48000 44.51500
O  48.96400 29.55500 44.71800
C  48.77200 27.34800 43.88500
C  48.33000 27.83500 42.60100
O  48.95400 27.63300 41.51800
O  47.15600 28.51200 42.71400
C  46.61100 28.95600 41.43100
H  50.33600 20.57500 43.27800
H  56.35800 21.84600 44.84700
H  55.06700 28.04700 45.26400
H  47.71700 24.19400 44.37200
H  48.19900 22.06100 42.60300
H  47.92800 22.30100 45.59700
H  48.78000 20.92800 44.88100
H  47.07700 21.20100 44.43100
H  47.12100 25.43800 42.16700
H  46.62800 23.73200 42.23100
H  49.26000 23.91600 40.93800
H  48.34500 25.35500 40.46000
H  52.49700 18.24400 42.34800
H  51.24700 18.56200 43.54700
H  52.65600 17.73000 43.91400
H  57.52500 18.56200 44.43900
H  56.88100 19.67100 45.57500
H  57.45000 20.31500 44.05400
H  57.67400 24.09400 44.30800
H  56.87800 26.30800 46.13800
H  58.50100 23.19000 46.27800
H  56.83300 23.09700 46.96300
H  57.79100 24.58600 47.13100
H  56.87700 27.36900 43.43600
H  57.97800 26.03100 43.50800
H  59.59100 27.26200 44.22900
H  58.67900 27.57100 45.80000
H  58.70800 28.72200 44.53300
H  52.26000 30.57800 44.83700
H  53.76500 30.08800 45.47600
H  52.44800 30.07300 46.64200
H  47.96600 27.24100 44.61100
H  46.90100 30.00200 41.33200
H  45.53200 28.93700 41.58600
H  46.71400 28.27500 40.58700
Mg 25.98900 51.14100 26.91800
C  23.88600 52.03500 29.58700
C  28.17000 49.97700 29.32900
C  28.09100 50.53000 24.48800
C  23.72800 52.59600 24.66700
N  26.06600 51.02800 29.27200
C  25.04000 51.46800 30.11600
C  25.41200 51.15000 31.61000
C  26.97100 50.89700 31.49200
C  27.06600 50.50600 29.98100
C  27.89800 52.15100 31.89800
C  24.66500 49.91300 32.20600
C  23.85700 50.16800 33.48600
H  24.61300 50.91800 34.66300
N  27.89400 50.39600 26.91200
C  28.57200 49.83100 28.01400
C  29.85700 49.25100 27.49200
C  29.90500 49.64000 26.12800
C  28.50400 50.13400 25.78600
C  30.95200 48.74900 28.40500
C  31.06500 49.37900 25.16700
O  31.08900 49.82600 23.98100
C  32.37200 48.78600 25.70200
N  25.95900 51.60500 24.79400
C  26.97200 51.27000 24.06200
C  26.77700 51.63000 22.58000
C  25.26900 52.31300 22.61600
C  24.92200 52.17700 24.08200
C  27.90800 52.66300 22.10600
C  24.22700 51.72700 21.56500
C  23.50400 50.44100 21.92600
N  24.27500 52.22400 27.09700
C  23.44100 52.65100 26.04100
C  22.19200 53.22600 26.62200
C  22.33700 53.00800 28.01200
C  23.61400 52.36600 28.23100
C  21.01500 53.81600 25.83800
C  21.65400 53.03100 29.28500
O  20.54700 53.50900 29.51000
C  22.67800 52.50900 30.38600
C  22.90100 53.68800 31.26400
O  23.55500 54.67200 30.99000
O  22.23000 53.47600 32.44800
C  22.56000 54.43400 33.48400
H  28.87900 49.46800 29.98500
H  28.74300 50.30600 23.64100
H  23.08900 52.97700 23.86700
H  25.29200 52.08000 32.16500
H  27.19500 50.01800 32.09500
H  27.49400 53.04100 32.38200
H  28.22100 52.48600 30.91200
H  28.73600 51.78700 32.49100
H  25.30200 49.03200 32.28400
H  23.92100 49.77400 31.42100
H  23.44000 49.23900 33.87600
H  23.02100 50.77700 33.14300
H  31.31000 47.75300 28.14500
H  30.58600 48.63800 29.42500
H  31.62700 49.60200 28.47800
H  33.05200 48.71300 24.85300
H  32.25300 47.82000 26.19200
H  32.72700 49.57500 26.36500
H  26.78200 50.68300 22.04200
H  25.32800 53.38500 22.43200
H  28.50400 52.34300 21.25100
H  28.68300 52.77100 22.86500
H  27.43500 53.62100 21.89300
H  24.74200 51.53900 20.62300
H  23.57000 52.57000 21.35300
H  23.67700 49.84900 21.02700
H  22.42400 50.58200 21.91800
H  23.85500 49.94100 22.82800
H  21.41000 54.66600 25.28200
H  20.35400 54.26300 26.58100
H  20.52300 53.01300 25.29000
H  22.10200 51.70600 30.84600
H  22.42300 55.48000 33.21000
H  23.63500 54.32400 33.62900
H  22.07100 54.16100 34.41900

