158

Mg 16.87600 -1.19300 27.84200
C  16.11200 0.79100 30.62400
C  19.22500 -2.93200 29.70300
C  17.90100 -2.94200 25.05900
C  14.75900 0.76500 25.86500
N  17.59200 -1.05500 29.86700
C  17.10300 -0.19000 30.84600
C  17.68200 -0.57700 32.20900
C  18.90000 -1.56600 31.90500
C  18.61000 -1.86100 30.38100
C  20.39300 -0.98700 32.12100
C  16.70200 -1.18000 33.25100
C  16.50200 -0.46800 34.53900
H  17.81100 0.25200 35.06400
N  18.17200 -2.86800 27.49300
C  19.11300 -3.39600 28.35100
C  19.79300 -4.59600 27.72800
C  19.32200 -4.58800 26.37600
C  18.38200 -3.44200 26.24100
C  20.81000 -5.50700 28.32600
C  19.72200 -5.52200 25.19300
O  19.33400 -5.43800 24.04900
C  20.59200 -6.75700 25.27400
N  16.34400 -1.21500 25.75200
C  17.10100 -1.81700 24.81900
C  16.74100 -1.37200 23.35900
C  15.60700 -0.27100 23.69300
C  15.52100 -0.18200 25.20200
C  17.95300 -0.77900 22.64200
C  14.20700 -0.65400 23.07800
C  13.65100 0.41100 22.08300
N  15.69500 0.45000 28.17100
C  14.80500 1.05400 27.29400
C  14.06100 2.08700 27.94700
C  14.49000 1.99800 29.31100
C  15.50900 1.05400 29.38300
C  13.09500 2.99900 27.38900
C  14.35600 2.60800 30.57400
O  13.55300 3.43000 30.99700
C  15.39900 1.75900 31.59100
C  16.19100 2.72300 32.31000
O  17.18700 3.22400 31.90400
O  15.66100 3.01400 33.58900
C  16.44400 3.99800 34.38400
H  19.99600 -3.50500 30.22300
H  18.36200 -3.34400 24.15400
H  14.20000 1.51500 25.30100
H  17.99600 0.43700 32.45700
H  18.75200 -2.45500 32.51900
H  20.90800 -1.49800 32.93500
H  20.32300 0.04500 32.46700
H  20.98700 -1.09600 31.21400
H  16.82900 -2.22700 33.52800
H  15.72200 -1.13700 32.77400
H  16.18500 -1.23200 35.24900
H  15.64900 0.18400 34.34700
H  20.65900 -6.56700 28.12000
H  20.97200 -5.24700 29.37200
H  21.75000 -5.32700 27.80500
H  20.41300 -7.29800 26.20300
H  21.60200 -6.35900 25.36000
H  20.51600 -7.39400 24.39200
H  16.45200 -2.20100 22.71400
H  15.90300 0.75300 23.46200
H  17.83700 0.19500 22.16500
H  18.30400 -1.51600 21.92000
H  18.78800 -0.71600 23.34000
H  13.42600 -0.70300 23.83700
H  14.36200 -1.61200 22.58100
H  14.39000 1.18500 21.87400
H  12.87100 0.94600 22.62400
H  13.29700 -0.20400 21.25600
H  13.14000 3.05900 26.30100
H  13.29000 4.01800 27.72500
H  12.10400 2.72900 27.75400
H  14.78600 1.21500 32.30900
H  15.89500 4.89900 34.10900
H  17.48000 4.20800 34.12000
H  16.23100 3.76700 35.42800
Mg 43.19900 41.55100 26.74500
C  42.36300 43.66800 29.46400
C  44.40000 39.29900 28.84700
C  44.21700 39.77800 24.05700
C  42.76800 44.30400 24.64500
N  43.32400 41.58800 28.90500
C  42.86900 42.43400 29.81000
C  42.98500 41.87000 31.19500
C  43.71100 40.49000 31.04100
C  43.81500 40.40200 29.47700
C  45.13900 40.28400 31.68200
C  41.52600 41.84500 31.95200
C  41.43400 42.64000 33.24000
H  40.90200 42.03900 34.61400
N  44.10000 39.76300 26.46400
C  44.40700 38.91300 27.49900
C  44.87400 37.63600 26.96000
C  44.79700 37.75600 25.58800
C  44.37300 39.11400 25.27900
C  45.45300 36.53700 27.83100
C  45.18300 36.74600 24.53900
O  45.32800 37.02500 23.34200
C  45.66200 35.28300 24.87700
N  43.80600 42.06800 24.60900
C  43.94900 41.09400 23.72000
C  43.89100 41.66300 22.23400
C  43.28200 43.06300 22.47600
C  43.30600 43.17300 23.99300
C  45.28800 41.83700 21.36200
C  41.92200 43.40200 21.81400
C  41.67300 44.89400 21.55800
N  42.55500 43.53100 26.90000
C  42.38200 44.52700 25.95200
C  41.71800 45.74400 26.53800
C  41.71500 45.41400 27.93100
C  42.28900 44.10300 28.10300
C  41.45400 47.07000 25.89200
C  41.51400 45.88200 29.26900
O  41.14800 46.98900 29.60100
C  41.91000 44.81500 30.26700
C  43.00000 45.42900 31.11100
O  44.16300 45.57600 30.74300
O  42.43400 45.77700 32.31300
C  43.43300 46.07200 33.32300
H  44.70600 38.58300 29.61300
H  44.24000 39.14300 23.17000
H  42.52900 45.15400 24.00300
H  43.67300 42.47000 31.79100
H  43.08500 39.68400 31.42200
H  45.89300 40.13300 30.90900
H  44.94800 39.33700 32.18600
H  45.46400 41.02000 32.41700
H  41.25400 40.79400 32.05200
H  40.78100 42.19200 31.23600
H  40.85800 43.52700 32.97600
H  42.43100 42.99400 33.50100
H  45.35400 36.66900 28.90800
H  46.52700 36.41500 27.68600
H  44.93300 35.61500 27.57100
H  46.13800 35.32700 25.85600
H  46.37400 34.93200 24.12900
H  44.82000 34.59400 24.93100
H  43.18900 41.05500 21.66300
H  43.94300 43.84500 22.10200
H  46.05900 41.42200 22.01200
H  45.52200 42.90100 21.32800
H  45.47300 41.30400 20.42900
H  41.18100 43.04500 22.53000
H  41.74400 42.81000 20.91600
H  41.31300 44.98500 20.53300
H  42.55800 45.49200 21.77600
H  40.84600 45.25400 22.17000
H  42.07100 47.13800 24.99700
H  41.59600 47.87900 26.60900
H  40.42500 47.01700 25.53600
H  41.02800 44.52800 30.83900
H  44.12900 45.24800 33.16600
H  43.00000 46.10900 34.32300
H  43.84800 47.07900 33.38400

