158

Mg 44.65800 3.27700 47.11600
C  42.28500 5.85400 47.02500
C  42.12200 0.93300 47.06200
C  47.00200 0.83600 46.83200
C  47.22200 5.63000 46.74400
N  42.40900 3.46400 47.00700
C  41.63700 4.59700 47.13300
C  40.14400 4.21600 47.14700
C  40.18200 2.57400 47.24800
C  41.64100 2.30400 47.08500
C  39.64800 1.97100 48.55400
C  39.29400 4.69900 45.94100
C  39.88400 4.54600 44.48400
H  38.94700 4.55600 43.25400
N  44.55400 1.17700 46.93700
C  43.40700 0.44000 46.94600
C  43.75400 -0.94800 46.85000
C  45.19200 -1.00700 46.64500
C  45.68500 0.38500 46.84600
C  42.73400 -2.05500 46.88600
C  45.98800 -2.31000 46.41000
O  45.37900 -3.38200 46.42400
C  47.40000 -2.24700 46.10600
N  46.86300 3.25700 46.70500
C  47.61000 2.08800 46.84300
C  49.02900 2.41700 47.18900
C  49.12000 3.93600 46.95000
C  47.68000 4.32300 46.69700
C  49.48400 1.95700 48.60400
C  50.01200 4.51400 45.84000
C  51.19400 3.65700 45.23100
N  44.79100 5.34200 46.94300
C  45.89100 6.22900 46.76100
C  45.34800 7.62700 46.69900
C  43.99500 7.46400 46.93600
C  43.67000 6.09600 46.93700
C  46.14800 8.95700 46.53900
C  42.79200 8.28100 47.04000
O  42.47500 9.45500 46.86000
C  41.58200 7.24400 47.11500
C  40.83100 7.52500 48.36800
O  41.39000 7.77500 49.44600
O  39.50700 7.31700 48.17700
C  38.60900 7.66100 49.23400
H  41.32000 0.19900 47.16100
H  47.79400 0.09200 46.94700
H  47.96000 6.42600 46.86700
H  39.67000 4.58100 48.05800
H  39.55500 2.23000 46.42600
H  38.81100 1.32400 48.29300
H  39.44700 2.90500 49.07900
H  40.41700 1.40700 49.08100
H  39.08800 5.75800 46.09700
H  38.34800 4.18100 46.09300
H  40.38600 3.57900 44.46000
H  40.57300 5.34600 44.21300
H  43.19000 -2.69500 47.64200
H  42.65200 -2.62500 45.96100
H  41.79500 -1.76700 47.35800
H  47.66000 -1.69700 45.20200
H  47.65300 -3.30600 46.04100
H  47.96000 -2.04900 47.01900
H  49.62900 1.92700 46.42200
H  49.33400 4.46400 47.87900
H  49.13000 0.94200 48.78300
H  49.22900 2.63800 49.41600
H  50.56600 2.05700 48.69000
H  50.38900 5.47400 46.19200
H  49.42000 4.76100 44.95900
H  51.40400 2.66300 45.62500
H  52.17300 4.13500 45.25400
H  50.95300 3.51800 44.17700
H  45.87900 9.60600 47.37200
H  46.06000 9.39700 45.54500
H  47.16500 8.59200 46.68300
H  40.86900 7.48000 46.32500
H  37.79600 8.27600 48.84800
H  39.11200 8.10800 50.09100
H  38.17600 6.74200 49.62800
Mg 40.96300 41.58700 27.13700
C  39.77500 43.78900 29.56700
C  41.41800 39.31700 29.61400
C  42.20500 39.41100 24.82400
C  40.53200 44.05400 24.72000
N  40.58100 41.59100 29.37700
C  40.05000 42.55200 30.12100
C  40.15900 42.18100 31.70500
C  40.64400 40.74400 31.58300
C  40.95300 40.53400 30.11700
C  41.74800 40.17900 32.47400
C  38.82300 42.49600 32.42300
C  38.27400 41.54000 33.45300
H  37.56900 42.31900 34.54200
N  41.76100 39.58100 27.14600
C  41.81900 38.85800 28.32000
C  42.23100 37.50500 28.00800
C  42.37600 37.44800 26.59700
C  42.15400 38.87100 26.07200
C  42.33900 36.36000 29.01800
C  42.87200 36.32300 25.63500
O  42.97500 36.42300 24.38400
C  43.17600 35.07500 26.18000
N  41.39100 41.72100 25.06300
C  41.92000 40.73500 24.36300
C  41.89100 41.03800 22.86700
C  41.32600 42.49600 22.81100
C  41.01700 42.82900 24.25100
C  43.20900 40.73700 21.99500
C  40.13900 42.58300 21.85400
C  38.87100 41.79600 22.22600
N  40.30500 43.46700 27.12900
C  40.19400 44.40800 26.04000
C  39.72100 45.67100 26.46500
C  39.46600 45.46400 27.82500
C  39.88700 44.12000 28.19700
C  39.67700 46.94600 25.67700
C  38.99800 46.10200 29.06500
O  38.58700 47.18500 29.33000
C  39.26200 45.10100 30.22600
C  40.26300 45.76500 31.15200
O  41.44800 45.96900 30.86900
O  39.61900 46.09700 32.28800
C  40.36900 46.72700 33.36900
H  41.24100 38.60100 30.41900
H  42.53700 38.79900 23.98300
H  40.39100 44.94000 24.09900
H  40.98300 42.70900 32.18600
H  39.74600 40.14800 31.74700
H  42.70800 40.18900 31.95900
H  41.39300 39.21100 32.82800
H  41.83700 40.70100 33.42600
H  38.09500 42.52900 31.61300
H  38.85600 43.52800 32.77300
H  39.01600 40.96700 34.00800
H  37.51700 40.86200 33.05800
H  41.81400 36.63600 29.93300
H  43.40400 36.12900 29.02300
H  41.84100 35.44400 28.69900
H  43.89900 35.11900 26.99400
H  43.58000 34.45100 25.38300
H  42.27400 34.58700 26.54900
H  41.11900 40.40800 22.42400
H  42.03200 43.22700 22.41800
H  43.89700 40.64500 22.83500
H  43.24100 41.55600 21.27600
H  43.14100 39.81800 21.41300
H  40.46200 42.12200 20.92100
H  39.84700 43.60700 21.61900
H  38.04400 42.37700 21.81900
H  38.74200 41.59000 23.28900
H  38.84200 40.79500 21.79700
H  40.66600 47.21800 25.31000
H  39.33200 47.71700 26.36600
H  39.00900 46.91600 24.81600
H  38.28700 44.90500 30.67300
H  41.43800 46.84800 33.19500
H  40.20400 46.14300 34.27500
H  39.98700 47.73800 33.51300

