158

Mg 16.67500 -2.48900 28.22400
C  16.08400 -0.32700 31.05900
C  18.22900 -4.56200 30.25300
C  17.59500 -4.02200 25.52800
C  14.98800 -0.00600 26.24600
N  17.19700 -2.34300 30.36100
C  16.81800 -1.50800 31.37000
C  17.10400 -2.02900 32.69300
C  18.16600 -3.17300 32.44600
C  17.90000 -3.40400 30.94500
C  19.70100 -2.75800 32.82000
C  15.91300 -2.47400 33.45700
C  15.78300 -1.96300 34.87000
H  16.99700 -1.50900 35.69600
N  17.62100 -4.12700 27.97600
C  18.19200 -4.93900 28.95300
C  18.78600 -6.11300 28.30100
C  18.54400 -5.97000 26.87700
C  17.91300 -4.69000 26.73000
C  19.60500 -7.14000 29.04100
C  18.87000 -6.90900 25.74800
O  18.63900 -6.62200 24.56600
C  19.63300 -8.18000 26.06900
N  16.36900 -1.99900 26.13700
C  16.92600 -2.85800 25.22300
C  16.84700 -2.28200 23.80700
C  15.74400 -1.15100 23.98100
C  15.58600 -1.06100 25.53600
C  18.21900 -1.86600 23.16800
C  14.42800 -1.34500 23.18600
C  13.91400 -0.16900 22.31500
N  15.75300 -0.55600 28.54900
C  15.10900 0.26400 27.59700
C  14.67700 1.43900 28.32400
C  14.96400 1.27200 29.64600
C  15.68100 0.07300 29.71900
C  13.90200 2.61800 27.90300
C  14.83900 1.73800 31.02200
O  14.24500 2.68000 31.53200
C  15.58500 0.73700 31.96700
C  16.62000 1.55400 32.67800
O  17.71300 1.80800 32.28800
O  16.07100 1.87900 33.89300
C  16.93800 2.66600 34.81300
H  18.57700 -5.32800 30.95000
H  17.98900 -4.52900 24.64500
H  14.60300 0.82800 25.65500
H  17.41900 -1.13800 33.23700
H  18.03900 -4.09900 33.00700
H  19.78300 -1.74500 33.21500
H  20.33300 -3.10300 32.00200
H  20.05200 -3.44300 33.59000
H  15.92100 -3.54800 33.63800
H  15.02400 -2.18900 32.89300
H  15.14200 -2.59800 35.48100
H  15.10600 -1.11500 34.76900
H  19.46700 -6.95100 30.10500
H  20.66200 -7.03700 28.79300
H  19.34400 -8.16600 28.78300
H  20.50100 -8.04800 26.71500
H  19.97300 -8.55600 25.10400
H  18.93800 -8.82300 26.61000
H  16.34000 -3.04700 23.21900
H  16.16300 -0.20000 23.65000
H  18.13700 -0.86600 22.74100
H  18.50900 -2.58100 22.39800
H  19.01600 -1.93800 23.90800
H  13.69200 -1.58500 23.95300
H  14.43700 -2.28100 22.62600
H  13.43200 -0.55200 21.41600
H  14.75000 0.48800 22.07700
H  13.11400 0.36600 22.82700
H  14.21200 2.64400 26.85800
H  14.21300 3.54400 28.38700
H  12.83300 2.52200 28.09300
H  14.80500 0.31700 32.60100
H  16.55900 2.60700 35.83300
H  16.98500 3.73700 34.61500
H  17.97100 2.32000 34.77100
Mg 25.74100 0.10400 29.48500
C  27.62100 -0.28400 32.46200
C  22.98800 0.26600 31.40400
C  23.94000 0.12000 26.63100
C  28.71800 -0.68100 27.61500
N  25.30900 -0.16800 31.73400
C  26.27600 -0.12600 32.76100
C  25.63300 0.02500 34.09900
C  24.07300 0.19900 33.75800
C  24.11900 0.05100 32.20400
C  23.03300 -0.68800 34.55900
C  26.26400 1.26200 34.85400
C  25.63200 1.80600 36.14000
H  26.62700 1.91200 37.33600
N  23.73800 0.20700 29.10400
C  22.70900 0.19500 29.99200
C  21.37500 0.26400 29.38400
C  21.63000 0.24100 27.95900
C  23.17400 0.29200 27.84200
C  20.09600 0.20000 30.17100
C  20.65000 0.25400 26.80900
O  20.91200 0.28900 25.60400
C  19.21400 0.40400 27.16200
N  26.24100 -0.10000 27.42700
C  25.35400 0.04300 26.46800
C  26.03000 -0.15200 25.08100
C  27.54400 -0.26600 25.41800
C  27.49600 -0.40900 26.93000
C  25.50300 -1.37300 24.40600
C  28.26200 1.14100 25.00600
C  29.75300 1.08300 24.85400
N  27.81300 -0.31900 29.88500
C  28.87600 -0.65500 29.04900
C  30.02300 -0.95700 29.82100
C  29.63600 -0.75500 31.19800
C  28.27800 -0.39100 31.16000
C  31.33400 -1.34900 29.21500
C  30.10100 -0.62200 32.56300
O  31.17400 -0.68100 33.16000
C  28.82600 -0.24400 33.42300
C  28.82900 -1.31000 34.45800
O  28.69000 -2.50000 34.29300
O  28.96800 -0.72000 35.68100
C  28.80200 -1.67100 36.80600
H  22.10300 0.50600 31.99700
H  23.37300 0.14500 25.69800
H  29.54300 -0.91800 26.94100
H  25.60900 -0.87400 34.71500
H  23.93500 1.24400 34.03400
H  23.41100 -1.29700 35.38100
H  22.52000 -1.33300 33.84600
H  22.32800 0.00500 35.01800
H  26.39300 1.98900 34.05300
H  27.28600 0.94700 35.06500
H  24.76900 1.21200 36.44100
H  25.19100 2.74500 35.80800
H  19.37000 1.00900 30.08900
H  20.33200 0.15500 31.23400
H  19.56700 -0.74700 30.07300
H  18.60400 0.57400 26.27400
H  19.00800 1.19900 27.87800
H  18.94100 -0.59200 27.50900
H  25.75600 0.72100 24.48900
H  28.11100 -1.14200 25.10300
H  24.82000 -1.91400 25.06000
H  26.30600 -2.08100 24.20000
H  25.00200 -1.15500 23.46200
H  27.96000 2.03100 25.55900
H  27.77000 1.37300 24.06200
H  30.09900 0.10500 24.52000
H  30.23600 1.24900 25.81600
H  30.19000 1.84500 24.20800
H  31.42600 -2.37300 28.85400
H  32.12400 -1.15700 29.94200
H  31.44100 -0.69500 28.35000
H  29.08100 0.75300 33.78500
H  27.80500 -1.41900 37.16800
H  29.46300 -1.25300 37.56500
H  29.01300 -2.71900 36.59100

