158

Mg 26.21200 0.61700 28.85300
C  28.26700 0.35000 31.84900
C  23.42800 0.68600 30.81600
C  24.48100 0.68600 26.03500
C  29.21200 -0.09000 26.98500
N  25.91300 0.43400 31.11700
C  26.87600 0.46600 32.07800
C  26.21600 0.57100 33.42700
C  24.61200 0.64200 33.11800
C  24.61600 0.55300 31.58000
C  23.88200 -0.39800 33.99900
C  26.78900 1.67300 34.25100
C  27.24200 1.32700 35.72700
H  26.71300 2.27600 36.83900
N  24.27000 0.74100 28.48600
C  23.25400 0.73700 29.43500
C  21.98900 0.89200 28.75400
C  22.23800 0.82300 27.32800
C  23.73000 0.73400 27.22300
C  20.73400 1.04900 29.50200
C  21.22600 0.80900 26.20700
O  21.50900 0.54000 25.06500
C  19.73800 1.09800 26.50500
N  26.74800 0.29100 26.76800
C  25.83600 0.51400 25.74300
C  26.49700 0.84200 24.43100
C  27.99200 0.59600 24.73300
C  28.02400 0.27700 26.24700
C  25.93500 -0.02100 23.29900
C  28.86700 1.77700 24.38300
C  29.53700 1.58400 23.01500
N  28.23400 0.11600 29.26500
C  29.30400 -0.14100 28.40800
C  30.50600 -0.33500 29.13800
C  30.20100 -0.16200 30.49900
C  28.77800 0.15700 30.50900
C  31.89700 -0.59500 28.51800
C  30.70100 -0.14300 31.78900
O  31.83700 -0.27100 32.27400
C  29.42800 0.15500 32.79800
C  29.20400 -1.07000 33.71800
O  28.77600 -2.17100 33.38500
O  29.67300 -0.83300 35.00300
C  29.14500 -1.82500 35.96700
H  22.52800 0.81100 31.42300
H  23.88200 0.95200 25.16200
H  30.10500 -0.16200 26.36200
H  26.45400 -0.39200 33.87800
H  24.24000 1.62900 33.39300
H  24.53000 -0.71700 34.81500
H  23.62300 -1.32600 33.48900
H  22.98400 0.04900 34.42500
H  26.00300 2.42400 34.33000
H  27.64400 2.14500 33.76700
H  28.32800 1.31400 35.64400
H  26.82800 0.33400 35.90300
H  20.80300 1.44200 30.51600
H  20.24000 0.07700 29.49300
H  19.98400 1.61900 28.95300
H  19.13500 1.06200 25.59800
H  19.68000 2.08200 26.97000
H  19.32200 0.32200 27.14800
H  26.20700 1.89200 24.38500
H  28.24600 -0.34400 24.24400
H  25.46300 -0.94300 23.63700
H  26.70300 -0.44800 22.65400
H  25.25200 0.53900 22.66000
H  29.67300 1.92200 25.10300
H  28.29600 2.70500 24.37000
H  29.30000 2.44300 22.38600
H  29.25800 0.67700 22.47800
H  30.61700 1.63900 23.15200
H  32.70900 -0.35300 29.20400
H  32.07100 -0.22200 27.50900
H  31.77200 -1.66200 28.33300
H  29.80300 0.91500 33.48300
H  29.66200 -1.52000 36.87700
H  29.31600 -2.87500 35.72700
H  28.07700 -1.62800 36.05700
Mg 55.16400 23.56400 44.51900
C  52.48900 25.59100 43.41300
C  53.37000 20.81900 43.37100
C  57.95700 21.77300 44.75800
C  56.82300 26.40400 45.71600
N  53.25100 23.28700 43.36200
C  52.26400 24.26100 43.11200
C  50.98700 23.59400 42.71600
C  51.16100 22.03200 42.89500
C  52.64000 21.99300 43.27400
C  50.18100 21.34900 43.95800
C  50.58400 23.90900 41.24200
C  49.06500 23.90200 41.09500
H  48.41000 23.63400 39.72700
N  55.62300 21.57900 44.07100
C  54.76300 20.58200 43.64200
C  55.49500 19.37000 43.50400
C  56.89000 19.62700 43.70600
C  56.90200 21.00300 44.25600
C  54.90500 18.05000 43.00600
C  57.98900 18.68800 43.47700
O  57.70100 17.53300 43.23000
C  59.38200 19.01100 43.62600
N  57.14600 24.09200 45.25100
C  58.11200 23.12400 45.19300
C  59.45300 23.73800 45.63700
C  59.16200 25.22800 46.03600
C  57.65200 25.26000 45.70900
C  60.30000 22.97900 46.65100
C  60.02200 26.25600 45.25400
C  60.72000 27.36300 45.86800
N  54.78400 25.55700 44.53700
C  55.53400 26.59100 45.12700
C  54.80500 27.79100 44.95600
C  53.61700 27.39300 44.35400
C  53.66200 26.05700 44.05800
C  55.21500 29.13600 45.36500
C  52.40400 27.98400 43.89900
O  52.06600 29.16700 43.99200
C  51.61400 26.84500 43.19500
C  51.44900 27.26200 41.76000
O  52.38300 27.45600 41.00600
O  50.05300 27.20300 41.39400
C  49.77700 27.30300 39.96700
H  52.73800 19.93100 43.30400
H  58.88300 21.19500 44.76200
H  57.25900 27.37200 45.96800
H  50.10300 23.87800 43.28600
H  50.98400 21.44900 41.99100
H  50.67200 21.00500 44.86900
H  49.77700 20.44400 43.50600
H  49.51900 22.13800 44.31700
H  51.04700 23.18400 40.57300
H  50.90900 24.89500 40.90900
H  48.80900 24.92300 41.37900
H  48.58800 23.29000 41.86000
H  55.34200 17.86400 42.02500
H  53.87100 18.08300 42.66300
H  55.07100 17.21700 43.69000
H  59.75100 19.80600 42.97800
H  60.04300 18.16000 43.46200
H  59.50300 19.26400 44.67900
H  60.16100 23.60500 44.81900
H  59.28200 25.45800 47.09400
H  60.66600 23.51700 47.52500
H  61.22500 22.62500 46.19700
H  59.64900 22.21000 47.06900
H  59.34200 26.59300 44.47100
H  60.77700 25.77700 44.63200
H  61.78400 27.15700 45.75300
H  60.50400 27.40500 46.93500
H  60.48200 28.31600 45.39600
H  56.12500 29.37600 44.81600
H  55.31700 29.20800 46.44800
H  54.49700 29.93600 45.18400
H  50.61700 26.68200 43.60500
H  48.75200 26.97100 39.79800
H  50.57000 26.77900 39.43400
H  49.74300 28.36000 39.70300

