158

Mg 46.45500 25.04300 28.45000
C  46.74600 27.21100 31.09800
C  45.49300 22.58100 30.81300
C  46.44000 23.01200 26.00300
C  47.45100 27.58700 26.19800
N  46.11700 24.98900 30.78500
C  46.29200 25.98200 31.65300
C  46.05200 25.58100 33.13900
C  45.79400 24.04700 32.96300
C  45.71900 23.81300 31.41900
C  46.94800 23.09300 33.53400
C  44.83500 26.34800 33.76200
C  45.07800 27.05800 35.10900
H  43.88500 27.16800 36.14800
N  45.98000 23.14300 28.40100
C  45.48200 22.33900 29.39800
C  45.13200 21.08200 28.78400
C  45.37600 21.18700 27.43500
C  46.01500 22.49300 27.20700
C  44.45400 19.90500 29.50500
C  45.24000 20.08800 26.37200
O  45.73000 20.15600 25.24600
C  44.74900 18.77000 26.67900
N  47.27800 25.18300 26.40900
C  47.04000 24.18300 25.58100
C  47.09000 24.60900 24.11400
C  47.18700 26.12500 24.19000
C  47.35500 26.32600 25.69300
C  48.19500 23.92200 23.25300
C  45.92400 26.77600 23.65100
C  44.68700 26.65100 24.50600
N  46.95400 26.98100 28.54700
C  47.39100 27.89200 27.61800
C  47.80800 29.13800 28.25800
C  47.55700 28.90500 29.61000
C  47.05900 27.58400 29.71800
C  48.64000 30.25200 27.64600
C  47.75600 29.42100 30.93200
O  48.22100 30.49500 31.32600
C  47.20400 28.40800 31.87500
C  48.33700 28.13200 32.76100
O  49.40800 27.72300 32.38600
O  47.93000 28.34400 34.07400
C  48.95000 28.02200 35.09200
H  45.17200 21.73700 31.42600
H  46.08400 22.39700 25.17400
H  47.52200 28.41800 25.49300
H  46.94700 25.81200 33.71500
H  44.87600 23.75000 33.47000
H  47.84200 23.68000 33.74200
H  47.30000 22.37900 32.78900
H  46.54200 22.70700 34.46900
H  44.04400 25.63500 33.99600
H  44.39700 27.08100 33.08500
H  45.28900 28.10600 34.89500
H  45.92900 26.59600 35.61100
H  43.53700 19.73300 28.94200
H  44.19600 20.18700 30.52600
H  44.99700 18.96000 29.51900
H  44.72200 18.18800 25.75700
H  43.71400 19.00400 26.92900
H  45.21700 18.19700 27.47900
H  46.05300 24.37100 23.87500
H  48.08100 26.59800 23.78600
H  48.47200 24.58900 22.43600
H  47.83000 22.98600 22.83000
H  49.09700 23.66900 23.80900
H  45.62500 26.43200 22.66100
H  46.01000 27.85900 23.56100
H  43.87000 26.36800 23.84300
H  44.40100 27.50300 25.12100
H  44.93500 25.92100 25.27700
H  48.03500 31.13500 27.44000
H  49.09800 30.00100 26.68900
H  49.43100 30.52000 28.34700
H  46.41800 28.82900 32.50200
H  48.82100 27.11800 35.68800
H  49.06500 28.88700 35.74500
H  49.98300 27.92500 34.75500
Mg 46.13700 35.49900 28.07300
C  44.73700 33.23600 30.47500
C  46.67200 37.72100 30.51400
C  47.61600 37.31700 25.76300
C  45.45100 32.98000 25.67000
N  45.66900 35.46100 30.30100
C  45.25600 34.42400 31.07000
C  45.43600 34.79500 32.53800
C  45.55900 36.36500 32.46700
C  45.99400 36.60700 30.98200
C  44.22300 37.15800 32.66800
C  46.73600 34.17900 33.11100
C  46.91200 34.02000 34.62600
H  46.08500 34.79500 35.60200
N  46.88300 37.43700 28.11700
C  47.18200 38.14200 29.23600
C  48.05300 39.25700 28.88700
C  48.27600 39.12800 27.49200
C  47.56700 37.93600 27.03300
C  48.67700 40.13200 29.98300
C  49.10500 40.05400 26.56600
O  49.32000 39.91700 25.34100
C  49.76600 41.29000 27.24400
N  46.29700 35.23000 25.99200
C  47.03500 36.18400 25.28700
C  47.28500 35.66700 23.79200
C  46.27000 34.44800 23.72600
C  46.04300 34.15600 25.20100
C  47.00700 36.75900 22.67000
C  46.78000 33.24700 22.92700
C  45.76200 32.59000 22.00400
N  45.31200 33.52000 28.08700
C  45.14800 32.66000 27.01200
C  44.53100 31.41700 27.52000
C  44.23200 31.73100 28.86900
C  44.76700 32.95000 29.10400
C  44.25000 30.22000 26.80500
C  43.52100 31.23500 30.01700
O  42.84500 30.25900 30.08800
C  43.75600 32.23400 31.20700
C  44.23400 31.55700 32.40600
O  45.11000 30.72200 32.39900
O  43.63200 32.08000 33.54600
C  43.89300 31.39000 34.76100
H  46.75200 38.46300 31.31200
H  48.32900 37.80000 25.09200
H  45.14000 32.18200 24.99300
H  44.57900 34.66000 33.19700
H  46.30900 36.59000 33.22500
H  44.18500 37.65800 33.63600
H  43.34400 36.51900 32.58300
H  44.10900 37.91500 31.89200
H  47.54800 34.75800 32.67000
H  46.81200 33.17400 32.69700
H  47.98800 34.19400 34.65100
H  46.64500 32.98800 34.85200
H  48.44900 39.98700 31.03900
H  48.22100 41.07300 29.67400
H  49.75600 40.18400 29.83500
H  49.02900 41.81300 27.85300
H  50.13100 41.95500 26.46200
H  50.56800 40.89200 27.86600
H  48.30300 35.28800 23.70200
H  45.33900 34.82300 23.30100
H  46.08300 36.58500 22.11700
H  47.82200 36.64600 21.95400
H  46.84100 37.78400 23.00100
H  47.33400 32.54300 23.54700
H  47.46200 33.56800 22.13900
H  45.74800 33.12200 21.05300
H  44.76400 32.84200 22.36300
H  45.97700 31.52300 21.93700
H  44.38500 29.50100 27.61300
H  45.06500 30.16800 26.08400
H  43.23200 30.20800 26.41600
H  42.81600 32.73000 31.44700
H  44.53000 30.50800 34.69100
H  42.98600 31.06100 35.26700
H  44.28400 32.12100 35.46900

