158

Mg 8.60500 4.23400 27.47600
C  9.74900 2.44700 30.57800
C  6.66500 6.16300 29.61600
C  7.62300 5.63900 24.81000
C  10.29600 1.89500 25.60900
N  8.21800 4.10700 29.88100
C  8.78300 3.39100 30.90900
C  8.25600 3.92400 32.27500
C  7.31600 5.09100 31.89300
C  7.38700 5.14200 30.33100
C  5.87800 4.91700 32.42300
C  9.43300 4.35100 33.28000
C  8.94100 5.04700 34.55600
H  10.08700 5.27100 35.52700
N  7.39800 5.79300 27.25300
C  6.62800 6.38200 28.21300
C  5.89000 7.44300 27.54000
C  6.22100 7.38700 26.15700
C  7.03700 6.18900 25.96500
C  5.00500 8.46900 28.29000
C  5.70200 8.34900 24.96000
O  6.04700 8.14600 23.79800
C  4.95400 9.52200 25.32400
N  8.75000 3.73900 25.50800
C  8.31900 4.50400 24.55700
C  8.44800 3.89700 23.11400
C  9.57300 2.82000 23.38800
C  9.56300 2.79400 24.96200
C  7.13900 3.38900 22.45200
C  10.94200 3.15300 22.74800
C  11.90000 2.11600 22.26000
N  9.81100 2.52700 27.90800
C  10.50300 1.76300 26.95900
C  11.30600 0.84700 27.69000
C  11.05700 1.07700 29.08300
C  10.12000 2.11500 29.16100
C  12.30300 -0.22000 27.20400
C  11.43100 0.64900 30.43800
O  12.29200 -0.12700 30.82900
C  10.52800 1.61600 31.45300
C  9.67800 0.79500 32.33700
O  8.94400 -0.07100 32.00100
O  10.20500 0.93000 33.60100
C  9.63800 -0.00900 34.69300
H  6.07500 6.79000 30.28900
H  7.26300 6.23200 23.96700
H  10.86200 1.11100 25.10200
H  7.70800 3.02800 32.56900
H  7.62000 6.06300 32.28200
H  5.14800 4.73800 31.63300
H  5.61300 5.91400 32.77500
H  5.90000 4.13900 33.18500
H  9.95500 5.08200 32.66400
H  10.10600 3.53000 33.53000
H  8.22600 4.37200 35.02600
H  8.57500 6.04900 34.33300
H  4.00200 8.51100 27.86600
H  5.48400 9.44600 28.34600
H  4.65900 8.13500 29.26800
H  5.59000 9.95000 26.09900
H  4.06100 9.16800 25.83900
H  4.82000 10.24700 24.52200
H  8.82300 4.65300 22.42400
H  9.28300 1.78900 23.18700
H  7.23200 2.34900 22.13900
H  6.94200 3.93300 21.52900
H  6.21900 3.52600 23.02000
H  11.48900 3.76600 23.46400
H  10.70600 3.77900 21.88700
H  12.00800 2.19500 21.17800
H  11.63000 1.07800 22.45500
H  12.87500 2.39900 22.65700
H  12.71200 -0.75400 28.06200
H  13.08800 0.26700 26.62500
H  11.81200 -0.95200 26.56300
H  11.19300 2.21100 32.07800
H  9.32100 -0.98700 34.33100
H  8.74700 0.45600 35.11400
H  10.37000 -0.20800 35.47500
Mg 24.35100 -4.62500 45.98000
C  26.39800 -2.16200 44.74400
C  21.85600 -3.68700 43.76300
C  22.58400 -7.35000 46.90100
C  26.98200 -5.70000 48.10400
N  24.04700 -2.90700 44.59500
C  25.07300 -2.04700 44.23000
C  24.61000 -1.18500 42.95700
C  23.06200 -1.43300 42.98700
C  22.95200 -2.80500 43.76600
C  22.22400 -0.30500 43.65200
C  25.33300 -1.88900 41.69000
C  25.73800 -0.96800 40.59300
H  25.15300 -1.13100 39.20000
N  22.50400 -5.38800 45.42000
C  21.63100 -4.84700 44.51000
C  20.41300 -5.65400 44.42400
C  20.55000 -6.68100 45.39500
C  21.89900 -6.54400 45.94500
C  19.24400 -5.32700 43.32200
C  19.53900 -7.75700 45.66400
O  18.43500 -7.62100 45.19000
C  19.80300 -9.06200 46.37600
N  24.84000 -6.38600 47.25600
C  23.84800 -7.34900 47.50900
C  24.39300 -8.51900 48.43600
C  25.63600 -7.81200 48.98300
C  25.87200 -6.62800 47.98400
C  23.43300 -8.94100 49.52000
C  26.95600 -8.71700 49.13800
C  27.65500 -8.68600 50.44900
N  26.37600 -4.14400 46.30700
C  27.28400 -4.62000 47.20900
C  28.49400 -3.83000 47.15500
C  28.22700 -2.85800 46.11500
C  26.87500 -3.04500 45.69200
C  29.71900 -3.96500 47.99300
C  28.77100 -1.78100 45.30400
O  29.83700 -1.17100 45.24100
C  27.53800 -1.28700 44.42500
C  27.24400 0.12400 44.71000
O  26.62300 0.72900 45.59100
O  27.68300 0.83300 43.65300
C  27.48400 2.28300 43.54900
H  21.04400 -3.41200 43.08600
H  22.06200 -8.26300 47.19400
H  27.73000 -5.90800 48.87300
H  24.87900 -0.13000 43.01000
H  22.68800 -1.39700 41.96400
H  21.78500 0.36300 42.91100
H  22.93700 0.28100 44.23200
H  21.43000 -0.72000 44.27200
H  24.62800 -2.60100 41.26200
H  26.16900 -2.51200 42.00700
H  26.82500 -1.04200 40.61500
H  25.59800 0.08100 40.85600
H  19.72500 -4.80600 42.49400
H  18.43100 -4.74800 43.76000
H  18.92900 -6.31700 42.99300
H  18.91100 -9.68700 46.41300
H  19.98100 -8.94400 47.44500
H  20.57900 -9.55600 45.79100
H  24.75500 -9.26300 47.72600
H  25.32100 -7.42400 49.95100
H  22.55300 -8.31000 49.64400
H  23.82000 -8.97100 50.53900
H  22.99200 -9.89000 49.21400
H  27.66800 -8.44000 48.36000
H  26.73000 -9.77200 48.98100
H  27.40500 -7.80400 51.04000
H  28.72600 -8.66100 50.25300
H  27.50500 -9.59900 51.02500
H  29.43200 -4.36300 48.96700
H  30.08500 -2.96100 48.20800
H  30.57400 -4.44000 47.51300
H  27.89300 -1.32400 43.39500
H  26.92700 2.48300 42.63300
H  28.41700 2.84500 43.50300
H  26.86700 2.75900 44.31000

