158

Mg -1.65400 16.96900 27.02900
C  -2.08600 14.79100 29.85100
C  -2.48400 19.59800 29.20500
C  -1.67500 19.10200 24.48700
C  -1.98800 14.28900 24.96400
N  -2.34200 17.14500 29.24400
C  -2.30800 16.12900 30.22500
C  -2.67100 16.68100 31.71900
C  -2.89000 18.22500 31.39900
C  -2.57800 18.31900 29.86100
C  -4.30500 18.70300 31.94000
C  -1.56900 16.38300 32.73000
C  -1.50100 17.41000 33.85400
H  -1.13700 16.79100 35.23700
N  -1.86500 18.99100 26.88200
C  -2.16400 19.90300 27.93400
C  -2.12400 21.28000 27.45800
C  -1.76600 21.11100 26.04500
C  -1.75100 19.67800 25.72700
C  -2.21200 22.49900 28.35900
C  -1.43700 22.16700 25.04600
O  -1.27800 21.97900 23.82700
C  -1.10600 23.53000 25.51700
N  -1.73100 16.73800 25.00000
C  -1.81300 17.77500 24.10500
C  -1.88800 17.27600 22.61900
C  -2.16400 15.73800 22.82800
C  -1.95100 15.56100 24.38100
C  -2.94500 17.92000 21.79400
C  -1.15000 14.80700 22.06800
C  0.36000 14.93100 22.64400
N  -1.76400 14.94100 27.28600
C  -1.88700 13.95400 26.32900
C  -1.94700 12.64000 26.97000
C  -1.95200 12.92900 28.36200
C  -1.87700 14.32500 28.45500
C  -2.17500 11.22700 26.30900
C  -2.03300 12.32600 29.62800
O  -2.10900 11.16000 29.96800
C  -2.10400 13.53600 30.63900
C  -0.91500 13.42300 31.53200
O  0.18700 13.92600 31.40200
O  -1.18900 12.57300 32.57700
C  -0.26600 12.48300 33.72600
H  -2.65500 20.45200 29.86300
H  -1.66900 19.82100 23.66500
H  -2.27000 13.40400 24.39000
H  -3.52800 16.14000 32.11900
H  -2.10100 18.82100 31.85700
H  -5.07000 18.85800 31.17900
H  -4.23600 19.59500 32.56300
H  -4.74700 17.92900 32.56700
H  -0.56900 16.35200 32.29900
H  -1.84900 15.41300 33.14000
H  -2.42400 17.98900 33.89200
H  -0.69000 18.09600 33.60800
H  -1.26100 23.02600 28.43700
H  -2.70700 22.38800 29.32300
H  -2.77000 23.24400 27.79100
H  -0.70200 24.14900 24.71600
H  -0.38100 23.51100 26.33000
H  -2.05400 24.03200 25.71300
H  -0.93200 17.49700 22.14300
H  -3.15200 15.40400 22.51400
H  -3.65800 18.40500 22.46000
H  -3.53000 17.18400 21.24300
H  -2.66600 18.60400 20.99300
H  -1.07700 15.04800 21.00800
H  -1.54900 13.79300 22.10400
H  1.13300 15.00200 21.87900
H  0.45300 14.10700 23.35100
H  0.43200 15.90200 23.13400
H  -2.66400 11.27600 25.33600
H  -2.95300 10.83300 26.96300
H  -1.38000 10.48400 26.24300
H  -3.08600 13.42100 31.09700
H  -1.02500 12.46300 34.50900
H  0.21600 13.46000 33.77000
H  0.41200 11.63100 33.78400
Mg 47.37800 15.65400 27.49900
C  45.48200 16.08100 30.41400
C  49.94300 17.53600 28.96800
C  48.94100 15.79000 24.59700
C  44.66100 14.17800 25.99800
N  47.64100 16.74700 29.45600
C  46.78300 16.55200 30.55000
C  47.53900 17.07900 31.80900
C  48.81400 17.80000 31.26700
C  48.85100 17.35600 29.79600
C  48.89500 19.26500 31.46300
C  47.81000 16.00100 32.92400
C  47.45200 16.38600 34.40000
H  47.43500 17.90200 34.82200
N  49.31500 16.35200 26.96000
C  50.21500 17.10600 27.66400
C  51.40900 17.30700 26.86700
C  51.06600 16.79900 25.56600
C  49.71600 16.30700 25.66100
C  52.69300 17.95300 27.40400
C  51.92000 16.66700 24.31400
O  51.49700 16.23000 23.27500
C  53.43400 17.08700 24.39900
N  46.99800 14.89500 25.55600
C  47.81400 15.03500 24.53000
C  47.12000 14.76700 23.19400
C  45.91200 13.89400 23.66000
C  45.82200 14.28100 25.14100
C  46.68300 16.06100 22.47100
C  46.15500 12.40600 23.47500
C  46.60900 11.59600 24.62100
N  45.45400 15.26900 28.02200
C  44.50800 14.58600 27.35700
C  43.28500 14.57900 28.15200
C  43.64500 15.09100 29.41200
C  44.95600 15.51300 29.22500
C  41.89900 13.93500 27.75700
C  43.19700 15.30400 30.74600
O  42.13400 15.02000 31.27800
C  44.41400 15.98300 31.47200
C  44.09200 17.22500 32.31300
O  43.95000 18.34600 31.94900
O  43.71900 16.75300 33.52500
C  43.21000 17.84000 34.43300
H  50.79400 18.02400 29.44800
H  49.38800 15.98400 23.62000
H  43.72300 13.78700 25.60000
H  46.99000 17.88200 32.30100
H  49.64100 17.41400 31.86200
H  47.92000 19.71200 31.65700
H  49.23800 19.72700 30.53700
H  49.54200 19.52100 32.30100
H  48.85600 15.69500 32.91400
H  47.22800 15.11600 32.66700
H  48.12600 15.91600 35.11600
H  46.42100 16.04600 34.50100
H  53.40000 17.15300 27.62400
H  52.45000 18.73800 28.12000
H  53.00700 18.57400 26.56500
H  53.58600 18.15800 24.53500
H  53.90100 16.61700 23.53400
H  53.78900 16.54400 25.27500
H  47.88000 14.18000 22.67900
H  44.97000 14.16700 23.18600
H  47.32400 16.27600 21.61700
H  46.75000 16.95100 23.09700
H  45.67600 15.98500 22.06000
H  46.98100 12.20700 22.79200
H  45.30800 12.03000 22.90000
H  47.04700 10.68600 24.21200
H  45.78200 11.13400 25.16000
H  47.32800 12.05000 25.30300
H  42.05200 12.86700 27.60100
H  41.46100 14.43100 26.89100
H  41.14300 14.02900 28.53700
H  44.62900 15.17100 32.16700
H  42.20700 18.15400 34.14600
H  43.91100 18.65500 34.25200
H  43.26900 17.64900 35.50500

