158

Mg 24.86600 -4.18400 46.52800
C  26.64300 -1.61400 45.01300
C  22.20800 -3.48600 44.38900
C  23.36100 -7.07500 47.46900
C  27.74700 -5.27400 48.19000
N  24.45400 -2.78600 44.87000
C  25.34600 -1.74900 44.49600
C  24.70200 -0.86500 43.50700
C  23.19100 -1.23200 43.71700
C  23.26900 -2.55100 44.38900
C  22.41400 -0.15900 44.48900
C  25.28800 -0.97300 42.02600
C  25.49600 0.37300 41.28800
H  25.14000 0.46500 39.77800
N  23.02700 -5.12100 46.04100
C  22.08700 -4.65800 45.12200
C  20.96100 -5.57000 45.12300
C  21.22900 -6.67000 46.00800
C  22.58900 -6.30000 46.61700
C  19.73000 -5.39000 44.34300
C  20.35900 -7.86200 46.24800
O  19.30500 -7.97000 45.63800
C  20.77700 -8.99600 47.08900
N  25.45300 -5.89200 47.67900
C  24.65700 -6.93900 47.97100
C  25.41000 -8.04000 48.63500
C  26.79800 -7.46000 48.97700
C  26.70500 -6.14200 48.14900
C  24.63400 -8.58600 49.85400
C  27.91400 -8.40900 48.63700
C  28.61800 -8.26000 47.24800
N  26.77500 -3.50400 46.78300
C  27.85200 -3.96300 47.53800
C  28.88300 -2.98900 47.45700
C  28.53300 -2.10600 46.39900
C  27.20000 -2.42700 46.02400
C  30.20800 -3.10900 48.14600
C  28.96200 -0.95600 45.56400
O  30.04800 -0.39100 45.56400
C  27.71200 -0.62200 44.63100
C  27.33500 0.80000 44.90200
O  27.18200 1.26200 45.98400
O  27.35100 1.49900 43.77300
C  27.22600 2.89800 43.79700
H  21.32400 -3.42700 43.75100
H  22.97500 -8.04900 47.77600
H  28.57900 -5.59700 48.81900
H  24.90800 0.08200 44.00500
H  22.56300 -1.39200 42.84100
H  22.73200 0.82500 44.14300
H  22.46700 -0.34300 45.56200
H  21.38100 -0.26400 44.15800
H  24.57500 -1.45600 41.35800
H  26.09200 -1.70700 41.96900
H  26.55300 0.62200 41.37400
H  24.90900 1.14800 41.78100
H  19.63400 -6.08600 43.50900
H  19.63100 -4.35800 44.00700
H  18.92400 -5.66100 45.02500
H  20.85500 -8.53900 48.07600
H  21.75000 -9.33600 46.73500
H  19.97900 -9.73500 47.15800
H  25.47700 -8.87000 47.93200
H  26.79100 -7.06100 49.99100
H  25.16800 -8.64800 50.80300
H  24.37600 -9.58500 49.50500
H  23.67800 -8.06400 49.88800
H  27.51600 -9.42200 48.56400
H  28.65100 -8.32700 49.43500
H  28.50900 -9.19800 46.70200
H  29.65700 -7.94300 47.32900
H  28.14700 -7.55700 46.56000
H  30.95200 -2.68700 47.47000
H  30.43100 -4.13900 48.42300
H  30.22300 -2.60900 49.11500
H  28.00100 -0.70000 43.58300
H  26.48100 3.32600 44.46800
H  26.97500 3.28100 42.80700
H  28.15600 3.38800 44.08100
Mg 55.29700 24.28600 44.51700
C  52.90600 26.55200 43.39700
C  53.43400 21.75000 43.11100
C  58.09100 22.24700 44.64700
C  57.35400 26.90400 45.25100
N  53.47200 24.18200 43.25400
C  52.62700 25.26100 42.98600
C  51.29200 24.72300 42.44900
C  51.36600 23.12500 42.61500
C  52.84000 22.99000 43.07000
C  50.29300 22.37300 43.49600
C  50.94300 25.05900 41.00100
C  49.49500 25.10700 40.49300
H  49.14800 24.96800 39.01500
N  55.68000 22.19800 44.03300
C  54.74300 21.37400 43.42000
C  55.37600 20.01400 43.26300
C  56.74100 20.11200 43.75500
C  56.92900 21.53200 44.17000
C  54.64200 18.85500 42.59400
C  57.81300 18.94800 43.81900
O  57.53000 17.82200 43.42100
C  59.15900 19.17600 44.41800
N  57.33400 24.50500 44.95000
C  58.26200 23.53700 45.05700
C  59.67100 24.08300 45.30500
C  59.41800 25.61000 45.37100
C  57.94100 25.70300 45.18100
C  60.54800 23.38500 46.32800
C  60.11800 26.37900 44.21900
C  61.07100 27.50200 44.67600
N  55.10900 26.29100 44.62500
C  56.00700 27.24800 44.99000
C  55.38700 28.54600 45.09800
C  54.16200 28.30500 44.38900
C  54.02400 26.93000 44.15600
C  56.09400 29.78900 45.59700
C  52.97600 28.97000 43.94800
O  52.63000 30.15000 44.09500
C  52.13800 27.90600 43.12500
C  52.35000 28.30100 41.72700
O  53.34700 28.18100 41.08400
O  51.16600 28.70500 41.15900
C  51.23000 28.73700 39.66900
H  52.81600 20.96400 42.67200
H  59.00700 21.68200 44.83300
H  58.00600 27.69600 45.62500
H  50.57100 25.08100 43.18300
H  51.21800 22.82200 41.57800
H  50.71000 21.86000 44.36200
H  49.62000 21.73800 42.92000
H  49.65200 23.06500 44.04300
H  51.50800 24.39600 40.34600
H  51.37900 26.04200 40.82100
H  49.04600 26.08200 40.68300
H  48.82700 24.46000 41.06200
H  54.78200 17.87100 43.04100
H  55.19300 18.54500 41.70600
H  53.57600 19.06400 42.50000
H  59.66300 19.82600 43.70300
H  59.71400 18.24100 44.50800
H  58.98300 19.62300 45.39600
H  60.19600 23.84700 44.37900
H  59.68200 25.88900 46.39100
H  60.29300 22.35900 46.59500
H  60.53100 24.04700 47.19400
H  61.59100 23.30200 46.02300
H  59.34700 26.91600 43.66700
H  60.68600 25.76100 43.52300
H  61.41200 27.37600 45.70400
H  60.73700 28.50800 44.42400
H  61.92900 27.36000 44.01900
H  55.40800 30.63100 45.50700
H  57.03900 29.99700 45.09500
H  56.33800 29.64100 46.64900
H  51.10300 27.94300 43.46500
H  51.79000 29.58200 39.26900
H  50.20800 28.77000 39.29200
H  51.59100 27.81900 39.20400

