158

Mg 26.81300 50.69400 26.75400
C  24.73200 51.55700 29.64600
C  29.14100 49.55300 28.94100
C  28.58900 49.67000 24.10000
C  24.35700 51.94100 24.76900
N  26.77500 50.39900 29.06500
C  25.85600 50.80200 29.99700
C  26.21400 50.40100 31.43300
C  27.74700 50.00400 31.16300
C  27.95500 50.00600 29.63500
C  28.83000 50.80000 31.91800
C  25.36300 49.27100 32.19500
C  24.77300 49.50000 33.55400
H  25.78500 49.94000 34.60000
N  28.58200 49.72100 26.58600
C  29.43100 49.35900 27.60500
C  30.57700 48.68700 27.09700
C  30.53000 48.78000 25.66500
C  29.20200 49.38400 25.41100
C  31.68200 48.26800 28.02000
C  31.51200 48.40600 24.53900
O  31.31300 48.74500 23.35800
C  32.87200 47.94800 24.88600
N  26.53500 50.71400 24.70900
C  27.39600 50.27500 23.74800
C  26.86400 50.58500 22.36000
C  25.43200 50.88200 22.60500
C  25.40100 51.21100 24.09800
C  27.67000 51.71700 21.63300
C  24.30000 49.90100 22.19400
C  23.11800 50.48900 21.45500
N  25.04400 51.69700 27.06000
C  24.11900 52.19000 26.12800
C  22.88300 52.69300 26.80400
C  23.14800 52.54500 28.15300
C  24.42400 51.88500 28.26900
C  21.68000 53.24100 26.08900
C  22.57000 52.77200 29.49800
O  21.60700 53.37100 29.79400
C  23.57100 52.12400 30.46600
C  23.97900 53.16100 31.50400
O  24.76800 54.01200 31.25600
O  23.22900 52.93100 32.61600
C  23.61700 53.69500 33.80500
H  29.83100 49.14700 29.68300
H  29.15600 49.35600 23.22200
H  23.58600 52.24300 24.05700
H  26.16300 51.31900 32.01900
H  27.90400 48.93600 31.31700
H  28.44500 50.96900 32.92300
H  29.11700 51.73100 31.42900
H  29.73400 50.19100 31.95600
H  25.89200 48.32000 32.14000
H  24.45100 49.19300 31.60400
H  24.34200 48.57300 33.93200
H  23.98100 50.24900 33.58900
H  32.34800 47.52300 27.58300
H  31.28100 47.90900 28.96800
H  32.13900 49.23600 28.22300
H  33.51800 48.04000 24.01200
H  32.82100 46.89000 25.14300
H  33.24600 48.47000 25.76700
H  27.07000 49.69900 21.76000
H  25.02800 51.79700 22.17100
H  28.44800 52.04800 22.32200
H  27.07200 52.57100 21.31600
H  28.34400 51.41800 20.83000
H  23.80600 49.43500 23.04600
H  24.74700 49.05800 21.66600
H  23.03300 49.89700 20.54400
H  23.31300 51.48300 21.05200
H  22.19100 50.55900 22.02400
H  20.96300 53.63000 26.81100
H  21.14600 52.59600 25.39100
H  22.15700 53.96500 25.42900
H  23.10600 51.27900 30.97200
H  22.71500 53.76500 34.41300
H  23.95500 54.72000 33.65400
H  24.38900 53.15000 34.34700
Mg -12.34000 16.06500 41.72200
C  -9.19900 14.04500 41.56400
C  -10.58400 18.56600 40.13700
C  -15.08100 17.34200 41.11100
C  -13.89000 12.91600 42.59300
N  -10.11300 16.24800 40.82200
C  -9.08200 15.31100 40.95500
C  -7.72800 15.93900 40.45200
C  -8.14200 17.48100 40.30300
C  -9.68500 17.44900 40.32600
C  -7.64000 18.40800 41.45800
C  -7.17700 15.26500 39.16800
C  -5.63600 15.52800 39.00200
H  -5.34900 16.24400 37.64200
N  -12.71200 17.78700 40.91700
C  -11.94100 18.73100 40.30800
C  -12.69700 19.89700 39.93900
C  -14.05300 19.62800 40.32400
C  -13.97900 18.17700 40.76300
C  -12.11100 21.14800 39.32900
C  -15.22100 20.54000 40.14800
O  -15.06900 21.62600 39.65300
C  -16.71100 20.15900 40.50900
N  -14.27900 15.13400 41.58300
C  -15.26300 16.05700 41.41500
C  -16.67600 15.34900 41.57800
C  -16.20600 14.03200 42.34200
C  -14.74200 13.95600 42.11600
C  -17.77000 16.14700 42.39100
C  -16.98900 12.76100 41.82900
C  -17.78400 11.91300 42.90000
N  -11.71300 13.94900 42.12600
C  -12.48500 12.83000 42.48100
C  -11.55900 11.73800 42.67900
C  -10.25200 12.19100 42.34300
C  -10.37600 13.51700 42.00400
C  -11.91800 10.43300 43.39200
C  -8.87100 11.73200 42.23600
O  -8.33400 10.63700 42.50300
C  -8.09900 13.02000 41.71800
C  -7.05300 13.52700 42.68800
O  -7.16700 13.52300 43.90400
O  -5.89000 13.82700 42.02300
C  -4.69000 13.89800 42.85800
H  -10.06600 19.39500 39.65000
H  -16.05500 17.82600 41.01500
H  -14.44800 12.02700 42.89200
H  -6.94500 15.85400 41.20600
H  -7.74200 17.94100 39.40000
H  -6.55900 18.55000 41.47000
H  -7.90500 17.89300 42.38100
H  -8.16600 19.36200 41.41400
H  -7.84000 15.64300 38.39000
H  -7.37600 14.19900 39.27800
H  -5.11900 14.57500 39.11000
H  -5.24900 16.22400 39.74600
H  -12.38300 21.32400 38.28800
H  -11.03000 21.10700 39.45600
H  -12.40700 22.00500 39.93300
H  -16.75400 19.84200 41.55100
H  -17.13400 19.36200 39.89700
H  -17.41200 20.96900 40.30500
H  -17.08900 15.18200 40.58300
H  -16.35300 14.00900 43.42100
H  -18.65500 16.41700 41.81400
H  -17.22400 17.03900 42.69900
H  -18.14600 15.61000 43.26100
H  -16.32700 12.16600 41.19800
H  -17.73800 13.08100 41.10400
H  -18.86700 11.91100 42.78000
H  -17.46900 12.21900 43.89700
H  -17.54700 10.84900 42.88200
H  -10.99300 9.86200 43.31600
H  -12.70200 9.97100 42.79100
H  -12.41300 10.59900 44.34800
H  -7.54000 12.82100 40.80300
H  -4.60000 12.97700 43.43500
H  -4.75200 14.68700 43.60700
H  -3.87100 14.00900 42.14800

