158

Mg 41.06500 9.19500 29.91500
C  43.03800 10.60000 32.33200
C  38.92100 7.96900 32.28800
C  39.18000 7.69100 27.48400
C  43.59400 9.91600 27.46000
N  40.96900 9.29200 32.04600
C  41.89600 9.95000 32.86500
C  41.38600 9.98700 34.27000
C  40.24200 8.94700 34.23300
C  40.01300 8.65300 32.73200
C  40.57400 7.61400 35.07000
C  41.00300 11.41200 34.73400
C  40.48400 11.60200 36.21800
H  41.33500 12.37200 37.31300
N  39.15500 8.14200 29.84200
C  38.43200 7.76800 30.99300
C  37.14800 7.22100 30.48000
C  37.22600 7.14000 29.06200
C  38.55500 7.64700 28.74100
C  36.11800 6.73000 31.51100
C  36.17800 6.69700 28.02500
O  36.33600 6.61500 26.84200
C  34.88100 6.39200 28.50100
N  41.35200 8.80300 27.77700
C  40.39900 8.20000 27.04600
C  40.70300 8.26100 25.52700
C  42.08100 8.98400 25.52400
C  42.38900 9.29100 26.99500
C  40.68500 6.92600 24.74300
C  42.10700 10.22100 24.59600
C  41.80800 11.59600 25.12700
N  42.96100 10.10000 29.84800
C  43.85400 10.27800 28.79000
C  45.04000 10.86400 29.31100
C  44.72200 11.11100 30.70300
C  43.51900 10.52600 30.95000
C  46.33500 11.21300 28.60000
C  45.17600 11.71100 31.91800
O  46.24100 12.20400 32.18100
C  44.16600 11.27900 33.11000
C  44.90100 10.42800 34.04200
O  45.25000 9.24600 33.84000
O  45.14800 11.17500 35.10600
C  45.99000 10.58700 36.10600
H  38.21900 7.63200 33.05300
H  38.55500 7.37400 26.64500
H  44.35500 10.19600 26.72900
H  42.21200 9.58800 34.85800
H  39.38600 9.37200 34.75600
H  41.62300 7.32000 35.03500
H  40.04300 6.75700 34.65500
H  40.29500 7.82200 36.10300
H  40.26800 11.91800 34.10800
H  41.95500 11.91300 34.56200
H  40.23600 10.70000 36.77800
H  39.47900 12.00200 36.35200
H  36.42300 6.67200 32.55600
H  35.83000 5.75800 31.11100
H  35.22800 7.35700 31.45200
H  34.40900 7.25100 28.97800
H  35.06200 5.56600 29.18900
H  34.22100 5.97000 27.74300
H  39.89700 8.90000 25.16500
H  42.90200 8.34600 25.19800
H  40.07800 6.94100 23.83800
H  40.17800 6.16700 25.33900
H  41.70700 6.60500 24.54100
H  41.37300 10.08400 23.80200
H  43.04600 10.37200 24.06500
H  42.79700 11.98700 25.36400
H  41.22500 11.42200 26.03100
H  41.17200 12.22700 24.50700
H  46.14700 11.02800 27.54200
H  47.16600 10.59200 28.93700
H  46.56300 12.21400 28.96600
H  43.76500 12.16700 33.59900
H  45.82900 9.56600 36.45400
H  45.76600 11.24100 36.94900
H  46.96600 10.64200 35.62300
Mg 41.82100 40.96100 26.37600
C  41.49100 43.40100 28.97600
C  43.03900 38.78000 28.78600
C  42.33500 38.82900 23.94900
C  41.44200 43.57300 24.04000
N  42.26100 41.14600 28.63900
C  41.93500 42.18000 29.46100
C  42.21000 41.88600 30.92300
C  42.86400 40.42500 30.82300
C  42.69800 40.04700 29.34500
C  44.36300 40.34400 31.37600
C  40.86300 41.95000 31.72000
C  40.72900 42.88800 32.99100
H  39.73800 42.52800 34.07400
N  42.52200 39.04400 26.35900
C  42.98500 38.34400 27.44600
C  43.24400 37.00000 26.98900
C  42.93000 36.94200 25.55100
C  42.55400 38.33500 25.22900
C  43.87100 35.88300 27.92300
C  42.86800 35.76900 24.60400
O  42.62300 35.85200 23.41400
C  43.19800 34.36800 25.01700
N  41.95200 41.17200 24.32100
C  42.15500 40.12100 23.50100
C  42.07700 40.51800 22.01400
C  41.93600 42.04400 22.07100
C  41.86600 42.31700 23.57800
C  43.37700 40.06300 21.32600
C  40.65800 42.51700 21.32100
C  40.62500 43.96200 20.87400
N  41.28600 43.00500 26.38500
C  41.09500 43.90300 25.40400
C  40.84800 45.19800 25.96100
C  40.91200 44.98400 27.27500
C  41.29400 43.65500 27.55400
C  40.65900 46.52900 25.26800
C  40.82800 45.69900 28.54200
O  40.53100 46.88900 28.75400
C  41.12800 44.78800 29.68600
C  42.17000 45.26400 30.61400
O  43.38600 45.14000 30.44000
O  41.57200 46.01600 31.61900
C  42.49000 46.58500 32.57400
H  43.43400 37.97800 29.41300
H  42.20400 38.10000 23.14700
H  41.37300 44.31300 23.24000
H  42.87000 42.67800 31.27500
H  42.27800 39.76000 31.45700
H  44.79200 41.34500 31.41900
H  44.97200 39.81600 30.64200
H  44.48500 39.97900 32.39600
H  40.43100 40.97700 31.95400
H  40.17500 42.39500 31.00100
H  40.43400 43.83500 32.53900
H  41.72200 43.17800 33.33500
H  43.12600 35.10500 28.09600
H  44.40500 36.26500 28.79300
H  44.68300 35.42700 27.35700
H  42.81800 33.68000 24.26100
H  42.71600 34.21500 25.98200
H  44.24400 34.21200 25.28000
H  41.21200 40.03900 21.55700
H  42.76000 42.58100 21.60000
H  43.54800 40.68100 20.44500
H  43.32200 39.02300 21.00400
H  44.21000 39.97400 22.02400
H  39.83900 42.49500 22.04100
H  40.35100 41.85100 20.51500
H  40.33800 44.13500 19.83600
H  41.59200 44.45500 20.97400
H  39.90300 44.54900 21.44200
H  40.45800 46.35200 24.21200
H  41.54600 47.16000 25.33400
H  39.78800 47.05100 25.66500
H  40.26500 44.70800 30.34700
H  42.05100 46.97100 33.49400
H  43.15800 47.30400 32.10000
H  43.10200 45.79000 32.99900

