158

Mg 7.58700 2.55600 27.08700
C  8.86800 1.20800 30.01700
C  5.47800 4.51000 28.99700
C  6.07300 3.63100 24.21300
C  8.97200 -0.13200 25.34600
N  7.06300 2.70900 29.28700
C  7.88300 2.16700 30.24800
C  7.48200 2.76900 31.60800
C  6.22800 3.71000 31.30700
C  6.28300 3.67000 29.77800
C  4.89000 3.06300 31.69700
C  8.64800 3.52400 32.23500
C  8.38500 3.96100 33.67200
H  9.41200 3.58000 34.79100
N  6.05900 3.93700 26.62400
C  5.30300 4.55700 27.55400
C  4.33300 5.44900 26.87900
C  4.61700 5.38200 25.52100
C  5.61700 4.26200 25.38900
C  3.39600 6.35300 27.63000
C  4.18400 6.21200 24.36500
O  4.43100 5.96500 23.19600
C  3.20400 7.37000 24.63900
N  7.46300 1.86300 25.13500
C  6.92000 2.57100 24.14600
C  7.10200 1.86300 22.83800
C  8.22900 0.72500 23.09700
C  8.17800 0.80800 24.64500
C  5.89200 1.32200 22.03400
C  9.59600 1.16500 22.44600
C  10.46400 2.09000 23.27700
N  8.68300 0.86900 27.48800
C  9.23900 -0.05000 26.71900
C  10.26900 -0.75500 27.43300
C  10.08000 -0.27500 28.75100
C  9.13200 0.71000 28.71800
C  11.24900 -1.77500 26.99600
C  10.51800 -0.54400 30.07600
O  11.30000 -1.37300 30.51700
C  9.82100 0.46400 30.95100
C  9.19000 -0.08400 32.14800
O  8.21700 -0.82200 32.25300
O  9.97800 0.26200 33.23800
C  9.43300 -0.06400 34.56800
H  4.96900 5.29100 29.56500
H  5.74100 3.94200 23.22100
H  9.50300 -0.92000 24.80800
H  7.26400 1.95700 32.30100
H  6.55500 4.65800 31.73500
H  4.44800 3.57400 32.55200
H  4.96200 1.99200 31.89200
H  4.14300 2.94400 30.91200
H  8.68900 4.50600 31.76400
H  9.57100 2.94600 32.17500
H  7.38500 3.68700 34.00800
H  8.42200 5.04800 33.74500
H  3.91800 7.30400 27.73700
H  3.31000 5.95600 28.64100
H  2.48300 6.43500 27.04000
H  2.22800 6.93300 24.84800
H  3.25900 8.02400 23.76900
H  3.52500 7.95300 25.50200
H  7.63700 2.52500 22.15600
H  7.89300 -0.25800 22.76400
H  5.06800 1.23700 22.74300
H  5.98200 0.33500 21.58000
H  5.75400 2.11600 21.30000
H  9.38300 1.64400 21.49000
H  10.03000 0.18600 22.24400
H  10.08800 2.23500 24.29000
H  10.57900 3.13400 22.98500
H  11.44100 1.61000 23.33600
H  11.08700 -1.76200 25.91800
H  10.88800 -2.73800 27.35700
H  12.30100 -1.53400 27.15200
H  10.47800 1.26400 31.29100
H  9.35300 -1.14600 34.67800
H  8.41100 0.30000 34.66700
H  10.05300 0.26000 35.40400
Mg 30.96600 58.32500 39.96700
C  28.15300 56.50900 39.16100
C  32.97000 55.89100 38.73900
C  33.55200 60.49500 40.08400
C  28.88700 61.08600 40.91000
N  30.61200 56.50200 38.97300
C  29.35100 55.90100 38.78200
C  29.46400 54.64500 37.93400
C  30.96900 54.26900 38.14800
C  31.60300 55.61400 38.66300
C  31.24000 53.05600 39.19000
C  29.19800 54.84200 36.40300
C  27.97900 54.09500 35.81900
H  27.11900 54.92600 34.95200
N  32.94400 58.12600 39.65600
C  33.56300 57.04400 39.17000
C  35.03700 57.26100 39.17900
C  35.24800 58.59800 39.49500
C  33.90000 59.16200 39.72000
C  35.98900 56.23000 38.69900
C  36.65100 59.21000 39.47300
O  37.73100 58.62700 39.23800
C  36.81300 60.59600 40.00300
N  31.18700 60.59200 40.20500
C  32.37700 61.14800 40.33000
C  32.29700 62.56500 40.88800
C  30.82700 62.64000 41.36400
C  30.21500 61.36000 40.81100
C  33.44800 62.89400 41.93900
C  30.02800 63.91100 40.91400
C  29.37800 64.73900 41.99600
N  28.90400 58.78100 40.03100
C  28.21600 59.91000 40.39300
C  26.84900 59.69800 40.12100
C  26.76500 58.38100 39.73600
C  28.05000 57.82900 39.69800
C  25.80000 60.81700 40.05300
C  25.89100 57.35800 39.38100
O  24.70100 57.44200 39.17000
C  26.70200 56.03300 39.05300
C  26.44500 55.02800 40.15600
O  27.28900 54.60900 40.89300
O  25.18100 54.54400 40.06800
C  24.83200 53.42000 40.90500
H  33.56200 55.00200 38.51100
H  34.42600 61.08700 40.36200
H  28.18800 61.86600 41.21900
H  28.78700 53.87700 38.30900
H  31.28200 53.84900 37.19100
H  30.26600 52.62200 39.41900
H  31.72900 53.37200 40.11200
H  31.85700 52.25100 38.79300
H  30.01800 54.47000 35.78800
H  29.02600 55.87200 36.09200
H  27.38000 53.72800 36.65300
H  28.42500 53.28100 35.24900
H  36.97300 56.59700 38.40900
H  35.58000 55.67100 37.85800
H  36.13900 55.51500 39.50800
H  36.22700 61.37300 39.51100
H  37.83600 60.97500 40.00700
H  36.48600 60.63300 41.04200
H  32.37700 63.25300 40.04600
H  30.89700 62.68500 42.45100
H  33.67900 61.99500 42.51000
H  32.98500 63.65300 42.57000
H  34.37300 63.21200 41.45900
H  29.25800 63.65000 40.18800
H  30.65300 64.66500 40.43600
H  28.34300 64.94000 41.71900
H  29.84100 65.72000 42.10100
H  29.26200 64.25200 42.96500
H  25.40700 61.08200 41.03400
H  25.05000 60.51400 39.32200
H  26.22900 61.76400 39.72400
H  26.57100 55.71200 38.02000
H  25.57200 52.66900 40.62400
H  23.82000 53.10400 40.65300
H  24.87600 53.71600 41.95300

