158

Mg 16.27500 52.51800 26.73600
C  18.26000 51.23900 29.51300
C  14.09600 53.82200 28.88300
C  14.81000 53.62500 24.07200
C  18.52700 50.68800 24.68300
N  16.15200 52.41400 28.86500
C  17.07800 51.95400 29.84700
C  16.58100 52.34100 31.28800
C  15.06000 52.78900 31.03000
C  15.12300 52.99800 29.51300
C  14.03000 51.73600 31.42900
C  17.46300 53.33600 31.98600
C  17.80300 53.18100 33.48600
H  16.70900 52.64500 34.46500
N  14.59100 53.54300 26.54600
C  13.87800 54.11400 27.53400
C  12.89100 54.99200 26.88300
C  13.10100 54.92100 25.45500
C  14.19900 53.94200 25.29400
C  11.92400 55.81700 27.74600
C  12.29800 55.62600 24.39600
O  12.32400 55.33900 23.17300
C  11.36900 56.72700 24.71300
N  16.84500 52.40200 24.67000
C  15.96100 52.94800 23.78800
C  16.44200 52.75200 22.32900
C  17.72100 51.83000 22.55300
C  17.72200 51.58700 24.05400
C  15.35100 52.29600 21.20400
C  19.08800 52.36600 22.06400
C  20.08700 51.36400 21.69500
N  18.00000 51.25200 27.02700
C  18.71000 50.46600 26.03500
C  19.85700 49.73700 26.60400
C  19.65900 49.95200 28.00500
C  18.56800 50.86200 28.16200
C  20.95200 49.04200 25.89000
C  20.20100 49.69900 29.36400
O  21.20400 49.06500 29.70800
C  19.36900 50.62600 30.32100
C  18.83800 49.73900 31.40100
O  17.72800 49.16200 31.44900
O  19.84400 49.57000 32.31200
C  19.59700 48.76100 33.49000
H  13.40900 54.21100 29.63700
H  14.31800 54.01200 23.17700
H  19.13200 50.18300 23.92700
H  16.51600 51.44000 31.89800
H  14.94000 53.78400 31.45900
H  13.49400 52.24600 32.22900
H  14.37800 50.73900 31.70000
H  13.31700 51.63600 30.61100
H  17.15000 54.36300 31.79500
H  18.45100 53.13300 31.57200
H  17.98800 54.17900 33.88300
H  18.70200 52.57100 33.58100
H  12.09700 56.88100 27.58600
H  12.20200 55.72300 28.79500
H  10.89300 55.56800 27.49600
H  10.64100 56.38200 25.44600
H  10.95600 57.21100 23.82800
H  11.94700 57.50500 25.21200
H  16.77400 53.76100 22.08500
H  17.60700 50.81500 22.17300
H  14.35400 52.57400 21.54600
H  15.51400 51.23500 21.01300
H  15.44900 52.89000 20.29600
H  19.51000 52.83000 22.95500
H  19.05200 53.05600 21.22200
H  20.84800 51.17300 22.45200
H  20.59500 51.71700 20.79800
H  19.49500 50.50500 21.37800
H  21.06200 49.53600 24.92500
H  20.67500 47.99200 25.78700
H  21.87800 49.09100 26.46200
H  19.95100 51.32200 30.92400
H  19.26300 47.78300 33.14300
H  18.80000 49.31900 33.98200
H  20.41200 48.55200 34.18300
Mg -12.27300 16.34700 41.26400
C  -8.85100 15.34900 40.57900
C  -11.54800 19.36000 39.70400
C  -15.49400 16.88600 41.13500
C  -12.93500 12.90900 42.09000
N  -10.40000 17.18400 40.19200
C  -9.11800 16.64000 40.32000
C  -8.07400 17.72400 39.83500
C  -8.99700 19.06500 39.61800
C  -10.40500 18.54500 39.80700
C  -8.73400 20.25700 40.48500
C  -7.35800 17.33800 38.50100
C  -5.92300 17.75800 38.23400
H  -5.65500 18.66500 37.02000
N  -13.34200 17.91500 40.62800
C  -12.89900 19.07400 39.96900
C  -14.11700 19.94100 39.69400
C  -15.24200 19.19600 40.09400
C  -14.72300 17.94800 40.66900
C  -14.02600 21.19800 38.97900
C  -16.81400 19.69700 39.93700
O  -17.08700 20.72700 39.35600
C  -17.99600 18.90900 40.47100
N  -13.97300 15.03400 41.71900
C  -15.16500 15.65100 41.62300
C  -16.30500 14.61500 42.03800
C  -15.49000 13.37200 42.52500
C  -14.06200 13.72900 42.06000
C  -17.47000 15.07000 42.98900
C  -15.85400 12.01600 41.90200
C  -15.71200 11.78200 40.38000
N  -11.14800 14.51000 41.37100
C  -11.60100 13.25500 41.82200
C  -10.47000 12.38200 41.78200
C  -9.35100 13.20300 41.37400
C  -9.79200 14.45900 41.06300
C  -10.51800 11.02300 42.24000
C  -7.90000 13.14200 41.17400
O  -7.10400 12.26700 41.39200
C  -7.52900 14.62200 40.67900
C  -6.60400 15.32100 41.66200
O  -6.69200 15.21500 42.84200
O  -5.55700 15.94100 40.98700
C  -4.60500 16.60400 41.89100
H  -11.34800 20.35400 39.29900
H  -16.58200 16.95500 41.19900
H  -13.09900 11.85600 42.32900
H  -7.37500 17.81300 40.66600
H  -8.74400 19.42600 38.62100
H  -9.26700 21.15900 40.18500
H  -7.65600 20.36200 40.36300
H  -8.85600 20.10600 41.55700
H  -7.81000 17.73600 37.59300
H  -7.39000 16.25800 38.36000
H  -5.24700 16.91500 38.09100
H  -5.59900 18.28300 39.13200
H  -13.01700 21.55000 38.76500
H  -14.66300 21.97700 39.39800
H  -14.46200 20.88600 38.03000
H  -18.88800 19.44800 40.15400
H  -17.98000 18.90300 41.56100
H  -18.01600 17.88900 40.08800
H  -16.75900 14.33200 41.08900
H  -15.53900 13.30300 43.61100
H  -18.40000 14.84600 42.46700
H  -17.53100 16.11700 43.28800
H  -17.40500 14.39100 43.84000
H  -16.91600 12.12900 42.12000
H  -15.53100 11.06000 42.31500
H  -16.66700 12.07000 39.94000
H  -15.54400 10.72600 40.16800
H  -14.94600 12.39600 39.90600
H  -10.84600 10.35600 41.44300
H  -11.22000 11.08300 43.07200
H  -9.51400 10.67300 42.48000
H  -7.04200 14.40600 39.72800
H  -3.97000 15.90000 42.42800
H  -5.16900 17.31600 42.49300
H  -3.90300 17.23000 41.34100

