158

Mg 46.26500 25.76500 28.26300
C  47.37800 27.90600 30.88000
C  44.89200 23.72700 30.59900
C  45.38500 23.88900 25.79400
C  47.62500 28.12400 26.03800
N  46.17600 25.82200 30.51800
C  46.70500 26.79300 31.34600
C  46.20400 26.53600 32.76200
C  45.76600 25.02500 32.78700
C  45.52900 24.84500 31.17900
C  47.05600 24.17400 33.17400
C  45.12200 27.59000 33.18300
C  45.54100 28.29000 34.49700
H  44.60400 28.44300 35.71900
N  45.41300 23.93900 28.19900
C  44.88500 23.26800 29.24200
C  44.25200 22.02900 28.79600
C  44.41900 21.99200 27.34400
C  45.05400 23.33500 27.03800
C  43.70300 20.92600 29.74200
C  43.97500 20.96000 26.33400
O  44.16400 21.14300 25.15600
C  43.22800 19.84800 26.73700
N  46.39800 26.08100 26.20200
C  45.97900 25.11800 25.39700
C  46.68400 25.28800 23.98900
C  47.15600 26.75700 23.94800
C  47.02000 27.03000 25.46200
C  47.75300 24.15800 23.63200
C  46.27400 27.77600 23.11400
C  47.13000 28.48500 22.02700
N  47.30900 27.53800 28.35200
C  47.79200 28.40200 27.37700
C  48.63600 29.45700 27.89300
C  48.39700 29.31900 29.24700
C  47.56300 28.15200 29.50900
C  49.32200 30.59900 27.15400
C  48.57100 30.05500 30.52900
O  49.13100 31.11500 30.78300
C  47.92400 29.13300 31.66100
C  49.04900 28.77700 32.55000
O  50.05100 28.23200 32.24400
O  48.65700 28.95500 33.86200
C  49.57900 28.48400 34.91900
H  44.54400 23.03100 31.36500
H  45.28300 23.15000 24.99600
H  48.00200 28.88400 25.35000
H  46.98800 26.58900 33.51800
H  44.86700 24.85100 33.38000
H  46.76700 23.40400 33.89000
H  47.91100 24.62800 33.67600
H  47.38800 23.66100 32.27200
H  44.10900 27.23200 33.37100
H  45.16300 28.38000 32.43300
H  45.63800 29.33100 34.19100
H  46.52900 27.96200 34.82100
H  42.80000 20.43200 29.38600
H  43.38800 21.23000 30.74100
H  44.45500 20.15500 29.91100
H  43.75400 19.22800 27.46300
H  42.84300 19.22700 25.92800
H  42.30600 20.27300 27.13400
H  45.85400 25.22400 23.28600
H  48.22600 26.83200 23.75400
H  47.80800 23.50100 24.50000
H  48.72000 24.55500 23.32400
H  47.34900 23.63900 22.76200
H  45.85800 28.51400 23.79900
H  45.50500 27.26000 22.53900
H  46.75200 29.50700 22.04100
H  46.87300 28.08800 21.04500
H  48.21500 28.43900 22.12200
H  48.99800 30.60000 26.11400
H  50.38400 30.36300 27.22400
H  49.28000 31.53800 27.70600
H  47.18700 29.86400 31.99500
H  50.29000 29.26800 35.18000
H  50.06700 27.52300 34.75100
H  48.95100 28.32900 35.79600
Mg 29.93400 58.72600 40.44900
C  26.89000 57.00000 39.78900
C  31.63900 56.15200 39.13700
C  32.61000 60.77100 40.45300
C  27.97700 61.53700 41.44000
N  29.30000 56.81400 39.51700
C  28.03000 56.35400 39.28900
C  28.05200 55.00200 38.59000
C  29.61200 54.57900 38.57500
C  30.26600 55.94400 39.11700
C  30.02400 53.27500 39.42100
C  27.36000 55.00500 37.18100
C  27.49600 56.19700 36.24700
H  28.09800 55.94100 34.79700
N  31.85900 58.43800 40.03700
C  32.41900 57.31300 39.57100
C  33.80300 57.33100 39.49900
C  34.14700 58.69200 39.86900
C  32.87600 59.39700 40.22900
C  34.74200 56.16700 39.13900
C  35.59800 59.20500 39.80000
O  36.54100 58.50300 39.38900
C  35.84600 60.64200 40.24100
N  30.23200 60.85700 40.85700
C  31.47300 61.43200 40.79900
C  31.50900 62.92200 41.22000
C  30.02400 63.11200 41.66600
C  29.34200 61.75200 41.32100
C  32.54800 63.04500 42.42600
C  29.41400 64.39900 40.91200
C  28.69100 65.43500 41.70500
N  27.86800 59.24400 40.56700
C  27.22900 60.40100 41.05800
C  25.82000 60.23600 40.99600
C  25.57000 58.87200 40.69600
C  26.88400 58.33100 40.37300
C  24.82400 61.26600 41.37600
C  24.53600 57.84900 40.45300
O  23.35000 57.87300 40.47300
C  25.36700 56.57200 39.81600
C  25.11900 55.28500 40.69100
O  25.03900 55.23500 41.91700
O  25.01000 54.14300 39.81900
C  24.88100 52.87100 40.54200
H  32.11700 55.28800 38.67000
H  33.43700 61.47500 40.33500
H  27.36600 62.38100 41.76500
H  27.50100 54.30700 39.22400
H  29.93900 54.39400 37.55200
H  29.06500 52.93700 39.81300
H  30.76800 53.37000 40.21300
H  30.56500 52.53100 38.83600
H  26.29600 54.78200 37.25600
H  27.63200 54.08500 36.66300
H  28.08700 57.01900 36.65000
H  26.51100 56.66300 36.19500
H  35.40200 55.81900 39.93400
H  35.43900 56.51700 38.37700
H  34.29600 55.37100 38.54300
H  35.26600 61.19600 39.50200
H  36.88100 60.98100 40.28900
H  35.42400 60.74800 41.24000
H  31.83100 63.53600 40.37900
H  29.98800 63.29600 42.74000
H  32.80700 62.03800 42.75100
H  32.04500 63.50600 43.27600
H  33.37400 63.66900 42.08400
H  28.72400 63.98300 40.17800
H  30.13400 64.96000 40.31700
H  27.62600 65.43400 41.47100
H  29.09600 66.43900 41.57500
H  28.70700 65.20700 42.77100
H  24.77300 61.83100 40.44500
H  25.03300 61.88000 42.25200
H  23.81300 60.87300 41.48500
H  24.99100 56.27800 38.83600
H  25.84900 52.37300 40.47600
H  24.23800 52.28000 39.88900
H  24.44600 53.01600 41.53000

