158

Mg 25.40900 1.54400 30.74400
C  27.59300 1.37300 33.45800
C  22.74600 1.97000 33.03500
C  23.21000 1.45500 28.11300
C  28.05800 0.83900 28.63400
N  25.15500 1.63800 32.98500
C  26.21000 1.69800 33.81300
C  25.71600 1.96000 35.22900
C  24.17400 2.13200 35.16500
C  24.00000 2.01700 33.63000
C  23.35000 0.95800 35.80200
C  26.47800 3.15600 35.92800
C  27.34200 2.87900 37.10200
H  27.18600 3.84200 38.27400
N  23.30100 1.65200 30.58500
C  22.39400 1.85000 31.59800
C  21.03300 1.93700 31.10200
C  21.17200 1.83200 29.66200
C  22.57600 1.65700 29.40300
C  19.78500 2.26600 31.91900
C  20.14100 1.85800 28.59700
O  20.26900 1.68700 27.38900
C  18.75100 1.93600 29.02400
N  25.57600 1.09000 28.70900
C  24.57400 1.18800 27.79900
C  25.13500 1.17100 26.34300
C  26.65000 1.09200 26.51200
C  26.83000 1.06600 28.02400
C  24.57800 -0.03100 25.61500
C  27.44600 2.22800 25.84500
C  28.46900 1.65500 24.87700
N  27.40900 1.14000 30.95500
C  28.35500 0.85800 30.00700
C  29.59200 0.56000 30.62000
C  29.28800 0.75300 31.99200
C  27.95800 1.07200 32.13500
C  30.97800 0.22200 30.06200
C  29.96600 0.73400 33.32400
O  31.12700 0.38600 33.56900
C  28.80900 1.10400 34.30700
C  28.67300 0.02900 35.28500
O  27.96800 -0.96500 35.14200
O  29.45000 0.23600 36.36300
C  29.18800 -0.71300 37.48500
H  22.00400 2.47300 33.65900
H  22.63400 1.68900 27.21600
H  28.98700 0.82800 28.05900
H  26.00200 1.02900 35.71900
H  23.92700 3.15000 35.46800
H  22.94700 0.28700 35.04300
H  22.50400 1.40600 36.32300
H  23.93700 0.39700 36.52900
H  25.79200 3.94300 36.24100
H  27.12100 3.56500 35.14900
H  28.36200 2.96000 36.72500
H  27.29100 1.88200 37.53900
H  19.77800 3.35000 32.03900
H  19.89100 1.88500 32.93500
H  18.84700 1.80200 31.61400
H  18.62500 1.01000 29.58500
H  18.13100 1.99700 28.13000
H  18.68300 2.82500 29.65200
H  24.81500 2.06000 25.80000
H  26.97200 0.09600 26.20900
H  24.40800 -0.89100 26.26300
H  25.28900 -0.28200 24.82800
H  23.71700 0.36500 25.07700
H  27.89600 2.78800 26.66500
H  26.79000 2.88400 25.27200
H  28.87800 0.69300 25.18500
H  29.30200 2.32400 25.08900
H  28.16700 1.66200 23.83000
H  31.19600 0.98200 29.31200
H  31.02700 -0.76500 29.60100
H  31.79500 0.18100 30.78300
H  29.21500 2.01700 34.74300
H  28.96200 -1.74800 37.22900
H  28.38100 -0.26400 38.06300
H  30.06200 -0.69400 38.13500
Mg 47.38000 25.41700 29.02200
C  47.91000 28.00900 31.35200
C  46.00800 23.58000 31.51100
C  47.01600 23.10100 26.77700
C  48.94500 27.51600 26.53300
N  47.01500 25.73700 31.20200
C  47.35000 26.88500 31.96500
C  46.83100 26.76800 33.38300
C  46.42500 25.28100 33.44700
C  46.47800 24.81400 31.96600
C  47.16900 24.38500 34.48500
C  45.72600 27.85400 33.81900
C  45.89900 28.33500 35.30400
H  46.73100 27.49400 36.31500
N  46.58100 23.61800 29.11600
C  46.10000 23.00100 30.26100
C  45.65900 21.66800 29.92000
C  45.95300 21.45300 28.49400
C  46.57800 22.70300 28.09700
C  44.96700 20.71800 30.91200
C  45.75500 20.27400 27.62200
O  46.24800 20.19200 26.50000
C  44.94600 19.13900 28.15800
N  47.77300 25.41100 26.85500
C  47.53100 24.24800 26.14900
C  48.02000 24.26700 24.64800
C  48.42400 25.85300 24.63800
C  48.40000 26.32400 26.04400
C  49.22600 23.30000 24.43500
C  47.60300 26.72100 23.62500
C  48.45600 27.40900 22.57500
N  48.23600 27.41400 28.82900
C  48.82600 28.13400 27.80300
C  49.18600 29.50400 28.25600
C  48.75700 29.52000 29.63300
C  48.25000 28.19900 29.96200
C  49.97100 30.67100 27.49900
C  48.68700 30.30600 30.85500
O  49.07200 31.45300 31.08900
C  48.34300 29.29700 32.06100
C  49.67600 29.12000 32.74800
O  50.70000 28.91000 32.15100
O  49.45300 29.05700 34.13000
C  50.55900 28.70900 34.88600
H  45.61000 22.94400 32.30500
H  46.91300 22.30900 26.03200
H  49.14700 28.23700 25.73800
H  47.73100 27.02800 33.94000
H  45.36600 25.33600 33.70000
H  46.42200 23.90800 35.12000
H  47.91500 24.96600 35.02700
H  47.69000 23.56400 33.99400
H  44.72000 27.48000 33.62600
H  45.76700 28.76600 33.22400
H  44.90600 28.29000 35.75100
H  46.30600 29.34300 35.22200
H  43.90900 20.58300 30.68500
H  44.90600 21.09600 31.93200
H  45.43300 19.73400 30.87900
H  45.27500 18.80800 29.14300
H  45.07700 18.24400 27.55000
H  43.89300 19.40800 28.23800
H  47.19400 24.11400 23.95400
H  49.49400 25.93400 24.45100
H  49.28600 22.66200 25.31600
H  50.14400 23.88600 24.48600
H  49.15000 22.76800 23.48600
H  47.16100 27.54000 24.19300
H  46.88500 25.97600 23.28100
H  49.51300 27.14100 22.56700
H  48.46200 28.48700 22.73000
H  48.19400 27.18500 21.54000
H  49.49100 31.56500 27.89700
H  49.94300 30.52400 26.41900
H  50.98600 30.86100 27.84700
H  47.62700 29.76200 32.73900
H  50.97600 29.63200 35.29000
H  51.42000 28.26100 34.39100
H  50.31500 27.99100 35.66800

