158

Mg 46.83600 16.65300 27.40900
C  45.01000 16.51000 30.41100
C  49.18900 18.43000 28.99600
C  48.32100 16.94500 24.40700
C  44.21800 15.00900 25.81500
N  46.91700 17.62000 29.51600
C  46.19700 17.22000 30.62200
C  46.88400 17.65400 31.91900
C  48.19100 18.50800 31.36500
C  48.14600 18.15300 29.91300
C  48.15700 19.98500 31.64100
C  47.33500 16.45700 32.73300
C  47.06300 16.56500 34.20700
H  47.05200 18.00700 34.82100
N  48.48400 17.64100 26.76900
C  49.39900 18.33400 27.58200
C  50.50600 18.75400 26.72100
C  50.21300 18.33800 25.40500
C  48.96700 17.63400 25.53400
C  51.64900 19.59800 27.29700
C  50.98400 18.62400 24.09500
O  50.70700 18.26500 22.96400
C  52.18400 19.48700 24.26200
N  46.37600 15.94200 25.36800
C  47.20400 16.14300 24.33700
C  46.67300 15.49000 23.01100
C  45.26300 14.88100 23.52500
C  45.30200 15.18800 25.03700
C  46.46600 16.66400 21.96100
C  45.01300 13.39500 23.09100
C  44.23500 13.26500 21.79600
N  45.05800 15.80300 28.00600
C  44.01400 15.27500 27.22100
C  42.85100 14.91000 28.02100
C  43.24000 15.44000 29.31400
C  44.56100 15.95700 29.17600
C  41.72400 14.08700 27.59800
C  42.82500 15.54600 30.72200
O  41.77500 15.14100 31.22200
C  44.05100 16.12000 31.46600
C  43.56300 17.20800 32.32100
O  43.16000 18.31400 31.99300
O  43.54300 16.68300 33.60300
C  42.68000 17.48900 34.46000
H  49.96100 18.92700 29.58600
H  48.86300 17.08100 23.46800
H  43.31200 14.63200 25.33600
H  46.29400 18.33600 32.53100
H  49.11700 18.13600 31.80300
H  49.05200 20.20600 32.22100
H  47.28500 20.27200 32.22900
H  48.17900 20.50300 30.68200
H  48.39900 16.22200 32.71100
H  46.81600 15.60400 32.29400
H  47.82100 15.98700 34.73600
H  46.18500 15.93800 34.36700
H  52.60900 19.12800 27.08500
H  51.66200 19.62800 28.38600
H  51.66000 20.60500 26.88100
H  51.88900 20.38300 24.80900
H  52.51000 19.92900 23.32000
H  52.99800 18.95900 24.75900
H  47.44200 14.79500 22.67400
H  44.45600 15.43300 23.04400
H  46.47700 17.63500 22.45600
H  45.46500 16.50600 21.55900
H  47.16300 16.59100 21.12600
H  44.45300 12.97100 23.92500
H  45.97800 12.89000 23.07100
H  44.90700 12.73300 21.12300
H  44.07800 14.21400 21.28400
H  43.29200 12.74200 21.95400
H  41.98200 13.07300 27.29500
H  41.29500 14.54400 26.70600
H  41.05700 14.08300 28.46000
H  44.56600 15.40100 32.10300
H  42.94500 18.54300 34.37200
H  42.63000 17.05400 35.45800
H  41.70800 17.45200 33.96700
Mg 49.70000 46.39000 43.34300
C  46.57700 47.20500 42.39500
C  49.44200 43.29500 41.73700
C  53.05800 45.86900 43.82100
C  50.21400 49.72600 44.42200
N  48.19100 45.47300 42.11700
C  47.00600 45.99300 41.89000
C  46.11800 45.09200 40.93700
C  46.98500 43.75200 40.94000
C  48.24500 44.13400 41.66700
C  46.28100 42.60700 41.76600
C  45.84300 45.69400 39.54500
C  44.41500 45.32000 38.93000
H  44.46500 44.27700 37.77200
N  51.08500 44.68700 42.93600
C  50.73900 43.53900 42.25700
C  51.80300 42.58800 42.32400
C  52.89200 43.23500 43.05800
C  52.36900 44.66900 43.33600
C  51.76500 41.29000 41.69600
C  54.24100 42.61800 43.36400
O  54.51100 41.47800 43.04000
C  55.27600 43.41400 44.02200
N  51.34200 47.61200 44.02500
C  52.63700 47.15800 44.16700
C  53.61500 48.26400 44.60000
C  52.63600 49.38300 45.02000
C  51.28700 48.87900 44.42500
C  54.64600 47.79300 45.76400
C  53.06000 50.80300 44.49700
C  52.71500 52.02000 45.37900
N  48.57100 48.10600 43.61100
C  48.85900 49.37300 44.05700
C  47.68200 50.20200 43.95700
C  46.75500 49.38900 43.36400
C  47.33300 48.11300 43.10800
C  47.43800 51.60500 44.50000
C  45.33700 49.27000 43.06200
O  44.39500 50.00500 43.32900
C  45.21300 47.86300 42.31300
C  44.13600 47.09800 42.90100
O  43.94900 46.92400 44.12000
O  43.31000 46.70700 41.91200
C  42.12100 46.04100 42.25200
H  49.38300 42.30000 41.29100
H  54.04100 45.65700 44.24500
H  50.40200 50.75100 44.74800
H  45.15900 44.83700 41.38900
H  47.21900 43.33300 39.96100
H  46.29900 41.71600 41.14000
H  45.25600 42.92300 41.95700
H  46.65700 42.38700 42.76500
H  46.67100 45.43900 38.88400
H  45.84200 46.77400 39.69200
H  43.91900 46.25300 38.66300
H  43.80400 44.90100 39.73000
H  52.64400 41.14400 41.06800
H  50.92300 41.06900 41.04100
H  51.74400 40.50500 42.45200
H  56.04500 42.71700 44.35400
H  54.74700 43.79500 44.89500
H  55.59700 44.24200 43.39000
H  54.14000 48.54500 43.68700
H  52.61300 49.41400 46.10900
H  54.65100 46.76300 46.12100
H  54.54400 48.46000 46.61900
H  55.65700 47.95100 45.38900
H  52.41100 50.85000 43.62200
H  54.12200 50.85400 44.25700
H  52.32900 51.67000 46.33700
H  51.92400 52.56000 44.85900
H  53.63500 52.58400 45.52600
H  47.77600 52.28200 43.71500
H  47.97000 51.71600 45.44600
H  46.41000 51.84700 44.76700
H  45.00600 48.25200 41.31600
H  42.29000 44.96500 42.29800
H  41.29000 46.09500 41.54800
H  41.60700 46.37500 43.15400

