158

Mg 2.27100 -1.75800 44.51600
C  5.39800 -0.74700 43.76400
C  0.99700 0.93000 42.71100
C  -0.87200 -3.25000 44.74100
C  3.59300 -4.71200 46.11700
N  3.08000 -0.14700 43.21200
C  4.42600 0.10000 43.17100
C  4.72400 1.34600 42.35100
C  3.27600 2.03900 42.25400
C  2.38300 0.87100 42.71800
C  3.19800 3.43200 43.11000
C  5.38500 0.93300 40.97000
C  6.21100 2.06600 40.39000
H  6.71400 1.92100 38.92000
N  0.35000 -1.25400 43.84000
C  0.03700 -0.08300 43.16600
C  -1.35500 -0.09200 42.86600
C  -1.92300 -1.29000 43.43900
C  -0.80700 -2.00300 44.04800
C  -2.01700 0.98800 41.95800
C  -3.41200 -1.59400 43.37800
O  -4.22800 -0.72200 43.01800
C  -3.99000 -2.88500 43.91200
N  1.46200 -3.76100 45.26200
C  0.13600 -4.03600 45.26600
C  -0.09000 -5.41900 45.94800
C  1.30200 -5.83500 46.57900
C  2.22000 -4.79300 45.91200
C  -1.27900 -5.58700 46.93000
C  1.70000 -7.32200 46.35500
C  2.18700 -8.10100 47.61600
N  4.10400 -2.63200 44.93500
C  4.48100 -3.73600 45.59800
C  5.97300 -3.72000 45.67900
C  6.37700 -2.56700 45.01500
C  5.21700 -1.95900 44.49700
C  6.77400 -4.73700 46.38700
C  7.45800 -1.80200 44.69500
O  8.70100 -1.85300 44.82100
C  6.88700 -0.48800 44.03600
C  6.91100 0.61300 45.05300
O  6.18400 0.75400 46.02700
O  7.93700 1.45400 44.69900
C  7.89700 2.72700 45.40900
H  0.58700 1.80600 42.20400
H  -1.81500 -3.80000 44.76900
H  4.00500 -5.56200 46.66300
H  5.43400 2.03600 42.80700
H  3.02000 2.38600 41.25300
H  4.20300 3.74100 43.39700
H  2.63000 3.22800 44.01800
H  2.64800 4.19600 42.56100
H  4.50700 0.86000 40.32700
H  5.97300 0.01500 40.96500
H  7.16200 2.11400 40.92200
H  5.67800 3.01000 40.50800
H  -1.25600 1.65200 41.54800
H  -2.77100 1.54900 42.51100
H  -2.42200 0.58000 41.03200
H  -5.07800 -2.93200 43.87600
H  -3.74700 -2.90000 44.97500
H  -3.52900 -3.76200 43.45700
H  -0.29600 -6.15000 45.16600
H  1.26500 -5.57500 47.63700
H  -2.11600 -4.90400 46.78500
H  -1.05200 -5.64300 47.99500
H  -1.69700 -6.58300 46.77800
H  2.49600 -7.26100 45.61300
H  0.84100 -7.85700 45.94900
H  2.51400 -7.37800 48.36300
H  2.95900 -8.79700 47.28700
H  1.38500 -8.71200 48.03000
H  7.13900 -5.65800 45.93100
H  6.20200 -5.07100 47.25300
H  7.69100 -4.27500 46.75400
H  7.40400 -0.22700 43.11300
H  8.40900 3.47000 44.79700
H  8.43400 2.57900 46.34600
H  6.93800 3.23300 45.51400
Mg 5.33300 54.42400 41.20600
C  4.98300 50.87200 41.04500
C  8.52400 54.12200 40.29300
C  5.41400 57.79600 41.00700
C  2.01700 54.60800 42.19300
N  6.47400 52.64600 40.46300
C  6.26200 51.31000 40.61600
C  7.50400 50.50900 40.42500
C  8.64100 51.56600 40.42600
C  7.83600 52.85200 40.42800
C  9.71800 51.44400 41.55900
C  7.62500 49.50900 39.32200
C  6.97600 49.94700 38.01900
H  7.91700 50.37100 36.97100
N  6.73300 55.86300 40.65800
C  8.03800 55.48700 40.39200
C  8.75700 56.65900 40.02400
C  7.89700 57.76100 40.22400
C  6.62400 57.18400 40.64200
C  10.18700 56.62600 39.48600
C  8.19000 59.28400 40.08700
O  9.28200 59.81300 39.84100
C  7.04700 60.23400 40.00700
N  3.93300 55.99500 41.63900
C  4.23000 57.29800 41.58000
C  3.06700 58.23200 41.83000
C  1.99000 57.21400 42.35500
C  2.63000 55.86400 42.15400
C  3.40300 59.47200 42.72200
C  0.58300 57.32500 41.70000
C  -0.05300 58.72800 41.84500
N  3.73800 53.10300 41.37900
C  2.45100 53.32800 41.87800
C  1.75400 52.05700 42.12000
C  2.68200 51.05100 41.81500
C  3.87600 51.74500 41.32700
C  0.44900 51.90700 42.89200
C  3.03700 49.72700 41.98200
O  2.38400 48.92500 42.60400
C  4.49300 49.52700 41.36100
C  4.42400 48.55600 40.34600
O  4.06500 48.82600 39.19700
O  4.79100 47.28800 40.78100
C  4.83800 46.24100 39.71500
H  9.56300 54.08800 39.95900
H  5.33800 58.88500 41.01600
H  0.97900 54.68900 42.52300
H  7.63400 49.94300 41.34800
H  9.28200 51.68000 39.55200
H  9.78300 52.34600 42.16600
H  10.62400 51.34100 40.96100
H  9.54900 50.58400 42.20800
H  7.30900 48.52400 39.66400
H  8.69500 49.31700 39.23900
H  6.23300 50.72900 38.17300
H  6.36900 49.11100 37.67200
H  10.12800 56.51400 38.40300
H  10.69200 55.71400 39.80300
H  10.75700 57.50500 39.78800
H  6.21100 59.81700 39.44400
H  7.25100 61.06800 39.33600
H  6.99300 60.57800 41.04000
H  2.63600 58.52600 40.87300
H  1.94900 57.47100 43.41400
H  3.10400 60.36500 42.17300
H  4.45000 59.58000 43.00700
H  2.83200 59.46500 43.65000
H  -0.18100 56.63000 42.04700
H  0.69600 57.27800 40.61700
H  -0.90800 58.65500 42.51700
H  -0.34300 59.13900 40.87800
H  0.55700 59.50600 42.30600
H  -0.22100 52.72500 42.62800
H  0.60100 52.07700 43.95800
H  0.08800 50.88100 42.82000
H  5.15600 49.21400 42.16700
H  5.81100 46.27300 39.22500
H  4.21700 46.55900 38.87800
H  4.51200 45.27900 40.10900

