158

Mg 48.36700 35.78100 28.11000
C  46.28800 34.02700 30.39900
C  48.66900 38.18700 30.32100
C  49.93500 37.47700 25.64800
C  47.39000 33.38200 25.69100
N  47.59200 36.00900 30.02500
C  46.89900 35.14600 30.79200
C  46.83000 35.64800 32.19700
C  47.12000 37.18400 32.10200
C  47.84000 37.15900 30.72600
C  45.84500 38.15000 32.18000
C  47.67400 34.81200 33.25600
C  48.68400 35.60800 34.18400
H  48.21500 36.66600 35.21100
N  49.32900 37.51900 28.06900
C  49.39400 38.38100 29.15300
C  50.16300 39.48300 28.81200
C  50.59700 39.32800 27.43400
C  49.95100 38.07400 26.95400
C  50.37400 40.66800 29.71400
C  51.36400 40.31800 26.52400
O  51.63900 40.01200 25.34700
C  51.92900 41.69700 26.92900
N  48.51500 35.47100 26.01600
C  49.26400 36.34700 25.19300
C  49.49300 35.80600 23.71500
C  48.96300 34.33200 23.96700
C  48.20900 34.43900 25.30300
C  48.83000 36.69800 22.60000
C  50.06100 33.27200 23.91400
C  49.70400 31.92400 23.27600
N  47.07600 34.06900 28.00400
C  46.77000 33.19500 26.93900
C  45.82800 32.15700 27.35500
C  45.51000 32.48700 28.68600
C  46.39700 33.58800 29.02700
C  45.35500 31.04100 26.36700
C  44.70900 32.17900 29.82400
O  43.92400 31.30700 30.10300
C  45.09700 33.22900 30.89300
C  45.32200 32.62200 32.21000
O  46.23300 31.87800 32.52400
O  44.36200 33.04900 33.09700
C  44.43500 32.63900 34.52900
H  48.70000 39.06200 30.97400
H  50.50100 37.98500 24.86400
H  47.15200 32.71100 24.86300
H  45.81700 35.49500 32.56900
H  47.82800 37.57400 32.83300
H  44.91500 37.61100 32.35600
H  45.72000 38.62900 31.20800
H  45.91100 38.98000 32.88300
H  48.14100 33.92900 32.82100
H  46.90500 34.35100 33.87600
H  49.44700 36.04200 33.53800
H  49.29700 34.87300 34.70400
H  50.10800 40.63200 30.77100
H  49.81500 41.47400 29.23800
H  51.42800 40.86000 29.91700
H  51.14200 42.44300 27.03900
H  52.52400 42.04400 26.08400
H  52.48700 41.58500 27.85900
H  50.55800 35.83100 23.48700
H  48.22000 34.03000 23.22900
H  49.49600 36.91900 21.76600
H  48.52500 37.64900 23.03600
H  47.94700 36.22400 22.17100
H  50.42400 33.10500 24.92800
H  50.80500 33.79100 23.31000
H  50.35600 31.74400 22.42200
H  48.71400 31.87600 22.82100
H  49.87400 31.11700 23.98900
H  44.49000 30.49000 26.73500
H  46.15900 30.32000 26.21900
H  45.18400 31.37000 25.34200
H  44.28400 33.95500 30.91500
H  45.47600 32.50700 34.82600
H  43.88100 31.76800 34.87900
H  43.92700 33.42600 35.08600
Mg -12.09900 16.96300 40.63000
C  -8.92400 15.51700 39.96800
C  -10.79500 19.91700 39.59400
C  -15.19600 18.22400 40.72700
C  -13.28700 13.71900 41.27500
N  -10.10100 17.65800 39.82700
C  -8.96500 16.90200 39.68000
C  -7.79200 17.72500 39.11900
C  -8.34600 19.17600 39.24100
C  -9.82100 18.91800 39.64400
C  -7.49100 20.15800 40.06500
C  -7.45900 17.26500 37.65000
C  -6.05300 17.52200 37.08400
H  -6.11200 17.85800 35.57200
N  -12.91000 18.79100 40.14400
C  -12.14900 19.91300 39.78400
C  -13.08300 21.02500 39.66900
C  -14.39200 20.58900 40.05800
C  -14.19600 19.15500 40.31700
C  -12.53000 22.42600 39.25700
C  -15.65400 21.48400 40.09100
O  -15.60700 22.68100 39.84200
C  -16.92900 20.95800 40.58900
N  -13.97800 16.09000 40.81400
C  -15.13000 16.88000 40.96800
C  -16.32000 15.92200 41.37700
C  -15.63400 14.63600 41.89900
C  -14.24600 14.77600 41.29000
C  -17.44900 16.46200 42.37300
C  -16.36600 13.24200 41.53300
C  -16.66700 12.16400 42.57700
N  -11.28000 14.99800 40.63200
C  -11.89300 13.77800 40.97500
C  -10.90700 12.70800 40.96000
C  -9.71600 13.30800 40.48500
C  -9.99900 14.68700 40.39200
C  -11.19500 11.35100 41.24800
C  -8.34900 13.09200 40.11700
O  -7.81000 11.99300 39.90800
C  -7.78500 14.45900 39.83900
C  -6.71000 14.73900 40.75700
O  -6.84300 15.00500 41.93000
O  -5.48500 14.49400 40.18200
C  -4.23600 14.72500 40.83300
H  -10.34700 20.90100 39.44500
H  -16.23000 18.54500 40.87400
H  -13.70900 12.81000 41.70800
H  -6.83300 17.55900 39.61000
H  -8.53800 19.58900 38.25100
H  -6.63000 19.64400 40.49200
H  -8.06000 20.57100 40.89900
H  -7.11000 20.94600 39.41600
H  -8.17300 17.85600 37.07700
H  -7.68100 16.20900 37.49500
H  -5.36600 16.67900 37.16600
H  -5.73700 18.49600 37.45700
H  -12.09300 22.28300 38.26900
H  -11.65000 22.79100 39.78600
H  -13.28600 23.21200 39.22200
H  -17.68400 21.71800 40.78700
H  -16.72800 20.42300 41.51700
H  -17.24600 20.17400 39.90100
H  -16.90000 15.70600 40.47900
H  -15.46800 14.80000 42.96400
H  -17.41500 17.53900 42.53900
H  -17.61700 15.90500 43.29500
H  -18.39500 16.25300 41.87300
H  -15.85500 12.77700 40.69000
H  -17.25600 13.58400 41.00500
H  -17.30600 11.52100 41.97100
H  -17.19300 12.68100 43.38000
H  -15.71400 11.71200 42.85400
H  -11.53200 10.80600 40.36600
H  -11.85800 11.23400 42.10500
H  -10.23700 10.89400 41.49600
H  -7.47700 14.42900 38.79400
H  -3.79400 13.82500 41.26100
H  -4.39200 15.45400 41.62800
H  -3.48700 15.28300 40.27000

