158

Mg -1.45200 18.21200 27.34400
C  -2.39700 15.93700 29.90000
C  -1.79900 20.76000 29.39900
C  -0.49300 20.18000 24.72700
C  -1.72200 15.46900 24.99900
N  -1.88300 18.24400 29.40500
C  -2.18900 17.25700 30.35000
C  -2.32700 17.78300 31.76400
C  -2.33400 19.38200 31.48600
C  -1.93800 19.50900 30.02200
C  -3.61500 20.21700 31.97200
C  -1.06300 17.36800 32.67100
C  -1.45900 16.52500 33.83800
H  -0.92000 16.65100 35.28900
N  -1.05200 20.16700 27.19000
C  -1.32500 21.06800 28.12100
C  -0.89100 22.43700 27.62100
C  -0.30700 22.16700 26.32400
C  -0.55300 20.80400 25.99800
C  -1.06400 23.71000 28.41800
C  0.15300 23.11400 25.29600
O  0.79100 22.88600 24.29000
C  0.09600 24.57000 25.67000
N  -1.42400 17.94900 25.04300
C  -0.83300 18.94100 24.25600
C  -0.59700 18.46700 22.80200
C  -0.95100 16.86400 22.93000
C  -1.32300 16.69300 24.42700
C  -1.33800 19.38300 21.82100
C  0.16200 15.87100 22.59400
C  1.49800 16.09600 23.39000
N  -2.03700 16.13800 27.32800
C  -2.01700 15.17500 26.33600
C  -2.34300 13.91700 26.93500
C  -2.59600 14.14000 28.30000
C  -2.28200 15.50800 28.50700
C  -2.51900 12.62200 26.11400
C  -3.05400 13.59900 29.51900
O  -3.55600 12.56100 29.83700
C  -2.95300 14.70300 30.66000
C  -2.05600 14.06600 31.54500
O  -0.84700 14.00100 31.47800
O  -2.84800 13.49200 32.51800
C  -2.23700 12.61900 33.53700
H  -1.90000 21.67200 29.99000
H  -0.06900 20.71700 23.87600
H  -1.86000 14.65500 24.28500
H  -3.27400 17.42700 32.17000
H  -1.47200 19.79900 32.00700
H  -4.15700 20.68700 31.15200
H  -3.24800 21.00500 32.63000
H  -4.30400 19.62400 32.57400
H  -0.53200 18.18600 33.15900
H  -0.31600 16.82000 32.09500
H  -1.12500 15.54500 33.49600
H  -2.54200 16.56200 33.95900
H  -0.18400 24.05300 28.96100
H  -1.83000 23.61900 29.18800
H  -1.41500 24.49000 27.74200
H  0.70700 24.73600 26.55700
H  -0.97300 24.78400 25.69700
H  0.72700 25.18600 25.03000
H  0.45000 18.54800 22.51000
H  -1.88900 16.73500 22.39000
H  -1.97900 20.08400 22.35700
H  -1.96800 18.83900 21.11700
H  -0.64800 19.96200 21.20700
H  0.34600 16.12100 21.55000
H  -0.18900 14.85900 22.79500
H  2.15100 15.22300 23.41500
H  1.26500 16.38300 24.41500
H  2.07500 16.90300 22.93800
H  -1.67300 12.50600 25.43600
H  -3.46400 12.45900 25.59600
H  -2.27600 11.76700 26.74400
H  -3.96200 14.89600 31.02500
H  -2.97600 11.95900 33.98900
H  -1.76300 13.26200 34.27900
H  -1.42400 12.04000 33.09800
Mg 46.67200 25.02700 27.78200
C  47.89600 26.97200 30.57700
C  45.65400 22.72700 29.95300
C  45.66400 23.32300 25.12300
C  47.65700 27.55900 25.83100
N  46.76100 24.95200 30.03100
C  47.22500 25.81300 30.94700
C  46.86800 25.39900 32.45700
C  46.42900 23.95300 32.14000
C  46.25300 23.86500 30.62000
C  47.32600 22.80600 32.65000
C  45.83600 26.37800 33.15700
C  46.35300 26.96700 34.47800
H  45.36500 27.11100 35.56700
N  45.79000 23.21700 27.65400
C  45.44300 22.38700 28.63800
C  44.97400 21.20000 28.05900
C  44.90500 21.34800 26.65500
C  45.44200 22.63100 26.37700
C  44.56500 20.00000 28.88200
C  44.42900 20.34200 25.58200
O  44.54100 20.50000 24.40100
C  43.95400 18.92800 25.99300
N  46.91200 25.27400 25.75200
C  46.35900 24.46100 24.85100
C  46.50300 24.96600 23.36500
C  46.99800 26.44100 23.57900
C  47.26600 26.42000 25.13800
C  47.49600 23.99200 22.48300
C  46.08300 27.65400 23.15500
C  46.77900 28.72100 22.33300
N  47.65300 26.79600 28.09300
C  47.99800 27.71900 27.14900
C  48.64200 28.84300 27.71700
C  48.62600 28.68200 29.07100
C  48.03700 27.33900 29.25200
C  49.30500 29.92200 26.96700
C  49.01300 29.20300 30.37800
O  49.53000 30.24600 30.71300
C  48.54400 28.13000 31.41400
C  49.59700 27.58900 32.40100
O  50.34200 26.66800 32.15400
O  49.58400 28.34000 33.58400
C  50.53200 27.92700 34.66500
H  45.13000 21.99800 30.57400
H  45.35200 22.68300 24.29500
H  47.70700 28.45100 25.20300
H  47.82500 25.27100 32.96200
H  45.51300 23.71000 32.68000
H  48.32000 23.22600 32.80100
H  47.25700 21.95200 31.97600
H  47.05800 22.57200 33.68000
H  44.89500 25.88500 33.40300
H  45.58700 27.20100 32.48800
H  46.90000 27.89000 34.28900
H  47.16400 26.27500 34.70300
H  43.51500 19.77700 28.69700
H  44.62900 20.19200 29.95300
H  45.25900 19.20200 28.61800
H  42.97400 18.89500 26.46800
H  44.71400 18.49400 26.64200
H  43.79800 18.31800 25.10400
H  45.56100 24.94700 22.81600
H  48.01900 26.58000 23.22300
H  47.29700 24.23800 21.44000
H  47.21900 22.96400 22.71700
H  48.53300 24.20500 22.74300
H  45.60000 28.25900 23.92200
H  45.28000 27.14500 22.62100
H  46.19300 28.98400 21.45200
H  47.72400 28.35900 21.92800
H  47.00100 29.56800 22.98200
H  50.23300 30.19300 27.47000
H  48.76300 30.84400 26.75700
H  49.43800 29.56700 25.94500
H  47.73600 28.50100 32.04500
H  50.86900 26.91100 34.45800
H  49.98100 28.06200 35.59600
H  51.43300 28.53400 34.57700

