158

Mg -1.71100 17.58600 26.54800
C  -2.43700 15.10700 28.98100
C  -2.62900 19.87900 28.89000
C  -1.83700 19.92400 24.09800
C  -2.05500 15.05100 24.15100
N  -2.31300 17.54600 28.67200
C  -2.42400 16.41900 29.51500
C  -2.79100 16.75100 30.96100
C  -2.85500 18.36000 30.82900
C  -2.66600 18.61600 29.40900
C  -4.06000 19.12200 31.45800
C  -1.68200 16.27000 31.90800
C  -1.28400 17.12400 33.15900
H  -0.78100 16.43000 34.43700
N  -2.09500 19.68500 26.53900
C  -2.41000 20.42700 27.62100
C  -2.57600 21.74700 27.30000
C  -2.42600 21.78600 25.85900
C  -2.09900 20.43500 25.42100
C  -2.88400 22.86200 28.33800
C  -2.71000 22.98300 24.84100
O  -2.63400 22.76500 23.60600
C  -3.01800 24.28100 25.39500
N  -1.82100 17.52800 24.41900
C  -1.68900 18.63600 23.62400
C  -1.54800 18.14800 22.14600
C  -1.55600 16.61800 22.21300
C  -1.87200 16.36900 23.68100
C  -2.67000 18.66000 21.21500
C  -0.22000 15.85300 21.98400
C  -0.38400 14.55400 21.12600
N  -1.86100 15.49100 26.55100
C  -2.06600 14.60700 25.48800
C  -2.19000 13.21700 25.96700
C  -2.39500 13.40000 27.34800
C  -2.24900 14.78900 27.64200
C  -2.19700 12.03000 25.11900
C  -2.66400 12.65500 28.51600
O  -2.82800 11.46900 28.67800
C  -2.56400 13.78900 29.70000
C  -1.44000 13.39800 30.61300
O  -0.27200 13.65500 30.54300
O  -1.88000 12.46600 31.53500
C  -1.00100 12.16200 32.66800
H  -2.83700 20.59000 29.69200
H  -1.57500 20.65700 23.33200
H  -2.02400 14.31200 23.34700
H  -3.71400 16.31900 31.34800
H  -1.97500 18.78100 31.31700
H  -4.72900 18.31100 31.74500
H  -4.61400 19.87800 30.90100
H  -3.75500 19.58300 32.39800
H  -0.72400 16.16300 31.40000
H  -2.11600 15.34500 32.28800
H  -2.10300 17.74900 33.51500
H  -0.46500 17.77800 32.86000
H  -3.84200 23.33700 28.12500
H  -2.04400 23.55500 28.38800
H  -2.85300 22.44300 29.34300
H  -3.10800 24.98900 24.57200
H  -2.26000 24.56600 26.12400
H  -3.98000 24.32500 25.90600
H  -0.58700 18.55800 21.83800
H  -2.35500 16.20900 21.59400
H  -3.26000 19.47600 21.63200
H  -3.32900 17.83500 20.94600
H  -2.04700 19.01200 20.39300
H  0.24500 15.57900 22.93100
H  0.52600 16.45400 21.46500
H  -1.41200 14.19600 21.07100
H  0.29000 13.71700 21.30900
H  -0.18400 14.66900 20.06100
H  -3.25600 11.87000 24.91500
H  -1.74700 11.17000 25.61500
H  -1.62000 12.22300 24.21500
H  -3.40700 13.66000 30.37900
H  -0.22000 12.90500 32.83200
H  -0.55900 11.16700 32.63800
H  -1.61100 12.30500 33.56000
Mg 1.08000 42.91700 26.01000
C  3.25300 42.89800 28.86800
C  -1.47400 42.03100 28.17800
C  -0.72200 42.19100 23.38500
C  3.84600 43.46500 24.00200
N  0.93900 42.56300 28.23500
C  1.87400 42.73700 29.22200
C  1.21200 42.74300 30.59000
C  -0.14500 42.06800 30.30000
C  -0.26300 42.30400 28.78600
C  -0.18500 40.52500 30.74500
C  1.09600 44.13600 31.20400
C  1.32600 44.26600 32.70600
H  0.96000 43.12700 33.66000
N  -0.84000 42.35000 25.82800
C  -1.74800 42.03400 26.76200
C  -3.02400 41.84200 26.22000
C  -2.86700 41.91000 24.76800
C  -1.38500 42.05700 24.61900
C  -4.20200 41.62700 27.08100
C  -4.04800 41.84700 23.73500
O  -3.82200 41.93900 22.54600
C  -5.52500 41.77400 24.03800
N  1.49400 42.76600 24.03300
C  0.55100 42.61500 23.12800
C  1.17100 42.70900 21.75900
C  2.51100 43.57100 21.92200
C  2.67600 43.25600 23.38100
C  1.33900 41.34900 21.04600
C  2.50400 45.02500 21.62100
C  1.22000 45.81100 21.72500
N  3.16100 43.20500 26.28100
C  4.13400 43.40600 25.41200
C  5.42300 43.50700 26.05100
C  5.18200 43.26900 27.43600
C  3.71700 43.12300 27.52000
C  6.71000 43.62100 25.21600
C  5.73500 43.08800 28.73100
O  6.90200 42.97600 29.10400
C  4.49100 42.95600 29.72700
C  4.70800 41.77300 30.56200
O  4.72500 40.56700 30.22100
O  4.96000 42.20000 31.79100
C  5.04400 41.29700 32.93500
H  -2.25400 41.76800 28.89500
H  -1.39300 41.97200 22.55200
H  4.64400 43.83900 23.35800
H  1.84500 42.18100 31.27700
H  -0.98800 42.51300 30.82900
H  -0.45800 39.94700 29.86200
H  -1.01400 40.40200 31.44200
H  0.77800 40.13000 31.06800
H  0.11600 44.51000 30.90900
H  1.85100 44.68000 30.63700
H  0.91300 45.20800 33.06700
H  2.38900 44.43400 32.87900
H  -4.54600 42.64800 27.24500
H  -4.02100 41.28900 28.10100
H  -5.02300 40.99800 26.73500
H  -5.76400 42.67200 24.60800
H  -5.58000 40.82100 24.56300
H  -6.14100 41.94200 23.15500
H  0.54300 43.21100 21.02300
H  3.43100 43.12300 21.54700
H  2.32100 41.04600 20.68200
H  0.73400 41.44100 20.14400
H  0.95200 40.51700 21.63400
H  2.75500 45.14400 20.56700
H  3.30700 45.56100 22.12500
H  0.99300 46.01900 20.68000
H  1.36500 46.72500 22.30100
H  0.41900 45.20300 22.14600
H  6.56800 44.25000 24.33700
H  7.06000 42.62600 24.94500
H  7.42600 44.03300 25.92800
H  4.50400 43.82700 30.38200
H  5.68300 41.88000 33.59700
H  5.50500 40.35700 32.63200
H  4.12600 40.91800 33.38400

