158

Mg 30.22500 58.11200 41.22600
C  27.26400 56.39700 40.05300
C  31.96700 55.34500 39.94900
C  32.96100 59.90900 41.44300
C  28.17800 60.91200 41.80300
N  29.62000 56.09400 39.99600
C  28.34800 55.62800 39.73700
C  28.48900 54.25500 39.06200
C  29.98000 53.78100 39.44300
C  30.56000 55.16000 39.81100
C  30.01100 52.53800 40.37400
C  28.02400 54.14200 37.56100
C  28.89600 54.94100 36.56900
H  28.05800 56.00700 35.74400
N  32.17400 57.62000 40.86800
C  32.71500 56.49300 40.28700
C  34.20700 56.65000 40.11600
C  34.46900 57.92800 40.73100
C  33.17000 58.54100 41.07700
C  35.23700 55.60300 39.69200
C  35.85400 58.54200 40.78000
O  36.81800 58.03900 40.30300
C  36.11900 59.85100 41.50800
N  30.52500 60.18700 41.42600
C  31.79800 60.67200 41.63600
C  31.78900 62.07200 42.31900
C  30.21700 62.33600 42.30500
C  29.58900 61.01300 41.85100
C  32.45300 62.26200 43.70200
C  29.76500 63.45100 41.32200
C  28.46300 64.18800 41.82200
N  28.10500 58.56900 41.14000
C  27.49400 59.65200 41.50600
C  26.03100 59.39300 41.50900
C  25.90200 58.13400 40.99200
C  27.19000 57.72000 40.66000
C  24.83800 60.34400 41.88700
C  24.92600 57.18500 40.57800
O  23.67600 57.12100 40.67700
C  25.77100 56.08100 39.85100
C  25.39000 54.78800 40.50600
O  25.93700 54.25400 41.46400
O  24.16600 54.36000 39.94100
C  23.63900 53.08100 40.34500
H  32.69800 54.54200 39.83600
H  33.75500 60.60900 41.71000
H  27.33900 61.46200 42.23600
H  27.74400 53.63100 39.55600
H  30.58000 53.52100 38.57100
H  30.26800 52.83800 41.39000
H  30.83800 51.94300 39.98500
H  29.05600 52.01300 40.36700
H  26.98400 54.45900 37.49300
H  27.98800 53.13400 37.14600
H  29.24000 54.21900 35.82900
H  29.70500 55.50000 37.04000
H  35.80600 55.96700 38.83600
H  34.80900 54.63400 39.43300
H  36.00100 55.38200 40.43700
H  35.81400 60.73200 40.94300
H  37.20700 59.86800 41.58300
H  35.76800 59.83100 42.53900
H  32.28400 62.74600 41.61900
H  29.73200 62.47400 43.27200
H  31.79500 62.73500 44.43100
H  33.36100 62.83800 43.51800
H  32.84000 61.30000 44.03700
H  29.51900 63.10700 40.31700
H  30.54300 64.21000 41.23800
H  28.24300 63.81700 42.82300
H  27.62800 64.05200 41.13500
H  28.68200 65.23300 42.03900
H  25.17200 61.00000 42.69100
H  23.94400 59.79200 42.17800
H  24.65100 61.01700 41.05100
H  25.46500 56.12100 38.80600
H  23.98800 52.44800 39.52900
H  22.56200 53.00300 40.49800
H  24.12200 52.83000 41.28900
Mg 16.87800 53.14400 26.62700
C  18.88500 51.55100 29.05000
C  14.84400 54.15100 29.13700
C  14.75000 54.28600 24.27500
C  18.96500 51.93500 24.17200
N  16.92100 52.73200 28.82400
C  17.84700 52.29500 29.62100
C  17.57600 52.47100 31.08400
C  16.15200 53.08600 31.03900
C  15.90100 53.34500 29.53400
C  15.02200 52.32100 31.73500
C  18.62900 53.36800 31.74300
C  18.59600 53.57000 33.25500
H  17.75000 52.66100 33.98700
N  15.06400 54.11500 26.66900
C  14.45300 54.56400 27.85200
C  13.35400 55.41300 27.47300
C  13.31800 55.49500 26.02000
C  14.48500 54.67400 25.63100
C  12.58600 56.10400 28.47900
C  12.43900 56.28700 25.04500
O  12.52800 56.29000 23.77100
C  11.55700 57.37900 25.68400
N  16.76200 53.00300 24.55200
C  15.80300 53.44700 23.76800
C  16.05500 53.29400 22.25700
C  17.54600 52.73200 22.21800
C  17.80500 52.64700 23.76500
C  15.02500 52.37400 21.52900
C  18.60900 53.52800 21.50800
C  18.69600 55.03700 21.81300
N  18.60000 51.92000 26.55800
C  19.33400 51.43900 25.50600
C  20.42700 50.62500 25.96000
C  20.30600 50.58700 27.37700
C  19.16200 51.36900 27.66600
C  21.39000 49.82800 25.13900
C  20.82600 50.02400 28.56600
O  21.71900 49.18600 28.75900
C  19.97600 50.63500 29.78900
C  19.44300 49.41800 30.59000
O  18.67400 48.58800 30.12900
O  19.90900 49.34900 31.89200
C  19.21800 48.40000 32.73900
H  14.29900 54.62100 29.95800
H  13.98000 54.53600 23.54300
H  19.52400 51.60800 23.29300
H  17.44600 51.52200 31.60300
H  16.20200 53.99300 31.64100
H  15.28800 51.43800 32.31600
H  14.25200 51.97000 31.04800
H  14.65400 52.92900 32.56100
H  18.55400 54.31400 31.20700
H  19.61800 53.09300 31.37700
H  18.34300 54.61000 33.46200
H  19.58600 53.47200 33.70100
H  12.82800 56.00500 29.53700
H  11.54600 55.83900 28.28600
H  12.72600 57.17200 28.31100
H  11.19000 57.99400 24.86300
H  12.10300 57.92200 26.45500
H  10.67700 56.93400 26.14800
H  16.01200 54.23400 21.70600
H  17.56400 51.68600 21.91200
H  14.85800 52.58400 20.47200
H  14.12200 52.24700 22.12600
H  15.39300 51.34800 21.55500
H  18.54300 53.44900 20.42300
H  19.63800 53.17400 21.56600
H  18.14700 55.59800 21.05700
H  19.73000 55.30800 22.02900
H  18.16400 55.16500 22.75500
H  21.62200 48.88600 25.63500
H  22.32600 50.34800 24.93500
H  20.93200 49.61800 24.17200
H  20.66200 51.21700 30.40400
H  19.71800 48.46800 33.70400
H  19.25200 47.37100 32.38200
H  18.20900 48.74900 32.95800

