158

Mg 1.37200 7.62100 25.47900
C  1.98200 9.48700 28.41500
C  1.42900 4.81600 27.39900
C  0.73200 5.82500 22.69500
C  1.64200 10.46500 23.58200
N  1.76800 7.22500 27.70700
C  1.76900 8.10500 28.68700
C  1.77700 7.45300 30.13600
C  1.81900 5.96100 29.73800
C  1.60900 5.95300 28.18900
C  3.00800 5.18000 30.27800
C  0.53800 8.05300 30.96100
C  0.91600 8.51400 32.37100
H  1.99200 7.68600 33.04400
N  1.22400 5.51600 25.09000
C  1.25700 4.53000 25.98300
C  1.08900 3.19300 25.30900
C  0.96000 3.58300 23.91900
C  0.92800 5.01900 23.83100
C  1.17700 1.81900 25.95100
C  0.85900 2.56800 22.76700
O  0.63200 2.96100 21.65000
C  0.85400 1.12300 22.92100
N  1.24200 8.03700 23.38500
C  0.88500 7.18300 22.45900
C  0.65600 7.88100 21.04500
C  0.93000 9.40500 21.38600
C  1.21000 9.32800 22.92500
C  1.63700 7.21800 20.03600
C  -0.23600 10.33200 21.00500
C  0.29400 11.62200 20.29800
N  1.68700 9.61100 25.89200
C  1.83800 10.64200 24.97400
C  2.19300 11.86500 25.73700
C  2.26900 11.41800 27.05400
C  1.96600 10.05900 27.09700
C  2.38900 13.25000 25.24300
C  2.51600 11.88900 28.44000
O  2.82800 13.02500 28.75400
C  2.25900 10.66300 29.41900
C  3.44700 10.54400 30.23600
O  4.51900 10.27400 29.88200
O  3.18000 11.08100 31.48100
C  4.28500 11.42000 32.38600
H  1.37200 3.83800 27.88300
H  0.35200 5.33800 21.79500
H  1.75300 11.36500 22.97200
H  2.64100 7.87400 30.65000
H  0.90800 5.51700 30.13900
H  3.72800 5.92700 30.61100
H  3.31900 4.49800 29.48700
H  2.60200 4.54700 31.06700
H  -0.30000 7.36100 31.04800
H  0.20800 8.94700 30.43100
H  0.07100 8.53600 33.05900
H  1.28100 9.52500 32.18800
H  1.27900 1.92800 27.03100
H  2.00800 1.21900 25.57900
H  0.24800 1.28000 25.76600
H  0.86300 0.63300 21.94700
H  -0.08000 0.95000 23.45500
H  1.65200 0.60600 23.45500
H  -0.38100 7.69600 20.76200
H  1.80600 9.77300 20.85100
H  2.61000 7.11000 20.51700
H  1.60000 7.82100 19.12900
H  1.39500 6.17800 19.81800
H  -0.70200 10.80300 21.87000
H  -0.95700 9.78200 20.40100
H  -0.32000 12.39600 20.75800
H  -0.02600 11.45500 19.27000
H  1.36100 11.84700 20.30300
H  2.86200 13.86900 26.00500
H  1.43500 13.64300 24.89200
H  3.00900 13.22000 24.34600
H  1.41900 10.91100 30.06800
H  3.97000 11.44800 33.42900
H  4.62300 12.42400 32.13000
H  5.06800 10.66600 32.29500
Mg 25.75400 51.13900 26.51300
C  23.39600 52.44000 28.92800
C  27.94700 50.52200 29.03700
C  28.07600 51.09200 24.23600
C  23.34000 52.37400 24.15000
N  25.66300 51.47000 28.62100
C  24.64600 51.98900 29.48600
C  25.04100 51.93700 30.95200
C  26.60200 51.56200 30.90500
C  26.77600 51.25000 29.44600
C  27.56400 52.55700 31.56500
C  24.09400 51.10700 31.91700
C  24.54200 50.42500 33.25300
H  25.00100 51.42000 34.37800
N  27.77500 50.75200 26.64100
C  28.48500 50.44400 27.73700
C  29.85300 50.16900 27.35600
C  29.87300 50.32100 25.92000
C  28.52400 50.71100 25.53300
C  30.83900 49.76800 28.40000
C  31.00300 50.04400 24.94200
O  30.83600 49.90900 23.74000
C  32.37600 49.82400 25.58000
N  25.76600 51.85500 24.60700
C  26.89100 51.65200 23.82900
C  26.60300 52.07300 22.40200
C  25.09400 52.11500 22.27200
C  24.63800 52.08400 23.74900
C  27.35300 53.27200 21.95700
C  24.38400 51.00900 21.45400
C  22.85900 51.25300 21.09900
N  23.60000 51.99300 26.43100
C  22.82700 52.42000 25.41300
C  21.61700 53.00700 25.90700
C  21.79200 53.01500 27.30100
C  23.00600 52.41700 27.56000
C  20.57400 53.68600 25.00300
C  21.25300 53.48900 28.63200
O  20.28900 54.18700 28.89600
C  22.27000 52.96400 29.70400
C  22.70200 54.25100 30.45500
O  23.05500 55.31600 29.93700
O  22.67900 54.06500 31.82400
C  22.65500 55.29800 32.61700
H  28.56000 50.06700 29.81700
H  28.89000 51.17800 23.51300
H  22.63600 52.86300 23.47400
H  24.91100 52.95900 31.30700
H  26.67400 50.60400 31.42000
H  28.22200 53.05800 30.85500
H  28.17000 51.99800 32.27800
H  26.98800 53.32000 32.08800
H  23.49100 50.43800 31.30300
H  23.38600 51.83600 32.31200
H  25.36300 49.74400 33.02900
H  23.75000 49.81800 33.69200
H  30.63200 49.96300 29.45200
H  31.77700 50.28000 28.18500
H  30.95500 48.73000 28.08600
H  33.07100 49.42300 24.84200
H  32.39600 49.08000 26.37600
H  32.71700 50.78900 25.95500
H  26.87200 51.26800 21.71800
H  24.74800 53.02100 21.77600
H  27.62700 53.13000 20.91200
H  28.18600 53.51600 22.61700
H  26.69500 54.13400 22.06600
H  24.45000 50.09400 22.04300
H  24.98000 50.94700 20.54400
H  22.65700 52.27400 21.42300
H  22.20000 50.52600 21.57300
H  22.66900 51.26200 20.02500
H  20.56300 53.50000 23.92900
H  20.86800 54.73000 25.10600
H  19.61800 53.40800 25.44700
H  21.93900 52.22500 30.43400
H  23.23900 55.18700 33.53100
H  21.58200 55.37400 32.79300
H  22.92800 56.28400 32.24000

