158

Mg 16.52100 -1.52800 28.19100
C  15.19900 0.56200 30.78300
C  18.29400 -3.21600 30.48200
C  17.96100 -3.43200 25.72000
C  14.89700 0.46900 25.86000
N  16.81300 -1.26900 30.25300
C  16.17700 -0.38800 31.18900
C  16.44600 -0.81500 32.64600
C  17.56900 -1.86800 32.52400
C  17.59000 -2.10100 30.98700
C  19.08300 -1.63600 32.95800
C  15.08200 -1.22900 33.28000
C  14.72500 -0.77800 34.69200
H  15.70600 0.04000 35.49700
N  17.77800 -3.17900 28.16400
C  18.42200 -3.72300 29.14600
C  19.23200 -4.89200 28.77600
C  19.03800 -5.06700 27.36300
C  18.22700 -3.80000 27.02000
C  20.01800 -5.72900 29.79300
C  19.67100 -6.01200 26.37600
O  19.57000 -5.87600 25.14900
C  20.50300 -7.20900 26.93100
N  16.40100 -1.44100 26.12100
C  17.05800 -2.37100 25.31600
C  16.71900 -2.10200 23.80900
C  15.65400 -0.93400 23.92800
C  15.63600 -0.61100 25.39300
C  17.96000 -1.83100 23.04100
C  14.28700 -1.51400 23.34500
C  14.20300 -1.52700 21.80500
N  15.37500 0.27100 28.25300
C  14.78900 0.90800 27.23800
C  13.96600 1.98700 27.75200
C  14.02200 1.86400 29.15100
C  14.97900 0.84400 29.44000
C  13.10000 2.76000 26.87700
C  13.65900 2.42500 30.38500
O  13.03600 3.41400 30.65500
C  14.36000 1.56700 31.49300
C  15.22700 2.54700 32.27700
O  16.41200 2.81200 32.00000
O  14.46400 3.03200 33.28700
C  14.96400 4.14300 34.12100
H  18.91200 -3.67100 31.25900
H  18.36000 -3.97500 24.86100
H  14.23900 1.01200 25.17900
H  16.86600 0.05100 33.15800
H  17.31300 -2.75900 33.09800
H  19.08000 -0.85500 33.71900
H  19.67700 -1.43200 32.06700
H  19.45200 -2.55600 33.41100
H  15.07800 -2.31700 33.35400
H  14.20600 -1.01000 32.67100
H  14.34400 -1.62000 35.27100
H  13.83800 -0.17000 34.51100
H  20.01000 -6.81100 29.66200
H  19.76900 -5.61500 30.84800
H  21.01800 -5.30900 29.69100
H  21.03900 -7.74700 26.14900
H  19.76500 -7.85500 27.40700
H  21.19300 -6.86000 27.69800
H  16.29300 -3.05500 23.49600
H  15.97300 -0.08800 23.31900
H  17.88200 -0.97100 22.37500
H  18.24800 -2.66900 22.40700
H  18.78500 -1.61900 23.72100
H  13.35800 -1.04500 23.66600
H  14.09400 -2.54400 23.64700
H  13.22000 -1.13700 21.54000
H  14.27100 -2.57400 21.51100
H  15.04900 -0.98900 21.37900
H  12.52500 2.10900 26.21900
H  13.76600 3.30200 26.20600
H  12.41300 3.43900 27.38200
H  13.65700 1.09900 32.18100
H  15.00100 3.85000 35.17000
H  14.30500 5.00500 34.01900
H  15.89500 4.60300 33.78800
Mg 25.05400 1.96600 30.72900
C  27.29400 1.70100 33.33800
C  22.36900 2.19600 32.92200
C  22.92000 1.93000 28.02700
C  27.67700 1.24000 28.48900
N  24.90900 1.79700 32.93400
C  26.00100 1.98000 33.73700
C  25.58200 2.53000 35.19300
C  23.95400 2.53000 35.03800
C  23.70500 2.09300 33.54100
C  23.16200 1.64500 36.07100
C  26.23000 3.90100 35.53700
C  27.28600 3.93100 36.75400
H  26.86400 4.79800 37.95000
N  22.97300 2.02500 30.55500
C  22.03100 2.11300 31.55600
C  20.70400 2.15700 30.94500
C  20.85300 1.96900 29.55300
C  22.28000 1.97400 29.35900
C  19.41600 2.10400 31.85000
C  19.75000 1.98800 28.47400
O  19.99900 2.00300 27.22300
C  18.31600 1.97100 28.85600
N  25.31300 1.70400 28.61000
C  24.25400 1.74900 27.73600
C  24.67400 1.64000 26.31300
C  26.21600 1.31400 26.41300
C  26.44500 1.41700 27.90800
C  23.91200 0.55900 25.48000
C  27.08200 2.24400 25.45500
C  27.20600 3.71100 25.89600
N  27.09600 1.50800 30.85000
C  27.99700 1.25400 29.85300
C  29.30200 1.03700 30.48700
C  29.07300 1.20700 31.86100
C  27.71200 1.44000 32.06200
C  30.53900 0.71500 29.84800
C  29.68200 1.18500 33.17300
O  30.83600 0.82900 33.50300
C  28.60900 1.68700 34.19500
C  28.57300 0.80800 35.32300
O  27.83400 -0.14500 35.54000
O  29.38900 1.29000 36.26700
C  29.29800 0.72800 37.56100
H  21.53900 2.40000 33.60100
H  22.19400 2.13700 27.23800
H  28.51500 0.99800 27.83200
H  25.92000 1.83400 35.96100
H  23.50900 3.52400 35.08500
H  22.69500 0.80800 35.55200
H  22.39000 2.36000 36.35500
H  23.85000 1.35900 36.86600
H  25.40500 4.56700 35.79200
H  26.78000 4.23500 34.65800
H  28.27300 4.30200 36.47700
H  27.18300 2.93000 37.17400
H  18.86700 1.16300 31.90400
H  18.74000 2.84800 31.42800
H  19.63000 2.45400 32.86000
H  18.11600 1.00300 29.31500
H  17.78100 2.05500 27.91000
H  18.07000 2.81400 29.50200
H  24.63800 2.64100 25.88300
H  26.44600 0.28200 26.14700
H  23.32000 0.04400 26.23700
H  24.59400 -0.13200 24.98500
H  23.27800 1.07900 24.76300
H  26.77400 2.18900 24.41100
H  28.10400 1.86700 25.49900
H  28.23700 3.98000 26.12500
H  26.48200 3.96300 26.67000
H  26.78100 4.31800 25.09700
H  30.24600 -0.18400 29.30600
H  31.30500 0.53900 30.60300
H  30.73400 1.45700 29.07300
H  28.96100 2.65500 34.55200
H  28.27300 0.92700 37.87200
H  30.12600 1.14500 38.13400
H  29.44300 -0.34700 37.44700

