158

Mg 47.90700 16.38600 29.35900
C  45.94800 15.68000 32.10500
C  49.98300 18.18600 31.44900
C  49.63500 17.45100 26.61700
C  45.46400 15.10300 27.21500
N  47.76700 17.00400 31.49800
C  47.03600 16.45900 32.49400
C  47.51200 16.88500 33.92500
C  48.58100 17.92500 33.63700
C  48.79300 17.74500 32.07800
C  48.16200 19.38300 33.93900
C  47.90700 15.69000 34.87500
C  47.12800 15.58000 36.21600
H  46.79800 16.82800 37.01700
N  49.62500 17.57200 29.09700
C  50.46200 18.04600 30.08100
C  51.75600 18.39900 29.51700
C  51.59200 18.21200 28.08800
C  50.23800 17.74600 27.85000
C  52.97400 18.88300 30.28900
C  52.60000 18.50900 27.00400
O  52.43300 18.24200 25.81700
C  53.95400 19.09000 27.44900
N  47.54500 16.26300 27.18500
C  48.39900 16.82700 26.31500
C  48.04300 16.59200 24.84300
C  46.68400 15.77900 25.06100
C  46.55200 15.62000 26.58700
C  47.84100 17.81600 23.99300
C  46.61200 14.40000 24.42000
C  45.13400 13.78100 24.10800
N  46.11800 15.51100 29.58300
C  45.25300 14.97300 28.63300
C  44.18200 14.24000 29.29700
C  44.36000 14.57700 30.65500
C  45.55300 15.37600 30.77800
C  43.02600 13.50100 28.53800
C  43.76800 14.43400 31.96000
O  42.75200 13.83400 32.37300
C  44.78000 15.14800 32.95800
C  43.85300 16.12000 33.78700
O  43.55500 17.23600 33.44900
O  43.55900 15.68600 35.04700
C  42.71400 16.58300 35.86200
H  50.70600 18.69800 32.08700
H  50.20700 17.75200 25.73600
H  44.58300 14.80700 26.64100
H  46.65900 17.46300 34.27800
H  49.55800 17.64500 34.03000
H  48.96100 19.73600 34.59200
H  47.22900 19.53300 34.48200
H  48.04400 19.93500 33.00700
H  48.94400 15.80200 35.19200
H  47.97200 14.76700 34.29900
H  47.75200 14.93900 36.83800
H  46.24700 14.96500 36.02900
H  52.79100 18.94000 31.36200
H  53.23100 19.91100 30.03300
H  53.80000 18.18900 30.13400
H  54.53700 18.43700 28.09900
H  53.83900 20.10400 27.83200
H  54.61000 19.35100 26.61900
H  48.78800 15.86800 24.51100
H  45.79300 16.30900 24.72500
H  48.34700 18.61800 24.53100
H  46.82600 17.94300 23.61600
H  48.49700 17.77200 23.12400
H  47.11200 13.59300 24.95700
H  47.05300 14.50200 23.42900
H  44.98400 12.79100 24.53800
H  44.91400 13.66400 23.04700
H  44.31000 14.34000 24.55200
H  43.15000 12.41900 28.48200
H  42.74700 13.88900 27.55800
H  42.12000 13.57200 29.13800
H  45.08900 14.46500 33.74900
H  41.89100 17.05300 35.32300
H  43.32500 17.33900 36.35400
H  42.28800 15.90900 36.60500
Mg 16.86400 52.27000 26.84800
C  19.06900 50.95500 29.34800
C  14.91600 53.50100 29.34500
C  14.85900 53.58900 24.43200
C  19.04700 51.18900 24.40000
N  16.97600 52.14000 28.98800
C  17.94400 51.56800 29.79300
C  17.61800 51.88100 31.26500
C  16.11000 52.21700 31.20500
C  15.98500 52.70700 29.75500
C  15.10300 51.03900 31.39900
C  18.51900 52.94600 31.93000
C  19.02200 52.86300 33.36600
H  18.18300 52.15900 34.38000
N  15.10700 53.37900 26.87700
C  14.46800 53.76500 28.04500
C  13.28800 54.53600 27.72300
C  13.27500 54.58800 26.26800
C  14.39400 53.79100 25.78500
C  12.36700 55.15300 28.73400
C  12.26600 55.34800 25.42400
O  12.34100 55.43500 24.21400
C  11.14600 56.11700 26.04000
N  16.87000 52.11000 24.69800
C  15.89500 52.78300 23.93900
C  16.12600 52.50600 22.43000
C  17.54100 51.92000 22.44600
C  17.89700 51.75900 23.94900
C  15.03600 51.65000 21.80300
C  18.59600 52.70700 21.60200
C  19.15400 54.02200 22.16600
N  18.61800 51.12200 26.92100
C  19.43900 50.83700 25.78700
C  20.62900 50.15500 26.30900
C  20.50200 50.13900 27.69900
C  19.30500 50.77200 28.01100
C  21.79800 49.87600 25.50500
C  21.19600 49.86400 28.99800
O  22.26100 49.31200 29.27400
C  20.23100 50.38900 30.06400
C  19.86200 49.48800 31.12400
O  19.11600 48.51000 30.94900
O  20.28900 49.84200 32.31400
C  20.30700 48.86100 33.46400
H  14.23600 53.74200 30.16600
H  14.29500 54.08400 23.63900
H  19.76700 50.84600 23.65400
H  17.66200 50.96000 31.84600
H  16.07600 53.04100 31.91700
H  14.37700 50.91100 30.59600
H  14.53000 51.25100 32.30100
H  15.57600 50.06500 31.52600
H  18.04000 53.92200 31.85400
H  19.44000 53.01000 31.35200
H  19.13200 53.82700 33.86200
H  20.02100 52.42900 33.40300
H  12.11000 56.15200 28.38000
H  12.79100 55.21800 29.73600
H  11.46100 54.54600 28.75200
H  10.43200 56.47800 25.29900
H  11.62200 56.94200 26.56900
H  10.65600 55.42700 26.72700
H  16.20900 53.48100 21.95100
H  17.56400 50.88600 22.10100
H  14.66800 51.99200 20.83600
H  14.14200 51.67600 22.42600
H  15.38800 50.62200 21.71900
H  18.22000 53.15300 20.68100
H  19.36000 51.98200 21.32200
H  18.95700 54.79600 21.42300
H  20.22100 54.01100 22.39000
H  18.65000 54.31000 23.08800
H  22.66700 50.12500 26.11300
H  21.78300 50.41800 24.55900
H  21.89000 48.83600 25.19100
H  20.72700 51.19900 30.59700
H  19.27200 48.76300 33.79200
H  20.99600 49.13700 34.26300
H  20.54000 47.87800 33.05600

