158

Mg 44.11800 3.68500 46.81400
C  42.17300 6.51400 47.14300
C  41.19400 1.89800 46.47200
C  45.88900 1.03600 45.57400
C  46.99300 5.59100 46.75000
N  41.91400 4.22200 46.64600
C  41.34500 5.40600 46.99600
C  39.80800 5.20800 47.28400
C  39.57300 3.66800 47.14900
C  40.99400 3.23100 46.87100
C  38.98000 3.06100 48.40400
C  38.87000 6.16600 46.47600
C  38.93800 5.88300 44.95600
H  39.13400 7.08100 43.96400
N  43.59100 1.63700 46.22600
C  42.30600 1.08700 46.13900
C  42.43200 -0.25700 45.79100
C  43.79400 -0.50700 45.52900
C  44.50400 0.77400 45.79900
C  41.19100 -1.14000 45.58500
C  44.25900 -1.81400 44.95200
O  43.47900 -2.75500 44.79000
C  45.70700 -2.16700 44.63800
N  46.25400 3.32000 46.43000
C  46.69000 2.11000 45.97600
C  48.16300 2.31200 45.60000
C  48.66100 3.67600 46.26900
C  47.24200 4.21600 46.62500
C  49.07700 1.16700 45.71800
C  49.44500 4.50500 45.18300
C  50.87300 4.98500 45.63700
N  44.56200 5.60500 46.86500
C  45.75300 6.24800 46.79800
C  45.50900 7.67300 47.08800
C  44.13400 7.81800 47.15400
C  43.57900 6.56300 47.02600
C  46.47500 8.67100 47.21000
C  43.04900 8.70400 47.43300
O  43.13000 9.90400 47.78500
C  41.77600 7.91200 47.49100
C  41.01900 8.14800 48.78400
O  41.32900 7.68600 49.88200
O  39.84800 8.85000 48.46100
C  38.98500 9.08400 49.68800
H  40.25600 1.33800 46.46200
H  46.39800 0.25100 45.01100
H  47.87400 6.23000 46.66500
H  39.62400 5.56100 48.29900
H  38.93700 3.34100 46.32600
H  38.65600 3.68900 49.23500
H  39.66300 2.42900 48.97200
H  38.05500 2.50900 48.23700
H  39.25800 7.17300 46.63000
H  37.82600 6.10100 46.78000
H  38.03300 5.43600 44.54400
H  39.74200 5.15100 44.88300
H  41.19200 -1.97900 46.28100
H  41.20700 -1.63300 44.61300
H  40.22900 -0.62800 45.59100
H  46.29100 -1.80900 45.48600
H  46.05000 -1.75900 43.68700
H  45.86900 -3.23600 44.50000
H  48.00500 2.59500 44.55900
H  49.11200 3.47100 47.24000
H  49.24400 0.86700 44.68400
H  48.66800 0.40000 46.37600
H  50.02400 1.48400 46.15600
H  48.86500 5.39000 44.92000
H  49.60300 3.97000 44.24600
H  50.68500 6.00800 45.96500
H  51.46700 5.05200 44.72600
H  51.44000 4.43400 46.38700
H  47.24400 8.51800 46.45300
H  46.91100 8.67200 48.20900
H  46.09200 9.65800 46.94700
H  41.08400 8.26600 46.72600
H  39.17100 10.13900 49.88800
H  39.18900 8.56800 50.62600
H  37.94300 8.90500 49.42200
Mg 37.18200 50.38700 25.50000
C  37.27900 48.23300 28.53500
C  36.12600 52.83400 27.63700
C  36.53300 52.14200 22.82600
C  37.88800 47.43200 23.68700
N  36.65400 50.48200 27.79500
C  36.94500 49.55000 28.79500
C  36.85900 50.13400 30.15600
C  36.04000 51.47300 29.89500
C  36.27800 51.61300 28.34900
C  34.57300 51.35300 30.29800
C  38.11100 50.08500 30.98200
C  38.04700 49.47500 32.36100
H  36.72900 49.48000 33.22500
N  36.55800 52.27800 25.24500
C  36.12600 53.14500 26.21500
C  35.77200 54.40800 25.49900
C  35.90500 54.20700 24.12800
C  36.29300 52.88200 24.02600
C  35.40500 55.63700 26.24300
C  35.48400 55.17300 22.95800
O  35.45700 54.73500 21.77300
C  35.13000 56.60600 23.18800
N  37.06000 49.83000 23.56600
C  36.90500 50.83100 22.59200
C  37.14400 50.22100 21.23000
C  37.75100 48.82100 21.53100
C  37.58200 48.65400 22.99700
C  35.83300 50.08800 20.43800
C  39.18500 48.58900 21.05000
C  39.42800 47.22500 20.35700
N  37.56600 48.27400 25.95800
C  37.93700 47.24400 25.01600
C  38.44200 46.12400 25.81400
C  38.12600 46.41600 27.15400
C  37.63400 47.74000 27.22000
C  38.95100 44.78500 25.38300
C  38.10400 45.91600 28.55200
O  38.44900 44.83200 28.91700
C  37.57100 47.07400 29.43600
C  36.40500 46.51700 30.15700
O  35.24300 46.51400 29.74200
O  36.75000 46.07400 31.43400
C  35.60700 45.71200 32.25700
H  35.78900 53.67800 28.24400
H  36.55000 52.57700 21.82400
H  38.25800 46.61600 23.06300
H  36.15000 49.46800 30.64800
H  36.59200 52.20400 30.48600
H  34.38300 52.17500 30.98800
H  34.37200 50.39400 30.77600
H  33.90000 51.52200 29.45700
H  38.34500 51.14100 31.12000
H  38.94200 49.74300 30.36500
H  38.79700 50.03000 32.92400
H  38.36600 48.43300 32.32900
H  36.34800 56.11600 26.50600
H  34.90300 55.38000 27.17600
H  34.73800 56.34200 25.74700
H  34.17200 56.53500 23.70300
H  34.96000 56.91700 22.15800
H  35.96400 57.17600 23.59800
H  37.89800 50.82000 20.72000
H  37.15700 48.02200 21.08800
H  34.99000 50.61200 20.88700
H  35.58000 49.05200 20.21400
H  35.92500 50.57400 19.46700
H  39.74800 48.46900 21.97600
H  39.55300 49.47900 20.54000
H  40.01500 46.58600 21.01700
H  40.00100 47.37200 19.44200
H  38.49000 46.77100 20.04000
H  38.51700 43.91800 25.88100
H  40.00900 44.91600 25.61100
H  38.89500 44.47700 24.33900
H  38.35600 47.28600 30.16200
H  35.10800 44.75100 32.13400
H  34.78400 46.42600 32.21400
H  35.78400 45.54000 33.31800

