158

Mg 30.50600 57.97300 40.22200
C  27.86600 56.01000 38.77300
C  32.66700 55.68100 38.99400
C  32.91900 60.25400 40.62700
C  28.01000 60.44900 40.93800
N  30.28000 56.08000 38.93100
C  29.15200 55.45300 38.55600
C  29.52800 54.16000 37.75700
C  31.11000 54.01800 38.02200
C  31.37500 55.26600 38.79100
C  31.64000 52.72500 38.71900
C  29.26200 54.33200 36.22800
C  27.98700 53.66300 35.69400
H  27.11400 54.54300 34.85300
N  32.53100 57.97100 40.00100
C  33.18300 56.88000 39.51400
C  34.61900 57.25600 39.35800
C  34.69800 58.62800 39.77800
C  33.33100 59.03300 40.19000
C  35.78400 56.35800 38.81600
C  36.02800 59.52200 39.67900
O  37.08000 58.96900 39.41100
C  36.06200 60.96000 39.89600
N  30.47500 60.08400 40.62600
C  31.62600 60.72300 40.89200
C  31.35500 62.12700 41.37200
C  29.80100 62.16600 41.66700
C  29.35400 60.86100 41.06400
C  32.29100 62.66700 42.43800
C  29.10900 63.54200 41.13200
C  28.27400 64.40300 42.10400
N  28.34500 58.24600 39.98900
C  27.50400 59.21700 40.46500
C  26.10900 58.90200 40.18400
C  26.21800 57.59500 39.57400
C  27.58400 57.30000 39.42700
C  24.88700 59.75200 40.34400
C  25.47800 56.54800 38.93200
O  24.26200 56.52500 38.67200
C  26.48600 55.36300 38.48400
C  26.22500 54.11900 39.34900
O  27.00900 53.56100 40.13400
O  24.97000 53.66800 39.05600
C  24.48100 52.40800 39.67300
H  33.42100 54.99500 38.60300
H  33.68900 61.01300 40.78100
H  27.25800 61.17500 41.25300
H  28.96300 53.36800 38.24800
H  31.54700 54.14400 37.03200
H  30.84300 51.98500 38.79100
H  32.09100 52.87200 39.70100
H  32.51400 52.26000 38.26200
H  30.09900 53.88100 35.69500
H  29.22400 55.40200 36.02500
H  27.46500 53.44500 36.62700
H  28.14100 52.80600 35.03800
H  36.25500 56.70900 37.89800
H  35.44100 55.33600 38.65400
H  36.68700 56.34300 39.42600
H  35.20700 61.35800 39.35000
H  36.92500 61.47500 39.47600
H  36.02300 61.16300 40.96700
H  31.51500 62.62700 40.41700
H  29.67100 62.11100 42.74800
H  31.72000 63.30200 43.11500
H  33.05500 63.28300 41.96400
H  32.77400 61.88500 43.02400
H  28.47900 63.25400 40.29000
H  29.86500 64.17900 40.67100
H  27.24000 64.34700 41.76400
H  28.56100 65.45300 42.16000
H  28.36700 64.11600 43.15200
H  24.03600 59.55600 39.69200
H  25.02600 60.83300 40.31500
H  24.60700 59.51900 41.37100
H  26.12200 55.24900 37.46300
H  24.89400 51.60900 39.05700
H  23.40200 52.43800 39.82800
H  24.87900 52.26300 40.67800
Mg -5.34400 25.56100 25.95700
C  -4.12500 27.22300 28.77000
C  -7.43300 23.69100 28.04800
C  -6.24300 23.67400 23.35300
C  -3.36400 27.54700 23.95800
N  -5.74700 25.43300 28.12100
C  -5.04800 26.16300 29.09400
C  -5.63800 25.80800 30.45300
C  -6.43800 24.47100 30.21000
C  -6.50800 24.45200 28.70700
C  -5.72900 23.22200 30.74800
C  -6.54600 26.97200 30.98800
C  -6.57500 27.12600 32.50700
H  -5.91500 26.10500 33.46400
N  -6.71200 23.97900 25.70700
C  -7.52900 23.47300 26.64700
C  -8.43000 22.46000 26.05600
C  -8.03300 22.41200 24.62700
C  -6.96400 23.37700 24.48500
C  -9.54000 21.75100 26.77100
C  -8.59400 21.56300 23.45600
O  -8.14400 21.53200 22.30800
C  -9.82000 20.77200 23.74200
N  -4.97100 25.74100 23.95800
C  -5.23400 24.69700 23.12700
C  -4.60000 24.90700 21.75400
C  -3.97100 26.35900 21.87000
C  -4.14600 26.62200 23.35800
C  -3.67100 23.78700 21.27900
C  -4.63800 27.39300 21.08900
C  -3.94600 28.72200 20.82100
N  -3.94400 27.04000 26.21300
C  -3.26400 27.84300 25.32000
C  -2.48900 28.84800 26.02900
C  -2.80400 28.66200 27.40800
C  -3.67600 27.52000 27.45200
C  -1.52200 29.89200 25.43800
C  -2.53900 29.18200 28.76100
O  -1.94900 30.16200 29.17500
C  -3.47700 28.28200 29.67700
C  -2.72700 27.59100 30.72800
O  -2.14000 26.55700 30.63500
O  -2.76600 28.28200 31.89100
C  -2.03200 27.77600 33.01900
H  -8.10800 23.05900 28.62900
H  -6.33600 23.12000 22.41700
H  -2.69600 28.19600 23.38800
H  -4.80000 25.67200 31.13700
H  -7.44100 24.44100 30.63400
H  -5.60500 22.51000 29.93200
H  -6.41700 22.88800 31.52400
H  -4.87300 23.52400 31.35100
H  -7.55800 26.83600 30.60500
H  -6.28000 27.93900 30.56100
H  -7.63600 27.16900 32.75200
H  -6.33100 28.16800 32.70900
H  -9.78400 20.73200 26.47200
H  -10.43700 22.34700 26.94000
H  -9.23500 21.53900 27.79600
H  -10.25100 20.55100 22.76600
H  -10.57900 21.43300 24.15800
H  -9.69600 19.88000 24.35600
H  -5.44400 25.00300 21.07200
H  -2.91900 26.32900 21.58700
H  -2.84200 24.23100 20.72700
H  -4.24400 23.17300 20.58400
H  -3.22300 23.30000 22.14500
H  -5.54800 27.80100 21.53000
H  -4.91000 26.95100 20.13000
H  -2.90800 28.72800 21.15300
H  -4.48700 29.60200 21.16900
H  -3.95100 28.92800 19.75000
H  -1.64500 29.96600 24.35700
H  -0.46500 29.66900 25.58400
H  -1.69700 30.85800 25.91000
H  -4.22900 28.95700 30.08500
H  -1.07600 28.27600 33.17700
H  -1.78200 26.71900 32.94100
H  -2.59700 28.01900 33.91900

