158

Mg 24.39900 -4.77600 45.39700
C  26.46400 -2.53500 43.82200
C  21.77200 -3.52700 43.48000
C  22.67900 -7.77800 45.92400
C  27.17000 -6.23000 47.00100
N  24.17400 -3.23700 43.82000
C  25.16600 -2.41000 43.44100
C  24.59900 -1.47200 42.41000
C  23.10300 -1.48200 42.72800
C  23.00900 -2.82700 43.41700
C  22.52200 -0.34800 43.59000
C  24.92300 -1.92100 40.96900
C  25.20700 -0.70300 40.03400
H  24.90500 -0.85600 38.53700
N  22.39200 -5.52300 44.85100
C  21.52100 -4.88600 44.00000
C  20.30400 -5.68400 44.03800
C  20.55700 -6.89500 44.65500
C  21.94400 -6.78800 45.21900
C  19.00900 -5.17900 43.37400
C  19.61900 -8.02000 44.90600
O  18.52000 -7.92600 44.32300
C  19.91000 -9.27900 45.86700
N  24.71800 -6.63500 46.55400
C  23.84400 -7.70900 46.58600
C  24.46100 -8.93100 47.31700
C  25.81700 -8.35800 47.75100
C  25.92900 -6.93200 47.08500
C  23.58500 -9.57600 48.41300
C  27.10300 -9.33100 47.70900
C  27.72900 -9.71200 49.12800
N  26.38800 -4.35200 45.55100
C  27.41300 -5.01000 46.26300
C  28.67100 -4.32700 46.01700
C  28.37100 -3.38100 45.05100
C  26.96300 -3.46200 44.84100
C  30.02300 -4.78300 46.53700
C  28.85400 -2.41600 44.12800
O  30.04700 -2.09400 43.92400
C  27.64300 -1.79400 43.28200
C  27.62900 -0.34000 43.59900
O  27.29300 0.08400 44.72500
O  28.03800 0.38300 42.48700
C  27.97400 1.81500 42.77800
H  20.92800 -3.07300 42.95500
H  22.34700 -8.80900 45.78700
H  27.92100 -6.74600 47.60300
H  25.06200 -0.49800 42.57200
H  22.49500 -1.65700 41.84000
H  21.84300 0.28100 43.01400
H  23.38600 0.27400 43.82200
H  22.12800 -0.70900 44.54000
H  24.06000 -2.48400 40.61200
H  25.77900 -2.59600 40.99900
H  26.26600 -0.44800 40.01700
H  24.64900 0.17500 40.36100
H  18.28000 -5.97200 43.20700
H  19.22500 -4.72400 42.40700
H  18.67600 -4.37100 44.02700
H  20.29700 -9.02900 46.85500
H  20.63800 -9.84800 45.29000
H  18.97300 -9.80700 46.04600
H  24.61700 -9.71200 46.57300
H  25.68300 -8.08600 48.79800
H  23.34800 -10.62800 48.24900
H  22.65400 -9.06600 48.65700
H  24.14400 -9.53700 49.34800
H  27.88100 -9.06600 46.99200
H  26.68900 -10.22100 47.23400
H  28.81200 -9.62200 49.04400
H  27.47700 -10.71900 49.46000
H  27.51400 -8.95900 49.88600
H  30.74500 -4.56200 45.75100
H  29.96800 -5.87000 46.46700
H  30.20800 -4.39000 47.53600
H  27.82100 -2.06600 42.24200
H  27.27500 2.21000 42.04000
H  28.95700 2.26900 42.65900
H  27.56600 2.20200 43.71200
Mg 47.69600 25.50200 27.72900
C  48.71600 27.79400 30.24300
C  46.61100 23.40900 30.17500
C  47.26700 23.32400 25.48800
C  49.88500 27.23400 25.43400
N  47.71600 25.70100 29.95900
C  47.97100 26.74200 30.75300
C  47.35500 26.58500 32.16300
C  46.92300 25.11400 32.04800
C  46.95000 24.71000 30.59700
C  47.43100 24.13700 33.14900
C  46.22700 27.64500 32.44600
C  46.36300 28.45300 33.80300
H  45.23200 28.14800 34.78700
N  46.94700 23.68000 27.79600
C  46.62800 22.88700 28.87100
C  45.89800 21.68900 28.37400
C  45.90300 21.74000 27.03900
C  46.70400 22.99800 26.70400
C  45.27800 20.71800 29.35500
C  45.25200 20.83800 26.06800
O  45.37400 21.01100 24.85000
C  44.59000 19.54000 26.60800
N  48.59000 25.20200 25.79600
C  47.99400 24.31800 25.04300
C  48.47500 24.32800 23.59200
C  49.09700 25.72200 23.53100
C  49.23200 26.07200 24.99800
C  49.54100 23.26800 23.35400
C  48.21400 26.74800 22.84300
C  48.45400 26.95400 21.35200
N  49.01900 27.15500 27.74800
C  49.75800 27.76500 26.74800
C  50.33700 28.98400 27.33600
C  49.98200 29.05500 28.61400
C  49.17700 27.91900 28.86000
C  51.20700 29.91400 26.56000
C  50.02700 29.86900 29.76400
O  50.55400 30.94300 29.99700
C  49.17600 29.15000 30.90500
C  49.92800 29.07800 32.20800
O  51.02800 28.69000 32.32800
O  49.20900 29.75800 33.13800
C  49.85000 29.91600 34.44100
H  46.36000 22.68900 30.95800
H  47.09700 22.62000 24.67200
H  50.41600 27.79300 24.66000
H  48.08900 26.71600 32.95800
H  45.84400 25.05900 32.19400
H  46.57700 23.55600 33.49500
H  47.80100 24.58600 34.07100
H  48.20500 23.52500 32.68500
H  45.27900 27.11900 32.55500
H  46.15300 28.34200 31.61100
H  46.34600 29.53600 33.68100
H  47.28600 28.12500 34.28100
H  44.20200 20.74500 29.18800
H  45.61700 20.81200 30.38700
H  45.64800 19.75700 28.99700
H  43.80100 19.77700 27.32200
H  45.39800 18.98300 27.08300
H  44.26400 18.92700 25.76800
H  47.60500 24.18900 22.94900
H  50.05200 25.83400 23.01800
H  50.47300 23.76100 23.07700
H  49.18600 22.47300 22.69700
H  49.70200 22.71900 24.28200
H  48.19900 27.73900 23.29500
H  47.18000 26.47700 23.05200
H  47.53500 26.86700 20.77200
H  49.16100 26.21100 20.98400
H  48.95900 27.91800 21.29200
H  50.86500 29.93700 25.52500
H  52.21200 29.49400 26.55000
H  51.37200 30.88500 27.02700
H  48.27500 29.75000 31.02900
H  49.59700 29.09900 35.11700
H  49.46200 30.87000 34.79600
H  50.92500 30.07600 34.34900

