158

Mg 1.52500 8.47600 25.79300
C  2.33200 10.37800 28.59600
C  1.95100 5.65100 27.64400
C  1.38700 6.56200 23.06400
C  1.54300 11.34300 23.86800
N  2.00200 8.05900 27.81900
C  2.21700 8.99800 28.81800
C  2.28500 8.37700 30.20800
C  2.35600 6.88600 29.81600
C  2.12600 6.85600 28.30600
C  3.75100 6.11800 30.12300
C  1.07200 8.87600 30.92100
C  1.12600 8.79500 32.49500
H  2.42500 8.15500 33.11000
N  1.39300 6.40400 25.41700
C  1.61600 5.37500 26.27200
C  1.37500 4.10300 25.68500
C  1.16500 4.39400 24.32500
C  1.30500 5.88400 24.19600
C  1.33100 2.83700 26.53600
C  0.83800 3.43900 23.21900
O  0.59000 3.75200 22.07300
C  0.93600 1.93600 23.60100
N  1.44800 8.93100 23.76300
C  1.43800 7.94400 22.81700
C  1.24900 8.56400 21.40700
C  0.96200 10.02000 21.73300
C  1.36700 10.12600 23.22500
C  2.52400 8.26100 20.60300
C  -0.56100 10.45100 21.53800
C  -0.97200 10.95000 20.17200
N  1.89800 10.44400 26.11600
C  1.94000 11.52900 25.21500
C  2.35400 12.74200 25.93100
C  2.41700 12.33600 27.30800
C  2.16900 10.93000 27.36400
C  2.30300 14.08000 25.35600
C  2.75600 12.86200 28.64600
O  3.16400 13.97100 28.96300
C  2.56000 11.64300 29.57000
C  3.79700 11.54400 30.44500
O  4.89400 11.25800 30.06000
O  3.39400 11.90000 31.67600
C  4.48500 12.23900 32.55800
H  2.17400 4.76100 28.23700
H  1.47300 5.78800 22.29800
H  1.33200 12.25100 23.29900
H  3.17100 8.72600 30.73700
H  1.51100 6.28700 30.15500
H  3.50100 5.33000 30.83300
H  4.53100 6.71900 30.59100
H  4.18300 5.69000 29.21800
H  0.28000 8.19300 30.61400
H  0.70000 9.86800 30.66800
H  0.34200 8.12400 32.84700
H  1.05000 9.82000 32.85700
H  1.43400 2.98900 27.61000
H  2.25100 2.34600 26.21700
H  0.53400 2.10400 26.41600
H  1.81800 1.79300 24.22400
H  1.21100 1.54500 22.62200
H  0.01300 1.47500 23.95400
H  0.49000 8.00700 20.85600
H  1.52800 10.56300 20.97700
H  3.21200 8.03800 21.41800
H  2.89300 9.10700 20.02300
H  2.38200 7.32900 20.05600
H  -0.79500 11.13500 22.35400
H  -1.20100 9.64600 21.90100
H  -0.17700 10.67900 19.47700
H  -1.12100 12.01200 19.97700
H  -1.86900 10.38600 19.91700
H  1.22500 14.22400 25.41700
H  2.53700 14.10300 24.29100
H  2.96500 14.84100 25.76800
H  1.63900 11.89200 30.09600
H  5.04000 13.04700 32.08200
H  5.27100 11.53300 32.82700
H  4.08900 12.68600 33.47000
Mg 46.44600 23.94700 28.19700
C  47.05400 26.12100 30.78100
C  45.86300 21.40300 30.42900
C  46.25300 21.88800 25.56400
C  47.19800 26.61900 26.03800
N  46.47000 23.78800 30.26700
C  46.69500 24.84000 31.21300
C  46.46700 24.33700 32.64300
C  46.32800 22.76000 32.44900
C  46.13800 22.65600 30.96700
C  47.64600 22.00000 32.86000
C  45.22900 25.03100 33.26700
C  45.61700 25.68700 34.68400
H  44.49700 25.89400 35.76700
N  46.08300 21.93600 28.02200
C  45.82100 21.04300 29.04000
C  45.44300 19.78900 28.47500
C  45.51500 19.90500 27.02500
C  45.95600 21.28300 26.82600
C  45.21300 18.58700 29.38400
C  45.27400 18.86700 25.98600
O  45.35800 19.20100 24.78200
C  45.02000 17.43300 26.32900
N  46.62200 24.19500 26.13900
C  46.48400 23.27000 25.27500
C  46.62000 23.72700 23.80300
C  46.47900 25.27400 23.97000
C  46.76400 25.38200 25.44800
C  47.93700 23.27000 23.11700
C  45.18100 25.91000 23.48700
C  43.99800 25.74800 24.34800
N  47.01500 25.97600 28.30900
C  47.38200 26.93000 27.39200
C  47.90800 28.11700 27.94200
C  47.80300 27.83200 29.31400
C  47.24500 26.54200 29.46900
C  48.40700 29.39300 27.25800
C  48.14500 28.40300 30.60400
O  48.65900 29.49500 30.89500
C  47.56300 27.30500 31.62100
C  48.65300 26.98100 32.63900
O  49.50500 26.09500 32.46700
O  48.47000 27.75100 33.77200
C  49.60100 27.52800 34.76000
H  45.79400 20.64100 31.20800
H  46.31400 21.23800 24.68900
H  47.44600 27.46100 25.38900
H  47.38000 24.57700 33.18700
H  45.45300 22.38300 32.97800
H  48.55200 22.59800 32.76500
H  47.76200 21.06200 32.31700
H  47.66600 21.67000 33.89800
H  44.41800 24.35200 33.52700
H  44.98000 25.75400 32.49000
H  46.09300 26.60800 34.34800
H  46.51600 25.23600 35.10400
H  44.23400 18.12500 29.25500
H  45.22800 18.73900 30.46300
H  45.97800 17.84200 29.16300
H  45.94100 16.95000 26.65500
H  44.87300 17.04000 25.32300
H  44.14600 17.27600 26.96000
H  45.79100 23.33800 23.21200
H  47.34900 25.71200 23.48200
H  48.77100 23.93200 23.34800
H  47.83200 23.01800 22.06200
H  48.35800 22.41900 23.65300
H  45.18800 25.53100 22.46500
H  45.55600 26.93200 23.43400
H  44.01800 26.59400 25.03500
H  44.06700 24.81200 24.90200
H  43.17000 25.82500 23.64400
H  48.35400 30.32600 27.81700
H  47.94400 29.58100 26.28900
H  49.41000 29.15300 26.90400
H  46.68500 27.69300 32.13700
H  49.72600 26.48100 35.03600
H  49.28100 27.98300 35.69700
H  50.53900 27.94100 34.38800

