158

Mg 46.37800 24.48600 28.44300
C  46.72300 26.86500 31.15900
C  46.04200 22.11000 30.98600
C  46.24100 22.32400 26.04300
C  47.57500 26.92700 26.24800
N  46.16900 24.49200 30.80800
C  46.51100 25.57100 31.66400
C  46.46900 25.10500 33.16100
C  46.18400 23.54800 32.99200
C  46.22900 23.36600 31.47400
C  47.19000 22.66400 33.90100
C  45.45500 25.86600 34.02900
C  45.01000 25.19900 35.37500
H  45.80700 25.62900 36.59900
N  46.08600 22.51500 28.47300
C  45.93700 21.73300 29.61100
C  45.74100 20.33900 29.15600
C  45.70900 20.40100 27.69800
C  45.97400 21.80000 27.35800
C  45.66200 19.16100 30.10900
C  45.43100 19.25100 26.76100
O  45.58300 19.34900 25.58400
C  44.99800 18.01400 27.30900
N  46.79000 24.70100 26.39200
C  46.64100 23.61100 25.58800
C  47.03700 23.91000 24.21500
C  47.54000 25.42300 24.24600
C  47.32900 25.72700 25.70400
C  48.04500 22.89900 23.55400
C  46.84100 26.43600 23.30300
C  45.34300 26.79800 23.64100
N  46.93900 26.43000 28.55800
C  47.38500 27.26300 27.61900
C  47.58400 28.58400 28.13100
C  47.34900 28.43100 29.53500
C  46.95700 27.11000 29.75600
C  48.01400 29.84500 27.33000
C  47.41400 29.16100 30.79000
O  47.66500 30.32900 31.06300
C  46.92900 28.20700 31.93000
C  48.06400 27.95200 32.85400
O  49.01300 27.23900 32.59900
O  47.87000 28.70500 33.99900
C  48.92600 28.61700 35.03500
H  46.07700 21.32100 31.74100
H  46.18000 21.55500 25.27100
H  48.06800 27.62300 25.56600
H  47.42000 25.30100 33.65800
H  45.18100 23.35000 33.37000
H  47.95100 23.20200 34.46500
H  47.77300 21.92500 33.35100
H  46.52300 22.17100 34.60900
H  44.61900 26.22100 33.42700
H  45.95100 26.75800 34.40900
H  45.31000 24.15300 35.32400
H  43.94700 25.31600 35.58700
H  45.87800 18.24500 29.56000
H  44.65700 19.10200 30.52700
H  46.41200 19.36700 30.87300
H  45.88800 17.51700 27.69700
H  44.65800 17.42600 26.45700
H  44.20500 18.20400 28.03300
H  46.12500 23.90500 23.61900
H  48.60700 25.56500 24.07800
H  48.72600 23.27600 22.79100
H  47.55000 22.09700 23.00700
H  48.73400 22.46600 24.27800
H  46.82200 26.06200 22.28000
H  47.43000 27.34600 23.42200
H  45.30400 27.87300 23.81400
H  45.02000 26.14300 24.45000
H  44.66600 26.61200 22.80800
H  47.57200 30.68600 27.86300
H  47.54700 29.76300 26.34800
H  49.10200 29.87200 27.28700
H  46.08300 28.60400 32.49100
H  48.59800 29.36700 35.75400
H  49.89300 28.82600 34.57700
H  49.12100 27.61600 35.42100
Mg 41.45800 41.14000 25.98800
C  40.65900 43.44500 28.43600
C  42.49800 38.97500 28.49400
C  42.50500 39.05700 23.55400
C  41.11000 43.68300 23.49200
N  41.71600 41.29200 28.21700
C  41.11800 42.22200 28.93700
C  41.17700 41.87800 30.44300
C  41.81900 40.46700 30.42400
C  42.06500 40.21100 29.01600
C  43.08100 40.38700 31.24600
C  39.74700 41.81700 31.07500
C  39.73300 41.72400 32.63000
H  39.24200 43.00800 33.47600
N  42.10800 39.20000 26.04700
C  42.49500 38.45200 27.15200
C  42.87800 37.18300 26.65200
C  42.69100 37.14300 25.27400
C  42.49800 38.54300 24.90800
C  43.25700 35.99800 27.57800
C  42.66500 35.87700 24.36000
O  42.35400 36.02800 23.18400
C  42.84500 34.40900 24.91000
N  41.83300 41.37400 23.84100
C  42.19200 40.33100 23.04900
C  42.18000 40.79200 21.49600
C  41.63100 42.22100 21.52300
C  41.50700 42.46600 23.01500
C  43.57700 40.61500 20.88100
C  40.31100 42.43700 20.77900
C  39.03100 41.90700 21.51100
N  40.96700 43.15300 25.91500
C  40.94000 44.05700 24.85800
C  40.52200 45.36700 25.38500
C  40.35400 45.17100 26.83600
C  40.71900 43.79100 27.06800
C  40.27600 46.64100 24.63800
C  39.98800 45.82800 28.11900
O  39.72100 47.01600 28.45300
C  40.16400 44.72700 29.21100
C  41.20400 45.22200 30.14800
O  42.31400 45.62700 29.83600
O  40.70800 45.17100 31.35200
C  41.64200 45.43400 32.50700
H  42.85900 38.23600 29.21300
H  42.83900 38.23900 22.91300
H  41.07400 44.47800 22.74400
H  41.75600 42.58500 31.03700
H  41.16000 39.63100 30.65600
H  42.97100 39.71000 32.09300
H  43.20300 41.40100 31.62700
H  43.98000 40.16000 30.67400
H  39.35400 40.82100 30.86900
H  39.07500 42.60000 30.72400
H  40.69600 41.39800 33.02400
H  38.97900 41.01000 32.96000
H  42.47900 35.25000 27.73100
H  43.23300 36.33800 28.61300
H  44.25100 35.63700 27.31400
H  43.65600 34.39200 25.63700
H  43.23300 33.83400 24.06800
H  41.91700 33.96400 25.26800
H  41.45300 40.16600 20.97900
H  42.36000 42.92000 21.11500
H  44.33300 40.58000 21.66500
H  44.05400 41.32800 20.20900
H  43.64200 39.66900 20.34300
H  40.29000 41.89900 19.83100
H  40.17000 43.50100 20.58700
H  38.34800 42.72000 21.75900
H  39.23500 41.26800 22.37000
H  38.52400 41.28200 20.77600
H  41.19000 47.23500 24.66000
H  39.51700 47.22600 25.15700
H  39.89400 46.37000 23.65400
H  39.18500 44.54900 29.65700
H  41.15100 45.17000 33.44400
H  41.99200 46.45800 32.38300
H  42.45300 44.72700 32.32900

