158

Mg 35.70800 0.34600 30.20900
C  33.49300 1.78100 32.39800
C  38.10800 0.57100 32.82700
C  38.25700 -0.63500 28.08000
C  33.69700 0.86300 27.42600
N  35.74000 1.06100 32.31000
C  34.64500 1.49700 33.03800
C  34.92600 1.61000 34.49900
C  36.59800 1.67400 34.48900
C  36.87000 1.01000 33.13500
C  37.32000 3.09900 34.69000
C  34.36700 0.45500 35.32300
C  33.38500 0.83700 36.41400
H  33.59200 2.13800 37.22400
N  37.85800 -0.16000 30.47800
C  38.58100 0.00500 31.59800
C  39.97500 -0.42500 31.34800
C  39.94200 -0.98400 30.02200
C  38.66000 -0.53900 29.44100
C  41.06700 -0.45100 32.37300
C  40.98900 -1.72800 29.17700
O  40.79900 -2.13800 28.00600
C  42.26400 -2.09200 29.87300
N  36.08300 0.51100 27.97100
C  37.12400 -0.11400 27.41100
C  36.95800 -0.28700 25.89100
C  35.40300 0.10000 25.63600
C  35.03200 0.48400 27.11500
C  37.87200 0.52100 25.06000
C  34.47000 -0.97600 25.15700
C  33.43800 -0.52500 24.06500
N  33.95800 1.14000 29.87100
C  33.19200 1.20100 28.74700
C  31.85500 1.71800 29.06300
C  31.93600 1.93900 30.48200
C  33.23200 1.58600 30.94400
C  30.77200 1.87200 28.12100
C  31.26000 2.46400 31.61900
O  30.16600 2.95100 31.71500
C  32.20300 2.35000 32.88000
C  32.30400 3.61800 33.58000
O  33.05800 4.54400 33.27400
O  31.39400 3.76400 34.47800
C  31.35500 5.02800 35.29200
H  38.89600 0.56100 33.58200
H  38.81800 -1.23700 27.36100
H  32.97000 0.76700 26.61700
H  34.39900 2.49500 34.85600
H  36.99000 1.02900 35.27600
H  37.93500 3.51000 33.89000
H  37.85300 3.03000 35.63800
H  36.52500 3.81500 34.90100
H  35.13100 -0.09100 35.87600
H  33.63900 -0.09300 34.72400
H  33.47400 0.07600 37.19000
H  32.35900 0.81700 36.04800
H  41.26900 -1.52100 32.41000
H  40.66400 -0.21400 33.35800
H  41.96100 0.14200 32.18000
H  42.71100 -1.12200 30.08800
H  42.84900 -2.49200 29.04400
H  42.02600 -2.65600 30.77400
H  37.04600 -1.31100 25.52900
H  35.36600 0.98400 24.99900
H  38.82600 -0.00800 25.05300
H  37.92900 1.55500 25.40000
H  37.47400 0.49300 24.04600
H  34.04000 -1.41300 26.05700
H  35.02100 -1.82700 24.75800
H  32.46800 -0.74200 24.51200
H  33.52700 -1.17500 23.19400
H  33.29700 0.54300 23.90000
H  30.73500 0.88000 27.67200
H  31.06600 2.67500 27.44500
H  29.83400 2.06900 28.64100
H  31.74600 1.72500 33.64800
H  30.66300 5.85400 35.12900
H  32.34100 5.48300 35.38900
H  31.04600 4.66400 36.27100
Mg 46.99500 24.67200 28.31700
C  47.30700 27.02700 30.59800
C  46.57300 22.34400 30.75900
C  46.94300 22.38100 26.00900
C  47.72600 27.09800 25.79900
N  46.67100 24.71500 30.43700
C  46.85300 25.80100 31.17100
C  46.63100 25.53400 32.67200
C  46.80600 24.02800 32.69300
C  46.69000 23.65200 31.23300
C  48.11000 23.60000 33.43200
C  45.40300 26.20900 33.31600
C  45.26900 25.87000 34.83000
H  45.25200 26.95700 35.86000
N  46.65700 22.69400 28.35000
C  46.54000 21.91700 29.48400
C  46.32400 20.55200 29.08000
C  46.42700 20.49700 27.65200
C  46.69900 21.90100 27.27100
C  45.86900 19.39800 30.02000
C  46.40200 19.24200 26.69300
O  46.39000 19.42600 25.47100
C  46.35800 17.80000 27.13200
N  47.18800 24.80400 26.18200
C  47.19300 23.63300 25.48200
C  47.47000 23.97700 23.93600
C  47.22600 25.49300 23.86200
C  47.47100 25.83500 25.33000
C  48.84600 23.57700 23.44200
C  45.88400 26.13600 23.38800
C  44.63300 25.49100 23.94200
N  47.62400 26.64800 28.16400
C  47.92100 27.50200 27.12300
C  48.19300 28.84500 27.63200
C  47.87500 28.76000 28.98700
C  47.59200 27.35500 29.28600
C  48.54400 29.98800 26.72700
C  47.81800 29.47200 30.26000
O  48.11800 30.57900 30.65100
C  47.41100 28.36500 31.31600
C  48.55300 28.34400 32.28500
O  49.64900 27.85500 32.08500
O  48.11300 28.74400 33.53100
C  49.01000 28.50400 34.70900
H  46.55900 21.68600 31.63100
H  46.82200 21.69700 25.16600
H  47.81800 27.86200 25.02400
H  47.52000 26.05500 33.02700
H  46.02800 23.56300 33.29700
H  48.98400 23.38300 32.81800
H  47.82500 22.72800 34.02000
H  48.37600 24.35800 34.16900
H  44.48300 25.84300 32.86000
H  45.45600 27.29500 33.24100
H  46.12500 25.24200 35.07700
H  44.35900 25.29800 35.01600
H  46.54800 18.58300 29.76700
H  44.86000 19.20900 29.65300
H  45.95100 19.67900 31.07000
H  47.35600 17.56700 27.50400
H  46.07400 17.12000 26.32900
H  45.60600 17.62500 27.90200
H  46.79300 23.51300 23.22000
H  48.04900 25.90600 23.27800
H  49.24400 22.90300 24.20100
H  49.52400 24.39500 23.20000
H  48.85600 23.10400 22.46000
H  45.95600 26.06400 22.30300
H  45.89000 27.20500 23.59800
H  44.02400 26.32000 24.30400
H  44.80900 24.72800 24.70000
H  44.10000 24.94300 23.16600
H  48.36500 30.96100 27.18600
H  48.01000 29.90300 25.78000
H  49.58400 29.91100 26.41100
H  46.49800 28.68000 31.82000
H  49.58300 27.58200 34.61400
H  48.26800 28.43000 35.50300
H  49.53000 29.43800 34.92400

