158

Mg 35.27900 3.71800 29.57200
C  32.85700 4.39800 31.96000
C  37.75100 3.68900 31.95400
C  37.49800 2.96900 27.13000
C  32.66100 3.85000 27.20900
N  35.31800 3.98500 31.76000
C  34.18600 4.25300 32.52200
C  34.66900 4.32800 33.93800
C  36.22200 4.46900 33.88700
C  36.51400 3.99800 32.46300
C  36.67200 5.94100 34.02200
C  34.09700 3.13500 34.75600
C  34.07100 3.15700 36.29100
H  34.69000 4.32700 36.97600
N  37.31000 3.39500 29.57000
C  38.11700 3.34000 30.59300
C  39.42500 2.84600 30.27300
C  39.46400 2.65000 28.89300
C  38.07200 3.01600 28.44000
C  40.48800 2.55600 31.33700
C  40.61900 2.12200 27.96300
O  40.48000 2.13600 26.76900
C  41.83500 1.53100 28.57600
N  35.08800 3.69500 27.51600
C  36.15100 3.28100 26.68400
C  35.62500 2.99400 25.23300
C  34.06800 3.25400 25.31600
C  33.90400 3.59000 26.81400
C  36.39600 3.75700 24.14600
C  33.14200 2.14500 24.65000
C  32.81200 1.01000 25.55100
N  33.21700 4.10700 29.52300
C  32.30000 4.21600 28.46600
C  30.98200 4.47400 28.93400
C  31.21200 4.63800 30.34700
C  32.56900 4.40300 30.63800
C  29.71900 4.57200 28.11800
C  30.51700 4.88200 31.61800
O  29.28600 4.89500 31.78300
C  31.59700 4.83000 32.67000
C  31.71100 6.18000 33.22900
O  32.51200 6.99600 32.91600
O  30.76200 6.30900 34.22700
C  30.82300 7.52500 35.04100
H  38.52600 3.66600 32.72400
H  38.26900 2.70200 26.40400
H  31.85900 3.86700 26.46800
H  34.18900 5.23600 34.30300
H  36.71400 3.82100 34.61200
H  35.79100 6.57900 33.94100
H  37.42900 6.13600 33.26300
H  37.18100 6.08400 34.97500
H  34.74000 2.30100 34.47400
H  33.09200 2.91000 34.39700
H  34.47300 2.20500 36.63500
H  33.00200 3.16300 36.50700
H  40.86500 1.54700 31.16700
H  40.01400 2.52900 32.31800
H  41.26300 3.32200 31.35100
H  42.20200 2.30300 29.25200
H  42.52700 1.32500 27.75900
H  41.63300 0.66700 29.20900
H  35.64700 1.92100 25.03900
H  33.76100 4.15100 24.77800
H  36.55200 3.14700 23.25600
H  37.33500 4.05400 24.61400
H  35.86100 4.65800 23.84800
H  33.76000 1.64700 23.90300
H  32.36100 2.56900 24.01900
H  32.51500 1.27300 26.56600
H  33.73500 0.45500 25.71900
H  32.07700 0.33600 25.11200
H  28.89300 4.26100 28.75800
H  29.76100 3.86700 27.28800
H  29.66600 5.58400 27.71900
H  31.34200 4.13000 33.46500
H  31.78600 7.97800 35.28000
H  30.51800 7.15900 36.02100
H  30.22000 8.36900 34.70700
Mg 49.39000 45.01700 43.50400
C  45.88300 45.33700 42.73000
C  49.28800 41.76800 42.74800
C  52.66200 45.27400 43.24800
C  49.24400 48.71300 43.84800
N  47.76600 43.77500 42.80900
C  46.44100 44.05400 42.61400
C  45.66100 42.73000 42.44600
C  46.73600 41.62100 42.85500
C  48.05900 42.38600 42.76400
C  46.65900 40.86100 44.15500
C  45.03300 42.47900 41.03900
C  45.69600 43.14700 39.83500
H  45.62700 42.55800 38.39900
N  50.83800 43.69600 43.00300
C  50.61300 42.35800 42.87200
C  51.90600 41.70400 42.79700
C  52.90400 42.69500 42.80300
C  52.12900 43.99700 43.04400
C  52.10000 40.23300 42.65000
C  54.36900 42.51400 42.67200
O  54.83000 41.39600 42.60700
C  55.40800 43.66900 42.62300
N  50.77200 46.76400 43.39200
C  52.07700 46.53300 43.35400
C  52.87600 47.84800 43.58700
C  51.80100 48.96300 43.68400
C  50.49500 48.12900 43.64900
C  53.92600 47.80700 44.73300
C  51.83100 50.03600 42.51700
C  52.02500 51.50500 42.86800
N  47.86400 46.67000 43.58100
C  48.01700 48.08000 43.75500
C  46.73500 48.65400 43.70500
C  45.85500 47.67000 43.30100
C  46.64400 46.48300 43.17000
C  46.43700 50.11400 43.92500
C  44.51000 47.38000 42.87000
O  43.58600 48.14100 42.86900
C  44.48800 45.88600 42.36600
C  43.46100 45.09800 43.04600
O  42.72800 44.28200 42.50600
O  43.43100 45.47300 44.37200
C  42.26900 45.02700 45.13200
H  49.29800 40.67800 42.80700
H  53.75100 45.32200 43.31800
H  49.29200 49.78700 44.04000
H  44.98400 42.69200 43.29900
H  46.77800 40.93900 42.00500
H  46.54800 39.81900 43.85700
H  45.76200 41.10600 44.72200
H  47.50900 41.02700 44.81700
H  44.00700 42.84700 41.01500
H  45.00600 41.41000 40.82500
H  46.74600 43.34500 40.04700
H  45.12800 44.07100 39.72600
H  52.69100 39.86900 43.49000
H  52.58400 40.16500 41.67500
H  51.12700 39.74500 42.69800
H  55.22100 44.27900 41.73900
H  56.36800 43.17000 42.49000
H  55.42300 44.18300 43.58400
H  53.37000 48.01200 42.62900
H  51.75000 49.50100 44.63000
H  54.95800 47.83600 44.38100
H  53.95300 46.85400 45.26200
H  53.73000 48.57100 45.48500
H  50.89100 49.98000 41.96600
H  52.70500 49.89400 41.88100
H  51.20900 52.01800 42.36000
H  52.98900 51.90300 42.55300
H  51.98500 51.59100 43.95400
H  45.37700 50.34000 44.04200
H  46.95200 50.80600 43.26000
H  46.92000 50.44100 44.84600
H  44.25800 45.93300 41.30200
H  42.59700 45.04100 46.17200
H  42.07300 43.99900 44.82700
H  41.43400 45.72800 45.16800

