158

Mg 35.85800 1.77000 29.08600
C  33.75400 2.87800 31.41300
C  38.48600 2.20500 31.27300
C  38.12400 0.85900 26.63800
C  33.44300 2.04100 26.61700
N  36.07900 2.54600 31.13300
C  35.01000 2.70200 31.97600
C  35.43400 2.81500 33.37700
C  37.02100 2.78100 33.33900
C  37.24600 2.32000 31.85400
C  37.77600 4.06100 33.78900
C  34.81000 1.71200 34.27600
C  34.28600 2.17900 35.69400
H  35.07300 3.12700 36.63100
N  37.94100 1.51200 28.98200
C  38.80200 1.83100 30.00000
C  40.18700 1.70300 29.50600
C  40.08100 1.10000 28.20700
C  38.65100 1.11000 27.86700
C  41.42800 2.13400 30.20500
C  41.26000 0.45400 27.42100
O  41.02300 -0.09700 26.36200
C  42.70400 0.40000 27.88100
N  35.67900 1.23100 26.92900
C  36.81100 0.96600 26.15600
C  36.42100 0.86500 24.62900
C  34.85500 0.98500 24.77400
C  34.57900 1.44400 26.16500
C  37.06100 2.04300 23.88700
C  34.21800 -0.41600 24.50400
C  33.80700 -1.34600 25.77300
N  33.94200 2.30300 29.00400
C  33.12400 2.45700 27.96200
C  31.81800 2.91300 28.41300
C  32.04200 3.10400 29.80500
C  33.36000 2.70100 30.06200
C  30.60500 3.32700 27.62400
C  31.54100 3.63100 30.99600
O  30.43100 4.10700 31.16300
C  32.54500 3.44600 32.07700
C  32.72900 4.71000 32.80200
O  33.59600 5.50800 32.61200
O  31.73800 4.80500 33.79400
C  31.87900 5.97800 34.69600
H  39.29300 2.34800 31.99400
H  38.67500 0.46600 25.78100
H  32.72300 2.17200 25.80600
H  35.14600 3.81500 33.70100
H  37.45000 1.97000 33.92600
H  37.20300 4.62700 34.52400
H  37.96300 4.68700 32.91700
H  38.77100 3.88400 34.19800
H  35.56400 0.93900 34.42300
H  33.96100 1.25600 33.76700
H  34.02100 1.22100 36.14100
H  33.31500 2.60300 35.43600
H  41.87700 1.38300 30.85500
H  41.17500 2.93100 30.90300
H  42.17300 2.66600 29.61300
H  43.13700 1.39800 27.81900
H  43.29500 -0.22500 27.21100
H  42.75000 0.02100 28.90200
H  36.87600 0.00400 24.13800
H  34.45000 1.67300 24.03200
H  36.31800 2.83300 23.76900
H  37.16700 1.66100 22.87200
H  37.97400 2.44600 24.32500
H  34.91700 -0.96400 23.87200
H  33.38600 -0.18600 23.83800
H  34.21100 -2.32700 25.52600
H  32.72600 -1.36700 25.91500
H  34.23100 -0.98300 26.71000
H  30.53900 4.37100 27.93000
H  29.77600 2.72800 27.99900
H  30.74900 3.11400 26.56500
H  32.09700 2.69100 32.72300
H  32.43800 5.58200 35.54400
H  30.90500 6.38100 34.97400
H  32.51200 6.74200 34.24500
Mg 0.08500 44.06900 25.13900
C  2.14200 44.01100 28.10700
C  -2.45000 42.98600 27.13200
C  -1.70700 44.24600 22.42700
C  2.95300 44.71200 23.27000
N  -0.08000 43.48800 27.39900
C  0.86500 43.66800 28.41200
C  0.22100 43.34200 29.82600
C  -1.13600 42.67800 29.36500
C  -1.23900 43.13800 27.87100
C  -1.34900 41.16900 29.53700
C  -0.05600 44.66600 30.55500
C  0.06000 44.62400 32.04600
H  -0.29200 43.30200 32.75200
N  -1.77600 43.72700 24.84300
C  -2.71300 43.35100 25.75800
C  -3.98400 43.20500 25.08700
C  -3.83100 43.55900 23.71900
C  -2.43800 43.97700 23.63500
C  -5.25200 42.93200 25.85300
C  -4.85100 43.60200 22.50900
O  -4.49100 43.97500 21.39800
C  -6.31200 43.26000 22.69800
N  0.65200 44.02200 22.96000
C  -0.37600 44.36800 22.09200
C  0.17000 44.96000 20.73400
C  1.69300 45.29600 21.17500
C  1.73100 44.66400 22.59000
C  0.12800 43.95500 19.55900
C  2.10900 46.76800 21.10900
C  1.37000 47.73200 22.05900
N  2.11700 44.23700 25.50600
C  3.13100 44.49000 24.67900
C  4.39200 44.47900 25.35300
C  4.02600 44.36000 26.71400
C  2.58800 44.20300 26.74300
C  5.85200 44.69100 24.75500
C  4.53900 44.29700 28.03700
O  5.73200 44.23000 28.31600
C  3.28900 44.08500 28.99400
C  3.58100 42.90200 29.88900
O  3.67000 41.74100 29.44400
O  3.63200 43.27500 31.20700
C  3.87800 42.13700 32.15000
H  -3.21700 42.68100 27.84700
H  -2.29900 44.55600 21.56300
H  3.78100 45.06500 22.65300
H  0.79700 42.67500 30.46700
H  -1.93500 43.19900 29.89300
H  -0.58300 40.87500 30.25500
H  -1.10500 40.63500 28.61900
H  -2.28400 40.86300 30.00500
H  -1.05000 45.05200 30.33100
H  0.65900 45.42600 30.23900
H  -0.44300 45.46000 32.53200
H  1.11900 44.74400 32.27500
H  -5.48800 43.88500 26.32600
H  -4.89300 42.26700 26.63800
H  -5.96300 42.47100 25.16800
H  -6.74400 43.67300 23.61000
H  -6.23400 42.17400 22.75400
H  -6.98400 43.63300 21.92500
H  -0.45500 45.84100 20.58800
H  2.37000 44.71800 20.54600
H  -0.58600 44.32000 18.82100
H  -0.18400 42.99100 19.96100
H  1.00100 43.93100 18.90700
H  1.72700 47.00800 20.11700
H  3.19800 46.81500 21.11500
H  1.97800 48.23900 22.80800
H  0.74600 47.01800 22.59700
H  0.65100 48.35500 21.52600
H  5.82700 45.43300 23.95700
H  6.37400 43.78400 24.45000
H  6.45500 45.07300 25.57800
H  3.18800 44.95900 29.63600
H  2.87000 41.81200 32.41100
H  4.49700 42.45400 32.99000
H  4.43800 41.29500 31.74300

