158

Mg 24.97800 2.13100 29.28900
C  27.18100 1.96200 31.98800
C  22.36200 2.15900 31.49400
C  22.91300 1.95500 26.62000
C  27.64700 1.83900 27.10900
N  24.82600 2.15700 31.50400
C  25.84200 2.08900 32.41000
C  25.28500 2.09000 33.80100
C  23.75000 2.08600 33.60900
C  23.60600 2.20500 32.13900
C  23.09900 0.80200 34.09300
C  25.74700 3.38100 34.57700
C  24.87100 3.71800 35.78500
H  25.54700 4.13100 37.16400
N  22.87900 2.07400 29.09200
C  21.98100 2.14900 30.09300
C  20.65400 2.15600 29.46800
C  20.86700 2.17000 28.01700
C  22.28200 2.12800 27.86800
C  19.39200 2.19700 30.30700
C  19.85400 2.23200 26.84200
O  20.18300 2.40300 25.66400
C  18.44100 2.06800 27.17000
N  25.19300 1.71600 27.15700
C  24.22200 1.83700 26.22200
C  24.73400 1.89300 24.76600
C  26.28200 2.14200 24.97400
C  26.36600 1.90600 26.50800
C  24.30600 0.68200 23.92300
C  26.89200 3.58700 24.56200
C  26.32900 4.69700 25.41100
N  26.94700 1.83900 29.48200
C  27.91300 1.74600 28.51000
C  29.23900 1.56100 29.18700
C  28.96800 1.68400 30.53500
C  27.58900 1.85800 30.70400
C  30.55100 1.26800 28.60200
C  29.57000 1.54200 31.85300
O  30.70300 1.31400 32.22900
C  28.42500 1.85100 32.83000
C  28.40300 0.97400 33.99500
O  28.00300 -0.17400 34.02400
O  28.95700 1.69500 35.08200
C  28.92700 1.01500 36.41400
H  21.50600 2.18000 32.17200
H  22.31200 1.91200 25.70900
H  28.41800 2.08300 26.37400
H  25.58200 1.15400 34.27400
H  23.29000 3.00600 33.97000
H  23.62100 0.44900 34.98200
H  23.10700 0.14600 33.22300
H  22.06100 0.89400 34.41300
H  25.86000 4.26400 33.94800
H  26.76000 3.33700 34.97700
H  24.23500 2.86100 36.00400
H  24.25300 4.55800 35.46900
H  18.73800 1.34100 30.14700
H  18.65700 2.90300 29.92100
H  19.52800 2.36100 31.37600
H  18.31300 1.12100 27.69500
H  17.90700 1.99200 26.22300
H  18.17700 2.95200 27.75100
H  24.18800 2.74100 24.35300
H  26.90100 1.31400 24.63000
H  24.03100 1.05000 22.93400
H  23.45100 0.19600 24.39400
H  25.08600 -0.07800 23.87700
H  26.67800 3.72500 23.50200
H  27.94100 3.60700 24.85900
H  25.43200 4.45800 25.98200
H  26.25400 5.51500 24.69500
H  27.06600 5.01500 26.14800
H  31.19600 1.94700 29.16000
H  30.63300 1.46500 27.53300
H  31.01500 0.33100 28.90900
H  28.60400 2.83000 33.27500
H  28.39600 1.59700 37.16700
H  29.97400 0.79100 36.61800
H  28.48600 0.03000 36.26700
Mg 49.30900 35.61600 27.13900
C  47.14000 34.01300 29.43300
C  49.46400 38.25000 29.43000
C  50.60700 37.59600 24.69600
C  48.87000 33.01600 24.82000
N  48.56100 35.90000 29.24200
C  47.79200 35.11300 30.01200
C  47.70900 35.59400 31.45000
C  48.17800 37.10700 31.33100
C  48.80100 37.06900 29.92400
C  47.06400 38.20300 31.67200
C  48.64000 34.74100 32.36100
C  48.35700 34.76900 33.90800
H  47.35400 35.68500 34.43800
N  50.01200 37.55400 27.09600
C  49.95300 38.49500 28.11800
C  50.57500 39.81400 27.66300
C  50.93900 39.61200 26.28900
C  50.53100 38.19700 25.98800
C  50.61900 40.99200 28.52800
C  51.62300 40.55800 25.29100
O  52.14500 40.15200 24.22300
C  51.90200 42.04500 25.61300
N  49.67700 35.25000 24.98500
C  50.28900 36.28300 24.26300
C  50.74100 35.67300 22.90100
C  50.35800 34.13300 23.04700
C  49.63800 34.08600 24.33500
C  50.18200 36.51000 21.67700
C  51.62700 33.16000 23.08000
C  51.31900 31.76000 22.59800
N  48.18300 33.91400 27.07500
C  48.09200 32.95200 26.03900
C  47.19800 31.90600 26.55400
C  46.78800 32.27700 27.78900
C  47.45000 33.47500 28.14600
C  46.87500 30.59100 25.88000
C  45.90000 31.89400 28.81200
O  45.17700 30.93900 29.03600
C  46.01900 33.12700 29.89800
C  46.16500 32.60000 31.30700
O  46.92500 31.69800 31.60000
O  45.25800 33.16300 32.16900
C  45.19800 32.58600 33.55600
H  49.28100 39.10200 30.08700
H  51.12600 38.26100 24.00200
H  48.83900 32.12600 24.18800
H  46.67200 35.46000 31.75800
H  49.00100 37.27300 32.02600
H  46.93800 38.89300 30.83800
H  47.45000 38.71500 32.55300
H  46.08100 37.78000 31.87900
H  49.64200 35.14100 32.21000
H  48.67300 33.69500 32.05500
H  49.32400 34.87500 34.39900
H  48.01200 33.75700 34.11700
H  50.16100 40.94100 29.51600
H  50.03500 41.67700 27.91300
H  51.68100 41.23100 28.57200
H  52.40300 42.47900 24.74800
H  52.45300 42.16800 26.54600
H  50.89600 42.46200 25.60000
H  51.82800 35.62600 22.85000
H  49.65700 33.84300 22.26400
H  49.36500 35.88800 21.31200
H  50.96300 36.65800 20.93200
H  49.82400 37.48800 22.00000
H  51.98200 33.02700 24.10200
H  52.52600 33.58400 22.63300
H  52.12700 31.68000 21.87100
H  50.30800 31.75000 22.19000
H  51.57600 30.95100 23.28200
H  46.02600 30.74600 25.21300
H  46.86500 29.78100 26.60900
H  47.63500 30.32000 25.14600
H  45.06300 33.64900 29.85700
H  44.18500 32.91600 33.78400
H  45.94900 33.15100 34.10900
H  45.42700 31.52500 33.45600

