158

Mg 30.37100 58.20700 38.95700
C  27.82000 56.05400 38.22000
C  32.63600 55.59400 38.02800
C  32.99800 60.47700 38.83200
C  28.10400 60.81100 39.14900
N  30.25700 56.09900 38.12300
C  29.05300 55.40800 38.01100
C  29.30400 53.92200 37.60200
C  30.88800 53.79400 37.99500
C  31.33200 55.26500 38.03000
C  31.12700 53.00000 39.29300
C  29.08000 53.61300 36.11900
C  29.34900 54.69400 35.03800
H  28.14700 55.13900 34.09300
N  32.49000 58.05400 38.54300
C  33.19200 56.86500 38.23900
C  34.59400 57.23400 38.24200
C  34.73500 58.63200 38.50400
C  33.36600 59.10900 38.62600
C  35.63500 56.20200 38.11500
C  36.09100 59.35200 38.66400
O  37.22000 58.80800 38.63800
C  36.17900 60.92000 38.88700
N  30.58100 60.38000 38.85500
C  31.76600 61.03000 39.00900
C  31.53800 62.50800 39.14400
C  29.97600 62.61900 39.06500
C  29.46200 61.18100 39.05000
C  32.21100 63.30200 40.27300
C  29.40600 63.40300 37.86300
C  29.30900 64.92500 38.12500
N  28.38400 58.36600 38.91600
C  27.60600 59.47500 38.99700
C  26.19900 59.03500 38.99000
C  26.19800 57.69600 38.70900
C  27.56200 57.36100 38.61400
C  25.04900 59.90700 39.14600
C  25.40300 56.53500 38.42200
O  24.19900 56.37000 38.26000
C  26.51800 55.35000 38.19500
C  26.33100 54.44100 39.33700
O  26.86500 54.51200 40.41300
O  25.47900 53.42800 38.95100
C  24.98800 52.56100 40.01400
H  33.36400 54.79600 37.86100
H  33.78600 61.22400 38.94200
H  27.41700 61.64500 39.30600
H  28.74000 53.18500 38.17300
H  31.41300 53.20500 37.24300
H  30.26700 52.74600 39.91100
H  31.88400 53.36200 39.98900
H  31.66900 52.09900 39.00600
H  28.02800 53.33500 36.05100
H  29.69900 52.75900 35.84500
H  30.14200 54.21200 34.46600
H  29.84800 55.60400 35.37200
H  35.38600 55.55000 37.27800
H  35.54000 55.65400 39.05200
H  36.66500 56.54200 38.00500
H  35.65200 61.10900 39.82200
H  35.76600 61.49600 38.05900
H  37.18700 61.33100 38.94800
H  31.84700 62.96000 38.20200
H  29.66100 63.01500 40.03000
H  32.91600 64.05400 39.91800
H  32.86000 62.69100 40.90000
H  31.46800 63.76400 40.92300
H  28.41100 63.02300 37.63100
H  30.01100 63.18300 36.98300
H  29.86800 65.09200 39.04600
H  28.24500 65.16300 38.14000
H  29.82800 65.48300 37.34600
H  24.17900 59.37600 38.76000
H  25.19700 60.82700 38.58100
H  24.98100 60.13000 40.21100
H  26.37400 54.80000 37.26400
H  25.82400 52.34500 40.67900
H  24.75400 51.54700 39.68900
H  24.10000 52.86000 40.57200
Mg -12.38800 39.29800 42.83300
C  -10.90900 36.36600 41.62000
C  -10.12700 41.13500 41.04400
C  -14.08400 41.98900 43.71500
C  -15.19300 37.32200 43.66500
N  -10.69600 38.82100 41.57800
C  -10.29400 37.54900 41.24900
C  -9.04900 37.57700 40.44300
C  -8.78500 39.12300 40.28300
C  -9.95400 39.71800 40.94700
C  -7.39000 39.50000 40.67600
C  -9.21600 36.86400 39.05400
C  -8.14600 35.75000 38.83800
H  -7.02800 36.12500 37.93100
N  -12.11600 41.28600 42.49600
C  -11.15900 41.86700 41.68800
C  -11.26900 43.28200 41.75100
C  -12.43600 43.58900 42.43800
C  -12.94800 42.29100 42.99500
C  -10.24300 44.21500 41.06700
C  -12.95500 44.96400 42.64100
O  -12.38900 45.94700 42.06600
C  -14.13800 45.27000 43.59600
N  -14.37300 39.53400 43.54800
C  -14.72600 40.80400 44.07000
C  -16.10600 40.82200 44.67800
C  -16.51500 39.31500 44.68300
C  -15.36100 38.69100 43.87500
C  -16.23900 41.58900 46.01100
C  -17.91500 39.00700 44.11600
C  -18.79200 38.02900 44.90400
N  -12.94900 37.27200 42.71700
C  -14.14300 36.65600 43.14700
C  -14.04600 35.26000 42.85300
C  -12.72400 35.03700 42.31400
C  -12.14400 36.34100 42.27400
C  -15.09600 34.23600 43.17300
C  -11.78100 34.06100 41.78800
O  -11.95600 32.85600 41.84400
C  -10.52900 34.88300 41.34600
C  -9.30100 34.35500 42.01200
O  -8.89500 34.66400 43.11900
O  -8.71700 33.44800 41.15500
C  -7.64100 32.66400 41.65600
H  -9.42000 41.74000 40.47300
H  -14.59900 42.89900 44.02800
H  -16.11000 36.83600 44.00600
H  -8.24000 37.11000 41.00500
H  -8.86100 39.37400 39.22500
H  -7.46300 40.52600 41.03900
H  -6.67000 39.57200 39.86100
H  -6.92600 38.84200 41.41100
H  -9.01100 37.56500 38.24500
H  -10.16900 36.37500 38.85100
H  -8.60600 34.79700 38.57500
H  -7.66700 35.49700 39.78400
H  -10.78200 44.64600 40.22200
H  -9.29300 43.82000 40.70800
H  -10.17500 45.12400 41.66400
H  -15.12300 44.94200 43.26200
H  -14.17300 46.35900 43.56300
H  -13.83900 45.02100 44.61400
H  -16.78300 41.34000 43.99900
H  -16.43400 38.89900 45.68700
H  -15.28100 42.01700 46.30500
H  -16.61900 40.96900 46.82300
H  -17.09000 42.26400 46.10200
H  -17.90900 38.46000 43.17300
H  -18.45900 39.94900 44.05700
H  -19.35100 37.20300 44.46700
H  -19.52600 38.67900 45.38000
H  -18.18900 37.62400 45.71700
H  -15.66000 34.08400 42.25300
H  -15.70300 34.62400 43.99000
H  -14.58300 33.32700 43.48900
H  -10.40500 34.81500 40.26500
H  -7.89900 32.14500 42.57900
H  -6.77700 33.31000 41.81100
H  -7.46500 31.91600 40.88300

