158

Mg -1.48300 17.78400 27.24500
C  -1.86900 15.32100 29.72700
C  -2.06500 20.16800 29.48100
C  -1.36900 19.89400 24.67200
C  -1.58300 15.03400 24.73900
N  -1.91200 17.66400 29.41200
C  -1.96500 16.62800 30.26100
C  -2.31400 17.17900 31.65700
C  -2.60900 18.67600 31.40500
C  -2.18700 18.87400 29.96300
C  -4.02500 19.09500 31.74500
C  -1.16900 16.84800 32.69000
C  -1.59000 16.06300 33.94800
H  -0.44200 15.98700 34.99000
N  -1.61400 19.76500 27.04800
C  -1.70100 20.58400 28.16600
C  -1.57200 21.92900 27.73800
C  -1.38200 21.91000 26.38200
C  -1.37400 20.53100 25.97700
C  -1.82200 23.15300 28.62300
C  -1.13200 22.99800 25.38600
O  -1.03300 22.84200 24.18800
C  -1.02000 24.41200 25.85300
N  -1.45100 17.46600 25.05100
C  -1.46600 18.57400 24.25100
C  -1.83300 18.16600 22.78700
C  -1.67500 16.63600 22.80100
C  -1.54500 16.40600 24.28100
C  -3.22900 18.51300 22.31400
C  -0.47600 15.98900 22.03100
C  0.99400 16.28800 22.56100
N  -1.56800 15.64700 27.19000
C  -1.54800 14.72600 26.14100
C  -1.76900 13.38700 26.70400
C  -1.90400 13.58700 28.08900
C  -1.74300 14.98100 28.32100
C  -2.09100 12.20700 25.92200
C  -2.17900 12.90700 29.29400
O  -2.30100 11.68600 29.51100
C  -2.22200 13.98900 30.43200
C  -1.11500 13.58500 31.42000
O  0.04800 13.97100 31.34000
O  -1.55200 12.93000 32.52900
C  -0.62300 12.55000 33.64500
H  -2.15500 21.02000 30.15800
H  -1.52500 20.50300 23.77900
H  -1.66000 14.21000 24.02800
H  -3.20700 16.70700 32.06700
H  -1.99300 19.39900 31.94100
H  -4.55900 18.49000 32.47800
H  -4.52000 19.19900 30.78000
H  -3.96600 20.12100 32.11000
H  -0.79500 17.82900 32.98200
H  -0.37900 16.35400 32.12400
H  -1.82700 15.04400 33.63900
H  -2.40600 16.63500 34.39000
H  -2.67400 23.75700 28.31000
H  -0.89300 23.69800 28.78600
H  -2.18400 22.99600 29.63900
H  -1.93700 24.70100 26.36600
H  -0.86900 25.03000 24.96800
H  -0.29000 24.41000 26.66300
H  -1.12200 18.64900 22.11600
H  -2.56700 16.12700 22.43800
H  -3.59800 18.96200 23.23700
H  -3.85000 17.63400 22.14500
H  -3.22300 19.17100 21.44500
H  -0.57200 16.34100 21.00400
H  -0.53500 14.90100 21.99700
H  1.02500 16.75500 23.54500
H  1.49200 16.92000 21.82500
H  1.60700 15.39900 22.71000
H  -2.22800 11.46700 26.71000
H  -1.34300 11.84700 25.21600
H  -3.05400 12.41700 25.45700
H  -3.22400 13.93200 30.85600
H  -0.01100 11.68700 33.38400
H  -1.14400 12.35800 34.58400
H  0.06500 13.39000 33.73600
Mg 35.87000 49.10500 25.85000
C  36.45600 47.06600 28.58900
C  34.67600 51.57400 27.90600
C  35.07000 50.63600 23.15800
C  36.66600 46.26100 23.75800
N  35.65300 49.30700 28.00300
C  35.94300 48.32700 28.97400
C  35.76200 48.94100 30.36200
C  34.88700 50.25000 30.15200
C  35.06200 50.44400 28.60100
C  33.34900 50.15200 30.53800
C  37.12700 49.20000 31.13900
C  37.00700 49.08100 32.69600
H  36.72600 50.29600 33.53100
N  35.13400 50.89200 25.54400
C  34.76300 51.75700 26.53600
C  34.40200 53.00300 25.87200
C  34.44200 52.78900 24.45400
C  34.91100 51.38100 24.34800
C  34.05400 54.30500 26.72500
C  34.00200 53.67100 23.42400
O  34.05800 53.29000 22.26900
C  33.56100 55.05000 23.75800
N  36.11600 48.57400 23.68500
C  35.71900 49.43200 22.82700
C  35.83400 48.95200 21.37200
C  36.63100 47.57000 21.63500
C  36.39400 47.44300 23.10600
C  34.44600 48.65200 20.68900
C  38.21700 47.76900 21.35500
C  38.87500 46.84500 20.32200
N  36.42700 47.03600 26.09700
C  36.61200 45.97100 25.14800
C  37.02400 44.75700 25.88900
C  36.98000 45.13400 27.21600
C  36.58700 46.52000 27.29700
C  37.58900 43.40500 25.34200
C  37.26600 44.69600 28.57600
O  37.62600 43.64600 28.96800
C  36.84200 45.87800 29.50300
C  35.66700 45.29900 30.30300
O  34.62300 44.93200 29.83700
O  35.90800 45.35500 31.66900
C  34.77500 45.14800 32.60900
H  34.18600 52.21000 28.64500
H  34.86900 51.16700 22.22500
H  36.88500 45.37000 23.16600
H  35.23100 48.16300 30.91000
H  35.31500 51.12100 30.64800
H  32.71900 50.50200 29.72100
H  33.07500 50.77900 31.38700
H  33.11000 49.11600 30.78100
H  37.63700 50.14200 30.93800
H  37.86400 48.51000 30.72900
H  38.02900 48.76600 32.90800
H  36.19500 48.39500 32.93400
H  32.98100 54.43700 26.59000
H  34.74700 55.02100 26.28400
H  34.36600 54.16300 27.76000
H  33.77300 55.55500 22.81600
H  34.31300 55.48600 24.41600
H  32.59100 55.29100 24.19200
H  36.42800 49.67400 20.81200
H  36.28300 46.71100 21.06200
H  34.47600 47.71200 20.13900
H  34.25200 49.52400 20.06400
H  33.60100 48.60500 21.37600
H  38.75400 47.81500 22.30300
H  38.41600 48.76900 20.96900
H  38.26500 46.06800 19.86100
H  39.69200 46.40200 20.89100
H  39.29100 47.49100 19.54900
H  38.18000 43.56900 24.44100
H  36.77100 42.69300 25.23200
H  38.23500 42.95800 26.09700
H  37.71000 45.90800 30.16100
H  33.80200 45.10900 32.12000
H  34.70000 45.96500 33.32600
H  34.87500 44.18100 33.10300

