158

Mg 0.80900 8.04200 25.34100
C  1.47500 9.77700 28.20000
C  1.32600 5.03900 27.00300
C  0.46100 6.25700 22.41300
C  1.03300 10.96700 23.46600
N  1.53600 7.52600 27.27300
C  1.44900 8.40800 28.33000
C  1.42900 7.74700 29.69200
C  1.72400 6.30600 29.32100
C  1.57200 6.23800 27.74000
C  3.04600 5.78200 30.02600
C  0.06400 7.99000 30.50400
C  0.26400 8.15600 31.98800
H  1.33300 7.40800 32.66300
N  0.85800 5.96200 24.77100
C  1.03200 4.90800 25.62600
C  0.96500 3.72800 24.81700
C  0.57400 4.01200 23.50400
C  0.53600 5.46200 23.51600
C  1.27100 2.40800 25.37300
C  0.14800 3.10000 22.34700
O  -0.20500 3.47300 21.21200
C  0.07300 1.63400 22.55700
N  0.81500 8.56200 23.21200
C  0.67600 7.66100 22.22500
C  0.67100 8.36400 20.84400
C  0.69900 9.86800 21.09400
C  0.75500 9.85200 22.66200
C  1.83500 7.84300 19.98800
C  -0.39700 10.76800 20.47900
C  -1.85000 10.43700 21.15300
N  1.18200 9.91200 25.68700
C  1.22400 10.99400 24.85000
C  1.49400 12.19400 25.62200
C  1.61000 11.77100 26.95500
C  1.45400 10.33800 26.91300
C  1.59400 13.66300 25.29700
C  1.88000 12.16300 28.29700
O  2.23100 13.26200 28.73100
C  1.61400 10.89300 29.22900
C  2.82100 10.72700 30.11100
O  3.91200 10.37600 29.73000
O  2.44100 11.11400 31.35800
C  3.39600 11.09100 32.49900
H  1.66800 4.17500 27.57600
H  0.31000 5.75900 21.45300
H  0.96200 11.95000 22.99700
H  2.24500 8.17300 30.27600
H  0.91100 5.72100 29.75100
H  3.80200 6.42600 30.47500
H  3.51300 5.08300 29.33200
H  2.77300 5.17300 30.88800
H  -0.62700 7.18800 30.24500
H  -0.30400 8.95800 30.16300
H  -0.73300 8.03300 32.41000
H  0.42800 9.23400 32.00300
H  0.38200 1.81700 25.14900
H  1.35200 2.49000 26.45600
H  2.13900 2.05800 24.81500
H  1.00000 1.36200 23.06100
H  0.22000 1.13600 21.59900
H  -0.76900 1.37700 23.19800
H  -0.24400 8.06600 20.33200
H  1.63600 10.32700 20.77700
H  2.47600 8.68400 19.72500
H  1.44100 7.53500 19.02000
H  2.39900 7.06200 20.49800
H  -0.39500 10.69300 19.39200
H  -0.13000 11.80100 20.70100
H  -2.33800 9.98600 20.29000
H  -2.35800 11.37700 21.36800
H  -1.75900 9.71100 21.96100
H  1.63200 13.77700 24.21400
H  2.46800 14.16000 25.71700
H  0.75800 14.23800 25.69700
H  0.70300 11.05100 29.80600
H  4.18900 10.39100 32.23200
H  2.95700 10.78000 33.44700
H  3.84300 12.05700 32.73400
Mg -0.26100 43.86600 26.35600
C  1.71800 42.90600 28.84800
C  -3.03600 42.92700 28.22800
C  -2.29400 44.60500 23.67000
C  2.50900 44.44700 24.22700
N  -0.64800 42.98000 28.32100
C  0.37300 42.79800 29.24400
C  -0.22100 42.47300 30.61800
C  -1.68500 42.16700 30.28800
C  -1.81900 42.82000 28.88200
C  -2.12100 40.69800 30.23900
C  -0.04800 43.75500 31.54800
C  0.05500 43.67000 33.05200
H  -0.07000 42.21600 33.72200
N  -2.36400 43.73100 25.99500
C  -3.32100 43.42700 26.96100
C  -4.63200 43.71600 26.36900
C  -4.41800 44.12500 25.01400
C  -2.99300 44.11500 24.82000
C  -5.89700 43.44800 27.08700
C  -5.50400 44.48300 23.98200
O  -5.25100 44.74600 22.83000
C  -6.98000 44.48800 24.31200
N  0.02000 44.27500 24.20500
C  -0.98300 44.70000 23.37700
C  -0.34400 45.05100 22.01400
C  1.09700 45.45800 22.43400
C  1.20400 44.76400 23.79800
C  -0.42500 43.96600 20.85000
C  1.26900 46.96700 22.45800
C  0.15800 47.80400 23.26900
N  1.70400 43.58800 26.38800
C  2.71400 43.91600 25.50800
C  4.00700 43.65100 26.20600
C  3.64600 43.21800 27.51500
C  2.25900 43.13700 27.54700
C  5.38200 43.89200 25.69100
C  4.22200 42.96700 28.79500
O  5.41500 42.81400 29.05800
C  3.02300 42.95800 29.81600
C  3.20300 41.91000 30.84000
O  2.93300 40.73400 30.66000
O  3.69900 42.35500 32.01300
C  4.01600 41.32200 33.03900
H  -3.92400 42.84500 28.85800
H  -2.89700 44.74700 22.77000
H  3.18900 45.05400 23.62500
H  0.29500 41.62900 31.07600
H  -2.42400 42.71500 30.87200
H  -2.11400 40.42200 29.18400
H  -3.11100 40.60200 30.68600
H  -1.37800 40.09100 30.75600
H  -0.93600 44.31600 31.25700
H  0.80900 44.31600 31.17700
H  -0.61100 44.43700 33.44700
H  1.05100 44.02300 33.32200
H  -6.57600 44.28300 26.91200
H  -5.75600 43.41500 28.16800
H  -6.23800 42.52400 26.61900
H  -7.50300 44.89600 23.44700
H  -7.26100 45.09300 25.17500
H  -7.27100 43.45000 24.47100
H  -0.89300 45.94300 21.71100
H  1.83900 45.14200 21.70200
H  -1.45500 43.84200 20.51400
H  -0.12800 43.00800 21.27600
H  0.13800 44.38800 20.01700
H  1.46300 47.36200 21.46100
H  2.21100 47.12600 22.98200
H  0.05000 48.77700 22.78800
H  0.55800 48.02900 24.25700
H  -0.85700 47.44700 23.44300
H  5.63500 42.93400 25.23700
H  6.15700 44.10500 26.42800
H  5.33000 44.65000 24.91000
H  2.85500 43.94100 30.25600
H  3.05500 40.92100 33.36000
H  4.51300 41.76200 33.90300
H  4.64000 40.50200 32.68200

