158

Mg 23.86300 -5.04100 45.18300
C  25.78300 -2.53200 43.71500
C  21.29500 -4.15900 43.11600
C  22.31100 -7.96700 45.90100
C  26.90500 -6.32800 46.66400
N  23.63000 -3.58200 43.52300
C  24.49200 -2.62200 43.14200
C  23.87700 -1.59400 42.15000
C  22.38700 -2.02700 42.15500
C  22.42500 -3.36900 43.01100
C  21.43100 -0.99700 42.76800
C  24.55600 -1.69000 40.79100
C  24.14800 -0.66400 39.72300
H  24.52600 -0.97700 38.18900
N  22.01300 -5.92100 44.69100
C  21.12800 -5.35900 43.81200
C  19.97700 -6.32700 43.61600
C  20.25300 -7.46100 44.47400
C  21.55300 -7.14600 45.08200
C  18.82300 -5.97800 42.71600
C  19.32500 -8.60400 44.68100
O  18.32800 -8.68100 44.00600
C  19.53200 -9.70500 45.70800
N  24.50500 -6.80400 46.25700
C  23.63600 -7.84800 46.38000
C  24.28200 -8.98700 47.21900
C  25.69400 -8.44400 47.50100
C  25.77800 -7.21200 46.66700
C  23.35500 -9.26400 48.47200
C  26.91800 -9.41000 47.05400
C  28.09100 -9.55900 47.98500
N  25.89200 -4.49100 45.31900
C  26.94200 -5.07300 46.05200
C  28.07600 -4.13200 46.01400
C  27.73900 -3.13700 45.07100
C  26.33300 -3.43600 44.67600
C  29.50400 -4.28300 46.75700
C  28.18700 -1.93400 44.37400
O  29.22900 -1.34200 44.45000
C  26.95000 -1.51000 43.47100
C  26.61500 -0.16200 43.86600
O  25.79500 0.14200 44.71000
O  27.45200 0.74100 43.24300
C  27.19900 2.12400 43.58300
H  20.44400 -3.92500 42.47400
H  21.81500 -8.88000 46.23600
H  27.75900 -6.76800 47.18500
H  23.98500 -0.55800 42.47200
H  22.12700 -2.29900 41.13200
H  21.43300 0.03500 42.41600
H  21.46600 -0.90100 43.85400
H  20.43600 -1.40900 42.60200
H  24.34900 -2.71900 40.49500
H  25.55500 -1.33500 41.03900
H  24.87700 0.13000 39.88500
H  23.18500 -0.16900 39.84300
H  18.99300 -6.39600 41.72400
H  18.69100 -4.89800 42.64900
H  17.90600 -6.36500 43.16100
H  18.77500 -10.46500 45.89800
H  19.61800 -9.21600 46.67900
H  20.41100 -10.30600 45.47500
H  24.21900 -9.94700 46.70600
H  25.70000 -8.26900 48.57600
H  22.47100 -8.62600 48.50700
H  23.89200 -9.06600 49.40000
H  23.08800 -10.30800 48.63900
H  27.29600 -9.04800 46.09800
H  26.50000 -10.39000 46.82200
H  28.25100 -10.62200 48.16300
H  27.90400 -9.14500 48.97600
H  28.99100 -9.13500 47.54000
H  30.32100 -4.43200 46.05200
H  29.38000 -5.07000 47.50000
H  29.75500 -3.37200 47.30100
H  27.36100 -1.64100 42.47000
H  26.27500 2.36600 43.05700
H  28.05300 2.68000 43.19800
H  27.27300 2.30200 44.65600
Mg 48.79900 35.65900 28.00500
C  46.81500 33.93900 30.41600
C  48.49100 38.49900 30.04200
C  50.36700 37.35800 25.65900
C  48.12400 33.06000 25.83200
N  47.85000 36.16900 30.00900
C  47.22900 35.22300 30.86000
C  47.12400 35.78700 32.26700
C  47.27800 37.28300 32.06400
C  47.95800 37.35400 30.62100
C  46.07200 38.18300 32.17100
C  48.10700 35.09500 33.25300
C  47.60600 34.82400 34.68400
H  48.00800 35.90200 35.65900
N  49.55300 37.69000 27.97500
C  49.17400 38.64700 28.80400
C  49.92600 39.80600 28.41300
C  50.44900 39.59000 27.06200
C  50.18700 38.15000 26.86100
C  49.96200 41.06700 29.20700
C  51.17100 40.53400 26.01700
O  51.57000 40.05400 24.96400
C  51.34500 41.94400 26.34000
N  49.13100 35.35900 26.06100
C  49.91200 36.11900 25.32400
C  50.24500 35.59000 23.89600
C  49.54600 34.16900 24.09000
C  48.96000 34.11800 25.45100
C  49.70800 36.40500 22.72200
C  50.35400 32.89800 23.78800
C  49.71500 31.96100 22.76900
N  47.72600 33.82100 28.05800
C  47.53700 32.86300 27.07200
C  46.72200 31.74600 27.55300
C  46.43500 32.15700 28.87200
C  47.01800 33.39100 29.13600
C  46.33500 30.46900 26.80000
C  45.68200 31.69000 30.06800
O  45.02100 30.72400 30.37000
C  45.94300 32.82500 31.12400
C  46.59800 32.21700 32.31500
O  47.74800 31.87800 32.25400
O  45.71600 32.07800 33.32600
C  46.30300 31.64000 34.61900
H  48.52400 39.42000 30.62700
H  50.93100 37.78900 24.82900
H  48.00100 32.35200 25.01000
H  46.10300 35.61500 32.60800
H  47.97600 37.64600 32.81900
H  46.15800 38.78100 33.07700
H  45.18500 37.58100 32.36700
H  45.85800 38.79800 31.29700
H  49.01000 35.70600 33.25100
H  48.41300 34.12200 32.86800
H  48.07700 33.86900 34.91500
H  46.52600 34.67500 34.68200
H  50.92400 41.25400 29.68500
H  49.25100 41.28100 30.00500
H  49.75000 41.83600 28.46400
H  50.35200 42.37700 26.21800
H  51.90700 42.24800 25.45700
H  51.84200 42.01000 27.30800
H  51.29200 35.47700 23.61200
H  48.69200 34.07700 23.41900
H  50.49800 36.39800 21.97100
H  49.51800 37.43500 23.02400
H  48.79300 36.01900 22.27400
H  50.43500 32.28300 24.68500
H  51.37900 33.20200 23.57600
H  49.71700 32.43600 21.78800
H  48.75900 31.56300 23.11100
H  50.26900 31.07200 22.46900
H  46.23900 29.61400 27.46900
H  47.04000 30.16100 26.02700
H  45.47000 30.68100 26.17200
H  44.98200 33.16600 31.51000
H  45.53200 30.89600 34.82000
H  46.18800 32.42700 35.36500
H  47.31800 31.24700 34.55600

