158

Mg 2.13000 -2.05600 43.80900
C  5.57000 -0.91100 43.20600
C  1.09200 0.65400 42.01400
C  -0.81800 -3.49300 43.54500
C  3.48600 -4.95300 45.17200
N  3.31400 -0.44600 42.53400
C  4.64700 -0.02000 42.65600
C  4.88300 1.38600 42.04000
C  3.38600 1.88400 41.90900
C  2.51300 0.63700 42.17300
C  3.05900 2.95800 42.99600
C  5.64000 1.31300 40.64900
C  6.37000 2.63500 40.35900
H  6.38700 3.19100 38.94300
N  0.37400 -1.46100 42.91200
C  0.09900 -0.28000 42.31600
C  -1.34900 -0.15300 42.11700
C  -1.94000 -1.34000 42.62100
C  -0.74100 -2.17100 43.01100
C  -2.02600 0.92000 41.22000
C  -3.43200 -1.65000 42.56300
O  -4.15000 -0.85800 42.01000
C  -4.05500 -2.85100 43.11200
N  1.47000 -3.96600 44.25300
C  0.14100 -4.29600 44.20700
C  -0.16100 -5.70400 44.71600
C  1.17600 -6.11000 45.38200
C  2.12000 -4.94300 44.91600
C  -1.38000 -6.07100 45.54800
C  1.78700 -7.50700 44.96500
C  2.51200 -8.15100 46.21200
N  4.14200 -2.83400 44.17500
C  4.47400 -4.00400 44.79400
C  5.89700 -4.10400 44.75600
C  6.39400 -2.91700 44.25700
C  5.24100 -2.19900 43.79700
C  6.73800 -5.16100 45.30400
C  7.60600 -2.13200 44.04800
O  8.76300 -2.33800 44.39800
C  7.12400 -0.81200 43.29900
C  7.51200 0.36900 44.12900
O  7.23800 0.57300 45.27200
O  8.19600 1.30300 43.33800
C  8.47700 2.65900 43.82000
H  0.77400 1.64000 41.66900
H  -1.72100 -4.08300 43.37600
H  3.89000 -5.90600 45.51800
H  5.47900 2.02900 42.68800
H  3.31300 2.34100 40.92200
H  2.51000 2.53400 43.83700
H  2.40400 3.73200 42.59700
H  3.93500 3.32700 43.53000
H  4.96400 1.12000 39.81600
H  6.27600 0.43000 40.59700
H  7.39300 2.62500 40.73700
H  5.92700 3.37500 41.02500
H  -2.42700 0.46500 40.31400
H  -1.23900 1.64400 41.01000
H  -2.80900 1.51400 41.69300
H  -5.13900 -2.86700 43.22300
H  -3.72700 -3.11400 44.11800
H  -3.78800 -3.74600 42.55000
H  -0.29000 -6.35600 43.85200
H  1.06000 -5.98100 46.45800
H  -2.09400 -6.68700 45.00100
H  -1.91400 -5.18300 45.88600
H  -1.25100 -6.66300 46.45400
H  2.42800 -7.37100 44.09500
H  1.04200 -8.21000 44.59200
H  1.97800 -9.04900 46.52300
H  2.69100 -7.44700 47.02500
H  3.47500 -8.53900 45.88100
H  7.65400 -4.83300 45.79400
H  7.08400 -5.68500 44.41300
H  6.20400 -5.94500 45.84100
H  7.63700 -0.71100 42.34300
H  7.77400 3.02000 44.57100
H  8.49900 3.43800 43.05800
H  9.47600 2.48700 44.22000
Mg 35.17500 48.21800 26.40000
C  35.55800 46.20600 29.08200
C  34.12400 50.70000 28.51400
C  34.62700 50.22400 23.64600
C  36.33000 45.68700 24.33500
N  34.91900 48.38300 28.57800
C  35.20200 47.46600 29.46100
C  35.21700 47.96800 30.86600
C  34.32000 49.31700 30.69800
C  34.51900 49.54500 29.16700
C  32.85800 49.12200 31.06900
C  36.72100 48.17500 31.32300
C  37.05500 47.70100 32.80800
H  36.73300 48.68100 33.96500
N  34.38900 50.17200 26.16400
C  34.02200 51.03400 27.09300
C  33.46700 52.16900 26.57400
C  33.83100 52.15000 25.17900
C  34.34300 50.79100 24.92700
C  32.71300 53.21100 27.31600
C  33.64900 53.27800 24.16000
O  33.97900 53.22200 22.94300
C  33.11800 54.59600 24.62800
N  35.37000 47.97600 24.32600
C  35.02500 48.91800 23.40900
C  35.25000 48.35200 22.03500
C  36.27900 47.12100 22.28300
C  35.80500 46.86100 23.72600
C  33.99900 48.06900 21.22400
C  37.77900 47.42900 22.02800
C  38.59500 46.69500 20.91600
N  35.82600 46.22600 26.60900
C  36.38300 45.36200 25.72400
C  36.70400 44.17500 26.37600
C  36.38800 44.39400 27.73700
C  35.86300 45.68300 27.78400
C  37.17800 42.89500 25.69700
C  36.42300 43.88500 29.09300
O  36.87300 42.82100 29.50100
C  36.04800 45.04200 30.02600
C  35.00600 44.58600 30.93300
O  33.84400 44.32400 30.67200
O  35.57000 44.46100 32.13700
C  34.61400 44.29200 33.25900
H  33.82900 51.50600 29.18900
H  34.55700 50.79700 22.72000
H  36.63800 44.91700 23.62600
H  34.92200 47.29000 31.66700
H  34.66600 50.25200 31.13800
H  32.27200 49.36600 30.18300
H  32.67100 49.86600 31.84400
H  32.65100 48.11200 31.42100
H  37.05800 49.21200 31.31500
H  37.42100 47.62500 30.69400
H  38.12500 47.49800 32.85900
H  36.48000 46.78700 32.95600
H  31.86900 53.48200 26.68300
H  33.27700 54.11000 27.56600
H  32.27200 52.92200 28.27100
H  32.09400 54.39400 24.94300
H  33.19300 55.30400 23.80300
H  33.65700 55.02400 25.47300
H  35.80600 49.01700 21.37400
H  35.91700 46.28900 21.67800
H  33.08000 48.47700 21.64500
H  33.89200 46.98800 21.14500
H  34.19800 48.55400 20.26800
H  38.42500 47.31700 22.89900
H  37.97900 48.49000 21.87700
H  38.85200 47.51000 20.23900
H  37.97900 45.98300 20.36800
H  39.48800 46.17300 21.26200
H  36.52200 42.11800 25.30400
H  37.95800 42.46000 26.32200
H  37.55100 43.23700 24.73100
H  36.98500 45.27700 30.53000
H  34.63300 45.15600 33.92400
H  34.90200 43.39200 33.80400
H  33.59100 44.17600 32.90300

