158

Mg 48.08800 15.10900 28.26200
C  45.74000 15.35900 31.00700
C  49.98400 17.61800 29.89000
C  50.13600 15.13000 25.65300
C  45.58100 13.54400 26.40800
N  47.83600 16.26400 30.22700
C  46.95500 16.14600 31.26900
C  47.29400 17.03500 32.51800
C  48.23300 18.06400 31.80300
C  48.76500 17.27700 30.52300
C  47.70800 19.53100 31.59300
C  48.03900 16.14900 33.58200
C  47.28400 16.12400 34.93500
H  48.07800 15.80700 36.12000
N  49.87600 16.16000 27.86600
C  50.51700 17.06100 28.67300
C  51.80000 17.33900 28.10300
C  51.89700 16.59200 26.90900
C  50.62600 15.88800 26.77000
C  52.81700 18.21200 28.79400
C  53.02800 16.53100 25.88100
O  52.93200 15.91900 24.80100
C  54.32000 17.30900 26.13700
N  47.78800 14.67100 26.23000
C  48.89800 14.52600 25.46200
C  48.50200 13.71900 24.21100
C  47.01000 13.43400 24.28400
C  46.77200 13.85000 25.73300
C  48.97100 14.24300 22.81500
C  46.51500 12.00900 23.87300
C  45.55100 11.96000 22.66200
N  46.12500 14.44000 28.66300
C  45.23700 13.79800 27.77900
C  44.10200 13.43300 28.49100
C  44.21000 14.12500 29.70900
C  45.49500 14.68000 29.78400
C  43.00900 12.68500 27.96300
C  43.51800 14.46400 30.90600
O  42.35600 14.16900 31.15400
C  44.55100 15.01100 31.92500
C  43.98400 16.28600 32.62400
O  43.45300 17.26300 32.09300
O  44.14600 16.16500 33.96800
C  43.73200 17.29200 34.79400
H  50.67200 18.30200 30.39000
H  50.84300 14.84700 24.87000
H  44.75800 13.10500 25.84000
H  46.33300 17.42400 32.85500
H  49.04400 18.20900 32.51700
H  48.35900 20.22900 32.11900
H  46.71100 19.51800 32.03300
H  47.86000 19.85600 30.56300
H  49.12300 16.22700 33.65400
H  47.93500 15.14400 33.17100
H  46.61000 15.27700 34.80400
H  46.66500 16.97200 35.22700
H  52.43100 18.75900 29.65400
H  53.21400 18.93600 28.08300
H  53.58400 17.53700 29.17200
H  54.86100 16.88700 26.98400
H  54.17600 18.38800 26.07100
H  54.91900 17.10200 25.25000
H  48.99800 12.74900 24.23400
H  46.40600 14.11800 23.68700
H  49.61300 15.12100 22.89100
H  48.11000 14.71900 22.34600
H  49.30600 13.43000 22.17000
H  46.09200 11.46400 24.71800
H  47.36800 11.37800 23.62300
H  46.06000 11.69700 21.73500
H  45.00000 12.89100 22.53000
H  44.76600 11.21300 22.77100
H  43.36000 11.96200 27.22700
H  42.43200 13.35000 27.32100
H  42.38000 12.23600 28.73100
H  44.86900 14.20500 32.58600
H  44.30400 18.16600 34.48100
H  43.85700 17.08000 35.85500
H  42.64900 17.40300 34.84500
Mg -11.34100 18.01200 42.60600
C  -8.15200 16.51000 41.92000
C  -9.74500 21.02100 41.81100
C  -14.28300 19.38000 42.47100
C  -12.80600 14.84200 42.49800
N  -9.26800 18.57500 41.87700
C  -8.14000 17.86300 41.67700
C  -6.86100 18.66900 41.29000
C  -7.39900 20.08100 41.66500
C  -8.90400 19.90000 41.87900
C  -6.73200 20.98000 42.71800
C  -6.49100 18.43300 39.82800
C  -4.94400 18.42600 39.52900
H  -4.28400 18.80500 38.23800
N  -11.91200 20.02100 42.42200
C  -11.17900 21.10900 41.99700
C  -12.09500 22.18700 41.68300
C  -13.42900 21.80900 42.04000
C  -13.30700 20.34300 42.36600
C  -11.58000 23.49100 41.13300
C  -14.61000 22.70800 42.11900
O  -14.49100 23.92400 42.08700
C  -15.97500 22.18300 42.57600
N  -13.31600 17.17800 42.43000
C  -14.32600 17.99100 42.60800
C  -15.58800 17.26300 42.67700
C  -15.14400 15.75300 42.73800
C  -13.63600 15.88600 42.35000
C  -16.46300 17.60100 43.94900
C  -15.92500 14.71500 41.89900
C  -15.78900 14.81700 40.36800
N  -10.67200 16.03000 42.36300
C  -11.37200 14.87200 42.34100
C  -10.47500 13.71100 42.22600
C  -9.20200 14.33800 42.11700
C  -9.35300 15.74500 42.11900
C  -10.88300 12.26700 42.11300
C  -7.79800 14.05600 42.12600
O  -7.21900 13.00900 42.14000
C  -7.06400 15.49800 41.72100
C  -5.92600 15.66900 42.74700
O  -4.71700 15.75100 42.52900
O  -6.49300 15.91000 43.91400
C  -5.59800 16.45000 44.93800
H  -9.13300 21.87200 41.50500
H  -15.31300 19.71700 42.34100
H  -13.27900 13.86000 42.56500
H  -6.05700 18.38500 41.96900
H  -7.38900 20.73200 40.79100
H  -7.43600 21.37000 43.45300
H  -6.28700 21.87300 42.27800
H  -5.94000 20.36300 43.14200
H  -6.84600 19.13500 39.07400
H  -6.90800 17.53800 39.36700
H  -4.44600 17.51700 39.86800
H  -4.58200 19.17400 40.23500
H  -12.40200 23.77200 40.47400
H  -10.73700 23.48600 40.44200
H  -11.44300 24.29300 41.85800
H  -16.50500 21.61500 41.81300
H  -16.52400 23.09100 42.82900
H  -15.77500 21.69900 43.53200
H  -16.29100 17.32400 41.84600
H  -15.22100 15.55600 43.80700
H  -16.64000 16.77500 44.63900
H  -17.38500 18.13100 43.70800
H  -15.87800 18.26100 44.58900
H  -16.99400 14.74000 42.11200
H  -15.62400 13.72800 42.25000
H  -15.22800 13.98600 39.94100
H  -15.19800 15.70800 40.15700
H  -16.78500 14.88400 39.93000
H  -10.17800 11.55000 42.53200
H  -10.88300 12.14200 41.03000
H  -11.93800 12.21800 42.38400
H  -6.65400 15.50400 40.71100
H  -6.27900 16.60900 45.77400
H  -5.31100 17.44200 44.58900
H  -4.82400 15.81400 45.36600

