158

Mg 8.87500 4.33000 27.20000
C  10.01100 2.47600 29.91700
C  6.81200 6.11000 29.54700
C  7.79200 6.06100 24.68500
C  10.51900 2.15900 24.98700
N  8.52800 4.28300 29.47800
C  9.20900 3.52900 30.33600
C  8.89800 3.92500 31.73900
C  7.80800 4.99400 31.61500
C  7.69500 5.14800 30.14100
C  6.45700 4.60800 32.31600
C  10.24700 4.50000 32.40400
C  10.83000 3.82200 33.64600
H  11.28800 4.53100 34.95900
N  7.50400 5.80500 27.11300
C  6.76500 6.41100 28.14700
C  6.02200 7.45900 27.55100
C  6.36100 7.58800 26.16600
C  7.25900 6.50600 25.96500
C  5.09100 8.39400 28.33100
C  5.93100 8.53600 25.09900
O  6.42700 8.65100 24.00000
C  4.93400 9.60400 25.40900
N  9.08200 4.03900 25.10900
C  8.55500 5.02100 24.28600
C  8.68700 4.62000 22.85500
C  9.74900 3.44400 22.95100
C  9.85200 3.23000 24.42900
C  7.45900 4.35900 21.91000
C  11.12900 3.77100 22.30700
C  11.97200 4.75300 23.13200
N  10.09900 2.64400 27.36800
C  10.71300 1.87900 26.37400
C  11.48500 0.87800 27.06100
C  11.27700 1.05800 28.45400
C  10.38100 2.12700 28.60700
C  12.13800 -0.33300 26.55500
C  11.68300 0.52800 29.77400
O  12.49200 -0.30700 30.14700
C  10.85900 1.48800 30.77400
C  10.12800 0.74400 31.78300
O  9.01000 0.35900 31.59100
O  10.78300 0.52000 32.94100
C  10.00600 -0.00500 34.08600
H  6.22600 6.70100 30.25300
H  7.45100 6.59900 23.79900
H  11.04500 1.55300 24.24600
H  8.49500 3.08900 32.31000
H  8.03900 5.95100 32.08300
H  6.09600 5.53000 32.77300
H  6.52200 3.87800 33.12200
H  5.70200 4.16700 31.66500
H  10.14300 5.50900 32.80400
H  10.99700 4.52200 31.61300
H  11.73900 3.37800 33.24100
H  10.14200 3.02700 33.93500
H  5.12400 8.22600 29.40800
H  4.05200 8.39700 28.00000
H  5.31900 9.45700 28.25100
H  4.01100 9.09600 25.69000
H  4.59600 10.12800 24.51500
H  5.23300 10.32600 26.16800
H  9.21700 5.39000 22.29500
H  9.29500 2.52800 22.57500
H  6.50400 4.53800 22.40400
H  7.52100 3.32800 21.56300
H  7.43200 5.06200 21.07700
H  10.91300 4.04500 21.27400
H  11.67800 2.83600 22.19600
H  12.43300 5.43700 22.42000
H  12.82300 4.25200 23.59400
H  11.46000 5.44500 23.80000
H  13.20800 -0.41400 26.74600
H  11.98600 -0.48100 25.48600
H  11.63000 -1.14400 27.07600
H  11.63300 1.91100 31.41500
H  9.72500 -1.04800 33.93800
H  9.18700 0.71000 34.17000
H  10.67800 0.03900 34.94300
Mg 50.24700 45.58100 41.30900
C  46.98400 46.47400 40.48600
C  49.53800 42.46600 40.11500
C  53.51100 44.80300 41.64500
C  51.11000 48.98600 41.72900
N  48.47300 44.63100 40.28500
C  47.24600 45.17400 40.09600
C  46.28800 44.24800 39.38400
C  47.11800 42.92500 39.37800
C  48.47100 43.31300 40.03000
C  46.35600 41.73900 40.10900
C  46.02700 44.64700 37.93700
C  44.57100 44.37900 37.37100
H  44.40500 43.56000 36.11400
N  51.35600 43.83100 41.03500
C  50.85100 42.65400 40.54800
C  51.93900 41.71200 40.44000
C  53.17100 42.40100 40.79800
C  52.73700 43.77000 41.21100
C  51.76300 40.27700 40.00800
C  54.58400 41.81600 40.80400
O  54.71700 40.62700 40.48800
C  55.85700 42.50500 41.23100
N  52.02500 46.79200 41.48600
C  53.20700 46.14600 41.78000
C  54.27700 47.20200 42.02000
C  53.56900 48.59300 42.18700
C  52.16400 48.14900 41.68400
C  55.24100 46.95500 43.15700
C  54.16400 49.70400 41.24300
C  54.12800 51.10900 41.80000
N  49.25200 47.43700 41.30600
C  49.69600 48.69700 41.54500
C  48.57400 49.59100 41.36000
C  47.54300 48.79700 40.91600
C  47.92800 47.45300 40.90600
C  48.70400 51.05600 41.48800
C  46.17300 48.85400 40.46200
O  45.40500 49.78300 40.38200
C  45.70800 47.38100 40.25300
C  44.46000 47.11900 40.99700
O  44.29700 47.16900 42.24100
O  43.45600 46.79200 40.09000
C  42.19000 46.50500 40.70100
H  49.31600 41.53800 39.58400
H  54.56500 44.59500 41.83800
H  51.34800 50.01200 42.01800
H  45.35400 44.05800 39.91400
H  47.44000 42.57400 38.39800
H  45.27500 41.60700 40.05500
H  46.61100 41.70900 41.16800
H  46.83600 40.86100 39.67600
H  46.70400 44.14700 37.24400
H  46.30200 45.69700 37.83100
H  44.23200 45.38300 37.11400
H  43.97400 44.04700 38.21900
H  52.57400 39.90100 39.38400
H  50.97300 40.18800 39.26100
H  51.76500 39.62100 40.87900
H  55.70100 42.82700 42.26100
H  55.66700 43.33900 40.55600
H  56.73300 42.01200 40.81100
H  54.96400 47.20500 41.17300
H  53.59700 48.95700 43.21400
H  56.24900 46.65500 42.87300
H  54.82400 46.13100 43.73600
H  55.37800 47.83700 43.78200
H  53.57400 49.61500 40.33000
H  55.17600 49.45200 40.92800
H  53.46600 51.65200 41.12500
H  55.14800 51.49300 41.80700
H  53.67100 51.09100 42.78900
H  48.30900 51.54100 40.59500
H  49.77300 51.26500 41.45200
H  48.24700 51.38100 42.42300
H  45.41100 47.39500 39.20500
H  41.55100 46.42100 39.82200
H  41.73200 47.24400 41.35900
H  42.23800 45.50900 41.14100

