158

Mg 16.12500 -1.54200 28.04300
C  15.28400 0.69700 30.64400
C  18.29100 -3.12700 30.17400
C  17.34000 -3.46600 25.31600
C  14.65800 0.50900 25.64900
N  16.87900 -1.13800 30.14000
C  16.15800 -0.35600 31.07700
C  16.54300 -0.77300 32.48000
C  17.65600 -1.83700 32.30600
C  17.63100 -2.06400 30.81700
C  19.14000 -1.38200 32.76200
C  15.24300 -1.23300 33.26500
C  15.11500 -0.79100 34.66800
H  16.27500 -0.00400 35.29700
N  17.48300 -3.14400 27.81600
C  18.22100 -3.68200 28.84800
C  18.93200 -4.86700 28.34600
C  18.56500 -5.04900 26.99900
C  17.78700 -3.83000 26.63600
C  19.89900 -5.63400 29.18900
C  18.94500 -6.16900 26.01900
O  18.60700 -6.16800 24.84200
C  19.89700 -7.18900 26.50100
N  16.16400 -1.32400 25.76500
C  16.64100 -2.27300 24.94000
C  16.29300 -1.91000 23.42200
C  15.43100 -0.66700 23.51000
C  15.43200 -0.47900 25.06800
C  17.56200 -1.79200 22.50900
C  14.02600 -0.69100 22.83300
C  13.73000 0.41800 21.84200
N  15.04400 0.07000 28.09800
C  14.50400 0.82000 27.02400
C  13.66700 1.80600 27.53900
C  13.93600 1.81600 28.96600
C  14.83400 0.76300 29.26000
C  12.63200 2.69300 26.79600
C  13.65100 2.43500 30.23400
O  12.89800 3.37700 30.47700
C  14.47900 1.66700 31.42200
C  15.38900 2.64800 32.04400
O  16.60100 2.52300 32.17900
O  14.68500 3.62800 32.85300
C  15.53700 4.40700 33.73200
H  18.86000 -3.80200 30.81600
H  17.46800 -4.19000 24.50900
H  14.15000 1.18800 24.96100
H  16.90600 0.12400 32.98200
H  17.28100 -2.68900 32.87400
H  19.41700 -2.05000 33.57700
H  19.07100 -0.33700 33.06400
H  19.90700 -1.48000 31.99400
H  15.14100 -2.31800 33.30600
H  14.34200 -0.87700 32.76400
H  14.87600 -1.67800 35.25500
H  14.30200 -0.08500 34.83400
H  19.36900 -6.52700 29.51900
H  20.24900 -5.15500 30.10400
H  20.73300 -5.82800 28.51400
H  20.12000 -7.96300 25.76700
H  19.32900 -7.65500 27.30600
H  20.91400 -6.87800 26.73700
H  15.60600 -2.68200 23.07500
H  16.02900 0.19500 23.21400
H  17.94600 -2.80400 22.38400
H  18.29100 -1.14300 22.99600
H  17.32800 -1.52100 21.48000
H  13.27400 -0.48400 23.59500
H  13.70600 -1.61600 22.35300
H  13.03000 0.11000 21.06500
H  14.70800 0.59000 21.39400
H  13.40500 1.31700 22.36500
H  12.08400 3.31600 27.50300
H  11.99500 1.97900 26.27500
H  13.07200 3.31200 26.01300
H  13.77300 1.32100 32.17600
H  16.18700 5.00900 33.09700
H  16.13900 3.65900 34.24700
H  15.11500 5.06300 34.49300
Mg 46.89200 16.72600 28.06700
C  45.82500 16.32500 31.24300
C  49.58800 18.60700 29.32900
C  48.13200 17.28000 24.93600
C  44.14200 14.96600 26.89100
N  47.50400 17.48300 30.05100
C  46.98100 17.06500 31.20300
C  47.81200 17.43200 32.42000
C  48.80700 18.37600 31.75400
C  48.60500 18.18800 30.28400
C  48.63600 19.88200 32.03700
C  48.40700 16.22500 33.18500
C  47.92900 16.17000 34.74700
H  47.98600 17.47600 35.60800
N  48.63500 17.83800 27.21800
C  49.60200 18.53900 27.93200
C  50.58700 19.05100 27.01400
C  50.14600 18.59200 25.69400
C  48.89200 17.92600 25.94200
C  51.72700 19.86700 27.41700
C  50.82900 18.78500 24.37100
O  50.31600 18.45500 23.30300
C  52.09700 19.49300 24.31600
N  46.26100 16.16100 26.22900
C  46.92600 16.50700 25.07500
C  46.10400 16.03300 23.83800
C  44.91000 15.25900 24.41500
C  45.11800 15.47000 25.92900
C  45.65000 17.21100 22.91500
C  44.71100 13.73600 23.98600
C  44.00900 13.48000 22.70100
N  45.20300 15.91900 28.88000
C  44.25800 15.08700 28.28100
C  43.32500 14.63700 29.29300
C  43.93800 15.01800 30.52600
C  45.09800 15.76100 30.16900
C  42.14700 13.76600 29.03600
C  43.84800 14.97200 31.97400
O  43.00800 14.43000 32.72400
C  45.06600 15.77500 32.39600
C  44.54900 16.90500 33.22800
O  44.23000 18.04700 32.81000
O  44.35100 16.51300 34.56000
C  43.46700 17.35900 35.38200
H  50.41000 19.14700 29.80200
H  48.37000 17.41200 23.87800
H  43.25000 14.53500 26.43100
H  47.24400 18.07000 33.09700
H  49.79800 18.04000 32.05900
H  49.55000 20.31100 31.62700
H  48.63300 20.10600 33.10400
H  47.71600 20.23000 31.56700
H  49.49300 16.30600 33.17300
H  48.04600 15.27000 32.80200
H  48.56400 15.41000 35.20300
H  46.89900 15.84000 34.87700
H  51.70100 20.80500 26.86100
H  52.57500 19.24100 27.13900
H  51.74100 20.10300 28.48100
H  52.02700 20.46700 24.80000
H  52.23400 19.64600 23.24600
H  52.88700 18.90200 24.77900
H  46.73600 15.41100 23.20600
H  44.00500 15.81700 24.17500
H  46.32600 17.23000 22.06000
H  45.48200 18.17000 23.40400
H  44.70200 16.92000 22.46300
H  44.08000 13.28200 24.75000
H  45.72900 13.34500 23.99700
H  43.10800 12.89400 22.88100
H  44.66900 12.91000 22.04600
H  43.75300 14.37800 22.13900
H  42.07900 13.60600 27.96000
H  41.27000 14.33000 29.35400
H  42.32300 12.79900 29.50700
H  45.67000 15.21500 33.11000
H  42.43200 17.04700 35.24600
H  43.60100 18.44100 35.35000
H  43.65500 17.15700 36.43700

