158

Mg 34.92300 3.32600 29.89800
C  32.76600 4.34500 32.45200
C  37.66700 3.51800 32.36100
C  37.24800 2.64400 27.53000
C  32.55400 3.72500 27.57600
N  35.20300 3.82700 32.18200
C  34.08800 4.06700 32.99900
C  34.51800 3.99600 34.44700
C  36.10700 4.08600 34.42400
C  36.43200 3.81800 32.89700
C  36.63000 5.50500 34.83800
C  34.01500 2.72600 35.21500
C  33.87900 2.87800 36.71100
H  34.76900 3.98300 37.55000
N  37.09900 2.90900 29.99300
C  38.00100 2.99200 31.06300
C  39.29100 2.56900 30.61700
C  39.23200 2.22400 29.25900
C  37.83400 2.53500 28.86000
C  40.49900 2.47400 31.60600
C  40.29300 1.56100 28.36000
O  40.03600 1.24400 27.24200
C  41.70700 1.46900 28.81700
N  35.01300 3.39700 27.87500
C  36.03600 3.05900 27.06500
C  35.60200 2.98900 25.57100
C  34.05600 3.07800 25.60600
C  33.87100 3.39700 27.14100
C  36.33300 4.08300 24.69200
C  33.33800 1.74000 25.30000
C  32.21700 1.68500 24.33700
N  33.05500 3.91900 29.92200
C  32.19600 4.05500 28.89100
C  30.91700 4.42100 29.35300
C  31.06800 4.55100 30.76000
C  32.44000 4.21800 31.06500
C  29.71000 4.68200 28.48900
C  30.42500 4.91900 31.99700
O  29.25900 5.42800 32.09400
C  31.46600 4.66100 33.19300
C  31.56200 5.81500 34.11700
O  32.39400 6.68900 33.96300
O  30.70800 5.61800 35.20600
C  30.71900 6.71400 36.24000
H  38.51600 3.60100 33.04200
H  37.86000 2.45400 26.64600
H  31.83600 3.85200 26.76300
H  34.15600 4.80200 35.08400
H  36.55400 3.42400 35.16600
H  36.06800 6.10900 35.55000
H  36.84200 6.04900 33.91800
H  37.59600 5.39900 35.33100
H  34.68000 1.90100 34.96200
H  32.97000 2.54800 34.96200
H  34.03400 1.92000 37.20800
H  32.86200 3.16400 36.97900
H  41.31800 3.05400 31.17900
H  40.70600 1.40400 31.64800
H  40.25000 2.73800 32.63300
H  41.74700 0.75200 29.63700
H  41.96900 2.43200 29.25500
H  42.44600 1.30700 28.03200
H  35.91600 2.00300 25.22800
H  33.62300 3.85700 24.97900
H  36.97300 4.75500 25.26400
H  35.70800 4.73900 24.08700
H  36.92300 3.49600 23.98900
H  32.84700 1.33600 26.18500
H  34.04400 0.92600 25.13200
H  32.08000 2.65600 23.86000
H  31.29000 1.44700 24.85800
H  32.50300 0.84900 23.69900
H  29.41600 3.78800 27.94000
H  29.89600 5.45400 27.74100
H  28.88100 5.05300 29.09200
H  31.10300 3.77300 33.71100
H  31.63500 6.79200 36.82600
H  29.83400 6.65400 36.87400
H  30.50700 7.59300 35.63100
Mg 42.34900 40.67300 26.44600
C  41.49900 43.13600 28.69700
C  43.22700 38.63200 29.01400
C  43.16600 38.35000 24.13000
C  41.98500 42.95800 23.70800
N  42.53600 40.99300 28.62400
C  41.81000 41.91100 29.30600
C  41.72300 41.58600 30.79000
C  42.52900 40.20400 30.91000
C  42.86800 39.96100 29.43600
C  43.84700 40.19900 31.77000
C  40.26500 41.55700 31.40300
C  40.08000 42.49200 32.60100
H  39.41300 42.03100 33.87400
N  43.09800 38.73700 26.56900
C  43.43600 38.08500 27.72600
C  43.94100 36.78800 27.42200
C  43.81500 36.62500 25.96000
C  43.32800 37.94700 25.48100
C  44.28400 35.81900 28.56600
C  44.10900 35.44300 25.13800
O  43.91500 35.44000 23.91300
C  44.60500 34.12400 25.76200
N  42.66600 40.66300 24.19400
C  42.86300 39.53200 23.50800
C  42.64900 39.72400 21.94400
C  42.42300 41.28100 21.84300
C  42.28300 41.63800 23.32300
C  43.86000 39.19500 21.20300
C  41.10300 41.59000 20.90800
C  41.30900 42.85800 20.08600
N  41.91700 42.59300 26.26700
C  41.82000 43.40900 25.08600
C  41.39300 44.74400 25.46200
C  41.15100 44.68900 26.86700
C  41.61800 43.38300 27.32000
C  41.16400 45.97700 24.68500
C  40.87400 45.47700 28.08700
O  40.49100 46.61800 28.21000
C  40.90800 44.48000 29.26500
C  41.74800 45.15600 30.38800
O  42.93900 44.98700 30.51200
O  40.92000 45.70200 31.32400
C  41.48100 45.93400 32.61000
H  43.39800 37.94000 29.84100
H  43.23900 37.61300 23.32700
H  41.89400 43.73100 22.94300
H  42.27900 42.30800 31.38900
H  41.81000 39.44300 31.21500
H  44.68200 40.04700 31.08700
H  43.81900 39.40800 32.51900
H  43.93600 41.13400 32.32400
H  39.84800 40.56000 31.54100
H  39.62500 41.93000 30.60400
H  39.48500 43.31700 32.21000
H  41.00100 42.99000 32.90400
H  44.47100 34.78400 28.28000
H  43.43200 35.68700 29.23300
H  45.06800 36.28300 29.16600
H  45.55200 34.28700 26.27600
H  44.70700 33.27900 25.08100
H  43.86000 33.79400 26.48600
H  41.75300 39.23300 21.56200
H  43.31800 41.68900 21.37300
H  44.59200 38.88600 21.94900
H  44.36700 39.87200 20.51500
H  43.60300 38.33600 20.58400
H  40.27000 41.77900 21.58600
H  41.02800 40.70600 20.27500
H  40.48100 43.08500 19.41500
H  42.21700 42.89900 19.48400
H  41.45300 43.70400 20.75800
H  41.32000 46.90700 25.23200
H  40.12000 45.84300 24.40300
H  41.76600 45.90300 23.77900
H  39.89800 44.24000 29.59800
H  42.55000 45.74400 32.69600
H  40.96300 45.33100 33.35600
H  41.41700 46.99200 32.86400

