158

Mg 49.80000 47.05300 43.52100
C  46.48800 47.41800 42.53300
C  49.84700 43.95900 42.07800
C  53.09000 46.92000 44.15500
C  49.90800 50.55700 44.25100
N  48.32500 45.75800 42.46900
C  47.09900 46.20600 42.09100
C  46.32200 45.02000 41.40500
C  47.39500 43.83900 41.44100
C  48.61000 44.51800 42.03600
C  47.04000 42.63300 42.34900
C  45.83700 45.45700 39.94500
C  44.30500 45.33600 39.85000
H  43.67400 44.74700 38.60200
N  51.31500 45.59200 43.19000
C  51.15900 44.40700 42.61100
C  52.40100 43.75600 42.58400
C  53.35800 44.58200 43.16400
C  52.60500 45.75900 43.54200
C  52.46100 42.28300 42.07800
C  54.80900 44.22000 43.29200
O  55.21300 43.16400 42.86900
C  55.78200 45.19300 43.82300
N  51.26400 48.51700 44.09800
C  52.51400 48.18800 44.34200
C  53.28100 49.38900 44.92400
C  52.33100 50.54000 44.68200
C  51.08400 49.87500 44.28700
C  53.70700 49.04500 46.42000
C  52.74500 51.51000 43.56000
C  53.65600 52.71200 43.91400
N  48.48200 48.70900 43.51600
C  48.63800 49.99300 43.82000
C  47.41600 50.62800 43.77600
C  46.48300 49.66600 43.34200
C  47.23000 48.48100 43.10100
C  47.11900 52.08200 44.05400
C  45.06200 49.34700 43.08900
O  44.03200 50.06600 43.12600
C  45.03800 47.85600 42.54800
C  44.19300 46.98600 43.34700
O  44.52300 46.34500 44.34600
O  42.89300 47.09100 42.92100
C  41.99900 46.11800 43.47900
H  49.94500 43.00100 41.56400
H  54.06900 46.80500 44.62500
H  49.99200 51.62700 44.45300
H  45.46800 44.75100 42.02700
H  47.66700 43.48900 40.44500
H  46.24600 42.97200 43.01500
H  47.94500 42.32300 42.87200
H  46.63300 41.90200 41.65000
H  46.24900 44.86400 39.12900
H  46.11000 46.47200 39.65800
H  43.80000 46.29700 39.94700
H  43.93200 44.61900 40.58100
H  51.53400 41.83300 41.72400
H  52.90300 41.72600 42.90300
H  53.06000 42.30000 41.16700
H  55.84700 46.02700 43.12500
H  56.78400 44.77000 43.90000
H  55.53400 45.52200 44.83200
H  54.13100 49.70700 44.32000
H  52.32100 51.10400 45.61500
H  53.16200 48.17800 46.79500
H  53.48800 49.93200 47.01300
H  54.78900 48.91200 46.42900
H  51.84200 51.85800 43.06000
H  53.28600 50.91400 42.82500
H  53.70100 52.87600 44.99100
H  53.11400 53.55200 43.47800
H  54.67600 52.56700 43.55900
H  46.09500 52.30800 43.75500
H  47.76300 52.61800 43.35600
H  47.24700 52.48100 45.06000
H  44.76900 47.73700 41.49800
H  40.97000 46.32600 43.18400
H  42.01100 46.25400 44.56000
H  42.42500 45.13500 43.28200
Mg -2.00500 33.50300 27.37400
C  -3.74800 31.49800 29.48000
C  -0.79400 35.29300 30.15900
C  -0.29800 35.77300 25.34500
C  -3.32900 32.16500 24.63700
N  -2.45000 33.56600 29.59600
C  -3.09800 32.54600 30.20000
C  -2.93400 32.65800 31.75200
C  -1.83500 33.72200 31.98600
C  -1.76300 34.32800 30.54600
C  -2.18000 35.02000 32.87900
C  -2.64900 31.27800 32.50900
C  -3.41000 30.96200 33.75500
H  -2.58300 30.76100 35.02500
N  -0.78400 35.34700 27.75600
C  -0.37300 35.84500 28.91500
C  0.52800 36.93400 28.70600
C  0.74600 37.10400 27.30700
C  -0.12400 36.07900 26.73100
C  1.05700 37.83400 29.82500
C  1.70400 38.13300 26.60700
O  1.84000 38.14700 25.41000
C  2.56300 39.01800 27.37400
N  -1.93500 33.99800 25.34000
C  -1.16300 34.89200 24.69900
C  -1.16600 34.77800 23.16100
C  -1.97000 33.42600 22.96100
C  -2.44700 33.21000 24.39200
C  -1.83700 35.96000 22.47700
C  -1.11800 32.24400 22.43200
C  -1.46100 31.77800 21.05300
N  -3.39600 32.15500 27.07100
C  -3.81400 31.60100 25.89900
C  -4.78700 30.55900 26.15900
C  -4.78700 30.40500 27.58300
C  -3.90000 31.40500 28.09500
C  -5.44200 29.76300 25.13700
C  -5.26300 29.68400 28.70600
O  -6.05200 28.71100 28.70500
C  -4.66400 30.35200 29.94400
C  -5.74800 30.78300 30.90700
O  -6.51400 31.79200 30.87500
O  -5.81100 29.73000 31.81200
C  -6.94300 29.62400 32.73200
H  -0.26700 35.70100 31.02300
H  0.17200 36.51500 24.69600
H  -3.51800 31.52900 23.76900
H  -3.87500 33.07000 32.11800
H  -0.94500 33.23200 32.37800
H  -2.61200 35.83700 32.30200
H  -1.29100 35.37700 33.39700
H  -2.84000 34.60400 33.64100
H  -1.57700 31.24700 32.69900
H  -2.79200 30.45300 31.81100
H  -3.86700 30.00100 33.51600
H  -4.32400 31.55300 33.81700
H  2.09800 37.58100 30.02800
H  0.42900 37.55400 30.67100
H  1.03500 38.89900 29.59200
H  2.04100 39.74900 27.99100
H  3.21000 39.51000 26.64700
H  3.21100 38.35800 27.95000
H  -0.12600 34.68700 22.84800
H  -2.89800 33.68000 22.44800
H  -2.59100 36.32700 23.17400
H  -2.44600 35.73500 21.60200
H  -1.09000 36.73200 22.29000
H  -1.13200 31.41000 23.13400
H  -0.09300 32.61100 22.37600
H  -1.87800 30.77900 20.93400
H  -0.55600 31.74600 20.44600
H  -2.11500 32.47500 20.52900
H  -6.29700 30.34900 24.79700
H  -5.76600 28.79100 25.50800
H  -4.72600 29.64700 24.32300
H  -4.03200 29.59600 30.41100
H  -6.50200 29.65000 33.72800
H  -7.40100 28.63800 32.65900
H  -7.71500 30.38200 32.59400

