158

Mg 25.21200 2.00400 29.65200
C  27.18600 1.35600 32.35100
C  22.42000 2.45600 31.68000
C  23.15100 2.20000 26.83000
C  27.86500 1.37400 27.52200
N  24.86400 1.89500 31.76500
C  25.85100 1.75600 32.66600
C  25.37800 2.04300 34.08900
C  23.84400 2.32600 33.91600
C  23.67400 2.25200 32.35400
C  22.93500 1.27700 34.68100
C  26.13200 3.31300 34.71600
C  26.90000 3.19400 36.08400
H  26.40900 4.08400 37.22700
N  23.11200 2.29500 29.34600
C  22.17200 2.40100 30.33000
C  20.87800 2.42000 29.69700
C  21.08100 2.36600 28.27800
C  22.51900 2.25600 28.11500
C  19.54000 2.32100 30.48300
C  20.00200 2.20600 27.20900
O  20.17500 2.14100 25.98600
C  18.50300 2.16100 27.57700
N  25.43800 1.84400 27.54800
C  24.53100 2.11600 26.62000
C  25.16600 2.40100 25.20200
C  26.65500 2.24900 25.46500
C  26.66400 1.73400 26.89800
C  24.60000 1.55100 24.01900
C  27.48500 3.57600 25.38500
C  27.04700 4.72900 26.31400
N  27.13400 1.36000 29.83100
C  28.13500 1.16200 28.90600
C  29.41800 0.86400 29.55100
C  29.13600 0.92900 30.96600
C  27.72700 1.20900 31.04300
C  30.75900 0.62000 28.82500
C  29.68000 0.91700 32.34100
O  30.82400 0.85500 32.82500
C  28.41000 1.19000 33.21300
C  28.32200 0.10000 34.24500
O  27.80800 -1.00400 34.01400
O  28.82100 0.58000 35.37300
C  28.65700 -0.27000 36.54200
H  21.59200 2.80000 32.30200
H  22.53600 2.41000 25.95200
H  28.65300 1.35800 26.76600
H  25.64500 1.19800 34.72300
H  23.58500 3.33000 34.25300
H  23.56000 0.88700 35.48400
H  22.66700 0.58500 33.88200
H  22.03900 1.74100 35.09300
H  25.44200 4.15500 34.67600
H  26.87400 3.65500 33.99400
H  27.93800 3.51700 36.00000
H  26.75800 2.17300 36.43700
H  19.05500 1.34700 30.41400
H  18.85300 3.15700 30.35300
H  19.54000 2.34100 31.57300
H  18.12800 1.21300 27.96200
H  17.99900 2.18700 26.61100
H  18.20900 2.97700 28.23700
H  25.10800 3.46600 24.97300
H  27.11000 1.54500 24.76800
H  25.39800 0.89600 23.66900
H  24.25900 2.17600 23.19400
H  23.72000 1.02200 24.38700
H  27.41200 3.98400 24.37700
H  28.54700 3.40800 25.56300
H  27.71500 4.96100 27.14400
H  26.08300 4.47700 26.75700
H  26.81900 5.66900 25.81100
H  31.25200 1.58500 28.70400
H  30.48400 0.10300 27.90600
H  31.31800 -0.06500 29.46200
H  28.50800 2.18800 33.64000
H  29.56700 -0.85700 36.66200
H  27.81800 -0.96600 36.55700
H  28.56000 0.41600 37.38300
Mg 9.92400 46.89000 25.71100
C  7.18400 47.16200 28.13900
C  12.03100 48.12400 27.89400
C  12.14600 46.92700 23.17900
C  7.36700 46.42600 23.30700
N  9.64900 47.42500 27.86500
C  8.49000 47.41800 28.67200
C  8.89000 47.88800 30.10000
C  10.42600 48.29600 30.01000
C  10.71700 48.00500 28.51300
C  10.79900 49.77200 30.40500
C  8.60300 46.84900 31.33400
C  9.28400 46.88300 32.69500
H  8.38500 46.57600 33.88600
N  11.77300 47.32400 25.62700
C  12.52900 47.78600 26.64500
C  13.85300 47.83700 26.32600
C  13.97100 47.41800 24.95100
C  12.58300 47.26000 24.42700
C  15.00800 48.27200 27.20500
C  15.21000 47.13800 24.03800
O  15.07600 46.78600 22.87700
C  16.58500 47.15900 24.56400
N  9.75500 46.65500 23.52200
C  10.82200 46.69300 22.73900
C  10.48800 46.31800 21.24500
C  8.92100 46.22000 21.38800
C  8.65700 46.41200 22.84200
C  11.12400 47.26900 20.13900
C  8.38000 44.78200 20.83400
C  7.01800 44.91100 20.00000
N  7.71100 46.83100 25.72800
C  6.91800 46.58600 24.60900
C  5.54800 46.53900 25.08300
C  5.58800 46.78300 26.51400
C  6.92700 46.87000 26.79600
C  4.36700 46.44700 24.17700
C  4.77000 46.91700 27.72700
O  3.57300 46.75200 27.92100
C  5.78000 47.30300 28.75800
C  5.64600 46.34600 29.87300
O  5.88300 45.15300 29.80600
O  5.19500 47.00600 30.98900
C  4.72200 46.15800 32.07000
H  12.65200 48.47500 28.72100
H  12.90300 46.92500 22.39200
H  6.58400 46.46000 22.54700
H  8.30200 48.78900 30.27800
H  11.01200 47.56300 30.56500
H  9.90700 50.35900 30.62900
H  11.16900 50.33600 29.54800
H  11.41500 49.87300 31.29800
H  8.83000 45.85500 30.94800
H  7.52300 46.96100 31.43200
H  9.85900 47.78800 32.89400
H  9.95600 46.02600 32.73100
H  14.60500 48.77800 28.08100
H  15.53500 49.05500 26.65900
H  15.61400 47.49200 27.66800
H  16.55100 48.00200 25.25400
H  17.26300 47.41900 23.75100
H  16.87100 46.17700 24.94200
H  11.04700 45.38300 21.22100
H  8.53800 47.05500 20.80100
H  10.33000 47.94500 19.82300
H  11.38100 46.57400 19.33900
H  11.99100 47.81700 20.50900
H  8.23300 44.09200 21.66600
H  9.05400 44.31200 20.11800
H  6.94600 44.27100 19.12000
H  6.83900 45.92800 19.65200
H  6.25300 44.67900 20.74200
H  4.68600 45.89500 23.29300
H  3.88000 47.38100 23.89700
H  3.65700 45.86400 24.76400
H  5.67500 48.26600 29.25800
H  4.13800 46.78100 32.74800
H  5.43500 45.59100 32.66700
H  4.02700 45.48700 31.56500

