158

Mg 43.25400 4.25100 46.85000
C  40.73000 6.62800 46.46500
C  40.97000 1.81000 47.09600
C  45.80400 2.04900 46.54200
C  45.55600 7.03800 46.22300
N  41.11300 4.26100 46.78200
C  40.30300 5.30800 46.49900
C  38.92500 4.72200 46.29800
C  38.86900 3.36700 47.10200
C  40.35200 3.10400 46.91300
C  38.49900 3.56600 48.55900
C  38.55200 4.53500 44.71800
C  37.45600 5.53900 44.04100
H  37.85700 6.51400 42.94500
N  43.34500 2.18200 46.78300
C  42.31700 1.37100 46.96700
C  42.72000 0.02300 47.09600
C  44.18600 0.04700 46.89400
C  44.53000 1.42000 46.76400
C  41.88000 -1.20800 47.46400
C  45.10100 -1.14500 46.99700
O  44.70200 -2.23000 47.28800
C  46.58800 -0.91800 46.80800
N  45.31100 4.49500 46.29100
C  46.16500 3.41400 46.33700
C  47.53800 3.84900 45.79500
C  47.49100 5.41600 45.86400
C  46.05300 5.69700 46.12500
C  48.68200 3.23200 46.58000
C  48.15200 6.00200 44.65100
C  47.37100 6.17700 43.39900
N  43.23800 6.47300 46.69100
C  44.23600 7.39200 46.42900
C  43.59700 8.68000 46.39200
C  42.19800 8.50000 46.45700
C  42.06400 7.10500 46.53500
C  44.41500 9.91600 46.19100
C  40.91400 9.14300 46.49400
O  40.60000 10.32400 46.44500
C  39.92600 7.85900 46.44900
C  39.02600 7.78500 47.63100
O  39.36800 7.45100 48.76800
O  37.74100 8.10800 47.27000
C  36.94300 8.63200 48.34500
H  40.17800 1.10300 47.35300
H  46.75100 1.51900 46.42100
H  46.26300 7.85200 46.05000
H  38.17500 5.44300 46.62300
H  38.28300 2.63400 46.54800
H  37.86400 2.78700 48.98200
H  38.04500 4.55600 48.59500
H  39.43000 3.68900 49.11200
H  38.32000 3.50000 44.46900
H  39.46900 4.75800 44.17300
H  36.94500 6.12800 44.80200
H  36.73700 4.98500 43.43700
H  42.08200 -2.04200 46.79200
H  40.86900 -0.81400 47.36000
H  42.00700 -1.50300 48.50600
H  46.89400 -0.17100 47.54000
H  46.59200 -0.51400 45.79500
H  47.20200 -1.81700 46.75000
H  47.55000 3.55100 44.74700
H  47.95300 5.74500 46.79400
H  48.36300 2.55500 47.37300
H  49.25000 3.98100 47.13000
H  49.37900 2.67400 45.95400
H  48.98700 5.30400 44.59100
H  48.54500 6.98500 44.90800
H  47.80200 5.45600 42.70500
H  47.58100 7.14400 42.94300
H  46.29300 6.02200 43.42300
H  43.82300 10.78500 45.90600
H  45.16500 9.70000 45.42900
H  44.86900 10.22500 47.13200
H  39.32500 7.94300 45.54400
H  36.78000 7.74100 48.95100
H  35.97600 9.02500 48.03200
H  37.48800 9.21700 49.08700
Mg 46.04300 25.05700 28.52400
C  46.90700 27.06500 31.17700
C  45.12300 22.58200 30.72600
C  46.02600 22.82000 25.93400
C  47.33900 27.50800 26.43200
N  46.31200 24.76300 30.73200
C  46.49000 25.83300 31.64300
C  45.85800 25.40500 33.02500
C  45.40000 23.93800 32.81400
C  45.59700 23.73600 31.33200
C  46.27500 22.97500 33.69300
C  44.69300 26.27700 33.53800
C  44.94100 26.83000 34.98700
H  43.73100 26.86200 35.96800
N  45.62500 22.96300 28.37000
C  45.23600 22.15800 29.37100
C  44.73300 20.89100 28.81200
C  45.04300 20.89900 27.36800
C  45.56300 22.27300 27.15600
C  44.13700 19.75200 29.68000
C  45.01300 19.70300 26.39000
O  45.44900 19.78200 25.20300
C  44.52400 18.35400 26.79800
N  46.54000 25.09800 26.50500
C  46.44300 24.10500 25.60300
C  46.71700 24.60700 24.17600
C  46.76300 26.16800 24.28700
C  46.89800 26.25900 25.86200
C  48.04400 23.87300 23.46300
C  45.58600 26.99300 23.65400
C  44.21600 26.73900 24.33900
N  46.86900 26.98600 28.68900
C  47.33200 27.85400 27.70800
C  47.80600 29.09500 28.34200
C  47.65600 28.79100 29.69900
C  47.16700 27.52700 29.85600
C  48.45200 30.34100 27.70400
C  47.92900 29.28400 31.00400
O  48.32200 30.33200 31.48900
C  47.41700 28.15400 32.00500
C  48.48400 27.76900 33.05100
O  49.36200 26.95100 32.84800
O  48.23700 28.44100 34.18900
C  49.01700 28.01800 35.38700
H  44.66300 21.93500 31.47600
H  46.14500 22.12800 25.09700
H  47.58700 28.33800 25.76600
H  46.59800 25.47000 33.82300
H  44.35800 23.71400 33.04000
H  45.70600 22.04900 33.76600
H  46.47600 23.35900 34.69400
H  47.24000 22.81000 33.21600
H  43.74000 25.74800 33.55100
H  44.66300 27.12900 32.85900
H  45.17500 27.89200 34.91300
H  45.75600 26.29100 35.47100
H  43.20800 19.36300 29.26400
H  43.74200 20.22600 30.57800
H  44.87100 19.06000 30.09300
H  43.44000 18.27000 26.87200
H  45.09500 18.13700 27.70100
H  44.84200 17.60600 26.07200
H  45.90100 24.30500 23.51900
H  47.75000 26.48600 23.95000
H  47.89600 23.69000 22.39900
H  48.31100 22.93900 23.95700
H  48.90100 24.54700 23.44700
H  45.49700 26.83200 22.58000
H  45.76400 28.06600 23.71300
H  43.63100 26.18200 23.60700
H  43.90700 27.77000 24.51300
H  44.26400 26.16200 25.26300
H  47.68700 30.84000 27.10900
H  49.27800 29.99600 27.08300
H  48.90200 31.06600 28.38200
H  46.61800 28.54100 32.63700
H  48.23600 27.81000 36.11900
H  49.49900 28.88300 35.84300
H  49.72200 27.20100 35.23300

