158

Mg 2.25700 -1.34000 44.67100
C  5.39600 0.04200 44.00600
C  0.80100 1.48500 43.28200
C  -0.67200 -2.86200 44.63900
C  3.86100 -4.34400 45.44700
N  3.05700 0.57700 43.72900
C  4.36000 0.89200 43.57600
C  4.46700 2.29300 42.78000
C  3.06800 2.88400 43.06200
C  2.19600 1.61800 43.39400
C  2.84900 3.98200 44.16900
C  4.93100 2.22700 41.28700
C  6.41100 2.64400 41.09000
H  7.15400 1.74200 40.05900
N  0.32300 -0.79100 44.08400
C  -0.11100 0.42800 43.56100
C  -1.55400 0.46500 43.38800
C  -1.99000 -0.80000 43.84800
C  -0.79900 -1.57000 44.23900
C  -2.36100 1.60000 42.78500
C  -3.41000 -1.24700 43.94600
O  -4.25700 -0.31800 43.85400
C  -3.91800 -2.68500 44.37700
N  1.76400 -3.42600 44.81200
C  0.41600 -3.77500 44.82700
C  0.18300 -5.13900 45.59100
C  1.66100 -5.69500 45.67600
C  2.46500 -4.46600 45.31100
C  -0.61300 -5.03200 46.94800
C  1.99800 -6.84700 44.75000
C  2.54000 -8.09900 45.49300
N  4.23900 -2.06000 44.71900
C  4.72600 -3.29400 45.05700
C  6.15200 -3.17000 45.15000
C  6.49200 -1.90000 44.71000
C  5.27800 -1.27500 44.46200
C  7.12800 -4.21700 45.58400
C  7.56700 -0.99800 44.47300
O  8.75600 -1.09600 44.67400
C  6.86500 0.30100 43.98000
C  7.27900 1.28600 44.98300
O  7.18200 1.21900 46.21400
O  7.70300 2.38900 44.33100
C  8.33200 3.47000 45.16000
H  0.37800 2.41300 42.89100
H  -1.61300 -3.39200 44.79600
H  4.38000 -5.23000 45.81900
H  5.13200 2.95700 43.33300
H  2.71100 3.36000 42.14800
H  3.74400 4.05000 44.78700
H  1.98700 3.80400 44.81200
H  2.79900 4.93600 43.64400
H  4.37200 2.94400 40.68500
H  4.80300 1.19000 40.97700
H  6.98000 2.58800 42.01800
H  6.39400 3.67800 40.74400
H  -2.74700 1.38800 41.78800
H  -1.84700 2.54600 42.61500
H  -3.17900 1.83600 43.46500
H  -3.47600 -3.42800 43.71400
H  -4.98400 -2.67400 44.15000
H  -3.80600 -2.82100 45.45300
H  -0.38100 -5.66200 44.81900
H  1.94000 -5.97100 46.69300
H  -1.22800 -4.13200 46.98500
H  0.16200 -5.09800 47.71100
H  -1.24400 -5.90900 47.09200
H  2.72300 -6.54800 43.99300
H  1.05300 -7.15100 44.29800
H  1.82300 -8.91700 45.41700
H  2.64300 -7.73000 46.51300
H  3.47900 -8.46300 45.07700
H  6.70200 -5.21400 45.47400
H  7.52400 -3.94600 46.56200
H  7.87600 -4.07200 44.80400
H  7.34500 0.44900 43.01200
H  9.24400 3.56800 44.57000
H  8.56600 3.19100 46.18700
H  7.76800 4.40200 45.12900
Mg 27.43300 49.72700 26.48400
C  25.18800 50.62900 29.12000
C  29.72800 49.02100 28.96900
C  29.59900 49.40700 24.05200
C  25.12500 51.00500 24.23300
N  27.41000 49.65100 28.72500
C  26.36200 50.04400 29.60600
C  26.72500 49.80600 31.07900
C  28.30800 49.38000 31.01500
C  28.49900 49.43400 29.45400
C  29.26800 50.24400 31.93100
C  25.71800 48.76700 31.75000
C  24.95300 49.31200 32.97100
H  25.06000 48.55000 34.25900
N  29.31300 49.09700 26.51400
C  30.11000 48.85900 27.59500
C  31.45200 48.56100 27.13200
C  31.44900 48.66900 25.71700
C  30.08100 49.07900 25.36100
C  32.60900 48.24500 28.07700
C  32.62900 48.52800 24.68700
O  32.47200 48.62200 23.51500
C  34.04400 48.19500 25.30200
N  27.42900 50.18500 24.50500
C  28.39400 49.84800 23.67100
C  28.08000 50.15400 22.22800
C  26.53200 50.60300 22.24800
C  26.33400 50.60600 23.77500
C  29.03400 51.15400 21.49000
C  25.60400 49.71300 21.34200
C  24.66900 48.64100 22.00200
N  25.55400 50.65600 26.58900
C  24.77000 51.09800 25.58100
C  23.51300 51.61200 26.15400
C  23.68900 51.51800 27.53200
C  24.92400 50.90700 27.75800
C  22.47300 52.20000 25.30000
C  23.04200 51.76100 28.79700
O  21.95200 52.21300 29.11000
C  24.03400 51.21400 29.84500
C  24.39300 52.24800 30.86600
O  25.16000 53.20200 30.64500
O  23.70400 52.12400 32.01500
C  23.92800 53.16700 33.08700
H  30.46500 48.86900 29.76000
H  30.31700 49.17400 23.26300
H  24.45000 51.42300 23.48300
H  26.56800 50.74900 31.60300
H  28.36100 48.30800 31.20900
H  28.73100 51.07600 32.38800
H  29.97400 50.72800 31.25600
H  29.80600 49.68000 32.69300
H  26.14100 47.77400 31.90700
H  24.98900 48.50200 30.98400
H  23.89700 49.45700 32.74100
H  25.37000 50.28400 33.23300
H  33.04900 47.32400 27.69300
H  32.23700 48.14400 29.09700
H  33.34600 49.04700 28.11400
H  34.28700 48.86200 26.12900
H  34.89400 48.19300 24.62000
H  34.06500 47.18800 25.71900
H  28.28200 49.15200 21.84700
H  26.43500 51.62500 21.88100
H  29.82600 51.54200 22.13000
H  28.48800 51.98500 21.04400
H  29.42300 50.64900 20.60500
H  26.15700 49.16000 20.58200
H  24.95300 50.32100 20.71300
H  24.87800 48.64600 23.07100
H  24.84600 47.68800 21.50400
H  23.62700 48.96000 22.01500
H  21.48600 52.31100 25.74800
H  22.31600 51.63700 24.38000
H  22.87200 53.17900 25.03300
H  23.50900 50.43000 30.39100
H  24.76100 52.90800 33.74000
H  23.04500 53.18100 33.72700
H  23.94700 54.14100 32.59900

