158

Mg 53.75600 24.07000 45.12800
C  51.11400 26.08000 43.76100
C  52.72600 21.41000 43.30400
C  56.69800 22.73200 45.70900
C  54.94600 27.23000 46.49700
N  52.28600 23.84700 43.49400
C  51.27300 24.76000 43.26500
C  50.19500 24.13400 42.43100
C  50.44800 22.54000 42.63300
C  51.90900 22.56800 43.18500
C  49.43500 21.97600 43.68700
C  50.28900 24.54600 40.93900
C  48.89600 24.80400 40.26800
H  48.51100 23.80100 39.20700
N  54.58000 22.26900 44.60800
C  53.99700 21.29200 43.87300
C  54.86600 20.16700 43.86900
C  56.03700 20.49400 44.67800
C  55.78900 21.85800 45.07600
C  54.58200 18.88700 43.11800
C  57.26300 19.58000 44.96400
O  57.21500 18.40800 44.61100
C  58.52100 20.12700 45.67300
N  55.50300 24.88500 45.93500
C  56.57800 24.05000 46.06500
C  57.72600 24.85400 46.73100
C  57.21200 26.26900 46.63900
C  55.77000 26.14000 46.34900
C  58.18000 24.30700 48.08400
C  57.94900 27.20700 45.56700
C  58.55000 28.44300 46.26300
N  53.05200 26.21000 45.40100
C  53.62700 27.25800 46.02800
C  52.71100 28.32900 46.02000
C  51.72700 27.97100 45.08100
C  52.06100 26.65000 44.68900
C  52.84700 29.54800 46.77200
C  50.40900 28.34100 44.47900
O  49.75100 29.36200 44.57200
C  49.96600 27.04900 43.62000
C  49.66200 27.45400 42.22200
O  50.37100 27.89600 41.31800
O  48.34800 27.45000 42.18800
C  47.63800 28.08400 41.01100
H  52.28900 20.47600 42.94400
H  57.68400 22.36000 45.99300
H  55.22600 28.14500 47.02400
H  49.22800 24.42400 42.84300
H  50.35400 21.96200 41.71400
H  49.08900 22.82000 44.28300
H  50.03200 21.35100 44.35100
H  48.59000 21.41800 43.28300
H  50.80100 23.73000 40.42900
H  50.98600 25.37400 40.80800
H  48.95200 25.81300 39.85900
H  48.09000 24.66600 40.98900
H  53.82400 19.15800 42.38300
H  54.21300 18.13900 43.82000
H  55.43300 18.42400 42.61700
H  58.99300 21.02300 45.27200
H  59.27200 19.33800 45.61900
H  58.33200 20.19600 46.74400
H  58.57900 24.70200 46.07000
H  57.26400 26.70200 47.63800
H  58.44500 25.09600 48.78800
H  59.12800 23.79000 47.93600
H  57.46200 23.64900 48.57400
H  57.11700 27.55300 44.95300
H  58.73000 26.69200 45.00800
H  57.90000 29.27200 45.98200
H  59.48300 28.70000 45.76200
H  58.73600 28.30500 47.32800
H  51.90200 29.98400 47.09600
H  53.39100 30.24200 46.13100
H  53.46800 29.46500 47.66400
H  49.02100 26.74600 44.07300
H  47.97800 29.10400 40.83000
H  46.57100 28.10900 41.23200
H  47.78200 27.57400 40.05900
Mg 47.73400 15.12200 28.03800
C  45.56100 14.86800 30.79600
C  49.78700 16.89800 30.10100
C  49.62700 16.02200 25.43400
C  45.39700 13.46000 26.10800
N  47.53500 15.95500 30.11500
C  46.65800 15.62700 31.05600
C  47.06200 16.18800 32.43300
C  48.27400 17.07200 32.09800
C  48.60900 16.58900 30.67300
C  47.99600 18.61800 32.06100
C  47.40900 15.06400 33.45300
C  46.76500 15.35300 34.85200
H  47.84600 15.90800 35.82800
N  49.51000 16.17900 27.80000
C  50.24400 16.80800 28.72700
C  51.52300 17.16200 28.21400
C  51.47000 17.00500 26.83000
C  50.16700 16.35500 26.62300
C  52.61900 17.62400 29.13600
C  52.53500 17.25900 25.76300
O  52.38400 16.94000 24.61600
C  53.86200 17.76000 26.13500
N  47.51800 14.79900 25.99800
C  48.42300 15.21100 25.15800
C  48.20400 14.44700 23.78600
C  46.81000 13.77300 23.96900
C  46.53300 14.07900 25.45900
C  48.38300 15.40400 22.45500
C  46.81200 12.19900 23.63500
C  47.74900 11.36300 24.47100
N  45.79300 14.39000 28.30500
C  45.04000 13.65400 27.49100
C  44.01400 13.02700 28.28200
C  44.09200 13.53000 29.57100
C  45.19900 14.42000 29.52700
C  42.98400 12.06200 27.84500
C  43.52600 13.44900 30.89400
O  42.66000 12.72400 31.34700
C  44.45200 14.47700 31.78100
C  43.70000 15.76600 32.14800
O  43.43200 16.65800 31.33200
O  43.52900 15.83700 33.48800
C  42.83000 16.98200 34.07200
H  50.41900 17.46400 30.78900
H  50.26700 16.22600 24.57300
H  44.73600 12.77600 25.57300
H  46.17900 16.78900 32.65100
H  49.04800 16.80900 32.82000
H  47.78300 18.99900 31.06200
H  48.86800 19.06000 32.54400
H  47.09100 18.94500 32.57300
H  48.48300 14.92400 33.57300
H  47.19700 14.11700 32.95700
H  46.47500 14.35600 35.18200
H  45.93800 16.06300 34.81800
H  53.42700 18.01000 28.51600
H  52.93500 16.72400 29.66400
H  52.26000 18.39000 29.82300
H  53.86400 18.74200 26.60900
H  54.42100 17.82100 25.20100
H  54.49000 17.21600 26.84000
H  49.00800 13.71200 23.78700
H  46.02400 14.21400 23.35600
H  49.06900 14.86600 21.80100
H  48.74800 16.37900 22.77800
H  47.41700 15.43600 21.95200
H  47.13200 12.25500 22.59500
H  45.77400 11.87600 23.55500
H  48.58600 10.99900 23.87400
H  47.23800 10.47500 24.84300
H  48.13800 11.79900 25.39100
H  43.12200 11.45700 26.94900
H  42.02500 12.55600 27.68200
H  42.82100 11.31600 28.62200
H  44.87700 14.11200 32.71600
H  43.48000 17.54100 34.74600
H  41.93500 16.67300 34.61200
H  42.59200 17.76100 33.34800

