158

Mg 53.21800 23.27500 44.47500
C  50.51500 25.54300 43.72700
C  50.96200 20.77000 43.49500
C  55.79600 21.23700 44.54900
C  55.22200 25.94200 45.28000
N  51.19200 23.15500 43.37800
C  50.36900 24.26900 43.14100
C  49.12300 23.83500 42.29300
C  48.99500 22.33300 42.75700
C  50.42900 22.09500 43.29700
C  47.79700 22.11600 43.81300
C  49.45100 24.06800 40.82900
C  48.30300 24.66300 39.99900
H  47.82900 23.86900 38.79100
N  53.35200 21.26900 44.16500
C  52.29600 20.40900 43.82500
C  52.87200 19.02100 43.99400
C  54.25100 19.17900 44.24100
C  54.49100 20.61500 44.35600
C  51.94500 17.81400 43.93300
C  55.22100 18.01000 44.47800
O  54.79900 16.84000 44.39700
C  56.74000 18.14900 44.72400
N  55.34700 23.59200 44.42600
C  56.18100 22.53400 44.64000
C  57.61000 23.02300 44.84500
C  57.42300 24.52100 45.19000
C  55.91000 24.73400 44.92900
C  58.48700 22.21500 45.84800
C  58.43000 25.51100 44.57000
C  59.84900 25.64300 45.20900
N  52.97500 25.34500 44.48900
C  53.84100 26.25300 45.01900
C  53.09700 27.45200 45.23000
C  51.73600 27.27400 44.73600
C  51.76500 25.95600 44.23800
C  53.66200 28.69400 45.91400
C  50.44600 27.83300 44.44000
O  49.90500 28.91800 44.61900
C  49.54300 26.72200 43.78900
C  49.16600 27.21400 42.50900
O  49.91500 27.33900 41.49300
O  47.84700 27.52200 42.56500
C  47.38100 28.36500 41.52400
H  50.28500 19.92500 43.35100
H  56.71000 20.64500 44.46600
H  55.89700 26.72400 45.63300
H  48.24100 24.38200 42.62700
H  48.76500 21.77100 41.85200
H  47.41800 23.06200 44.19800
H  48.15600 21.50400 44.64000
H  46.94200 21.69400 43.28400
H  49.85500 23.19300 40.31800
H  50.33400 24.70300 40.76300
H  48.72200 25.58900 39.60600
H  47.50600 24.90700 40.70100
H  51.66800 17.44500 42.94500
H  51.00900 18.11600 44.40400
H  52.23600 16.99600 44.59100
H  57.16500 18.63600 43.84700
H  57.14900 17.15200 44.88700
H  56.85400 18.76700 45.61500
H  58.01700 22.91300 43.84100
H  57.53600 24.60800 46.27100
H  57.81200 21.78900 46.59000
H  59.22700 22.88700 46.28300
H  59.04000 21.45700 45.29300
H  58.02100 26.52100 44.53600
H  58.55600 25.27300 43.51400
H  60.61900 25.50900 44.44900
H  59.93300 24.95000 46.04600
H  60.06200 26.61400 45.65600
H  53.09000 28.94200 46.80800
H  53.62800 29.54100 45.22900
H  54.66900 28.45600 46.25800
H  48.65300 26.50800 44.38200
H  47.21200 27.73300 40.65300
H  48.04900 29.18300 41.25300
H  46.44200 28.79700 41.87000
Mg 47.36000 34.86800 28.80000
C  45.70100 32.76000 31.19400
C  47.85600 37.15100 31.43900
C  48.21700 37.06700 26.53800
C  46.34600 32.61100 26.29100
N  46.83200 34.93200 30.98400
C  46.22100 33.95900 31.73200
C  46.31900 34.34600 33.28500
C  46.30800 35.88600 33.15600
C  47.12700 35.99400 31.79500
C  44.85400 36.55000 33.00000
C  47.60800 33.82800 34.01600
C  47.30600 33.15800 35.37600
H  46.39900 33.87900 36.41500
N  48.02300 36.81100 29.00900
C  48.32600 37.59000 30.11700
C  49.07200 38.78200 29.76600
C  49.01300 38.80500 28.37600
C  48.45200 37.51000 27.91400
C  49.63700 39.77700 30.74100
C  49.44400 39.86800 27.33500
O  49.21500 39.75100 26.13100
C  50.17000 41.10700 27.85400
N  47.20100 34.83700 26.70300
C  47.67600 35.85700 26.00600
C  47.67000 35.60100 24.51900
C  47.14100 34.14700 24.40400
C  46.87300 33.82200 25.87900
C  46.79800 36.55100 23.61800
C  48.13300 33.06500 23.78200
C  47.58900 32.06800 22.76600
N  46.29600 33.07500 28.66900
C  46.03800 32.24500 27.61500
C  45.46100 31.01300 28.05800
C  45.22000 31.23500 29.48900
C  45.78400 32.45400 29.81700
C  44.95400 29.93500 27.08900
C  44.69100 30.62300 30.67900
O  44.23000 29.48900 30.70200
C  44.94500 31.58700 31.76800
C  45.62600 30.95500 32.89000
O  46.81900 30.76700 33.04800
O  44.63300 30.60300 33.75100
C  45.01000 30.14500 35.07400
H  48.04700 37.88200 32.22800
H  48.59500 37.66700 25.70800
H  46.17400 31.84500 25.53200
H  45.37100 34.10100 33.76400
H  46.87100 36.32600 33.97900
H  44.78000 37.25300 33.83000
H  43.98700 35.91500 33.18100
H  44.73800 36.90700 31.97700
H  48.30000 34.65300 34.18500
H  48.05200 33.02000 33.43500
H  48.27000 32.86000 35.78800
H  46.82700 32.20600 35.15100
H  49.14400 40.73200 30.55600
H  50.71300 39.88100 30.60700
H  49.48900 39.50800 31.78700
H  49.43500 41.74800 28.34100
H  50.63200 41.48300 26.94100
H  51.00700 40.85500 28.50500
H  48.71600 35.70000 24.22600
H  46.18300 34.10000 23.88600
H  46.27800 37.21600 24.30700
H  46.09800 36.19900 22.86100
H  47.46300 37.26900 23.13800
H  48.40300 32.34500 24.55500
H  48.96300 33.63000 23.35900
H  48.12500 32.17200 21.82200
H  46.53800 32.22600 22.52400
H  47.65500 31.00400 22.99200
H  44.12400 30.35500 26.52100
H  44.54400 29.05900 27.59300
H  45.74500 29.46900 26.50200
H  43.95100 31.92200 32.06600
H  44.36600 29.32600 35.39600
H  44.79600 30.94400 35.78400
H  46.07100 29.95900 35.24100

