158

Mg 47.92300 34.15400 26.89700
C  46.03700 32.50100 29.36200
C  48.21600 36.87200 29.02600
C  49.31800 35.77300 24.47400
C  47.25100 31.47500 24.76200
N  47.28100 34.64800 28.97100
C  46.52700 33.78000 29.80200
C  46.64700 34.30300 31.19200
C  46.76300 35.89300 30.96600
C  47.45600 35.84900 29.57900
C  45.40200 36.67200 31.03100
C  47.88500 33.70400 31.90400
C  47.75100 33.71800 33.47000
H  48.39700 34.88500 34.23900
N  48.71800 36.11600 26.77000
C  48.79800 37.07200 27.71000
C  49.51600 38.19900 27.25100
C  49.87100 37.90500 25.87000
C  49.20400 36.55100 25.64000
C  49.69700 39.35700 28.24700
C  50.65800 38.71000 24.81800
O  50.84200 38.24900 23.69700
C  51.23800 40.04400 25.12200
N  47.86700 33.82200 24.84700
C  48.70000 34.58100 24.13100
C  49.02300 33.98600 22.72900
C  48.50700 32.50300 22.80800
C  47.89400 32.56300 24.24800
C  48.35600 34.77000 21.51100
C  49.50700 31.39700 22.58300
C  50.24800 30.79500 23.89400
N  46.93700 32.22800 27.02900
C  46.69800 31.27600 26.07000
C  46.08100 30.11200 26.73100
C  45.71200 30.63900 27.94600
C  46.27400 31.91900 28.08700
C  45.92700 28.67800 26.14500
C  44.90800 30.33500 29.07400
O  44.18300 29.37900 29.35100
C  44.95800 31.66900 30.01600
C  45.23900 31.22200 31.40700
O  46.07100 30.39800 31.75500
O  44.29300 31.80400 32.32900
C  44.58900 31.49000 33.75300
H  48.11700 37.76400 29.64700
H  49.91400 36.19400 23.66100
H  47.30600 30.61000 24.09700
H  45.78600 33.94300 31.75400
H  47.37800 36.30700 31.76500
H  45.10300 37.18700 30.11800
H  45.59800 37.52500 31.68000
H  44.64100 36.00300 31.43300
H  48.78500 34.21000 31.55600
H  47.98200 32.63600 31.70800
H  48.00600 32.70800 33.79200
H  46.70100 33.89200 33.70300
H  50.44600 40.07400 27.91000
H  49.96800 38.93400 29.21400
H  48.68800 39.76800 28.22800
H  51.89000 40.21400 24.26500
H  51.85200 39.97000 26.01900
H  50.61300 40.92200 25.28300
H  50.08800 33.96600 22.49900
H  47.70500 32.35400 22.08400
H  47.97800 34.01100 20.82600
H  49.13400 35.22500 20.89900
H  47.55200 35.40800 21.87900
H  50.33500 31.73300 21.96000
H  49.09100 30.54800 22.04100
H  51.32600 30.90700 23.78100
H  49.96900 29.74300 23.94600
H  50.17700 31.53000 24.69600
H  44.86600 28.45300 26.03800
H  46.33000 27.99500 26.89300
H  46.45500 28.64400 25.19200
H  43.94000 32.03400 29.88300
H  44.46600 32.40100 34.33900
H  45.58900 31.12800 33.99400
H  43.86100 30.77800 34.14200
Mg -10.61100 16.12200 42.58300
C  -7.22800 16.60600 41.91600
C  -11.35400 19.28700 41.28100
C  -13.97400 15.47400 42.77300
C  -9.99500 12.73000 43.16400
N  -9.35500 17.78700 41.74700
C  -8.02500 17.76000 41.62700
C  -7.51700 19.03600 40.97900
C  -8.86400 19.95100 40.98200
C  -9.97700 18.94200 41.40200
C  -8.86000 21.17900 41.92500
C  -6.99200 18.62000 39.57900
C  -5.54300 19.18500 39.17700
H  -4.95300 18.77000 37.89000
N  -12.40800 17.22500 42.12600
C  -12.45900 18.53100 41.69300
C  -13.86900 18.97300 41.46700
C  -14.62400 17.91800 42.00300
C  -13.67900 16.78100 42.33900
C  -14.31700 20.36600 40.94800
C  -16.18300 18.09400 42.31600
O  -16.76000 19.16400 42.01100
C  -17.01500 17.07800 42.95300
N  -11.87600 14.30300 42.72400
C  -13.13600 14.42500 43.07900
C  -13.67100 12.95400 43.50600
C  -12.36400 12.13800 43.54100
C  -11.35500 13.08800 43.09800
C  -14.43000 12.90000 44.86400
C  -12.39300 10.87900 42.58600
C  -12.44100 9.54100 43.35700
N  -9.04300 14.92000 42.54600
C  -8.92200 13.58000 42.77500
C  -7.54700 13.23100 43.00000
C  -6.82300 14.40800 42.57700
C  -7.76900 15.37300 42.31400
C  -6.94600 11.89700 43.59200
C  -5.45200 14.96400 42.29200
O  -4.37800 14.35900 42.24500
C  -5.73400 16.43500 41.86400
C  -5.13300 17.24200 42.90400
O  -5.59300 17.36400 44.03600
O  -3.98200 17.86400 42.52200
C  -3.45000 18.97900 43.39000
H  -11.55500 20.19500 40.70900
H  -15.03100 15.27100 42.95800
H  -9.85000 11.68100 43.42900
H  -6.68700 19.42800 41.56700
H  -9.00300 20.24300 39.94100
H  -7.90500 21.25900 42.44400
H  -9.73300 21.17000 42.57800
H  -9.01700 21.98600 41.21000
H  -7.71800 19.02200 38.87200
H  -6.94500 17.55500 39.35200
H  -4.88700 19.06500 40.03900
H  -5.80900 20.23800 39.08500
H  -14.87100 20.75300 41.80300
H  -14.79200 20.17400 39.98600
H  -13.49800 21.05000 40.72300
H  -17.88700 17.64300 43.28300
H  -16.53200 16.60200 43.80600
H  -17.20200 16.28200 42.23100
H  -14.41100 12.63300 42.77300
H  -12.07200 11.84800 44.55000
H  -14.09800 12.18400 45.61600
H  -15.51200 12.80300 44.76800
H  -14.34000 13.89200 45.30500
H  -11.55800 10.97800 41.89200
H  -13.25700 10.92100 41.92200
H  -11.54100 8.95300 43.17700
H  -13.27800 8.86100 43.19400
H  -12.43000 9.67200 44.43900
H  -7.58700 11.06200 43.30900
H  -7.07400 12.14400 44.64600
H  -5.90400 11.75800 43.30500
H  -5.29900 16.69500 40.89900
H  -3.06100 19.71700 42.68700
H  -2.62900 18.57300 43.98100
H  -4.16300 19.45000 44.06700

