158

Mg 16.77600 -2.36000 27.93800
C  16.02300 -0.28000 30.61600
C  18.33800 -4.52400 30.04400
C  17.87200 -3.97400 25.20800
C  15.45800 0.12500 25.78700
N  17.21100 -2.34700 30.08100
C  16.81200 -1.38500 31.00300
C  17.43000 -1.73500 32.45100
C  18.26000 -2.99000 32.15200
C  17.76700 -3.37500 30.66300
C  19.80300 -2.90900 32.21500
C  16.19000 -1.97100 33.49900
C  16.61000 -1.79700 35.00900
H  17.91200 -1.05100 35.37600
N  17.85000 -4.01700 27.66200
C  18.36400 -4.81300 28.72300
C  19.06700 -5.86500 28.09700
C  18.92000 -5.84300 26.71700
C  18.19500 -4.56400 26.48900
C  19.81400 -6.90500 28.84100
C  19.36600 -6.84900 25.64300
O  18.98500 -6.66100 24.45500
C  20.19000 -8.08900 25.90000
N  16.85900 -1.90300 25.81300
C  17.31100 -2.76700 24.93900
C  17.15200 -2.25500 23.52600
C  16.20100 -1.01100 23.68400
C  16.15300 -0.89400 25.17400
C  18.52000 -1.91000 22.87700
C  14.78700 -1.23700 23.02000
C  14.76500 -1.24000 21.48400
N  15.80600 -0.51600 28.06200
C  15.24500 0.31900 27.15100
C  14.46600 1.36800 27.83500
C  14.78200 1.20800 29.24400
C  15.65900 0.08100 29.27200
C  13.83500 2.58600 27.30900
C  14.57800 1.71000 30.56200
O  13.89100 2.66700 30.92400
C  15.38700 0.74300 31.55500
C  16.41000 1.64200 32.21500
O  17.47700 1.93900 31.74800
O  15.99300 1.95400 33.43800
C  16.72500 2.98200 34.14000
H  18.70300 -5.29200 30.72900
H  18.32900 -4.41500 24.32000
H  14.81400 0.79200 25.20900
H  18.15600 -0.96000 32.69600
H  17.79700 -3.73900 32.79500
H  20.08700 -1.89100 31.95100
H  20.27100 -3.60000 31.51400
H  20.10900 -3.13700 33.23600
H  15.92300 -3.02800 33.49400
H  15.26100 -1.45000 33.27000
H  16.84400 -2.76300 35.45800
H  15.75000 -1.30100 35.46000
H  20.75900 -7.05200 28.31800
H  19.27600 -7.85200 28.80900
H  20.12700 -6.49800 29.80300
H  19.71400 -8.64000 26.71200
H  21.22600 -7.77900 26.04100
H  19.98900 -8.68500 25.01000
H  16.56400 -2.82200 22.80500
H  16.66800 -0.09700 23.31800
H  18.85800 -0.89400 23.08300
H  18.54100 -2.00900 21.79100
H  19.31600 -2.54900 23.25800
H  14.17600 -0.37900 23.30000
H  14.31500 -2.13400 23.42200
H  15.74800 -1.25000 21.01400
H  14.34300 -0.27600 21.20000
H  14.12100 -2.05400 21.15000
H  12.77400 2.39700 27.14800
H  14.30300 2.89300 26.37400
H  13.98300 3.40800 28.00900
H  14.66400 0.33500 32.26000
H  16.78000 3.88300 33.52900
H  17.70000 2.55900 34.38500
H  16.24300 3.22400 35.08700
Mg 41.12800 7.91600 28.75700
C  42.93900 9.20300 31.44300
C  38.74500 6.75100 31.02200
C  39.52000 6.39800 26.19300
C  43.75900 8.84700 26.68000
N  40.94800 7.86300 31.02200
C  41.78500 8.57100 31.92200
C  41.26200 8.50600 33.32000
C  39.94500 7.67600 33.21000
C  39.90900 7.33600 31.68400
C  39.82800 6.43200 34.16500
C  41.24500 9.89900 34.03400
C  40.45400 10.04300 35.32800
H  41.36400 10.00000 36.63900
N  39.31400 6.84100 28.59100
C  38.46600 6.49700 29.66500
C  37.35400 5.77800 29.09000
C  37.47500 5.72700 27.64900
C  38.86200 6.25200 27.40800
C  36.24300 5.20900 29.85900
C  36.46200 5.42200 26.55700
O  36.64000 5.61600 25.40600
C  35.03800 5.03600 26.93800
N  41.58100 7.66400 26.74300
C  40.81600 6.93500 25.89800
C  41.37200 6.95200 24.43800
C  42.58600 7.96800 24.60400
C  42.61200 8.28600 26.08300
C  41.69700 5.55600 23.91200
C  42.38200 9.29700 23.80700
C  40.99900 10.00200 23.80200
N  43.01300 8.77800 28.94000
C  43.94200 9.12900 28.05100
C  45.02700 9.77600 28.64100
C  44.60300 9.88800 29.94900
C  43.42800 9.23700 30.10800
C  46.10700 10.47800 27.81000
C  44.91500 10.54300 31.18200
O  45.78700 11.43600 31.33400
C  43.83200 10.07000 32.22100
C  44.52700 9.24300 33.31800
O  44.73400 8.04500 33.44100
O  44.87900 10.14700 34.33800
C  45.72900 9.61000 35.38400
H  37.99200 6.52300 31.77900
H  38.98100 6.01300 25.32500
H  44.42500 9.35100 25.97600
H  42.04900 7.87200 33.72700
H  39.13000 8.38300 33.36400
H  39.61600 5.50800 33.62800
H  38.87300 6.61100 34.65900
H  40.57800 6.36900 34.95400
H  41.04200 10.71200 33.33700
H  42.29100 10.00600 34.32400
H  39.87000 9.13800 35.49400
H  39.83900 10.94300 35.32100
H  36.29600 5.29300 30.94500
H  36.07800 4.18700 29.51800
H  35.32600 5.67900 29.50600
H  34.98700 4.30400 27.74400
H  34.49500 4.74500 26.03800
H  34.46000 5.83300 27.40500
H  40.50000 7.32800 23.90300
H  43.54200 7.53600 24.31100
H  41.75900 4.94900 24.81500
H  42.70600 5.62600 23.50500
H  40.84700 5.28000 23.28900
H  42.59100 9.06700 22.76300
H  43.11900 9.97300 24.24200
H  41.25900 10.97800 24.21000
H  40.26600 9.57600 24.48700
H  40.55000 10.13300 22.81700
H  46.88600 10.90200 28.44500
H  45.49200 11.27500 27.39300
H  46.61900 10.02700 26.96000
H  43.40600 10.94300 32.71500
H  45.05200 9.52700 36.23400
H  46.56100 10.22900 35.72000
H  46.14400 8.60800 35.28200

