158

Mg 42.98600 42.21000 25.75900
C  41.80000 44.58300 27.98900
C  43.98300 40.18800 28.30000
C  43.66300 39.87500 23.38400
C  41.94200 44.43400 23.10800
N  43.05100 42.49300 27.85400
C  42.46200 43.44000 28.62100
C  42.64700 43.17800 30.09600
C  43.68500 42.00600 30.08800
C  43.56700 41.50400 28.63700
C  45.07400 42.40400 30.47700
C  41.33700 42.82900 30.88000
C  41.10900 43.46200 32.26900
H  42.24400 43.50300 33.29200
N  43.87300 40.33800 25.81300
C  44.17500 39.63500 26.95100
C  44.63600 38.29500 26.61000
C  44.48900 38.16800 25.20600
C  43.97800 39.47700 24.71700
C  45.23200 37.34300 27.64800
C  44.67500 36.93300 24.33400
O  44.56400 37.03300 23.09700
C  44.99700 35.62000 24.92700
N  42.97300 42.15100 23.46200
C  43.15300 41.04200 22.78100
C  42.96600 41.27000 21.23100
C  42.15500 42.65500 21.23700
C  42.42700 43.14100 22.68200
C  44.24300 41.31900 20.47800
C  40.62900 42.49000 20.90500
C  39.94400 41.47700 21.82500
N  42.25400 44.26900 25.51000
C  41.90400 45.04000 24.40800
C  41.27000 46.31900 24.87500
C  41.29800 46.18900 26.27800
C  41.81100 44.88100 26.59300
C  40.82100 47.48800 24.05800
C  40.93200 46.83300 27.52500
O  40.38200 47.87600 27.68800
C  41.11500 45.78900 28.69100
C  41.85400 46.37000 29.74500
O  43.12000 46.44200 29.78000
O  40.99200 46.77700 30.79800
C  41.71900 47.14500 32.09500
H  44.24400 39.63100 29.20200
H  43.90200 39.13200 22.62000
H  41.58400 45.07900 22.30300
H  43.04400 44.07700 30.56800
H  43.43800 41.23000 30.81300
H  45.77300 42.31900 29.64400
H  45.35900 41.70800 31.26600
H  45.25100 43.41900 30.83300
H  41.19900 41.76300 31.06100
H  40.60400 43.09700 30.11800
H  40.20500 43.06200 32.72800
H  40.74500 44.47000 32.07300
H  45.47300 37.81100 28.60300
H  46.18800 36.93200 27.32500
H  44.54600 36.50900 27.79600
H  44.27400 35.38100 25.70600
H  45.90500 35.67700 25.52900
H  44.99200 34.83800 24.16800
H  42.29200 40.47500 20.91300
H  42.51500 43.22200 20.37800
H  45.06300 41.24400 21.19100
H  44.26500 42.19900 19.83500
H  44.18400 40.44800 19.82500
H  40.55300 42.16200 19.86900
H  40.13000 43.45900 20.90600
H  39.62800 40.66000 21.17600
H  39.07200 41.92000 22.30500
H  40.65100 40.99700 22.50100
H  41.55700 48.25100 24.31200
H  39.85800 47.83200 24.43500
H  40.78400 47.33400 22.97900
H  40.17400 45.52000 29.17100
H  41.47700 48.17500 32.35900
H  42.80500 47.06100 32.10600
H  41.47800 46.44900 32.89800
Mg 16.58700 51.20200 26.21600
C  18.49300 49.83800 29.01400
C  14.21900 52.02400 28.63500
C  14.97800 52.66000 23.81500
C  19.01400 49.83300 24.07800
N  16.39300 50.95300 28.58700
C  17.34400 50.49800 29.42800
C  17.10300 50.93800 30.89300
C  15.54800 51.31800 30.75900
C  15.33400 51.36200 29.22400
C  14.53800 50.37600 31.43000
C  18.04800 52.03700 31.31200
C  18.49200 52.05400 32.78300
H  17.74300 51.15300 33.82400
N  14.81300 52.18200 26.20900
C  13.99100 52.47300 27.27100
C  12.98700 53.39200 26.79300
C  13.26100 53.68200 25.41900
C  14.36200 52.82600 25.06300
C  11.95400 53.88900 27.68000
C  12.48900 54.52700 24.45700
O  12.82300 54.73200 23.29700
C  11.26300 55.23400 24.90000
N  16.91900 51.16300 24.17100
C  16.09400 51.85900 23.39200
C  16.46800 51.55800 21.89900
C  17.82500 50.78000 21.99700
C  17.97500 50.59500 23.49100
C  15.36000 50.72700 21.19200
C  19.12600 51.24700 21.27100
C  19.55900 50.38700 20.05900
N  18.31800 50.00000 26.46500
C  19.25800 49.61600 25.48100
C  20.38400 48.93400 26.12300
C  20.13100 49.04700 27.52100
C  18.88200 49.64300 27.66200
C  21.60300 48.41600 25.49200
C  20.68800 48.68600 28.90500
O  21.78000 48.13200 29.12400
C  19.63300 49.23500 29.90500
C  19.08600 48.00700 30.51200
O  18.10800 47.35300 30.17600
O  19.74300 47.88300 31.72000
C  19.18400 46.91000 32.62800
H  13.52100 52.34900 29.40900
H  14.44500 53.13400 22.98900
H  19.61000 49.21200 23.40500
H  17.03500 50.13500 31.62700
H  15.31500 52.24300 31.28600
H  13.84500 49.99300 30.68200
H  13.88000 50.90400 32.12000
H  14.88400 49.50800 31.99100
H  17.54200 52.98000 31.11100
H  18.97500 51.97100 30.74200
H  18.11600 53.02900 33.09300
H  19.58000 52.09800 32.73300
H  11.72600 53.23700 28.52400
H  11.02200 53.96300 27.11900
H  12.18400 54.90500 28.00000
H  11.45000 55.85300 25.77700
H  10.53600 54.44300 25.08200
H  10.91800 55.75600 24.00700
H  16.51900 52.50700 21.36500
H  17.77200 49.72100 21.74700
H  14.55200 50.48400 21.88200
H  15.63800 49.73200 20.84500
H  14.94000 51.31400 20.37500
H  19.96300 51.21000 21.96800
H  18.97000 52.23500 20.83800
H  20.47600 49.87200 20.34700
H  19.90100 51.01600 19.23700
H  18.88500 49.65200 19.61800
H  22.49500 48.61900 26.08500
H  21.89600 48.77700 24.50600
H  21.66000 47.32800 25.52200
H  19.91400 49.82400 30.77900
H  18.18200 46.50000 32.50500
H  19.10000 47.36700 33.61500
H  19.85300 46.05300 32.55600

