158

Mg 25.23800 1.76100 29.72100
C  27.41700 1.44700 32.55000
C  22.57800 1.96500 31.78200
C  23.43300 1.88800 26.98200
C  28.13400 1.07100 27.64400
N  25.07100 1.83900 31.97600
C  26.08400 1.68500 32.90300
C  25.53700 1.85800 34.36900
C  23.93500 1.86800 34.02200
C  23.79400 1.87800 32.50600
C  23.03900 0.98400 34.95300
C  25.97800 3.19000 35.17100
C  26.04200 2.93500 36.68600
H  25.55600 4.02000 37.63400
N  23.26000 1.96600 29.39800
C  22.32100 2.05000 30.35500
C  21.08300 2.15400 29.79800
C  21.26400 2.05900 28.39400
C  22.73700 1.97300 28.18300
C  19.76200 2.33200 30.67700
C  20.20700 1.84700 27.30200
O  20.50200 1.56200 26.12900
C  18.75500 1.90200 27.72400
N  25.72600 1.38900 27.60700
C  24.74300 1.66200 26.73200
C  25.31500 1.63500 25.26400
C  26.81700 1.47400 25.46600
C  26.90400 1.32200 27.00100
C  24.77400 0.67900 24.15300
C  27.60300 2.68500 24.80400
C  27.66000 4.04600 25.55200
N  27.35100 1.39300 29.96400
C  28.34900 1.09800 29.05900
C  29.55700 0.65800 29.78300
C  29.27700 0.95300 31.13500
C  27.87800 1.24900 31.21600
C  30.82600 0.22600 29.13600
C  29.84000 1.00800 32.47500
O  31.00000 0.97500 32.89500
C  28.60400 1.32000 33.42700
C  28.44800 0.32700 34.54500
O  28.29800 -0.86200 34.39400
O  28.57900 0.98700 35.70200
C  28.37400 0.18000 36.93400
H  21.74400 2.05900 32.48000
H  22.82300 1.90600 26.07500
H  29.05600 1.08900 27.05800
H  25.72800 0.99400 35.00500
H  23.65600 2.88500 34.30100
H  23.60500 0.50800 35.75300
H  22.55800 0.31300 34.24000
H  22.30400 1.68400 35.35000
H  25.17700 3.91900 35.04600
H  26.89600 3.53600 34.69500
H  27.03800 2.69700 37.06000
H  25.42800 2.04500 36.82700
H  19.76200 1.99600 31.71400
H  18.81800 1.96800 30.27100
H  19.55900 3.40200 30.65100
H  18.39200 2.81400 28.19700
H  18.60600 1.00100 28.32000
H  18.26400 1.67500 26.77700
H  25.10800 2.64200 24.90300
H  27.19200 0.56700 24.99000
H  23.74500 0.90400 23.87500
H  24.84600 -0.38700 24.36800
H  25.39600 0.84300 23.27300
H  27.08600 2.87300 23.86300
H  28.61000 2.26900 24.76200
H  26.92500 3.79400 26.31700
H  27.23700 4.81000 24.90000
H  28.68900 4.27700 25.82700
H  31.38800 -0.39300 29.83400
H  31.42200 1.05700 28.75900
H  30.59600 -0.39700 28.27100
H  28.90600 2.26200 33.88400
H  29.15600 -0.57500 37.00600
H  27.34800 -0.14700 37.10600
H  28.48700 0.80400 37.82000
Mg 54.20100 24.02700 45.35600
C  51.84100 26.33100 44.30500
C  52.33700 21.41700 44.33900
C  56.86800 22.15100 45.77500
C  56.24000 26.92300 46.23800
N  52.36200 23.86900 44.25500
C  51.49900 24.99200 43.96800
C  50.15600 24.40200 43.42700
C  50.20600 22.90000 43.88100
C  51.73400 22.73400 44.19300
C  49.37900 22.62900 45.12500
C  50.12800 24.53400 41.87800
C  48.78100 24.68700 41.24100
H  48.40400 23.73400 40.09800
N  54.59600 22.08300 44.90400
C  53.66700 21.11900 44.58100
C  54.31700 19.86600 44.63800
C  55.69400 20.06700 45.02300
C  55.81200 21.48800 45.25200
C  53.61300 18.54500 44.43200
C  56.62700 18.94800 45.37800
O  56.31600 17.77800 45.15600
C  57.97200 19.11700 46.05900
N  56.32000 24.45900 45.78600
C  57.21200 23.47000 46.01600
C  58.48400 23.95200 46.63900
C  58.34900 25.52600 46.62300
C  56.89400 25.69600 46.10400
C  58.68200 23.39700 48.10300
C  59.30600 26.28900 45.71000
C  60.63700 26.70500 46.35300
N  53.98300 26.19100 45.48200
C  54.88000 27.20400 45.89500
C  54.20800 28.47500 45.93600
C  52.93700 28.14800 45.29200
C  52.99000 26.79500 44.92400
C  54.59800 29.74400 46.57300
C  51.62700 28.68700 44.82000
O  51.08900 29.81300 44.80700
C  50.90900 27.46000 44.17700
C  50.62700 27.73600 42.78500
O  51.34000 28.18100 41.90500
O  49.28200 27.87400 42.67800
C  48.77800 28.59800 41.46900
H  51.64000 20.57800 44.30000
H  57.74800 21.53900 45.98300
H  56.70100 27.81500 46.66700
H  49.34000 24.99200 43.84400
H  49.84500 22.24700 43.08700
H  48.90200 23.48100 45.60800
H  50.08400 22.20100 45.83800
H  48.57000 21.91500 44.97600
H  50.50300 23.60000 41.45900
H  50.79900 25.30200 41.49400
H  48.65000 25.73400 40.97100
H  48.12100 24.34400 42.03700
H  54.20800 18.06700 43.65400
H  52.54400 18.46000 44.23700
H  53.78000 17.97400 45.34500
H  58.50300 18.19300 46.28700
H  57.82000 19.66100 46.99200
H  58.74100 19.61300 45.46600
H  59.32500 23.66700 46.00800
H  58.61000 25.91100 47.60900
H  59.66100 23.59700 48.53900
H  58.71500 22.30800 48.13200
H  57.86500 23.65200 48.77700
H  58.64200 27.13100 45.51300
H  59.39500 25.69700 44.79900
H  61.44100 26.67600 45.61800
H  60.91100 26.33500 47.34100
H  60.48900 27.75600 46.60100
H  55.64200 30.04500 46.48500
H  54.40800 29.50400 47.61900
H  53.87600 30.52600 46.34000
H  50.10100 27.15800 44.84400
H  47.81300 28.17900 41.18400
H  49.41500 28.62100 40.58500
H  48.64300 29.64600 41.73500

