158

Mg 24.11500 -4.64000 45.66700
C  26.16300 -2.25000 44.41000
C  21.55200 -3.40500 43.58700
C  22.39100 -7.41300 46.36200
C  26.94800 -5.96400 47.44900
N  23.88100 -3.03600 44.14300
C  24.85900 -2.13700 43.87400
C  24.31200 -1.04600 42.87400
C  22.74100 -1.26100 43.06100
C  22.71500 -2.66500 43.52100
C  22.11900 -0.13000 43.97000
C  24.88500 -1.34500 41.45900
C  24.53000 -0.29500 40.41700
H  23.92400 -0.77800 39.14500
N  22.23600 -5.31900 45.03100
C  21.37600 -4.72400 44.16000
C  20.20700 -5.55500 43.85100
C  20.37400 -6.72600 44.68100
C  21.70200 -6.53100 45.43700
C  19.12800 -5.10000 42.93000
C  19.61500 -8.01500 44.54400
O  18.71100 -8.09200 43.74200
C  19.71400 -9.20800 45.47300
N  24.59500 -6.46400 46.78200
C  23.72500 -7.49800 46.87000
C  24.32500 -8.71100 47.57800
C  25.71900 -8.17600 47.98300
C  25.77200 -6.73600 47.39900
C  23.47100 -9.19500 48.74300
C  26.86600 -9.00800 47.44000
C  27.83900 -9.48100 48.43400
N  26.19400 -4.16900 45.99400
C  27.22900 -4.72200 46.75900
C  28.44300 -3.92400 46.63100
C  28.01700 -2.90400 45.80300
C  26.68100 -3.17000 45.29100
C  29.71400 -4.14700 47.42400
C  28.40900 -1.66500 45.19600
O  29.43800 -0.99800 45.30000
C  27.28700 -1.32500 44.16700
C  26.99800 0.08800 44.27100
O  26.49300 0.62500 45.28100
O  27.31200 0.68400 43.07000
C  27.51400 2.12200 43.13500
H  20.61200 -2.99700 43.21100
H  21.97700 -8.40300 46.56500
H  27.82500 -6.38800 47.94300
H  24.49000 -0.02700 43.21600
H  22.31600 -1.22800 42.05700
H  21.15600 0.11900 43.52200
H  22.70000 0.78900 43.89100
H  21.96800 -0.40300 45.01400
H  24.34500 -2.24500 41.16500
H  25.95000 -1.55100 41.56400
H  25.43900 0.25300 40.16700
H  23.80700 0.34100 40.92900
H  18.40700 -4.37800 43.31500
H  18.67600 -5.95500 42.42900
H  19.68000 -4.58100 42.14600
H  19.82600 -8.92500 46.52000
H  20.54600 -9.63500 44.91300
H  18.86600 -9.89000 45.40900
H  24.46100 -9.60600 46.97100
H  25.75500 -7.98800 49.05600
H  24.12600 -9.16700 49.61400
H  23.12900 -10.22900 48.71900
H  22.57700 -8.61200 48.96600
H  27.48000 -8.46000 46.72600
H  26.40000 -9.83600 46.90500
H  27.79000 -10.55900 48.59000
H  27.69300 -8.95000 49.37400
H  28.79400 -9.20400 47.98800
H  29.54300 -4.11000 48.50000
H  30.38300 -3.31900 47.18800
H  30.25700 -5.07200 47.23400
H  27.73600 -1.65300 43.22900
H  26.53400 2.57600 43.28600
H  27.96500 2.43500 42.19400
H  28.10100 2.41400 44.00600
Mg 27.95200 56.41300 40.73300
C  25.35600 54.07100 39.90400
C  30.28700 54.30700 39.56800
C  29.91900 59.02300 40.52400
C  25.20900 58.67100 41.39300
N  27.78300 54.50400 39.73100
C  26.70400 53.67400 39.57700
C  27.10100 52.46300 38.70600
C  28.65000 52.41700 38.91300
C  28.93200 53.84200 39.39500
C  29.28800 51.34200 39.85100
C  26.59100 52.26600 37.24600
C  26.36700 53.64800 36.55400
H  26.65600 53.72100 35.03400
N  29.91400 56.59200 40.27400
C  30.82300 55.56300 39.98500
C  32.17800 56.14500 39.77000
C  32.02100 57.62500 39.88800
C  30.59300 57.81900 40.23300
C  33.28600 55.26400 39.21500
C  33.13100 58.60400 39.75800
O  34.30800 58.25200 39.52200
C  32.94300 60.11300 39.94900
N  27.61100 58.51000 40.97100
C  28.64700 59.37700 40.90400
C  28.19100 60.82500 41.02100
C  26.76300 60.67800 41.41900
C  26.48100 59.14000 41.22400
C  29.04900 61.61800 42.00300
C  25.75700 61.69100 40.78700
C  24.67500 62.39100 41.74400
N  25.70500 56.35900 40.84600
C  24.79400 57.29400 41.17000
C  23.51200 56.67200 41.27300
C  23.70500 55.39500 40.75300
C  25.02600 55.23200 40.51400
C  22.25900 57.29600 41.80700
C  23.00100 54.17600 40.49900
O  21.82700 53.81700 40.58800
C  24.01100 53.30300 39.71000
C  23.97800 51.95200 40.26900
O  23.44900 50.97400 39.74600
O  24.68600 51.99200 41.46200
C  25.03400 50.69000 42.01800
H  31.11600 53.61700 39.39500
H  30.56300 59.87800 40.30900
H  24.42000 59.38600 41.63400
H  26.64400 51.64300 39.26100
H  29.23300 52.41300 37.99200
H  28.49400 50.73300 40.28200
H  29.71900 51.79400 40.74400
H  30.02800 50.65700 39.43500
H  25.70800 51.62900 37.29900
H  27.33100 51.74700 36.63600
H  26.88700 54.46200 37.05900
H  25.28100 53.69200 36.64600
H  33.97600 55.87600 38.63400
H  33.01400 54.44400 38.55000
H  33.73600 54.72200 40.04600
H  32.45200 60.22700 40.91600
H  32.23500 60.49500 39.21300
H  33.87800 60.65400 39.80800
H  28.25800 61.25300 40.02100
H  26.68400 60.84900 42.49300
H  28.43600 62.12300 42.74900
H  29.49700 62.44700 41.45400
H  29.77000 60.99500 42.53200
H  25.34100 61.14600 39.94000
H  26.28000 62.54000 40.34600
H  24.73500 63.47400 41.63800
H  24.94200 62.05500 42.74600
H  23.67400 62.04900 41.48300
H  21.66700 57.65700 40.96600
H  22.63500 58.21800 42.25000
H  21.59900 56.79500 42.51500
H  23.74600 53.19200 38.65800
H  26.11200 50.65800 42.17400
H  24.76800 49.88100 41.33800
H  24.51900 50.58300 42.97300

