158

Mg 0.15700 7.97400 26.95600
C  0.79300 9.93700 29.86300
C  0.28000 5.19600 28.86300
C  -0.28600 6.24700 24.13300
C  0.41600 10.95800 25.08300
N  0.50000 7.60100 29.11900
C  0.63800 8.55500 30.15000
C  0.60000 7.89400 31.55300
C  0.52300 6.36700 31.13700
C  0.37100 6.37900 29.62700
C  1.73000 5.51800 31.62200
C  -0.62500 8.34400 32.48200
C  -0.16800 8.90700 33.84500
H  0.77100 8.08700 34.67200
N  0.04300 5.99000 26.55100
C  0.12800 4.98900 27.44700
C  -0.05700 3.77100 26.76800
C  -0.37400 4.03700 25.40700
C  -0.26100 5.46800 25.30000
C  0.24800 2.37800 27.42200
C  -0.76600 3.09000 24.31700
O  -0.91900 3.53100 23.17300
C  -0.93200 1.69100 24.64400
N  0.01500 8.56200 24.92300
C  -0.13100 7.67300 23.93700
C  -0.01300 8.43000 22.50900
C  -0.14500 9.90300 22.89700
C  0.01100 9.80200 24.39400
C  1.24900 8.05800 21.69000
C  -1.53500 10.53500 22.51900
C  -1.75100 10.75800 20.95900
N  0.65000 10.00200 27.34100
C  0.75800 11.10000 26.46100
C  0.99700 12.36900 27.22100
C  1.04200 11.88500 28.57200
C  0.84900 10.48900 28.59800
C  1.15200 13.76300 26.83000
C  1.25200 12.35300 29.95200
O  1.59800 13.41700 30.31900
C  1.03500 11.17200 30.84300
C  2.24600 11.05800 31.64800
O  3.23100 10.35600 31.31000
O  2.19700 11.77700 32.76000
C  3.27600 11.51700 33.75400
H  0.46900 4.27400 29.41900
H  -0.53300 5.70200 23.21900
H  0.52800 11.91000 24.56100
H  1.51800 8.25000 32.01900
H  -0.34900 5.84200 31.52600
H  2.25000 5.03400 30.79500
H  1.44300 4.78800 32.37900
H  2.43900 6.15400 32.15300
H  -1.25100 7.48600 32.72600
H  -1.22000 9.04400 31.89600
H  -0.98700 9.13700 34.52700
H  0.32800 9.87300 33.74600
H  0.93700 1.81500 26.79100
H  -0.64600 1.78700 27.61800
H  0.86600 2.42900 28.31800
H  0.08000 1.28700 24.64900
H  -1.35600 1.25700 23.73900
H  -1.54100 1.57100 25.54000
H  -0.84800 8.08000 21.90300
H  0.67200 10.48800 22.47300
H  0.85200 7.39900 20.91800
H  1.95400 7.55000 22.34800
H  1.69400 8.90800 21.17300
H  -1.68500 11.49000 23.02400
H  -2.21900 9.89100 23.07100
H  -1.16800 10.16500 20.25400
H  -1.56900 11.80600 20.71900
H  -2.79900 10.59400 20.71100
H  0.22800 14.17200 27.23600
H  1.55300 13.74700 25.81600
H  1.80500 14.38200 27.44500
H  0.23400 11.36200 31.55700
H  3.65200 12.48200 34.09500
H  4.05600 10.90700 33.29800
H  2.80600 10.91000 34.52700
Mg 36.62800 49.44200 25.12300
C  36.39200 47.63400 28.11600
C  35.15200 52.15900 26.75100
C  36.15500 51.05300 22.21000
C  37.77000 46.69100 23.55900
N  35.80700 49.77900 27.23500
C  35.92100 48.94300 28.29000
C  35.53400 49.62700 29.60200
C  35.12000 51.05000 29.15900
C  35.34000 51.00100 27.57200
C  33.59100 51.43700 29.55200
C  36.76800 49.72300 30.61400
C  36.51900 49.21000 32.05100
H  35.03600 49.15700 32.47800
N  35.79500 51.33500 24.64000
C  35.38100 52.31400 25.41900
C  35.30900 53.61900 24.70700
C  35.41700 53.26900 23.32200
C  35.76800 51.82300 23.35100
C  34.97100 54.92700 25.33700
C  35.30000 54.12200 22.05600
O  35.48900 53.71700 20.93400
C  35.08100 55.69200 22.17700
N  36.83700 48.92300 23.19900
C  36.63300 49.75700 22.14900
C  37.02300 49.09700 20.83400
C  37.82700 47.83000 21.33100
C  37.54700 47.82000 22.79200
C  35.82600 48.81900 19.84000
C  39.34800 47.78800 20.87200
C  40.25700 48.66600 21.68700
N  37.12400 47.61800 25.72700
C  37.64900 46.61100 24.95800
C  37.94400 45.41700 25.85100
C  37.48500 45.83300 27.06000
C  36.98100 47.13900 26.92500
C  38.61600 44.08500 25.54500
C  37.33100 45.31400 28.42300
O  37.70900 44.30200 29.00000
C  36.62000 46.50500 29.17500
C  35.33900 46.06100 29.81600
O  34.24900 46.09200 29.28500
O  35.59000 45.58400 31.06100
C  34.58100 44.66200 31.50500
H  34.74000 53.06700 27.19700
H  36.13700 51.49100 21.21000
H  38.24800 45.86900 23.02200
H  34.75300 48.93300 29.91300
H  35.74600 51.80300 29.63700
H  33.05900 50.64300 30.07400
H  32.93500 51.70100 28.72200
H  33.65200 52.18400 30.34300
H  37.12600 50.73900 30.77800
H  37.57200 49.17300 30.12500
H  37.00800 49.82200 32.80900
H  36.84500 48.17300 32.12200
H  34.00800 55.19800 24.90500
H  35.82700 55.55500 25.09000
H  34.95800 54.93200 26.42700
H  34.08400 55.78100 22.60700
H  35.01000 56.11900 21.17700
H  35.74100 56.26400 22.82800
H  37.72500 49.84200 20.45900
H  37.37900 46.91000 20.95600
H  34.87500 49.30400 20.06100
H  35.57100 47.76100 19.88400
H  36.17900 49.04700 18.83500
H  39.32800 48.07700 19.82100
H  39.70000 46.75700 20.92300
H  40.76100 49.33200 20.98700
H  41.11100 48.09600 22.05300
H  39.79500 49.26500 22.47200
H  37.99100 43.39200 24.98100
H  39.01900 43.54200 26.40000
H  39.45600 44.34200 24.89900
H  37.40400 46.73400 29.89700
H  33.91900 44.21500 30.76300
H  34.04700 45.22200 32.27200
H  35.17600 43.95200 32.08100

