158

Mg 0.28800 7.80100 26.46300
C  1.16300 9.56500 29.45100
C  0.07600 4.80900 28.31300
C  -0.18300 6.23200 23.58600
C  0.54600 10.90500 24.71900
N  0.53300 7.33600 28.57400
C  0.97700 8.16700 29.64400
C  0.71700 7.45500 31.00500
C  0.75600 5.99700 30.56100
C  0.35400 6.02600 29.06100
C  2.01500 5.12100 30.90900
C  -0.60300 8.00600 31.55800
C  -0.76200 8.00300 33.06500
H  0.53500 7.69100 33.88300
N  0.04100 5.82200 26.02400
C  -0.14700 4.79100 26.88600
C  -0.76800 3.69700 26.16200
C  -0.80100 4.03700 24.80300
C  -0.30600 5.41500 24.74600
C  -1.35500 2.43800 26.89600
C  -1.41500 3.26600 23.58900
O  -1.22100 3.56700 22.37800
C  -2.15800 2.04500 23.88800
N  0.29600 8.41900 24.49200
C  0.04700 7.54400 23.46300
C  -0.03300 8.26900 22.14500
C  -0.16400 9.77200 22.56800
C  0.22500 9.76300 23.99800
C  1.15100 7.96500 21.12400
C  -1.56800 10.47200 22.48000
C  -1.74000 11.46000 21.37800
N  0.85700 9.75300 26.89800
C  0.91500 10.93800 26.09800
C  1.34800 12.04200 26.89700
C  1.42800 11.52400 28.18500
C  1.12400 10.19100 28.16700
C  1.55000 13.41700 26.38700
C  1.77800 11.87500 29.52600
O  2.22700 12.92900 29.89700
C  1.60600 10.66400 30.41300
C  2.82800 10.43900 31.24400
O  3.75800 9.67400 30.96000
O  2.63500 11.12000 32.39400
C  3.61000 10.86700 33.46500
H  -0.01600 3.88100 28.88100
H  -0.30800 5.73300 22.62300
H  0.69400 11.86400 24.21900
H  1.57300 7.71300 31.62800
H  -0.06000 5.47700 31.06300
H  2.67400 5.59600 31.63600
H  2.64800 5.08400 30.02200
H  1.82800 4.10300 31.24800
H  -1.43000 7.47900 31.08200
H  -0.72400 9.06800 31.34300
H  -1.53100 7.25600 33.26400
H  -1.06300 8.96500 33.47900
H  -2.03300 2.83200 27.65200
H  -0.44900 2.00100 27.31600
H  -1.98900 1.74300 26.34600
H  -2.63300 1.50600 23.06800
H  -3.02600 2.37500 24.45900
H  -1.49200 1.32000 24.35600
H  -0.99600 8.00200 21.71000
H  0.57200 10.39600 22.06200
H  0.75400 7.32900 20.33300
H  1.88100 7.39400 21.69600
H  1.58500 8.91100 20.80100
H  -1.69100 11.03600 23.40400
H  -2.36900 9.75900 22.28400
H  -0.87600 11.37800 20.72000
H  -1.60100 12.47900 21.73800
H  -2.65600 11.43900 20.78800
H  1.86300 14.10800 27.16900
H  0.64300 13.79800 25.91700
H  2.33700 13.46300 25.63400
H  0.76700 10.98100 31.03300
H  4.34200 10.12300 33.15000
H  3.13000 10.52400 34.38200
H  4.18100 11.76100 33.71500
Mg -11.82200 16.73300 40.71600
C  -8.45600 15.60000 40.48400
C  -10.76000 20.01500 40.05900
C  -14.98000 17.73400 40.44700
C  -12.77300 13.52800 41.36800
N  -9.84900 17.66900 40.24900
C  -8.56600 17.02200 40.16400
C  -7.47600 18.07700 39.91000
C  -8.19800 19.43300 39.67800
C  -9.71700 19.06000 40.03700
C  -7.61100 20.63900 40.43000
C  -6.56700 17.61700 38.58800
C  -5.01400 17.64600 38.84900
H  -4.21700 16.36600 38.79300
N  -12.77400 18.62800 40.35100
C  -12.14800 19.84200 40.21400
C  -13.14400 20.81900 40.17900
C  -14.44900 20.25800 40.40200
C  -14.12000 18.80000 40.37700
C  -12.80700 22.33000 39.87400
C  -15.81400 20.98800 40.68700
O  -15.89400 22.20600 40.57800
C  -16.98000 20.27400 41.40600
N  -13.59300 15.68700 40.52600
C  -14.73200 16.35200 40.53400
C  -15.91100 15.49800 40.98800
C  -15.28700 14.07200 41.09500
C  -13.76600 14.46700 41.06000
C  -16.60500 16.12700 42.23900
C  -15.74700 13.14600 39.87400
C  -16.47800 11.85700 40.31900
N  -10.85100 14.85600 40.96600
C  -11.33800 13.65400 41.27800
C  -10.26000 12.68500 41.49700
C  -9.15100 13.39200 41.17200
C  -9.56500 14.71900 40.81700
C  -10.26600 11.22600 41.85100
C  -7.70900 13.38000 41.10100
O  -6.97200 12.39800 41.25200
C  -7.19000 14.74700 40.62300
C  -6.19700 15.18300 41.62200
O  -6.41400 15.71000 42.66900
O  -4.99000 14.53400 41.36400
C  -3.87100 14.60900 42.38500
H  -10.55600 21.07400 39.89200
H  -16.04100 17.99100 40.47800
H  -13.08100 12.50400 41.58700
H  -6.92400 17.98000 40.84500
H  -8.31900 19.50700 38.59700
H  -6.76800 20.19700 40.96000
H  -8.37000 21.06500 41.08600
H  -7.29900 21.44300 39.76300
H  -6.75300 18.29200 37.75400
H  -6.86600 16.59700 38.34600
H  -4.81100 18.01100 39.85500
H  -4.56200 18.31400 38.11500
H  -13.68000 22.94500 39.65800
H  -12.08400 22.42700 39.06300
H  -12.26300 22.75800 40.71600
H  -17.92900 20.25800 40.87000
H  -17.15700 20.94000 42.25100
H  -16.77700 19.30100 41.85400
H  -16.60700 15.49800 40.14900
H  -15.38300 13.56100 42.05400
H  -16.25000 17.11000 42.54800
H  -16.56300 15.38600 43.03800
H  -17.64400 16.29500 41.95600
H  -14.82600 12.89100 39.35100
H  -16.39600 13.61900 39.13700
H  -15.72900 11.06600 40.27900
H  -17.39400 11.56500 39.80700
H  -16.77900 11.95700 41.36200
H  -11.17800 10.68700 41.59400
H  -10.24400 11.08900 42.93200
H  -9.41000 10.82100 41.31100
H  -6.66900 14.68400 39.66800
H  -3.13300 13.90900 41.99400
H  -4.23900 14.33500 43.37400
H  -3.54500 15.62200 42.62100

