158

Mg 6.28400 53.28700 40.63800
C  6.05900 49.71400 40.42600
C  9.66100 53.05900 40.10300
C  6.18700 56.62500 40.30100
C  2.72100 53.33000 40.93800
N  7.67300 51.48400 40.23700
C  7.38200 50.16600 40.21200
C  8.69400 49.43600 39.96500
C  9.79700 50.47500 40.33200
C  9.01300 51.79600 40.25200
C  10.44100 50.31800 41.70500
C  8.95400 48.77000 38.52500
C  8.35900 49.53500 37.25200
H  7.26800 48.90800 36.19400
N  7.75200 54.62400 40.24200
C  9.01300 54.32800 40.00800
C  9.71400 55.63100 39.84400
C  8.75000 56.67300 39.92600
C  7.46000 55.97800 40.17500
C  11.26800 55.67100 39.54500
C  9.13700 58.16000 39.85300
O  10.33000 58.49500 39.56600
C  8.14900 59.36800 39.85000
N  4.65500 54.73900 40.74300
C  4.92300 56.08300 40.54900
C  3.67400 56.97100 40.62400
C  2.60000 55.88800 40.63700
C  3.34000 54.54800 40.76200
C  3.67100 57.85300 41.87600
C  1.66100 55.85600 39.38700
C  0.15800 55.67600 39.63000
N  4.69300 51.90300 40.80500
C  3.31600 52.06100 40.94800
C  2.64900 50.79300 40.94900
C  3.63200 49.82400 40.82400
C  4.90100 50.51300 40.71200
C  1.10400 50.64400 41.12900
C  3.90900 48.44100 40.75400
O  3.20900 47.49600 40.81100
C  5.45900 48.32500 40.45900
C  5.61000 47.52800 39.15800
O  5.25600 47.83600 38.04300
O  6.06300 46.29000 39.48200
C  5.90400 45.26700 38.45200
H  10.74000 52.98900 39.95500
H  6.29000 57.70500 40.17000
H  1.63000 53.34100 40.96900
H  8.71300 48.65300 40.72300
H  10.59100 50.46900 39.58500
H  9.79400 49.63900 42.26100
H  10.42700 51.27800 42.22200
H  11.50200 50.11000 41.84200
H  8.49100 47.78600 38.60200
H  10.00600 48.67800 38.25300
H  9.14300 49.79500 36.54100
H  8.02300 50.51100 37.60200
H  11.37100 56.37500 38.71900
H  11.78200 54.71800 39.41900
H  11.74300 56.06700 40.44300
H  8.70500 60.24700 39.52400
H  7.69500 59.53500 40.82700
H  7.33400 59.18100 39.15100
H  3.69800 57.52700 39.68600
H  1.94800 56.00500 41.50200
H  3.95400 58.88200 41.65500
H  4.45900 57.45000 42.51200
H  2.70200 57.83600 42.37400
H  2.01800 55.10500 38.68200
H  1.81200 56.83700 38.93700
H  -0.46000 56.45400 39.18200
H  -0.08800 55.72900 40.69000
H  -0.20800 54.69800 39.31800
H  0.83400 49.68700 41.57500
H  0.56100 50.79700 40.19700
H  0.82400 51.31700 41.94000
H  5.90200 47.83900 41.32900
H  6.90900 45.05400 38.09000
H  5.37200 45.51900 37.53500
H  5.54800 44.38300 38.98200
Mg -11.74700 38.50900 41.97300
C  -9.92700 35.79400 40.84000
C  -9.55800 40.64400 40.42300
C  -14.03700 40.96100 42.23600
C  -13.94400 36.17900 43.22200
N  -9.97900 38.24600 40.73200
C  -9.33400 37.06200 40.44600
C  -7.99500 37.28700 39.69400
C  -7.82100 38.83200 39.79900
C  -9.17400 39.28200 40.35000
C  -6.66200 39.24600 40.68100
C  -8.11100 36.72900 38.21100
C  -7.07900 35.70600 37.75200
H  -6.16200 36.22300 36.61600
N  -11.84900 40.55200 41.26300
C  -10.80500 41.24100 40.75900
C  -11.16900 42.57700 40.70500
C  -12.51700 42.71400 41.15100
C  -12.87900 41.40300 41.63200
C  -10.35000 43.67100 40.03700
C  -13.38200 44.04000 41.19100
O  -12.87700 45.08000 40.87700
C  -14.82100 44.12800 41.55100
N  -13.62600 38.60900 42.65300
C  -14.40000 39.68700 42.66600
C  -15.86600 39.36600 42.97500
C  -15.85400 37.87000 43.40400
C  -14.36900 37.48800 43.08700
C  -16.52500 40.37700 44.09200
C  -16.84400 36.98300 42.71000
C  -17.84400 36.20300 43.65800
N  -11.84000 36.41000 42.20400
C  -12.75700 35.61700 42.85700
C  -12.41600 34.24900 42.82400
C  -11.27100 34.18800 42.04900
C  -10.97200 35.58900 41.69600
C  -13.20200 33.11600 43.36900
C  -10.27400 33.42200 41.40900
O  -10.03400 32.24900 41.46400
C  -9.39000 34.39700 40.52900
C  -7.98500 34.13500 40.86300
O  -7.23000 33.50600 40.13800
O  -7.71700 34.72500 42.09100
C  -6.25100 34.77500 42.37900
H  -8.70200 41.28900 40.21800
H  -14.78700 41.74400 42.36200
H  -14.74800 35.55900 43.62200
H  -7.19300 36.76600 40.21500
H  -7.62200 39.30300 38.83600
H  -5.95000 38.48800 41.00700
H  -7.06500 39.74500 41.56200
H  -6.10200 39.97700 40.09900
H  -8.00000 37.58700 37.54700
H  -9.13300 36.40000 38.02600
H  -7.63700 34.83500 37.40900
H  -6.50600 35.32000 38.59500
H  -10.90100 43.95200 39.14000
H  -9.37300 43.33800 39.68600
H  -10.44100 44.53400 40.69700
H  -15.41900 43.45500 40.93700
H  -15.24300 45.10700 41.32200
H  -14.81800 43.91900 42.62100
H  -16.36400 39.47100 42.01100
H  -15.89200 37.80700 44.49100
H  -15.85500 41.09000 44.57200
H  -16.90400 39.96400 45.02600
H  -17.33600 40.92800 43.61500
H  -16.32800 36.20700 42.14300
H  -17.49900 37.56200 42.05900
H  -17.69000 36.34500 44.72800
H  -17.82600 35.14900 43.38400
H  -18.86000 36.56600 43.50500
H  -13.32600 33.25700 44.44300
H  -12.72600 32.19600 43.02900
H  -14.18600 33.22800 42.91200
H  -9.51000 34.12100 39.48100
H  -5.74200 35.47800 41.72000
H  -5.88800 33.75900 42.22600
H  -6.12500 34.98700 43.44100

