158

Mg 1.66300 -1.76900 44.87900
C  4.88700 -0.97100 44.12200
C  0.51900 0.83600 42.90500
C  -1.44600 -3.09400 44.92000
C  2.95300 -4.79900 46.48100
N  2.62500 -0.43000 43.48500
C  3.93000 -0.10800 43.56000
C  4.23700 1.22200 42.81200
C  2.85300 1.90400 42.78300
C  1.92800 0.69400 43.06200
C  2.61900 3.03700 43.70200
C  4.80200 0.95200 41.38700
C  5.94600 1.83800 40.85200
H  5.65700 2.72800 39.63500
N  -0.19300 -1.12600 44.15800
C  -0.47800 0.00000 43.41500
C  -1.88300 0.09100 43.23700
C  -2.52600 -0.98000 43.91000
C  -1.39800 -1.79800 44.36100
C  -2.52500 1.33200 42.58000
C  -4.06800 -1.22200 44.14300
O  -4.87000 -0.47200 43.67800
C  -4.66100 -2.26000 45.17900
N  0.87600 -3.69900 45.52500
C  -0.46400 -3.95500 45.47400
C  -0.78700 -5.30600 46.05200
C  0.55000 -5.69600 46.69700
C  1.53600 -4.69700 46.20800
C  -2.05300 -5.32400 46.98900
C  0.92700 -7.14400 46.22700
C  1.48600 -7.95300 47.37000
N  3.60200 -2.72300 45.30300
C  3.95300 -3.88000 45.96600
C  5.41200 -3.99600 46.02900
C  5.88700 -2.80200 45.31900
C  4.71100 -2.15700 44.84000
C  6.14200 -5.16000 46.69200
C  7.03700 -2.03100 44.87400
O  8.26100 -2.20200 44.91200
C  6.39600 -0.74000 44.11200
C  6.78400 0.33200 45.06700
O  6.19200 0.73800 46.05600
O  7.70900 1.03600 44.38900
C  8.17200 2.35900 44.96900
H  0.24400 1.75000 42.37500
H  -2.45600 -3.50100 44.82800
H  3.17800 -5.70300 47.05000
H  4.99200 1.80600 43.33700
H  2.53000 2.12400 41.76600
H  3.49100 3.68000 43.82200
H  2.12800 2.67200 44.60400
H  1.83700 3.68900 43.31300
H  3.95600 0.91000 40.70100
H  5.18300 -0.06900 41.40400
H  6.77700 1.18300 40.58900
H  6.22300 2.44000 41.71800
H  -2.90200 1.24500 41.56100
H  -1.86600 2.19200 42.45800
H  -3.38900 1.63800 43.16900
H  -5.06300 -3.12200 44.64600
H  -5.54800 -1.80700 45.62100
H  -3.99900 -2.49000 46.01400
H  -1.06700 -6.03900 45.29600
H  0.36300 -5.49100 47.75100
H  -2.82900 -5.84300 46.42600
H  -2.42500 -4.35300 47.31400
H  -1.78500 -6.01900 47.78500
H  1.76100 -6.95400 45.55100
H  0.08600 -7.67400 45.78100
H  0.86300 -8.83000 47.54100
H  1.57400 -7.35200 48.27600
H  2.46600 -8.33300 47.07900
H  5.48600 -5.64400 47.41500
H  7.09700 -4.83900 47.10900
H  6.32900 -5.94000 45.95500
H  6.83800 -0.59300 43.12700
H  8.94500 2.81900 44.35400
H  8.73000 2.13500 45.87800
H  7.33600 3.04300 45.11900
Mg 49.52900 45.95300 43.20300
C  46.22500 46.82000 42.34400
C  49.04700 43.00000 41.35300
C  52.79000 45.47000 43.41200
C  50.01700 49.35200 44.08700
N  47.78500 45.06900 41.86600
C  46.57900 45.57700 41.77700
C  45.73500 44.71600 40.87300
C  46.63800 43.40400 40.65100
C  47.87300 43.80900 41.33100
C  46.07300 42.10300 41.20100
C  45.17700 45.34700 39.60700
C  43.70200 45.17000 39.24100
H  43.31800 44.90400 37.76800
N  50.73100 44.36800 42.56900
C  50.34300 43.19600 41.93000
C  51.55100 42.34500 41.69900
C  52.60300 42.99600 42.38300
C  52.10000 44.36100 42.79200
C  51.47500 41.05100 40.90600
C  53.99000 42.41800 42.74700
O  54.15700 41.22100 42.49800
C  55.01300 43.19000 43.27700
N  51.18900 47.30700 43.65200
C  52.41000 46.76800 43.85500
C  53.33400 47.92600 44.41200
C  52.33200 49.12300 44.56300
C  51.10900 48.56700 43.96400
C  54.08300 47.61600 45.73000
C  52.81300 50.51200 43.96200
C  53.36100 51.63200 44.92200
N  48.34800 47.70900 43.29500
C  48.65200 48.96500 43.75100
C  47.45900 49.75600 43.84000
C  46.47400 48.96300 43.25800
C  47.07300 47.75400 42.89700
C  47.38300 51.02600 44.50700
C  45.02600 48.86800 42.92100
O  44.11600 49.69200 43.02500
C  44.82800 47.47600 42.20800
C  43.83100 46.71900 42.96700
O  43.82200 46.56600 44.17900
O  42.93300 46.09600 42.14800
C  42.07400 45.11800 42.80200
H  48.88800 41.96500 41.04400
H  53.87600 45.35800 43.38200
H  50.17900 50.36500 44.46000
H  44.91300 44.33700 41.48000
H  46.84300 43.30600 39.58500
H  44.98500 42.10000 41.26000
H  46.43000 41.92900 42.21600
H  46.35500 41.29500 40.52600
H  45.82600 45.13900 38.75600
H  45.34000 46.42000 39.70100
H  43.07400 46.00900 39.54000
H  43.37600 44.26100 39.74800
H  52.16000 40.28100 41.26000
H  51.55800 41.33100 39.85600
H  50.47600 40.64300 41.05600
H  54.86200 43.65400 44.25100
H  55.32400 43.97700 42.59100
H  55.89300 42.55100 43.35200
H  54.08600 48.26500 43.70000
H  52.13400 49.32700 45.61500
H  53.88900 46.54600 45.81100
H  53.60100 48.13800 46.55600
H  55.14700 47.84800 45.68300
H  52.04800 50.97600 43.33900
H  53.57900 50.28800 43.22000
H  53.19400 51.22100 45.91700
H  52.74500 52.51800 44.76500
H  54.38900 51.90800 44.68600
H  48.06400 51.78400 44.11800
H  47.62200 50.96300 45.56900
H  46.37100 51.42400 44.42700
H  44.53000 47.67300 41.17800
H  41.24700 45.66400 43.25700
H  42.61900 44.45500 43.47300
H  41.50500 44.60800 42.02400

