158

Mg 25.26500 -0.76700 28.99700
C  27.20400 -0.46800 31.89800
C  22.31200 -0.28600 30.97400
C  23.29100 -1.01800 26.38500
C  28.09000 -1.64200 27.35600
N  24.87900 -0.50100 31.22300
C  25.86400 -0.29500 32.19600
C  25.11000 -0.03300 33.56500
C  23.58800 -0.22500 33.21500
C  23.53400 -0.42400 31.71100
C  22.84300 -1.39200 34.03800
C  25.49600 1.47200 34.15700
C  26.40200 1.39400 35.48500
H  26.18300 2.35800 36.57200
N  23.07100 -0.68300 28.67600
C  22.08000 -0.37200 29.62000
C  20.81700 -0.24100 28.94200
C  21.09700 -0.51000 27.59200
C  22.52600 -0.77400 27.43100
C  19.55500 0.05700 29.68900
C  20.07100 -0.59200 26.42500
O  20.40500 -0.89300 25.32400
C  18.67200 -0.32400 26.64900
N  25.56100 -1.62900 27.23600
C  24.64200 -1.34500 26.24900
C  25.20900 -1.41200 24.80500
C  26.75300 -1.57800 25.14600
C  26.81600 -1.67000 26.71100
C  24.55900 -2.52400 23.88600
C  27.58300 -0.44000 24.51400
C  27.51900 0.99200 25.08600
N  27.22500 -0.97200 29.47400
C  28.29800 -1.40200 28.69800
C  29.56600 -1.33200 29.40400
C  29.20500 -0.97300 30.72300
C  27.77100 -0.78600 30.64300
C  30.88000 -1.60400 28.79700
C  29.69300 -0.63000 32.06400
O  30.79000 -0.54200 32.52100
C  28.38700 -0.35900 32.89700
C  28.46100 -1.28700 34.07000
O  28.24200 -2.49200 34.04200
O  28.80100 -0.46000 35.15000
C  28.74600 -1.16700 36.43500
H  21.48100 0.01400 31.61600
H  22.86300 -0.86200 25.39200
H  28.93100 -1.76500 26.67000
H  25.54200 -0.78800 34.22100
H  22.90700 0.55800 33.54700
H  23.43700 -1.85000 34.82900
H  22.45000 -2.15800 33.36900
H  22.10700 -0.91000 34.68100
H  24.60700 1.98900 34.51700
H  25.93200 2.05900 33.35000
H  27.42500 1.43000 35.11300
H  26.20000 0.41900 35.92800
H  19.58100 -0.25600 30.73300
H  18.62100 -0.41300 29.38100
H  19.45200 1.13800 29.78500
H  18.26200 -1.04000 27.36100
H  18.09300 -0.25900 25.72800
H  18.72500 0.71700 26.96800
H  25.00800 -0.44300 24.34700
H  27.04500 -2.54300 24.73300
H  25.34800 -3.02400 23.32300
H  23.79700 -2.02400 23.28900
H  23.96000 -3.20100 24.49300
H  27.14300 -0.29200 23.52800
H  28.61200 -0.76900 24.37300
H  26.87800 1.05700 25.96600
H  26.99600 1.64300 24.38600
H  28.47800 1.47300 25.27800
H  31.28400 -0.76100 28.23600
H  30.86300 -2.41100 28.06500
H  31.50500 -1.91600 29.63500
H  28.47000 0.67900 33.21700
H  27.81300 -0.79900 36.86100
H  29.64500 -0.93600 37.00600
H  28.67500 -2.24900 36.32300
Mg 41.14600 41.35700 27.09400
C  40.88600 43.88600 29.63900
C  41.89100 39.22600 29.63800
C  42.00000 39.24800 24.86000
C  41.33300 44.09800 24.78400
N  41.44100 41.60200 29.43400
C  40.98200 42.57800 30.18500
C  40.90300 42.12500 31.70300
C  41.49000 40.67200 31.64600
C  41.56600 40.45000 30.11500
C  42.89600 40.56200 32.30100
C  39.42600 42.23200 32.34400
C  39.23700 42.25400 33.86300
H  38.34600 43.31400 34.52400
N  41.64000 39.40900 27.19300
C  41.95400 38.63700 28.33400
C  42.30000 37.27100 27.88100
C  42.33300 37.26000 26.47200
C  41.95700 38.67500 26.11500
C  42.49900 36.20000 28.85900
C  42.75800 36.17400 25.45600
O  42.66500 36.28700 24.25100
C  43.18900 34.80500 25.97300
N  41.64100 41.62400 25.13400
C  41.83900 40.49400 24.35600
C  41.98400 40.90300 22.83700
C  41.69100 42.43400 22.82100
C  41.61500 42.80600 24.36000
C  43.39200 40.57900 22.15300
C  40.36300 42.77500 22.03900
C  39.10200 42.05800 22.53800
N  41.05700 43.56000 27.08800
C  41.04000 44.49600 26.06300
C  40.82100 45.79800 26.60400
C  40.73300 45.62500 27.99200
C  40.96000 44.24600 28.24300
C  40.73800 47.00600 25.88900
C  40.71800 46.36300 29.23300
O  40.49800 47.52900 29.53100
C  40.73100 45.19900 30.38900
C  41.84000 45.48100 31.30600
O  43.06200 45.47600 31.04100
O  41.37000 45.80400 32.56100
C  42.32100 45.93000 33.67400
H  42.09800 38.40300 30.32500
H  42.20100 38.54000 24.05400
H  41.23600 44.83200 23.98200
H  41.59600 42.85000 32.13200
H  40.78000 39.95700 32.06100
H  43.21000 41.50200 32.75500
H  43.63100 40.15200 31.60800
H  42.72900 39.83000 33.09200
H  38.82500 41.37300 32.04400
H  38.95300 43.09100 31.86800
H  40.26000 42.29900 34.23900
H  38.94100 41.27600 34.24400
H  41.83500 35.37200 28.61100
H  42.52300 36.52100 29.90100
H  43.55700 35.96600 28.74200
H  44.12800 34.89600 26.51800
H  43.19800 34.06400 25.17300
H  42.34400 34.58700 26.62600
H  41.15200 40.36700 22.38200
H  42.48500 42.98000 22.31100
H  43.26300 40.31000 21.10400
H  44.04900 39.99400 22.79600
H  43.93800 41.49800 21.94300
H  40.46000 42.58800 20.97000
H  40.16500 43.82900 22.23100
H  39.36200 41.56300 23.47400
H  38.93100 41.37600 21.70500
H  38.30200 42.79700 22.50400
H  40.39300 47.82100 26.52400
H  40.00000 46.83600 25.10500
H  41.67100 47.40400 25.49100
H  39.90200 45.20600 31.09600
H  42.27300 46.99600 33.90000
H  43.35000 45.68600 33.41100
H  42.07300 45.31300 34.53700

