158

Mg 47.84400 34.77400 26.97000
C  45.85700 33.45400 29.68600
C  48.55100 37.47600 28.93500
C  48.77400 36.30600 24.19800
C  46.94200 31.87700 25.14200
N  47.28100 35.38400 29.06700
C  46.60500 34.54300 30.00700
C  46.84400 35.09000 31.41600
C  47.47100 36.49500 31.14100
C  47.80700 36.48100 29.68200
C  46.48600 37.68300 31.30500
C  47.92100 34.22800 32.18300
C  48.09800 34.32300 33.65500
H  47.25900 35.29000 34.49100
N  48.63500 36.56500 26.61000
C  48.92700 37.56000 27.54800
C  49.66800 38.65500 26.90900
C  49.69600 38.31800 25.57300
C  48.94900 37.02000 25.42400
C  50.28900 39.89000 27.59900
C  50.35800 39.04200 24.39200
O  50.30500 38.56200 23.25400
C  51.06700 40.35100 24.59400
N  47.81900 34.19800 24.96400
C  48.25900 35.01900 23.98800
C  48.38900 34.33200 22.66900
C  48.13700 32.83700 23.08700
C  47.62300 32.90800 24.50400
C  47.43600 34.79100 21.49400
C  49.47800 31.98900 22.99500
C  50.25900 31.62300 24.27900
N  46.71000 33.04500 27.28300
C  46.45500 31.97300 26.45000
C  45.47300 31.03900 27.03200
C  45.20500 31.60500 28.27900
C  45.98600 32.78300 28.44100
C  44.92700 29.79300 26.55800
C  44.47400 31.37600 29.49700
O  43.66300 30.52800 29.92100
C  44.86800 32.60600 30.44900
C  45.30000 32.06300 31.79600
O  45.75700 30.96700 32.04500
O  44.89800 32.98100 32.72200
C  44.97400 32.35500 34.07500
H  48.74700 38.29700 29.62800
H  49.11500 36.57600 23.19600
H  46.73100 30.90200 24.69800
H  45.89700 35.09900 31.95500
H  48.39400 36.75700 31.65900
H  46.04000 37.50900 32.28400
H  45.63300 37.69300 30.62700
H  46.92000 38.68300 31.30800
H  48.85400 34.52500 31.70500
H  47.80300 33.18600 31.88600
H  49.15300 34.42600 33.90900
H  47.79800 33.32200 33.96400
H  49.74100 40.79700 27.34400
H  51.35000 39.77300 27.37700
H  50.11900 39.70300 28.65900
H  51.41400 40.66100 23.60800
H  51.92600 40.09500 25.21500
H  50.34600 41.05400 25.01000
H  49.42800 34.45000 22.36300
H  47.31700 32.46000 22.47500
H  46.50600 34.22800 21.41700
H  47.92200 34.74300 20.52000
H  47.19000 35.83500 21.69000
H  50.22200 32.25200 22.24300
H  49.05400 31.02500 22.71300
H  51.34200 31.70700 24.19800
H  50.10500 30.55200 24.40500
H  49.91400 32.09200 25.20100
H  45.40100 29.40300 25.65700
H  43.88200 29.94800 26.29000
H  44.93300 29.02000 27.32600
H  44.08500 33.32600 30.68700
H  44.55800 31.34800 34.10600
H  44.28800 32.94500 34.68200
H  45.98300 32.42700 34.47900
Mg 10.00600 47.67000 26.70500
C  7.90800 47.72800 29.51100
C  12.53200 49.04600 28.59500
C  11.86400 47.78900 23.99400
C  7.09600 47.49300 24.68600
N  10.18600 48.15300 28.83400
C  9.25300 48.10100 29.88700
C  9.88300 48.45700 31.20400
C  11.10600 49.29600 30.69000
C  11.36600 48.71900 29.29800
C  10.87400 50.78400 30.59600
C  10.23700 47.16600 32.05700
C  10.23800 47.21700 33.62300
H  9.70200 46.03400 34.54000
N  11.99000 48.12100 26.34500
C  12.86900 48.70300 27.29000
C  14.17000 48.70300 26.54200
C  14.00300 48.04100 25.26800
C  12.59300 47.98600 25.12700
C  15.46600 49.17100 27.24000
C  14.97700 47.49900 24.20000
O  14.65800 46.78500 23.26300
C  16.46000 47.73500 24.36800
N  9.51900 47.49900 24.59600
C  10.46600 47.71100 23.67800
C  10.00200 47.31300 22.26900
C  8.48300 47.19800 22.45400
C  8.32000 47.41300 23.97800
C  10.49300 48.21100 21.09100
C  7.92400 45.81000 22.06300
C  6.95500 45.87100 20.90100
N  7.91600 47.62700 26.98700
C  6.87700 47.54800 26.10100
C  5.61400 47.44600 26.77600
C  5.96200 47.53400 28.14100
C  7.40200 47.63700 28.20700
C  4.27600 47.41700 26.16200
C  5.45200 47.58600 29.51500
O  4.35700 47.59900 30.00100
C  6.69300 47.70400 30.44600
C  6.90000 46.43300 31.21000
O  7.16700 45.31800 30.79400
O  6.66900 46.71800 32.54000
C  6.64800 45.46000 33.35600
H  13.28000 49.55600 29.20600
H  12.37200 47.48500 23.07600
H  6.28300 47.35500 23.97000
H  9.09600 48.92400 31.79600
H  12.00800 49.17200 31.28800
H  10.89300 51.07900 29.54700
H  11.70000 51.36100 31.01100
H  9.89700 51.04300 31.00500
H  11.25800 46.88800 31.79400
H  9.64700 46.34100 31.65800
H  9.72200 48.11600 33.96000
H  11.25600 47.41000 33.95900
H  15.16700 49.47800 28.24300
H  15.84900 50.07000 26.75700
H  16.25700 48.42300 27.30300
H  16.73600 48.33300 25.23600
H  16.96300 48.03100 23.44700
H  16.92000 46.77300 24.59400
H  10.33100 46.29500 22.05900
H  7.89500 47.98700 21.98700
H  11.07100 49.06900 21.43600
H  9.69800 48.53800 20.42100
H  11.13300 47.64900 20.41100
H  7.31500 45.46900 22.90000
H  8.68100 45.07300 21.79600
H  6.01600 45.35600 21.10000
H  7.39400 45.58300 19.94500
H  6.58700 46.88500 20.74100
H  4.02600 46.44100 25.74600
H  4.16200 48.14600 25.35900
H  3.48300 47.58600 26.89100
H  6.80900 48.55600 31.11700
H  6.65900 45.72800 34.41300
H  7.54600 44.87500 33.16000
H  5.74600 44.86200 33.23000

