158

Mg 8.05000 2.63300 28.10800
C  9.76900 1.36900 30.95900
C  6.09300 4.54900 30.25900
C  6.67100 3.96400 25.46200
C  10.02400 0.57000 26.18800
N  7.88800 2.80300 30.36000
C  8.79500 2.34500 31.33600
C  8.61700 2.95400 32.71500
C  7.36500 3.83000 32.46400
C  7.10800 3.76700 30.94300
C  6.03400 3.60500 33.26900
C  9.88100 3.66300 33.20600
C  9.57100 4.43700 34.51900
H  10.52000 4.24300 35.72400
N  6.54500 3.98100 27.85300
C  5.88700 4.75000 28.84800
C  4.84400 5.54600 28.24500
C  4.98300 5.40700 26.84800
C  6.12300 4.46100 26.66300
C  3.79600 6.41200 29.02700
C  4.13000 6.05100 25.74500
O  4.25100 5.80200 24.62500
C  2.92500 6.93000 26.05500
N  8.11500 2.12700 26.17100
C  7.59000 2.93800 25.21400
C  7.94800 2.49700 23.73900
C  8.98200 1.46000 23.96800
C  9.04800 1.39200 25.55700
C  6.71700 2.03100 22.96100
C  10.40500 1.65900 23.31800
C  10.90100 0.43200 22.46500
N  9.51000 1.23500 28.44200
C  10.19100 0.46900 27.58900
C  11.13500 -0.42900 28.25900
C  11.01000 -0.13300 29.60800
C  10.00300 0.89800 29.63700
C  12.15800 -1.32800 27.62600
C  11.57600 -0.26900 30.92100
O  12.42900 -1.04400 31.23400
C  10.73000 0.69200 31.86800
C  10.10900 -0.01100 32.99900
O  9.24100 -0.87700 32.85500
O  10.53600 0.45500 34.18200
C  10.15300 -0.21900 35.43500
H  5.54800 5.23800 30.90700
H  6.38000 4.55800 24.59400
H  10.45000 -0.21500 25.55900
H  8.34700 2.17100 33.42300
H  7.60000 4.87700 32.65400
H  5.18900 3.59300 32.58200
H  5.84000 4.46200 33.91600
H  5.98300 2.70400 33.88100
H  10.24500 4.44500 32.54100
H  10.72900 3.00300 33.38600
H  8.60200 4.06800 34.85700
H  9.61400 5.50200 34.28800
H  4.03200 6.43100 30.09100
H  2.85200 5.92700 28.77700
H  3.88200 7.42500 28.63500
H  2.28800 6.28600 26.66100
H  2.32700 7.40600 25.27800
H  3.33400 7.76100 26.62900
H  8.35900 3.36300 23.22000
H  8.61600 0.46300 23.72100
H  5.75200 2.13600 23.45700
H  6.78800 1.03300 22.52700
H  6.71000 2.74200 22.13500
H  11.08700 2.02100 24.08700
H  10.32000 2.45000 22.57400
H  10.12500 -0.32100 22.60000
H  11.79900 -0.01200 22.89400
H  10.94700 0.61600 21.39200
H  13.13900 -1.01100 27.98100
H  12.17500 -1.25700 26.53800
H  11.89900 -2.36900 27.82000
H  11.56400 1.35100 32.11000
H  11.03300 -0.33600 36.06700
H  9.70300 -1.20600 35.33100
H  9.42500 0.35500 36.00900
Mg 16.83500 51.43500 27.22100
C  19.24700 50.07200 29.51300
C  14.68500 51.73900 29.87900
C  14.59000 52.43300 25.06900
C  19.01700 50.61800 24.67200
N  16.98000 50.95700 29.44800
C  18.10500 50.53400 30.15800
C  17.90000 50.82100 31.66200
C  16.36800 51.11600 31.67400
C  15.96500 51.29800 30.27900
C  15.53700 50.07400 32.47700
C  18.77400 52.04600 32.16900
C  19.09800 51.96000 33.74400
H  18.15300 51.10500 34.67000
N  14.94000 52.08300 27.41900
C  14.18200 52.08200 28.63000
C  12.81100 52.55900 28.32500
C  12.75100 52.75500 26.88000
C  14.10800 52.41800 26.40100
C  11.69400 52.58100 29.40000
C  11.62400 53.32900 26.04600
O  11.73600 53.51400 24.83700
C  10.24300 53.56800 26.73000
N  16.86500 51.61200 25.17400
C  15.83400 52.12400 24.50900
C  16.18000 52.18800 22.98200
C  17.60400 51.61300 22.89600
C  17.85500 51.23800 24.33500
C  15.26500 51.40500 22.04100
C  18.67900 52.67400 22.38500
C  19.69400 52.10200 21.25400
N  18.71600 50.49800 27.05100
C  19.50700 50.24000 25.93200
C  20.68800 49.53300 26.34900
C  20.64800 49.53000 27.71500
C  19.48200 50.10700 28.11000
C  21.72900 48.89800 25.43000
C  21.45100 49.18900 28.90400
O  22.53500 48.68000 28.95200
C  20.54100 49.59600 30.12600
C  20.27200 48.43500 31.06800
O  19.98300 47.28800 30.71700
O  20.42400 48.97500 32.35300
C  20.13300 47.97000 33.32500
H  14.00800 51.89900 30.72000
H  13.89000 52.80000 24.31600
H  19.68000 50.35000 23.84700
H  18.13700 49.96200 32.28900
H  16.30900 52.13200 32.06300
H  14.72700 49.61600 31.90800
H  15.07700 50.57900 33.32700
H  16.17500 49.21100 32.66600
H  18.17100 52.93200 31.97000
H  19.64100 52.09600 31.51000
H  19.13800 53.01000 34.03500
H  20.09300 51.52000 33.81600
H  11.94700 52.37400 30.43900
H  10.91300 51.86700 29.13800
H  11.38400 53.62500 29.35400
H  10.28000 54.42300 27.40600
H  10.01200 52.64200 27.25700
H  9.53800 53.50800 25.90200
H  16.17200 53.25500 22.75600
H  17.75100 50.68200 22.34800
H  15.87200 50.91200 21.28100
H  14.54600 52.06100 21.55100
H  14.67100 50.68000 22.59700
H  19.31500 53.00200 23.20700
H  18.17000 53.58500 22.07200
H  20.63500 52.65100 21.29100
H  19.35700 52.07400 20.21800
H  19.95100 51.07200 21.50500
H  22.04600 47.99300 25.94900
H  22.48000 49.67600 25.29000
H  21.24000 48.67600 24.48100
H  20.98100 50.47300 30.60000
H  20.70400 47.07600 33.07300
H  19.07200 47.72300 33.29000
H  20.37200 48.22500 34.35700

