158

Mg 42.25400 41.42100 26.68700
C  41.44300 43.54400 29.31700
C  43.20800 39.04700 28.97200
C  43.36900 39.46400 24.08700
C  41.51900 43.92500 24.46100
N  42.28300 41.34100 28.93900
C  41.94000 42.35200 29.78800
C  42.17700 41.87900 31.24800
C  42.59600 40.41900 31.15200
C  42.64000 40.14900 29.59500
C  43.96700 40.02300 31.75200
C  41.08600 42.35100 32.24000
C  40.64800 41.38500 33.32400
H  39.96600 41.78100 34.62500
N  43.27300 39.54800 26.53100
C  43.51600 38.76700 27.59200
C  43.99800 37.48900 27.05500
C  44.01000 37.53800 25.62600
C  43.55500 38.90400 25.36400
C  44.46200 36.41700 28.05300
C  44.49700 36.48700 24.67900
O  44.46200 36.63600 23.48100
C  44.83200 35.12300 25.15700
N  42.43100 41.61800 24.57800
C  42.80500 40.65000 23.70000
C  42.68500 41.01600 22.22500
C  41.83000 42.32100 22.38300
C  41.98800 42.73300 23.86800
C  44.07400 41.14900 21.54300
C  40.43800 42.16000 21.79900
C  39.41600 41.61600 22.69700
N  41.70200 43.36900 26.78700
C  41.44900 44.30000 25.86700
C  40.88000 45.48000 26.43700
C  40.86900 45.18900 27.77600
C  41.49100 43.95200 27.97500
C  40.58500 46.68800 25.57900
C  40.48800 45.71000 29.05800
O  39.99700 46.83200 29.25100
C  40.88900 44.74200 30.09700
C  41.76400 45.39800 31.06600
O  43.01200 45.35700 31.07600
O  41.01400 46.14800 31.91300
C  41.68400 46.46400 33.28100
H  43.63800 38.36400 29.70800
H  43.58300 38.87100 23.19600
H  41.10700 44.57700 23.68800
H  43.02100 42.53500 31.46000
H  41.93600 39.71700 31.66200
H  44.76800 40.23100 31.04300
H  43.88500 38.98800 32.08200
H  44.18300 40.76800 32.51700
H  40.19900 42.47800 31.61900
H  41.40300 43.35700 32.51500
H  41.53100 40.80700 33.59700
H  40.01200 40.66200 32.81400
H  45.42800 36.16400 27.61700
H  43.69300 35.64500 28.09700
H  44.64700 36.72800 29.08100
H  45.73400 35.05600 25.76600
H  44.90700 34.49600 24.26900
H  43.96800 34.92400 25.79100
H  42.14800 40.18500 21.76900
H  42.17800 43.13100 21.74100
H  44.82400 40.85400 22.27700
H  44.37400 42.16200 21.27500
H  44.15700 40.44600 20.71400
H  40.54800 41.60400 20.86800
H  40.22600 43.19500 21.52900
H  39.91200 41.18700 23.56800
H  38.87200 40.86000 22.13100
H  38.73200 42.36900 23.08900
H  41.42700 46.89000 24.91700
H  40.27800 47.55300 26.16800
H  39.64500 46.41500 25.10000
H  39.92300 44.62700 30.58900
H  42.07900 45.53500 33.69300
H  41.01500 46.79600 34.07500
H  42.47900 47.19400 33.12700
Mg -12.73500 37.97700 41.74500
C  -10.56700 35.43900 40.58300
C  -10.53600 40.21400 40.19000
C  -15.09300 40.41800 41.94700
C  -15.13300 35.58900 42.36800
N  -10.73000 37.87000 40.60900
C  -10.02400 36.66500 40.33200
C  -8.71100 36.97400 39.59400
C  -8.66900 38.52600 39.70100
C  -10.00200 38.95000 40.17800
C  -7.56700 39.16000 40.59600
C  -8.60900 36.27100 38.16800
C  -7.21800 35.60200 37.93000
H  -6.30700 36.22800 36.87500
N  -12.76100 40.10200 41.29800
C  -11.75500 40.73200 40.67500
C  -12.05000 42.17200 40.78400
C  -13.32500 42.19800 41.38000
C  -13.78300 40.86500 41.55900
C  -11.19100 43.36600 40.16900
C  -14.06100 43.50100 41.74000
O  -13.62800 44.61600 41.57200
C  -15.39300 43.52400 42.41400
N  -14.84900 38.03200 41.98700
C  -15.58800 39.17300 42.23300
C  -17.00600 38.86700 42.66600
C  -17.02900 37.30300 42.65000
C  -15.56800 36.96700 42.39500
C  -17.46900 39.41200 43.98800
C  -18.16600 36.68700 41.68700
C  -17.79200 36.18300 40.25600
N  -12.83200 35.89000 41.77200
C  -13.91500 35.04000 41.98100
C  -13.40000 33.67200 41.90200
C  -12.07400 33.81900 41.41100
C  -11.81400 35.16300 41.23600
C  -14.13400 32.39700 42.20700
C  -10.95200 33.02700 40.88600
O  -10.67700 31.83100 40.72700
C  -9.86800 34.09000 40.52000
C  -8.86400 33.87300 41.56300
O  -9.04400 33.61900 42.74900
O  -7.63700 34.18300 40.98700
C  -6.51900 33.93200 41.90800
H  -9.85400 40.94900 39.75700
H  -15.90500 41.13800 42.06900
H  -15.97700 34.91100 42.51000
H  -7.90500 36.57800 40.21200
H  -8.52100 38.89400 38.68600
H  -7.23000 38.40400 41.30500
H  -7.70200 40.08600 41.15500
H  -6.76200 39.45200 39.92100
H  -8.74700 37.09000 37.46200
H  -9.36600 35.51600 37.95300
H  -7.29400 34.55900 37.62100
H  -6.67700 35.50300 38.87100
H  -10.87600 43.16700 39.14500
H  -10.29100 43.57700 40.74700
H  -11.71300 44.30900 40.01000
H  -16.16700 43.21600 41.71100
H  -15.60400 44.57400 42.61400
H  -15.41700 42.94800 43.33900
H  -17.65200 39.28800 41.89600
H  -17.21100 36.87700 43.63600
H  -18.24000 40.14900 43.76300
H  -16.68200 39.95100 44.51700
H  -18.01800 38.68500 44.58600
H  -18.96700 37.41400 41.55300
H  -18.62900 35.94200 42.33400
H  -16.72000 36.34000 40.13300
H  -18.28200 36.75800 39.47000
H  -18.00800 35.12500 40.10800
H  -14.91200 32.50400 42.96300
H  -13.43900 31.58200 42.41200
H  -14.53400 32.21200 41.21000
H  -9.39800 33.88600 39.55800
H  -5.73500 33.82400 41.15800
H  -6.60700 32.98900 42.44800
H  -6.35800 34.81700 42.52300

