158

Mg 16.40400 -1.16900 26.92100
C  15.26600 0.89900 29.56400
C  18.48300 -2.74400 29.18300
C  17.79600 -2.60900 24.27300
C  14.72300 1.09000 24.68100
N  16.96100 -0.85400 29.10800
C  16.31200 0.03100 29.96900
C  16.83600 -0.24900 31.43900
C  18.09900 -1.16400 31.18900
C  17.85000 -1.64100 29.72500
C  19.47000 -0.54400 31.43700
C  15.73300 -0.92100 32.35900
C  15.88100 -0.86300 33.92700
H  17.01000 -0.03700 34.55800
N  17.67400 -2.65500 26.77800
C  18.46200 -3.15400 27.77700
C  19.33000 -4.26200 27.28300
C  19.16200 -4.26100 25.87900
C  18.17600 -3.12800 25.57300
C  20.07000 -5.26000 28.06300
C  19.86200 -5.15600 24.91500
O  19.64400 -4.96100 23.75200
C  20.79300 -6.34200 25.25400
N  16.39200 -0.69600 24.74800
C  16.89500 -1.61500 23.93100
C  16.58100 -1.26400 22.41400
C  15.33200 -0.30800 22.60800
C  15.55100 0.14900 24.07700
C  17.90300 -0.60200 21.75000
C  13.97400 -0.99300 22.28700
C  12.89500 -0.03100 21.82700
N  15.19800 0.51600 27.03700
C  14.48100 1.26100 26.07600
C  13.49600 2.07600 26.70200
C  13.85200 2.07700 28.06100
C  14.88800 1.13900 28.22900
C  12.41500 2.77800 25.92900
C  13.43300 2.48200 29.43600
O  12.47300 3.14400 29.65500
C  14.32100 1.78900 30.46200
C  14.99300 2.90800 31.22500
O  15.50200 3.89600 30.73600
O  14.95900 2.64400 32.55700
C  15.69800 3.68000 33.30200
H  19.18200 -3.27000 29.83600
H  18.10400 -3.20300 23.41000
H  14.08000 1.61900 23.97500
H  17.17400 0.69300 31.87200
H  17.88400 -2.05700 31.77600
H  20.23500 -1.23700 31.78700
H  19.39300 0.15500 32.26900
H  19.80300 -0.03000 30.53500
H  15.69600 -1.98900 32.14100
H  14.76900 -0.52800 32.03800
H  15.98300 -1.87100 34.32700
H  14.87100 -0.57700 34.22100
H  19.86900 -5.01100 29.10500
H  21.13700 -5.20800 27.84900
H  19.58400 -6.22600 27.92200
H  21.74100 -5.94400 25.61500
H  20.97600 -7.03300 24.43100
H  20.24300 -6.84800 26.04800
H  16.25000 -2.22900 22.02900
H  15.45700 0.59800 22.01500
H  18.18900 0.25800 22.35500
H  17.45400 -0.15700 20.86200
H  18.73600 -1.28100 21.57000
H  13.58500 -1.41100 23.21600
H  14.09500 -1.80700 21.57200
H  12.42200 -0.35000 20.89900
H  13.27600 0.96000 21.58000
H  12.16300 0.04400 22.63200
H  11.79200 3.23300 26.69900
H  11.92300 1.98200 25.37100
H  12.77300 3.46800 25.16600
H  13.64400 1.26100 31.13300
H  14.94600 4.34500 33.72700
H  16.58700 4.08400 32.81800
H  16.06200 3.15200 34.18300
Mg 6.76200 52.82100 40.98700
C  6.05100 49.31900 41.03300
C  9.79900 52.24600 39.58600
C  7.14200 56.06200 40.53200
C  3.46900 53.32000 42.10000
N  7.70100 50.98500 40.31500
C  7.28500 49.66100 40.50400
C  8.41800 48.68900 39.91300
C  9.62200 49.60600 39.75800
C  9.03700 51.06100 39.91300
C  10.79700 49.46500 40.82000
C  7.99600 47.97300 38.63600
C  7.16200 48.73600 37.58400
H  7.83000 49.35600 36.32200
N  8.29500 53.97400 40.21300
C  9.48800 53.56600 39.72200
C  10.39800 54.67500 39.45600
C  9.70700 55.87200 39.73400
C  8.28100 55.38700 40.13500
C  11.85500 54.48600 39.01300
C  10.23700 57.24200 39.50500
O  11.40700 57.50600 39.06100
C  9.34200 58.46400 39.76700
N  5.45100 54.33600 40.97700
C  5.88400 55.65400 40.83400
C  4.85800 56.68100 41.24500
C  3.68500 55.77200 41.73000
C  4.20900 54.34300 41.50400
C  5.27300 57.75100 42.29300
C  2.39000 56.10900 40.99800
C  1.07600 55.69300 41.68600
N  5.03600 51.64600 41.45500
C  3.84700 52.01000 42.10000
C  3.12300 50.85900 42.63600
C  3.94700 49.77600 42.16200
C  5.04500 50.36500 41.43100
C  1.79400 50.85100 43.38600
C  4.08700 48.32600 42.15000
O  3.28800 47.48900 42.54600
C  5.42900 48.01700 41.47600
C  5.06400 47.18400 40.31000
O  4.59100 47.53700 39.19700
O  5.44500 45.91200 40.57100
C  5.32800 44.98000 39.41500
H  10.78100 51.92300 39.23300
H  7.27200 57.13700 40.39200
H  2.51200 53.42900 42.61500
H  8.58800 48.02700 40.76200
H  10.18600 49.54400 38.82800
H  10.92100 50.34800 41.44600
H  11.75100 49.22500 40.35100
H  10.60100 48.70700 41.57900
H  7.58900 46.99200 38.88200
H  8.98000 47.79000 38.20400
H  6.56800 49.54700 38.00600
H  6.55400 47.91700 37.20000
H  12.05700 55.06900 38.11400
H  12.21500 53.47400 38.82800
H  12.36600 54.86200 39.89900
H  9.84800 59.39000 39.49500
H  9.03900 58.38200 40.81100
H  8.51700 58.28600 39.07700
H  4.54400 57.33400 40.43000
H  3.55800 55.82500 42.81100
H  6.30200 57.61800 42.62700
H  4.66100 57.77800 43.19400
H  5.25700 58.70400 41.76400
H  2.27100 55.77200 39.96900
H  2.23600 57.16500 40.77900
H  1.13200 55.63900 42.77300
H  0.89900 54.69700 41.28000
H  0.28700 56.42100 41.49800
H  1.02200 50.63000 42.64900
H  1.69600 51.84600 43.81900
H  1.92500 50.19700 44.24800
H  6.10200 47.54300 42.19000
H  6.14800 45.03800 38.70000
H  4.43100 45.13400 38.81600
H  5.29300 43.97500 39.83400

