158

Mg 45.28900 5.03500 48.12300
C  43.40000 7.90100 47.31600
C  42.65400 3.13200 47.02100
C  47.41400 2.32000 48.02300
C  48.13200 7.11400 48.23900
N  43.23100 5.52200 47.30000
C  42.63600 6.78200 47.15600
C  41.14300 6.59800 46.86100
C  40.91400 5.02100 46.97100
C  42.39000 4.47900 47.00500
C  39.95700 4.44700 48.04300
C  40.51800 7.25300 45.57800
C  41.35800 7.14500 44.29300
H  41.44400 8.37400 43.29400
N  44.95400 2.98200 47.77800
C  43.84200 2.40900 47.28400
C  44.03300 1.02100 47.22400
C  45.37900 0.73000 47.58400
C  45.99900 1.98800 47.81900
C  42.96800 0.05700 46.82900
C  45.99400 -0.70000 47.66100
O  45.44000 -1.71100 47.28200
C  47.38300 -0.91300 48.23900
N  47.47700 4.74100 47.92900
C  48.04900 3.54400 48.19500
C  49.41300 3.62300 48.77400
C  49.73100 5.10000 48.65900
C  48.33100 5.71700 48.35200
C  49.59700 3.03700 50.16000
C  50.62400 5.47200 47.44400
C  52.12300 5.21500 47.60600
N  45.73300 7.10300 48.01900
C  46.92500 7.78300 48.05500
C  46.67400 9.25100 47.78500
C  45.25700 9.33500 47.56800
C  44.74100 8.00400 47.72700
C  47.62900 10.40600 47.67500
C  44.19000 10.22600 47.24200
O  44.18000 11.44300 47.09100
C  42.95200 9.37000 47.10200
C  41.97200 9.77000 48.06600
O  41.79600 9.29100 49.16200
O  41.13900 10.70700 47.46900
C  40.01300 11.13500 48.32900
H  41.77700 2.59800 46.64900
H  48.06000 1.46800 48.24600
H  48.99400 7.78400 48.25800
H  40.61900 7.04800 47.70300
H  40.45800 4.63500 46.05900
H  39.39600 5.18000 48.62300
H  40.54000 3.93300 48.80700
H  39.31400 3.64600 47.67800
H  40.20100 8.26500 45.82900
H  39.65800 6.63200 45.32700
H  40.94000 6.38100 43.63800
H  42.35300 6.73100 44.45900
H  43.33400 -0.41500 45.91800
H  42.04000 0.59000 46.62100
H  42.76200 -0.71200 47.57400
H  48.17200 -0.54700 47.58200
H  47.47400 -1.95700 48.53700
H  47.47200 -0.46300 49.22800
H  50.00500 3.04000 48.06900
H  50.18700 5.50700 49.56100
H  49.88400 1.98800 50.09800
H  48.73300 3.11700 50.82100
H  50.47000 3.44300 50.67100
H  50.42900 6.47600 47.06900
H  50.31200 4.82000 46.62800
H  52.76100 6.03100 47.26400
H  52.48400 4.40100 46.97700
H  52.38300 5.05000 48.65100
H  48.58700 10.20000 47.19700
H  47.85400 10.81900 48.65900
H  47.19700 11.22100 47.09500
H  42.52100 9.44100 46.10300
H  39.75400 10.37900 49.07000
H  39.15900 11.45100 47.72900
H  40.35600 12.01200 48.87800
Mg 47.86500 16.88500 28.96100
C  45.65900 16.72200 31.64600
C  50.08700 18.45100 31.03100
C  49.92100 16.97800 26.41900
C  45.35200 15.47500 26.87600
N  47.73700 17.83300 30.93500
C  46.80400 17.44900 31.94100
C  47.27000 17.87100 33.34100
C  48.44400 18.80600 32.94400
C  48.82000 18.36400 31.59000
C  48.11700 20.36700 33.05000
C  47.66600 16.58600 34.11400
C  48.31900 16.88200 35.46400
H  48.19700 18.24900 36.21800
N  49.73700 17.50000 28.76200
C  50.54300 18.11500 29.73700
C  51.90100 18.20700 29.25500
C  51.91600 17.71700 27.90100
C  50.48400 17.39400 27.62000
C  53.01000 18.76600 30.11100
C  53.07200 17.56300 26.96500
O  52.99200 17.15200 25.82300
C  54.41800 17.80800 27.55300
N  47.55600 16.43000 26.90500
C  48.59500 16.56500 26.06500
C  48.19400 16.18900 24.58700
C  46.73800 15.62300 24.71300
C  46.53900 15.87100 26.23500
C  48.25500 17.45000 23.81000
C  46.63500 14.10400 24.37300
C  45.65300 13.81500 23.23800
N  45.85600 16.31700 29.14800
C  44.99500 15.75800 28.24100
C  43.68700 15.42700 28.91600
C  43.93500 15.79500 30.24200
C  45.23500 16.28900 30.35800
C  42.43200 14.81600 28.29800
C  43.43800 15.71100 31.53600
O  42.36900 15.28200 31.91200
C  44.47000 16.29100 32.50200
C  43.73700 17.37300 33.14000
O  42.94200 18.07600 32.59900
O  43.99400 17.41200 34.49400
C  43.30200 18.36800 35.40700
H  50.90300 18.81300 31.66100
H  50.66100 16.83700 25.62800
H  44.64500 14.98100 26.20600
H  46.49800 18.36500 33.93000
H  49.37900 18.77100 33.50200
H  47.08600 20.55800 33.34700
H  48.31900 20.76000 32.05300
H  48.69900 20.95700 33.75800
H  48.41700 16.14600 33.45700
H  46.79900 15.92800 34.16300
H  49.36300 16.57900 35.38900
H  47.78500 16.16800 36.09100
H  53.33200 17.92800 30.73000
H  52.68700 19.61200 30.71700
H  53.93500 19.11300 29.65100
H  55.24100 17.43300 26.94500
H  54.50200 17.22300 28.46900
H  54.59700 18.87500 27.68400
H  48.89400 15.40800 24.28800
H  45.99100 16.22200 24.19100
H  48.97600 18.15200 24.22700
H  47.28200 17.93000 23.70300
H  48.45900 17.19300 22.77000
H  46.41300 13.45200 25.21800
H  47.62500 13.75200 24.08700
H  45.00800 12.97700 23.49900
H  46.08100 13.59800 22.25900
H  45.06700 14.71900 23.07400
H  42.38300 13.72800 28.34500
H  42.37900 15.11400 27.25100
H  41.51600 15.17400 28.76900
H  44.73100 15.57400 33.28000
H  43.58500 19.37400 35.09700
H  43.64900 18.42300 36.43900
H  42.22900 18.18900 35.47100

