158

Mg 17.09000 -1.15200 28.35200
C  15.86100 0.71200 31.10300
C  18.96400 -2.97900 30.48600
C  18.46600 -2.56900 25.67200
C  15.41100 1.13300 26.22900
N  17.43400 -1.01900 30.60200
C  16.70500 -0.29600 31.50200
C  17.19700 -0.61100 32.88600
C  18.36800 -1.66000 32.68500
C  18.25600 -1.91400 31.17800
C  19.85800 -1.18600 33.12600
C  15.96700 -0.98400 33.83000
C  15.86400 -0.32400 35.24400
H  17.16900 0.15200 35.91100
N  18.42000 -2.66500 28.06200
C  19.06800 -3.35800 29.07700
C  19.75300 -4.49000 28.50600
C  19.71100 -4.31900 27.07400
C  18.83700 -3.19200 26.86100
C  20.49900 -5.51900 29.39700
C  20.34100 -5.12100 26.00100
O  20.28400 -4.80500 24.83000
C  21.18400 -6.33200 26.24300
N  16.91200 -0.78900 26.27800
C  17.67400 -1.44300 25.35000
C  17.42300 -0.98200 23.96400
C  16.21500 0.00800 24.13400
C  16.12700 0.10500 25.61200
C  18.69700 -0.38800 23.26500
C  14.91200 -0.40000 23.40100
C  13.80700 -0.94600 24.29900
N  15.87700 0.53300 28.53200
C  15.28800 1.41600 27.58700
C  14.47900 2.42600 28.27600
C  14.70800 2.08300 29.64300
C  15.61400 0.98500 29.72600
C  13.71600 3.54000 27.53000
C  14.30300 2.46100 30.94100
O  13.55800 3.39600 31.30700
C  15.22000 1.77000 31.98900
C  16.17900 2.82900 32.53800
O  17.18900 3.18300 32.00300
O  15.69900 3.34800 33.68800
C  16.72100 4.06100 34.53300
H  19.61600 -3.63900 31.06200
H  18.75300 -2.93600 24.68500
H  14.85700 1.72400 25.49700
H  17.63900 0.28800 33.31800
H  18.21300 -2.55100 33.29300
H  20.26800 -1.98800 33.73900
H  19.85300 -0.25000 33.68500
H  20.43300 -1.12100 32.20200
H  16.08200 -2.05300 34.00700
H  15.04100 -0.79100 33.28800
H  15.33000 -1.05200 35.85600
H  15.22500 0.54300 35.07900
H  19.89000 -5.75500 30.27000
H  21.33900 -4.91200 29.73400
H  20.85000 -6.44000 28.93100
H  20.67100 -7.05500 26.87800
H  22.04500 -5.87800 26.73400
H  21.49800 -6.81600 25.31800
H  17.19800 -1.91600 23.45000
H  16.62500 0.94700 23.76400
H  19.45900 -0.14400 24.00400
H  18.48900 0.54000 22.73200
H  19.13800 -1.12800 22.59800
H  15.09200 -1.01600 22.52000
H  14.50600 0.51300 22.96600
H  13.28800 -0.07400 24.69700
H  14.19400 -1.65300 25.03300
H  13.09600 -1.40800 23.61400
H  12.66900 3.30300 27.71400
H  13.92700 3.56600 26.46100
H  13.93000 4.53700 27.91700
H  14.63500 1.32300 32.79200
H  16.97800 4.97300 33.99500
H  17.68800 3.55800 34.56200
H  16.36600 4.22100 35.55100
Mg 34.85200 48.84900 26.22600
C  35.42100 46.73100 29.02000
C  34.05800 51.39700 28.29300
C  34.34900 50.82900 23.54100
C  35.94100 46.24600 24.21700
N  34.62300 49.06700 28.39400
C  34.96400 48.08500 29.34800
C  34.83200 48.62400 30.74500
C  34.10100 50.00600 30.48700
C  34.29700 50.24900 28.97900
C  32.61900 50.07800 30.94800
C  36.20900 48.65400 31.45600
C  36.25400 48.10600 32.92300
H  36.21600 49.18100 34.13900
N  34.28400 50.88300 25.96700
C  34.01000 51.77300 26.93900
C  33.67700 53.07400 26.43300
C  33.69400 52.88700 24.96900
C  34.12400 51.51300 24.73800
C  33.25800 54.34100 27.23400
C  33.42300 53.84500 23.83600
O  33.69400 53.62900 22.68900
C  32.99800 55.20900 24.17100
N  35.16000 48.55000 24.19300
C  34.76400 49.49500 23.28200
C  34.94300 48.96000 21.83400
C  35.77300 47.65500 22.02000
C  35.67200 47.46200 23.52100
C  33.67600 48.77700 21.03900
C  37.23000 47.80700 21.54500
C  37.68700 46.77300 20.51200
N  35.28800 46.81800 26.50200
C  35.74600 45.88600 25.59800
C  36.01400 44.49500 26.24500
C  36.04100 44.89600 27.62400
C  35.51800 46.27200 27.72000
C  36.45600 43.26100 25.58400
C  36.29500 44.47300 28.99100
O  36.66900 43.42300 29.37900
C  35.96400 45.69200 29.92200
C  34.84700 45.30100 30.89900
O  33.69800 44.96500 30.61900
O  35.42800 45.13000 32.17100
C  34.50700 44.86600 33.29800
H  33.81000 52.17400 29.02000
H  34.20200 51.31000 22.57200
H  36.52000 45.48900 23.68300
H  34.15100 48.09800 31.41500
H  34.67200 50.77100 31.01300
H  31.86300 50.34100 30.20800
H  32.68300 50.88200 31.68100
H  32.31700 49.20000 31.51900
H  36.54000 49.68500 31.58100
H  37.00700 48.20100 30.86700
H  37.12200 47.44600 32.91500
H  35.35000 47.50700 33.03200
H  34.14600 54.97000 27.29600
H  32.95200 54.18000 28.26700
H  32.40900 54.80500 26.73100
H  32.01800 55.30700 24.63900
H  32.82100 55.81400 23.28100
H  33.72300 55.77600 24.75500
H  35.47300 49.70900 21.24600
H  35.32100 46.77500 21.56300
H  33.83100 49.37700 20.14300
H  32.91300 49.14400 21.72500
H  33.45300 47.72400 20.86300
H  37.98200 47.86900 22.33200
H  37.33500 48.70700 20.94000
H  38.03500 47.20100 19.57100
H  36.92800 45.99600 20.42900
H  38.57700 46.25400 20.86900
H  36.98300 43.45100 24.64900
H  35.59100 42.61900 25.41500
H  37.16400 42.76900 26.25000
H  36.84500 45.90100 30.52900
H  34.25700 43.80800 33.37000
H  33.59300 45.44200 33.15600
H  35.05000 45.07400 34.22000

