158

Mg 35.46700 2.15300 30.60500
C  32.86300 2.94000 32.72300
C  37.60500 2.17900 33.31900
C  37.83500 1.35900 28.41200
C  33.09900 1.97000 27.99500
N  35.22100 2.55600 32.77700
C  34.05400 2.75400 33.43700
C  34.22200 2.86200 34.91100
C  35.82800 3.00400 34.98400
C  36.28700 2.54800 33.61700
C  36.32000 4.48100 35.40600
C  33.58800 1.60100 35.62200
C  33.23500 1.70200 37.14700
H  33.83400 2.84400 37.98500
N  37.40100 1.78600 30.81100
C  38.11100 1.76000 32.04600
C  39.40900 1.32300 31.76700
C  39.50400 0.94100 30.39300
C  38.22800 1.44800 29.81400
C  40.40600 0.98000 32.93000
C  40.70400 0.28800 29.67300
O  40.62300 -0.01000 28.49900
C  41.95600 -0.14100 30.34800
N  35.51300 1.79100 28.49000
C  36.60200 1.53700 27.78100
C  36.35800 1.26500 26.28000
C  34.80500 1.31400 26.26100
C  34.41900 1.62900 27.69300
C  37.14000 2.31500 25.36100
C  34.07000 -0.06200 25.96500
C  33.56300 -0.49700 24.55200
N  33.39600 2.66000 30.32700
C  32.61600 2.47000 29.22700
C  31.25200 2.96500 29.53700
C  31.31800 3.17700 30.95100
C  32.66500 2.88100 31.36700
C  30.07800 2.96800 28.64800
C  30.50100 3.37600 32.15100
O  29.34400 3.76200 32.23900
C  31.49900 3.34300 33.29300
C  31.42700 4.62900 34.02600
O  31.76100 5.73000 33.59000
O  30.78900 4.45500 35.24100
C  30.18800 5.58700 35.89500
H  38.15700 2.22100 34.26000
H  38.57300 1.17300 27.62900
H  32.32900 1.94900 27.22200
H  33.75000 3.77400 35.27700
H  36.20500 2.30000 35.72600
H  35.61100 4.98500 36.06300
H  36.49300 5.07800 34.51100
H  37.24700 4.31500 35.95600
H  34.25600 0.75300 35.46500
H  32.64700 1.42700 35.09900
H  33.43400 0.73300 37.60600
H  32.14500 1.73600 37.14400
H  41.40000 1.26600 32.58600
H  40.43400 -0.09300 33.12300
H  40.22000 1.57800 33.82200
H  42.61200 -0.68100 29.66500
H  41.66200 -0.88200 31.09200
H  42.54100 0.72800 30.64800
H  36.80000 0.30300 26.02100
H  34.38900 1.97900 25.50300
H  37.91700 1.86000 24.74600
H  37.70300 2.95700 26.04000
H  36.37400 2.85300 24.80100
H  33.30300 -0.36300 26.67900
H  34.81800 -0.82200 26.19200
H  33.72200 0.27500 23.79800
H  32.51800 -0.79300 24.64400
H  34.16600 -1.29800 24.12500
H  30.31200 3.38000 27.66700
H  29.37200 3.63600 29.14100
H  29.66000 1.96300 28.58300
H  31.02800 2.63500 33.97600
H  29.69200 6.09900 35.07000
H  30.85800 6.18800 36.51000
H  29.34200 5.20200 36.46500
Mg 30.48800 58.53500 40.60500
C  27.89700 56.28900 39.46500
C  32.70400 56.21400 39.28100
C  32.82200 60.69000 41.00400
C  27.98700 60.85000 41.16700
N  30.23500 56.55300 39.47200
C  29.17000 55.89300 39.01200
C  29.52300 54.62100 38.18900
C  31.05500 54.48300 38.47500
C  31.39700 55.79900 39.13100
C  31.54100 53.40600 39.47400
C  29.25300 54.77800 36.61800
C  28.00800 54.17600 36.05500
H  27.04700 55.00700 35.22300
N  32.48300 58.51600 40.22000
C  33.24700 57.48500 39.75000
C  34.66700 57.95700 39.62100
C  34.74900 59.11800 40.37800
C  33.33500 59.53300 40.55200
C  35.73400 57.13200 39.14500
C  36.01100 59.83700 40.85500
O  37.14300 59.41100 40.58100
C  36.02300 61.06400 41.65100
N  30.41600 60.54100 40.93600
C  31.52400 61.23200 41.22300
C  31.23700 62.69200 41.52900
C  29.66700 62.71900 41.61000
C  29.30600 61.32200 41.25100
C  32.02300 63.25700 42.77800
C  28.85700 63.79600 40.73800
C  27.56400 64.43600 41.33800
N  28.41400 58.58200 40.43000
C  27.55700 59.56300 40.82400
C  26.15900 59.12100 40.70200
C  26.29400 57.83600 40.19000
C  27.64300 57.52000 40.03600
C  25.00700 59.88900 41.17900
C  25.50300 56.73300 39.61800
O  24.31600 56.57700 39.46200
C  26.58300 55.60600 39.14400
C  26.41600 54.40400 40.04900
O  26.75200 54.32000 41.20600
O  25.58500 53.55500 39.38200
C  25.03100 52.49200 40.16600
H  33.43400 55.61200 38.73700
H  33.52300 61.49000 41.25000
H  27.25800 61.60800 41.45800
H  28.87300 53.79400 38.47600
H  31.58600 54.43300 37.52500
H  32.58300 53.15300 39.27600
H  30.86500 52.56200 39.33600
H  31.39100 53.76700 40.49200
H  30.05500 54.37800 35.99600
H  29.40400 55.83100 36.38200
H  27.36500 53.89400 36.88800
H  28.17900 53.20400 35.59300
H  35.38800 56.63300 38.24000
H  36.04600 56.36200 39.85000
H  36.64600 57.63700 38.82900
H  35.87500 61.99800 41.11000
H  36.99200 61.06600 42.15100
H  35.31800 60.99200 42.47900
H  31.63200 63.31300 40.72500
H  29.38100 62.97400 42.63000
H  32.76000 62.47200 42.95300
H  31.37700 63.34000 43.65200
H  32.57700 64.14500 42.47400
H  28.51400 63.28800 39.83600
H  29.50000 64.63200 40.46400
H  26.70700 64.46100 40.66400
H  27.73600 65.47300 41.62800
H  27.29900 63.84100 42.21100
H  24.28100 59.07900 41.25400
H  24.77300 60.66400 40.44900
H  25.17600 60.33400 42.15900
H  26.46400 55.43200 38.07400
H  25.84700 51.88600 40.55900
H  24.36700 51.78700 39.66600
H  24.51400 52.81600 41.06900

