158

Mg 35.37400 2.49400 29.51800
C  33.13100 3.80500 31.85500
C  37.78900 2.36200 32.00800
C  37.66900 1.60400 27.14100
C  32.90700 2.76400 27.00400
N  35.50400 3.10000 31.66000
C  34.44000 3.47500 32.42500
C  34.83300 3.38800 33.93300
C  36.33200 3.10500 33.89200
C  36.57400 2.87000 32.43700
C  37.41200 4.12000 34.54200
C  34.02300 2.35200 34.65900
C  33.51400 2.70300 36.08900
H  34.28900 3.80100 36.88700
N  37.47200 2.14900 29.55200
C  38.22200 1.98300 30.72500
C  39.50200 1.41900 30.33000
C  39.47600 1.28700 28.90400
C  38.19100 1.74600 28.50900
C  40.59100 1.18700 31.33100
C  40.63400 0.90200 27.91100
O  40.48800 0.99500 26.68900
C  41.97400 0.36500 28.41800
N  35.30700 2.26400 27.40000
C  36.35600 1.91800 26.67500
C  35.94800 1.72600 25.20300
C  34.40800 1.69800 25.21400
C  34.13700 2.36700 26.64100
C  36.52500 2.90400 24.40500
C  33.69500 0.26800 24.96200
C  32.59900 0.15900 23.81700
N  33.45800 3.23800 29.41100
C  32.53500 3.21700 28.31500
C  31.24700 3.76000 28.79200
C  31.49400 3.98200 30.20200
C  32.79100 3.71100 30.48100
C  29.98700 3.93500 28.02200
C  30.79300 4.39600 31.39800
O  29.65900 4.88300 31.52000
C  31.82400 4.22700 32.51100
C  31.86700 5.54400 33.20600
O  32.55600 6.48700 32.85200
O  31.08000 5.54300 34.34000
C  31.50800 6.43000 35.36100
H  38.54400 2.23400 32.78600
H  38.29500 1.32100 26.29200
H  32.27600 2.78900 26.11300
H  34.66700 4.37800 34.35700
H  36.62300 2.13000 34.28500
H  36.76600 4.88700 34.96900
H  38.15200 4.62600 33.92200
H  37.94700 3.63900 35.36000
H  34.57000 1.43100 34.85800
H  33.23200 2.06600 33.96600
H  33.45900 1.81600 36.72000
H  32.53100 3.16300 35.98600
H  40.42000 1.54000 32.34800
H  41.53300 1.66700 31.06900
H  40.94400 0.15600 31.32300
H  42.52700 1.23600 28.77200
H  42.53000 -0.14900 27.63400
H  41.69700 -0.35900 29.18400
H  36.40900 0.83400 24.77800
H  34.07500 2.34600 24.40300
H  35.79000 3.40300 23.77400
H  37.37500 2.62200 23.78400
H  36.90400 3.65300 25.10100
H  33.23900 -0.09100 25.88500
H  34.52300 -0.37600 24.66700
H  32.27300 1.10200 23.37700
H  31.75100 -0.34100 24.28600
H  32.93400 -0.48600 23.00500
H  29.85000 4.87200 27.48200
H  29.18300 3.94100 28.75800
H  29.81800 3.01300 27.46700
H  31.33100 3.56300 33.22200
H  30.80600 7.25900 35.26600
H  32.52900 6.79300 35.24300
H  31.41500 6.00300 36.35900
Mg 35.65500 48.56200 25.87400
C  36.03400 46.63300 28.80300
C  34.65000 51.10400 27.79400
C  34.95900 50.10700 23.07700
C  36.80900 45.82300 23.98600
N  35.10600 48.72200 28.09200
C  35.55100 47.88100 29.07500
C  35.39900 48.43500 30.49400
C  34.64400 49.79500 30.16700
C  34.82500 49.95400 28.59400
C  33.17900 49.91900 30.61800
C  36.66200 48.52700 31.34800
C  36.44300 48.07800 32.86800
H  36.53200 49.33500 33.78700
N  34.79500 50.34300 25.44900
C  34.58300 51.36000 26.39000
C  34.35800 52.67400 25.71300
C  34.21400 52.30200 24.33000
C  34.64000 50.88200 24.25200
C  34.04600 53.92700 26.46500
C  33.79500 53.11800 23.14200
O  33.87400 52.76600 21.95500
C  33.36100 54.52800 23.38600
N  35.85100 48.03200 23.81100
C  35.44400 48.85500 22.87300
C  35.67700 48.30000 21.45500
C  36.50800 47.03200 21.85500
C  36.42200 46.94300 23.25700
C  34.36300 48.07900 20.66800
C  37.86900 46.85200 21.10900
C  39.05200 47.58300 21.60500
N  36.15500 46.59000 26.25800
C  36.67400 45.54500 25.37300
C  36.90900 44.35500 26.20200
C  36.72100 44.72700 27.59400
C  36.22200 46.05200 27.56000
C  37.51600 43.04700 25.76000
C  36.90500 44.35800 28.91300
O  37.24800 43.30600 29.39700
C  36.39300 45.54500 29.77600
C  35.21000 44.95600 30.55200
O  34.16800 44.56300 30.01300
O  35.51100 44.99500 31.86600
C  34.60200 44.32700 32.82600
H  34.47000 51.92400 28.49300
H  34.93400 50.61900 22.11300
H  37.24700 44.99700 23.42300
H  34.68600 47.72800 30.91800
H  35.09700 50.72800 30.50300
H  32.55600 49.79200 29.73300
H  33.02200 50.90700 31.05000
H  33.04700 49.05400 31.26900
H  36.94700 49.57500 31.25600
H  37.49100 47.97500 30.90500
H  37.14200 47.31000 33.19800
H  35.42000 47.70400 32.82300
H  34.38800 54.85500 26.00800
H  34.42500 53.80100 27.47900
H  32.97000 54.01400 26.61700
H  32.98400 54.90300 22.43500
H  34.15200 55.08600 23.88700
H  32.46000 54.49500 23.99800
H  36.35400 49.04300 21.03400
H  35.78300 46.26500 21.58400
H  33.46300 48.48500 21.13100
H  34.09700 47.03100 20.53000
H  34.43400 48.49900 19.66500
H  37.76500 47.21500 20.08600
H  38.05100 45.77900 21.03700
H  39.49200 48.15100 20.78500
H  39.86900 46.89300 21.81700
H  38.83200 48.08100 22.54800
H  38.20600 43.07400 24.91600
H  36.79000 42.23500 25.73200
H  38.11000 42.77800 26.63400
H  37.17000 45.91400 30.44600
H  33.91700 43.70800 32.24700
H  33.99500 45.04000 33.38400
H  35.18700 43.69000 33.49000

