158

Mg 2.89400 -2.75800 43.71000
C  6.06100 -1.10800 43.17700
C  1.44600 -0.27900 42.04800
C  0.18800 -4.59600 43.63100
C  4.82700 -5.48400 45.05800
N  3.70300 -1.07900 42.67500
C  4.93000 -0.56300 42.49600
C  5.03000 0.76100 41.80800
C  3.52900 1.12800 41.72500
C  2.82900 -0.09800 42.23800
C  3.18900 2.45200 42.44400
C  5.86200 0.61200 40.43600
C  6.89200 1.78500 40.12400
H  6.49400 2.86000 39.11900
N  1.04500 -2.46300 42.89000
C  0.58800 -1.31700 42.31500
C  -0.77800 -1.46700 41.98600
C  -1.20100 -2.73000 42.47500
C  0.02000 -3.26700 43.08800
C  -1.56300 -0.42300 41.28100
C  -2.63200 -3.30800 42.39700
O  -3.51800 -2.67500 41.78400
C  -3.00000 -4.65100 43.08500
N  2.60900 -4.81700 44.23000
C  1.30000 -5.26100 44.13800
C  1.21600 -6.74900 44.66900
C  2.74300 -7.03100 45.02700
C  3.44200 -5.69700 44.77100
C  0.21300 -6.92000 45.81800
C  3.34000 -8.21000 44.23300
C  4.07400 -9.29900 45.02600
N  5.03400 -3.17100 44.23600
C  5.60400 -4.31200 44.70800
C  7.03900 -3.97900 44.97000
C  7.23600 -2.74300 44.40800
C  6.00100 -2.27000 43.94800
C  7.94300 -4.87900 45.77100
C  8.22200 -1.73900 44.17400
O  9.44300 -1.76000 44.36000
C  7.49300 -0.67500 43.26900
C  7.69300 0.59600 44.01600
O  7.21800 0.83500 45.15000
O  8.34400 1.55900 43.22200
C  8.26000 2.95900 43.77800
H  0.89900 0.58300 41.66000
H  -0.71500 -5.21000 43.62900
H  5.34100 -6.40800 45.33200
H  5.45100 1.53900 42.44500
H  3.04000 1.26200 40.76000
H  3.89300 3.24400 42.19000
H  3.19300 2.38400 43.53200
H  2.20000 2.73100 42.07900
H  5.20300 0.66300 39.56900
H  6.21900 -0.40300 40.26500
H  7.85600 1.38400 39.81100
H  6.98600 2.32800 41.06500
H  -0.85700 0.22800 40.76600
H  -2.28700 0.04800 41.94500
H  -2.19900 -0.95100 40.57000
H  -2.59900 -5.46900 42.48700
H  -4.08700 -4.71500 43.11500
H  -2.77900 -4.78000 44.14500
H  0.93400 -7.25000 43.74300
H  2.82100 -7.20900 46.10000
H  -0.29100 -7.88300 45.90400
H  -0.47200 -6.07600 45.73900
H  0.62500 -6.73800 46.81100
H  4.09900 -7.83100 43.54900
H  2.54100 -8.71300 43.68900
H  4.01500 -9.09000 46.09400
H  5.13800 -9.29100 44.78900
H  3.62600 -10.27900 44.86100
H  7.93900 -5.91100 45.41900
H  7.68700 -4.89500 46.83100
H  8.98300 -4.55900 45.71100
H  7.90900 -0.69300 42.26200
H  9.25400 3.36700 43.59600
H  8.14700 3.07800 44.85500
H  7.36900 3.42200 43.35200
Mg 41.38200 9.26700 30.24300
C  42.96000 10.39200 33.10600
C  39.01400 7.66400 32.20900
C  39.64200 8.37500 27.47100
C  43.85200 10.61000 28.42500
N  41.06900 9.01700 32.35300
C  41.82500 9.58100 33.34100
C  41.08900 9.51700 34.67700
C  40.02400 8.35100 34.42500
C  40.04900 8.29200 32.90200
C  40.46400 6.99600 34.98400
C  40.45200 10.89300 35.01200
C  40.17500 11.08900 36.57100
H  40.89100 12.01300 37.51400
N  39.62600 8.20000 29.88400
C  38.77400 7.62600 30.84000
C  37.59600 7.00700 30.10500
C  37.68200 7.31700 28.71900
C  39.03000 7.98300 28.63600
C  36.45600 6.31000 30.81700
C  36.67900 7.10400 27.62100
O  36.84600 7.56300 26.49200
C  35.40400 6.25800 27.89400
N  41.68500 9.44800 28.29400
C  40.89000 8.98200 27.35700
C  41.56100 9.06800 25.95100
C  42.83100 9.96700 26.24400
C  42.80800 10.02100 27.74300
C  41.82900 7.71700 25.27500
C  42.85000 11.37900 25.55300
C  41.62900 12.32200 25.85700
N  43.08300 10.25700 30.63000
C  44.07100 10.73700 29.83600
C  45.07900 11.42700 30.57200
C  44.71200 11.31400 31.89500
C  43.51300 10.64500 31.87200
C  46.38100 12.01900 30.01500
C  45.07300 11.60100 33.28100
O  45.92000 12.27600 33.77000
C  43.87900 11.09500 34.08900
C  44.42500 10.21200 35.12700
O  44.99100 9.11400 34.87900
O  44.25600 10.80100 36.35900
C  44.57000 10.09100 37.59500
H  38.27500 7.13800 32.81700
H  39.15900 8.23700 26.50100
H  44.66500 11.11300 27.89700
H  41.62100 9.25500 35.59100
H  39.04400 8.58900 34.83900
H  39.55100 6.71000 35.50600
H  41.33000 6.85100 35.63000
H  40.74400 6.21100 34.28200
H  39.49200 10.96200 34.50000
H  40.95800 11.77400 34.61400
H  40.25800 10.13400 37.09000
H  39.18500 11.52700 36.69300
H  35.57400 6.88700 30.53700
H  36.59600 6.33400 31.89800
H  36.51600 5.28900 30.44000
H  34.81300 6.18800 26.98000
H  34.77000 6.80400 28.59200
H  35.72200 5.27500 28.24100
H  40.86100 9.75100 25.46900
H  43.66000 9.36200 25.87600
H  41.43400 6.88300 25.85300
H  42.90200 7.52300 25.24400
H  41.46100 7.75400 24.24900
H  42.79100 11.16800 24.48600
H  43.80800 11.86000 25.74800
H  41.96500 13.30500 26.18700
H  41.01900 11.92900 26.67000
H  41.00500 12.36100 24.96400
H  46.99700 11.20400 29.63500
H  46.92300 12.71700 30.65200
H  46.17300 12.62400 29.13300
H  43.48400 11.95300 34.63300
H  45.39700 10.58300 38.10700
H  44.90300 9.11800 37.23400
H  43.71700 9.94200 38.25600

