158

Mg 1.08000 8.52400 26.79700
C  1.36600 10.90300 29.36900
C  1.12600 6.06500 29.21600
C  0.85400 6.18500 24.29800
C  1.13500 11.08300 24.38800
N  1.43100 8.50500 29.08100
C  1.40500 9.59900 29.92000
C  1.12100 9.24700 31.36200
C  1.22800 7.65200 31.30800
C  1.23700 7.38700 29.81000
C  2.42800 7.01500 32.01700
C  -0.29900 9.58900 31.85300
C  -0.63600 9.38500 33.35800
H  0.42000 9.00200 34.39500
N  0.98100 6.40400 26.74400
C  1.06800 5.58800 27.87600
C  1.00900 4.18800 27.40400
C  0.81500 4.19500 25.97200
C  0.89500 5.61900 25.62100
C  1.17000 3.08600 28.38900
C  0.73700 3.06000 25.00100
O  0.55300 3.11900 23.78600
C  0.71200 1.70800 25.63600
N  1.05300 8.65000 24.68300
C  0.89800 7.53000 23.87800
C  0.65300 7.99700 22.49000
C  0.49800 9.50500 22.48500
C  0.95700 9.77600 23.93800
C  1.81500 7.54800 21.64500
C  -0.90700 10.08700 22.10300
C  -0.93100 10.95500 20.78400
N  1.43800 10.50500 26.80200
C  1.37100 11.43800 25.76500
C  1.66300 12.77200 26.32900
C  1.50400 12.59100 27.67700
C  1.48300 11.17300 27.96300
C  1.90600 14.06600 25.61800
C  1.52100 13.28900 28.89300
O  1.51100 14.50500 29.13900
C  1.23800 12.22700 30.06000
C  2.31300 12.45000 31.08100
O  3.49000 12.68100 30.89300
O  1.80800 12.49000 32.37800
C  2.75600 12.78700 33.49500
H  1.09800 5.30600 30.00000
H  0.72400 5.46300 23.49000
H  1.09600 11.93000 23.70000
H  1.88900 9.79500 31.90800
H  0.42000 7.13000 31.82200
H  2.11100 6.58500 32.96800
H  3.29300 7.65200 32.19800
H  2.79900 6.24600 31.33900
H  -1.03200 9.05900 31.24600
H  -0.44300 10.63300 31.57400
H  -1.44200 8.65400 33.29400
H  -1.07000 10.27500 33.81300
H  2.00300 2.44900 28.09200
H  0.28500 2.46200 28.26500
H  1.37200 3.38400 29.41800
H  -0.14400 1.79000 26.30600
H  1.62500 1.46700 26.18000
H  0.46300 0.91200 24.93400
H  -0.17900 7.43700 22.06300
H  1.15300 10.04800 21.80400
H  1.88200 8.15200 20.74000
H  1.90100 6.48700 21.41100
H  2.72100 7.74000 22.21900
H  -1.27700 10.63100 22.97200
H  -1.60600 9.27900 21.89100
H  -1.80700 10.67600 20.19900
H  -0.10500 10.80900 20.08800
H  -1.07500 11.99800 21.06400
H  1.26400 14.13100 24.73900
H  2.95200 14.02200 25.31400
H  1.69400 14.86900 26.32400
H  0.26500 12.29900 30.54600
H  3.49400 11.98800 33.41700
H  2.23300 12.64300 34.44100
H  3.14700 13.80400 33.49500
Mg 24.08300 -4.68400 45.58600
C  26.24700 -2.40100 44.23200
C  21.51100 -3.54400 43.37300
C  22.23800 -7.46000 46.15400
C  26.67000 -5.99300 47.43500
N  24.01200 -3.27900 43.90800
C  25.06500 -2.37200 43.56000
C  24.65000 -1.33400 42.53100
C  23.09500 -1.59800 42.47200
C  22.85100 -2.89200 43.28600
C  22.20000 -0.39700 42.85200
C  25.40200 -1.54700 41.15700
C  25.24800 -0.46600 40.16600
H  24.59900 -0.79500 38.76900
N  22.16000 -5.39200 44.88700
C  21.30100 -4.79400 43.99000
C  20.11900 -5.53000 43.82300
C  20.32700 -6.73200 44.62200
C  21.63100 -6.59200 45.30800
C  18.88300 -5.05400 42.89000
C  19.24800 -7.83900 44.70200
O  18.10200 -7.79000 44.16200
C  19.42400 -9.11100 45.53400
N  24.48500 -6.55700 46.55100
C  23.49600 -7.45100 46.78200
C  23.98400 -8.64200 47.60600
C  25.42400 -8.02000 48.19300
C  25.49400 -6.72000 47.41400
C  22.95200 -8.98200 48.69600
C  26.65400 -8.96100 48.01500
C  26.49600 -10.44100 48.44800
N  26.01600 -4.26500 45.92100
C  26.93700 -4.90000 46.65900
C  28.16200 -4.13300 46.64200
C  27.89800 -3.08700 45.75400
C  26.60600 -3.33400 45.23800
C  29.41300 -4.46000 47.34900
C  28.45700 -1.86700 45.09900
O  29.49900 -1.26400 45.19600
C  27.38600 -1.47200 44.05400
C  27.23500 0.00500 44.08900
O  26.74600 0.55400 45.06400
O  27.71300 0.70600 42.97900
C  27.50200 2.13900 42.93800
H  20.69700 -3.22400 42.72000
H  21.64100 -8.34600 46.38000
H  27.62800 -6.23300 47.90000
H  24.80300 -0.29900 42.83600
H  22.86300 -1.84400 41.43600
H  21.69800 -0.50800 43.81300
H  21.44200 -0.35200 42.07000
H  22.66900 0.58700 42.83200
H  25.06600 -2.44500 40.63800
H  26.42400 -1.73900 41.48300
H  26.27200 -0.15300 39.96400
H  24.74600 0.31800 40.73400
H  18.23900 -5.78300 42.39800
H  19.23800 -4.36700 42.12100
H  18.15000 -4.56400 43.53000
H  18.59200 -9.80800 45.43200
H  19.54100 -8.97800 46.61000
H  20.30400 -9.68800 45.25300
H  24.13800 -9.54000 47.00600
H  25.44300 -7.80300 49.26100
H  23.46000 -8.68600 49.61400
H  22.69800 -10.03500 48.56900
H  21.99800 -8.47100 48.56500
H  27.49200 -8.58900 48.60500
H  26.89400 -8.77500 46.96800
H  25.49800 -10.69200 48.80700
H  27.27100 -10.68700 49.17500
H  26.58200 -11.10300 47.58600
H  29.25000 -4.68000 48.40400
H  30.16500 -3.67900 47.24600
H  29.77400 -5.37000 46.86900
H  27.84300 -1.65400 43.08100
H  26.46900 2.46600 42.81900
H  27.94500 2.55500 42.03300
H  27.95500 2.66300 43.77900

