158

Mg 9.43800 3.81600 27.71200
C  10.75800 2.26500 30.58100
C  7.77400 6.08200 29.77800
C  7.94700 5.11300 24.96000
C  10.62400 1.23300 25.86600
N  9.31800 4.10200 29.85900
C  9.96400 3.42400 30.93600
C  9.51600 3.98600 32.28800
C  8.60000 5.16700 31.90000
C  8.51900 5.09700 30.38800
C  7.17600 5.05700 32.55900
C  10.64900 4.36100 33.28400
C  10.49100 5.51000 34.27800
H  10.85200 5.16500 35.67100
N  8.09600 5.33100 27.42700
C  7.57100 6.21200 28.41900
C  6.89400 7.29400 27.71100
C  6.85800 6.98000 26.35300
C  7.67000 5.78700 26.16800
C  6.19600 8.50000 28.39800
C  6.26900 7.80500 25.22000
O  6.46900 7.41300 24.04500
C  5.52500 9.12600 25.46300
N  9.22500 3.20700 25.67800
C  8.57000 3.88500 24.78500
C  8.69000 3.13000 23.39600
C  9.63700 1.98200 23.65600
C  9.92600 2.18600 25.09100
C  7.30200 2.71800 22.81400
C  10.97300 2.06000 22.77300
C  10.90200 0.99400 21.61000
N  10.53100 2.20200 28.04200
C  10.93100 1.23000 27.19700
C  11.74200 0.26200 27.94800
C  11.68700 0.68400 29.28300
C  10.93500 1.81000 29.27000
C  12.24800 -1.00500 27.37900
C  12.08100 0.29100 30.60500
O  12.67100 -0.65000 31.00500
C  11.52900 1.37100 31.49100
C  10.83600 0.78000 32.58800
O  9.87200 0.02400 32.55000
O  11.52000 1.06500 33.75200
C  11.06700 0.42500 34.99300
H  7.26200 6.72500 30.49600
H  7.58900 5.37300 23.96200
H  10.85400 0.32600 25.30400
H  8.85200 3.24500 32.73300
H  9.02300 6.15300 32.09200
H  6.52500 4.37000 32.01800
H  6.66800 6.02100 32.54000
H  7.25200 4.66700 33.57300
H  11.61200 4.22200 32.79400
H  10.55800 3.46100 33.89200
H  9.43600 5.77300 34.36700
H  11.13000 6.31000 33.90400
H  5.13300 8.51500 28.15800
H  6.56100 9.48500 28.10700
H  6.25400 8.39800 29.48200
H  6.25200 9.82700 25.87500
H  4.61500 8.93500 26.03200
H  5.29000 9.61300 24.51700
H  9.18000 3.85200 22.74400
H  9.11300 1.02800 23.61100
H  7.50400 1.81200 22.24400
H  6.97000 3.58000 22.23400
H  6.56200 2.57700 23.60200
H  11.83200 1.89000 23.42200
H  11.14000 3.08000 22.42800
H  10.06600 0.31800 21.78700
H  11.82100 0.41900 21.49600
H  10.80700 1.53000 20.66600
H  11.84300 -1.39400 26.44500
H  11.95500 -1.86000 27.98800
H  13.32600 -0.95100 27.22500
H  12.40500 1.86000 31.91600
H  10.46400 -0.47600 34.87500
H  10.61000 1.12400 35.69300
H  11.93700 0.05400 35.53600
Mg -3.28400 34.32500 26.83200
C  -3.90600 32.36700 29.68800
C  -1.80800 36.73000 28.86400
C  -3.31000 36.54600 24.34100
C  -5.04300 32.07800 24.89500
N  -2.90800 34.45600 28.95900
C  -3.16300 33.50400 29.91500
C  -2.67800 33.93200 31.41100
C  -2.07300 35.32100 31.01600
C  -2.27400 35.55800 29.52500
C  -2.37600 36.54100 31.98700
C  -1.82100 32.91800 32.25500
C  -2.26000 32.54000 33.65200
H  -1.21300 32.56100 34.75300
N  -2.49200 36.30200 26.57200
C  -1.93300 37.12000 27.51700
C  -1.50700 38.40400 26.91700
C  -1.96100 38.35400 25.55500
C  -2.63800 37.01300 25.42500
C  -0.84100 39.44100 27.70300
C  -1.86100 39.41900 24.48100
O  -2.32600 39.27200 23.37300
C  -1.21400 40.77200 24.76600
N  -4.32500 34.37100 24.98300
C  -4.06200 35.38000 24.10800
C  -4.49100 35.06300 22.65100
C  -4.89800 33.56200 22.84000
C  -4.67500 33.26500 24.33900
C  -5.58500 35.96200 21.96300
C  -4.12200 32.63700 21.85100
C  -2.73800 32.03800 22.32100
N  -4.31900 32.58800 27.11400
C  -5.02600 31.76700 26.20600
C  -5.47300 30.65400 26.97200
C  -5.08100 30.87900 28.34300
C  -4.39300 32.08900 28.37200
C  -6.29800 29.53900 26.38600
C  -5.13100 30.36400 29.69500
O  -5.68300 29.34300 30.17100
C  -4.34200 31.32900 30.63600
C  -5.33100 31.89900 31.55900
O  -6.11600 32.74600 31.27500
O  -5.12900 31.49900 32.89300
C  -6.21300 31.81700 33.85700
H  -1.51500 37.45900 29.62300
H  -3.03200 37.17200 23.49100
H  -5.50400 31.36400 24.20900
H  -3.59400 34.06700 31.98500
H  -0.99300 35.18000 30.97000
H  -2.73400 36.26400 32.97800
H  -3.30800 37.01200 31.67700
H  -1.62800 37.32500 32.11200
H  -0.82000 33.34100 32.33300
H  -1.77600 32.03400 31.62000
H  -2.48100 31.47500 33.57900
H  -3.09800 33.18900 33.90700
H  -0.23300 39.00400 28.49500
H  -1.59700 40.03500 28.21600
H  -0.14200 39.97900 27.06100
H  -2.01200 41.32000 25.26800
H  -1.09000 41.30100 23.82100
H  -0.22100 40.77600 25.21600
H  -3.63200 35.18600 21.99100
H  -5.96600 33.44200 22.65600
H  -5.89300 36.68000 22.72400
H  -6.49700 35.48600 21.60400
H  -5.15000 36.54700 21.15400
H  -4.01500 33.08800 20.86400
H  -4.72700 31.76000 21.62000
H  -2.56500 32.12100 23.39400
H  -1.91500 32.46800 21.75000
H  -2.72400 30.96800 22.11500
H  -5.82000 29.15200 25.48600
H  -7.27000 29.97600 26.15600
H  -6.36000 28.79800 27.18300
H  -3.53600 30.80000 31.14400
H  -7.10400 32.10100 33.29700
H  -5.96100 32.53000 34.64200
H  -6.55600 30.90100 34.33800

