158

Mg 47.23000 16.20800 28.67000
C  45.25000 16.30200 31.50700
C  49.59200 18.01700 30.40300
C  48.81900 16.71000 25.77600
C  44.55700 14.78300 26.91300
N  47.31900 17.16400 30.59800
C  46.51600 16.86200 31.65500
C  47.06300 17.28700 33.00400
C  48.32500 18.11700 32.49900
C  48.39900 17.83800 31.04500
C  48.21500 19.64200 32.94700
C  47.50500 16.07000 33.91200
C  47.29400 16.16800 35.42900
H  46.83300 17.56200 36.09000
N  49.02000 17.04700 28.16600
C  49.90000 17.71500 29.04400
C  51.15900 17.97500 28.39300
C  50.86000 17.83000 27.02300
C  49.52800 17.22400 26.92200
C  52.36600 18.44200 29.04300
C  51.73000 18.34500 25.81800
O  51.43900 18.10000 24.66100
C  53.02100 19.16000 26.00500
N  46.66800 15.91100 26.53100
C  47.58100 16.10500 25.53400
C  47.14400 15.49000 24.26100
C  45.74300 14.81400 24.64600
C  45.65800 15.14000 26.13200
C  47.03800 16.51400 23.03000
C  45.70200 13.22700 24.53800
C  45.00500 12.69000 23.28200
N  45.35200 15.58000 29.09200
C  44.36200 14.97200 28.30100
C  43.26200 14.63500 29.10000
C  43.52100 15.16800 30.36500
C  44.78500 15.77500 30.30400
C  42.00400 13.91700 28.68200
C  42.94700 15.26400 31.70600
O  41.96700 14.88200 32.23600
C  44.13400 16.03400 32.51900
C  43.45700 17.11200 33.33500
O  43.39300 18.29400 33.06100
O  42.88100 16.60500 34.44300
C  42.30700 17.53000 35.39000
H  50.31600 18.57000 31.00600
H  49.35100 16.80600 24.82700
H  43.72400 14.29400 26.40300
H  46.22600 17.72500 33.54800
H  49.25900 17.73500 32.91200
H  47.30200 19.86000 33.50200
H  48.50600 20.28600 32.11700
H  48.95600 19.66500 33.74600
H  48.56500 15.87700 33.74800
H  46.96300 15.20000 33.54000
H  48.16200 15.92100 36.04000
H  46.59900 15.38100 35.72200
H  53.16100 17.84100 28.60000
H  52.28500 18.13800 30.08600
H  52.60500 19.50300 28.96800
H  52.93200 20.15200 26.44800
H  53.46600 19.23200 25.01300
H  53.68600 18.47400 26.52900
H  47.90500 14.75300 24.00400
H  44.81000 15.18400 24.22300
H  46.03900 16.91800 22.86000
H  47.36400 16.09800 22.07700
H  47.52500 17.44200 23.32900
H  45.19200 12.78200 25.39100
H  46.69400 12.77700 24.55900
H  44.00600 12.37400 23.58300
H  45.55400 11.81300 22.93900
H  44.93000 13.41700 22.47400
H  41.24700 14.51200 29.19200
H  42.03900 12.86000 28.94700
H  41.83600 13.96900 27.60700
H  44.50100 15.32600 33.26300
H  41.56400 18.10800 34.84100
H  43.10500 18.18900 35.73100
H  41.83000 16.97300 36.19700
Mg 1.40800 42.37900 27.03100
C  2.71900 42.28300 30.34500
C  -1.46100 40.79400 28.36400
C  0.26500 41.73100 23.90000
C  4.34900 43.39600 25.83200
N  0.65100 41.82400 29.13900
C  1.36000 41.93900 30.33400
C  0.49900 41.56900 31.51100
C  -0.80700 41.01500 30.90700
C  -0.56800 41.22000 29.33800
C  -1.19300 39.56900 31.36300
C  0.39200 42.74700 32.57500
C  0.98800 42.41300 34.00100
H  0.13800 42.08400 35.20500
N  -0.35000 41.39500 26.25200
C  -1.41600 40.88500 26.93900
C  -2.42700 40.45000 25.97500
C  -1.96600 40.68600 24.71200
C  -0.62000 41.29500 24.87900
C  -3.71200 39.84200 26.47900
C  -2.67400 40.56400 23.41900
O  -2.18700 40.80700 22.30100
C  -4.08100 40.04700 23.48600
N  2.16900 42.53900 25.19400
C  1.51200 42.31100 24.02800
C  2.32400 42.80200 22.81000
C  3.55900 43.52000 23.41500
C  3.33700 43.08600 24.91000
C  2.72900 41.64600 21.83400
C  3.39500 45.01900 23.23900
C  3.77200 45.46300 21.85400
N  3.19200 42.80600 27.88900
C  4.32200 43.20200 27.21300
C  5.38100 43.39500 28.20300
C  4.77900 43.04300 29.40600
C  3.43500 42.69400 29.18000
C  6.77900 43.86300 28.00800
C  4.98500 42.86100 30.82500
O  6.02600 43.02200 31.44000
C  3.68800 42.38500 31.51400
C  3.98000 41.04800 32.17700
O  4.02300 39.96600 31.64700
O  4.42400 41.31800 33.40900
C  4.73700 40.10400 34.19300
H  -2.39400 40.40300 28.77500
H  -0.09500 41.56500 22.88300
H  5.22000 43.87700 25.38400
H  1.04500 40.76400 32.00200
H  -1.56800 41.74400 31.18700
H  -0.58000 39.26700 32.21200
H  -1.16900 38.82600 30.56600
H  -2.20000 39.79400 31.71500
H  -0.62500 43.10000 32.74300
H  0.84200 43.64700 32.15500
H  1.53200 43.34100 34.18000
H  1.81000 41.71000 33.86600
H  -3.80600 39.66700 27.55100
H  -3.74500 38.81500 26.11500
H  -4.59400 40.40500 26.17200
H  -4.46000 39.93700 22.47000
H  -4.64700 40.77100 24.07200
H  -4.03500 39.03500 23.88700
H  1.60300 43.42500 22.28200
H  4.56200 43.31100 23.04200
H  3.44800 41.02300 22.36600
H  3.19100 42.18200 21.00500
H  1.86100 41.02600 21.61300
H  3.86000 45.63400 24.01000
H  2.34100 45.28200 23.32600
H  4.05900 44.62100 21.22400
H  4.64000 46.12200 21.87300
H  2.96500 46.04100 21.40100
H  7.06500 44.68000 28.67000
H  6.84000 44.33400 27.02700
H  7.44200 42.99800 28.02400
H  3.49800 43.16300 32.25300
H  5.77700 40.32200 34.43600
H  4.81400 39.15500 33.66300
H  4.10900 39.95300 35.07100

