158

Mg 30.49800 57.60400 39.68600
C  27.68600 55.51100 38.59800
C  32.54100 54.82600 38.52000
C  32.92300 59.54800 39.55100
C  28.25200 60.23500 39.98500
N  30.09200 55.39200 38.46500
C  28.88200 54.83100 38.35500
C  29.00300 53.33100 38.04500
C  30.58900 53.12900 38.01800
C  31.13700 54.52700 38.35900
C  31.11900 52.01000 39.00600
C  28.33100 52.98600 36.57900
C  28.66500 53.71300 35.24300
H  27.63800 54.59400 34.46900
N  32.53300 57.21100 39.28300
C  33.14800 56.11400 38.74800
C  34.58100 56.43200 38.66300
C  34.71700 57.78600 38.91100
C  33.37300 58.23300 39.30700
C  35.55500 55.41000 38.41400
C  35.95600 58.59500 38.70400
O  36.96700 58.09900 38.16100
C  36.09000 60.06600 39.09000
N  30.55400 59.59200 39.64100
C  31.77300 60.22900 39.73900
C  31.67400 61.76100 39.78400
C  30.12700 61.99800 39.95300
C  29.57500 60.55000 39.85000
C  32.50500 62.54000 40.80600
C  29.45800 62.81100 38.73800
C  29.11800 64.24200 38.97900
N  28.36600 57.84200 39.45000
C  27.65500 59.02900 39.72800
C  26.31200 58.70700 39.58700
C  26.22200 57.40200 39.16800
C  27.52700 56.86300 39.08400
C  25.16200 59.71700 39.87500
C  25.36200 56.31600 38.85500
O  24.14500 56.31100 38.87100
C  26.21900 55.07200 38.45300
C  25.89600 53.99400 39.36100
O  26.27800 53.97300 40.50500
O  24.93700 53.17200 38.89900
C  24.11400 52.22300 39.76400
H  33.16200 53.94300 38.35500
H  33.64500 60.35600 39.41500
H  27.58000 61.07700 40.16500
H  28.37100 52.68600 38.65500
H  30.94100 52.87700 37.01800
H  31.41000 52.50500 39.93300
H  31.90300 51.39800 38.56000
H  30.27200 51.33800 39.14900
H  27.26200 53.17900 36.67300
H  28.47900 51.94800 36.28300
H  28.97000 53.00900 34.46900
H  29.54400 54.30400 35.50200
H  36.04100 55.52400 37.44500
H  35.20400 54.37800 38.41700
H  36.22800 55.42700 39.27100
H  37.07300 60.53000 39.01300
H  35.62900 60.32600 40.04300
H  35.50200 60.67900 38.40700
H  31.89300 62.14500 38.78700
H  29.81600 62.40900 40.91400
H  31.93600 63.17500 41.48600
H  33.25400 63.09500 40.24100
H  33.01100 61.83600 41.46600
H  28.50200 62.37500 38.44800
H  30.14900 62.81000 37.89600
H  29.08800 64.70200 37.99100
H  29.99900 64.66500 39.46100
H  28.13400 64.39600 39.42200
H  25.32300 60.53600 39.17500
H  25.23400 60.07100 40.90400
H  24.22400 59.16300 39.91700
H  25.78100 54.98700 37.45900
H  23.29500 51.78700 39.19200
H  23.71700 52.82500 40.58100
H  24.68300 51.42100 40.23400
Mg -12.79900 37.39900 41.74500
C  -10.19800 35.00900 40.89500
C  -11.27100 39.56000 39.53600
C  -15.62300 39.03700 41.76900
C  -14.23000 34.87000 43.68100
N  -11.02100 37.21900 40.25600
C  -10.06400 36.22100 40.22200
C  -8.82400 36.60100 39.34600
C  -9.05300 38.12700 39.39100
C  -10.61100 38.29900 39.59800
C  -8.20800 38.94100 40.41200
C  -8.84500 35.92800 37.95100
C  -7.53400 35.30700 37.47300
H  -6.63600 36.20300 36.56700
N  -13.34600 39.07200 40.81400
C  -12.54500 39.88800 40.00600
C  -13.21100 41.15700 39.77100
C  -14.57100 41.05200 40.38200
C  -14.57900 39.62500 41.00100
C  -12.63100 42.27300 39.02600
C  -15.60100 42.08500 40.43100
O  -15.35800 43.11500 39.82500
C  -16.89200 41.91200 41.13200
N  -14.79700 36.84500 42.28800
C  -15.69800 37.80400 42.34600
C  -16.88200 37.39300 43.28600
C  -16.44800 36.04100 43.92200
C  -15.07100 35.88400 43.27700
C  -17.30200 38.49600 44.29200
C  -17.39100 34.84500 43.86200
C  -18.07500 34.40100 45.16800
N  -12.24500 35.40500 42.31300
C  -12.96900 34.54100 43.14800
C  -12.19800 33.32800 43.24700
C  -11.07300 33.53500 42.40800
C  -11.21900 34.76300 41.80700
C  -12.63900 32.21800 44.12500
C  -9.87500 32.84100 41.96500
O  -9.44400 31.68300 42.25900
C  -9.19600 33.81900 40.96700
C  -7.86100 34.19000 41.69600
O  -6.78400 33.63100 41.49200
O  -8.00600 35.14200 42.68700
C  -6.88500 35.39200 43.63400
H  -10.72600 40.24300 38.88000
H  -16.50200 39.61300 42.06600
H  -14.57100 34.22200 44.49100
H  -7.92700 36.32900 39.90200
H  -8.86000 38.53600 38.39900
H  -8.90300 39.16000 41.22300
H  -7.80600 39.83900 39.94300
H  -7.46600 38.23000 40.77600
H  -9.00300 36.75000 37.25300
H  -9.70100 35.26000 37.85500
H  -7.65400 34.38100 36.91100
H  -6.95200 35.03300 38.35300
H  -12.92600 43.22100 39.47600
H  -12.85400 42.14800 37.96600
H  -11.55000 42.22800 39.15400
H  -17.35000 40.97100 40.82800
H  -17.51600 42.77000 40.88100
H  -16.67900 41.75800 42.19000
H  -17.70900 37.15600 42.61700
H  -16.29700 36.20900 44.98800
H  -16.54900 39.28300 44.32000
H  -17.43200 37.99800 45.25300
H  -18.29100 38.90900 44.09200
H  -16.80400 34.05000 43.40300
H  -18.13700 35.22000 43.16200
H  -19.14400 34.61200 45.18400
H  -17.65900 34.95200 46.01100
H  -17.96500 33.33800 45.38400
H  -13.50100 32.61100 44.66400
H  -11.91500 32.03100 44.91800
H  -12.80900 31.31700 43.53500
H  -9.00300 33.17100 40.11200
H  -6.50700 36.40300 43.48500
H  -6.07800 34.67500 43.48300
H  -7.25200 35.26700 44.65200

