158

Mg 54.08200 25.49000 44.80800
C  51.42400 27.66400 44.10400
C  52.27800 22.95500 43.42000
C  56.85700 23.51400 44.78900
C  55.97600 28.22700 45.73500
N  52.15200 25.45700 43.75200
C  51.11900 26.42000 43.58900
C  49.93500 25.83900 42.95500
C  50.22000 24.32800 43.09500
C  51.72400 24.21300 43.34900
C  49.27900 23.59900 44.11800
C  49.76600 26.22800 41.42900
C  48.36800 26.07700 40.70900
H  48.46300 25.44800 39.33700
N  54.47300 23.50200 44.36100
C  53.57300 22.63000 43.78600
C  54.12800 21.29500 43.65600
C  55.46500 21.42700 44.06400
C  55.70600 22.85700 44.43200
C  53.46500 20.11500 42.99100
C  56.44300 20.30900 43.86700
O  56.09100 19.16200 43.52400
C  57.88400 20.45800 44.15800
N  56.11500 25.80800 44.88400
C  57.05700 24.83900 44.96100
C  58.39500 25.38300 45.43500
C  58.14300 26.91400 45.49500
C  56.62100 27.00800 45.40900
C  58.91800 24.74200 46.72300
C  58.87600 27.78800 44.40500
C  59.56600 29.04200 44.98400
N  53.75300 27.58500 45.10700
C  54.57800 28.56900 45.59700
C  53.85400 29.80200 45.69600
C  52.56800 29.51900 45.14700
C  52.61000 28.14500 44.72700
C  54.33400 31.11900 46.16500
C  51.23700 30.04900 44.89900
O  50.76600 31.17600 45.12800
C  50.45100 28.84000 44.27500
C  49.80700 29.33600 42.98900
O  50.37100 29.51300 41.95000
O  48.46600 29.45600 43.11100
C  47.81000 30.05400 41.94700
H  51.53400 22.20000 43.15800
H  57.74000 22.88800 44.93500
H  56.64500 29.05000 45.99500
H  49.01600 26.16400 43.44200
H  50.10500 23.88300 42.10700
H  48.72300 22.85200 43.55000
H  48.61100 24.34600 44.54600
H  49.78000 23.29400 45.03600
H  50.45100 25.61400 40.84400
H  50.12400 27.24400 41.26500
H  48.00900 27.09700 40.57600
H  47.78200 25.37900 41.30800
H  52.39500 20.20300 42.80700
H  53.36900 19.26800 43.67000
H  53.93800 19.76800 42.07200
H  58.36000 19.50100 43.94300
H  57.90400 20.68600 45.22400
H  58.22900 21.27600 43.52500
H  59.15800 25.07700 44.71800
H  58.21100 27.32000 46.50400
H  59.98500 24.53400 46.63300
H  58.48800 23.76300 46.93500
H  58.76700 25.37300 47.59800
H  58.08700 28.19500 43.77300
H  59.71300 27.23600 43.97500
H  59.74100 29.70700 44.13800
H  60.48900 28.88100 45.54200
H  58.89700 29.59000 45.64800
H  54.69300 31.45100 45.19200
H  55.11800 31.04500 46.91900
H  53.51100 31.75800 46.48800
H  49.66500 28.76800 45.02700
H  47.93600 29.33100 41.14000
H  48.21000 31.01300 41.61800
H  46.73900 30.24900 41.99600
Mg 47.41300 25.22800 28.51400
C  48.21800 27.27400 31.19700
C  46.44300 22.65900 30.73800
C  47.09000 23.08700 25.94300
C  48.69000 27.68000 26.35100
N  47.18300 25.09500 30.53700
C  47.46400 26.11700 31.49900
C  47.26700 25.65300 32.97500
C  46.89600 24.18000 32.76500
C  46.82900 23.94700 31.24700
C  47.75700 23.24800 33.51300
C  46.29100 26.46000 33.79600
C  46.73800 26.73200 35.25100
H  45.89800 27.54800 36.19000
N  46.73000 23.13700 28.37100
C  46.41200 22.28100 29.38500
C  46.13100 20.97300 28.82200
C  46.26800 21.07600 27.44200
C  46.70700 22.46100 27.17400
C  45.85200 19.76700 29.65900
C  45.91600 20.18300 26.33900
O  46.00100 20.43800 25.13400
C  45.43900 18.82300 26.63800
N  47.81000 25.32100 26.44000
C  47.52500 24.34000 25.55000
C  47.71200 24.78300 24.07200
C  48.03900 26.30800 24.25200
C  48.20000 26.48000 25.79200
C  48.76700 23.90100 23.33700
C  47.02800 27.25500 23.60800
C  47.39300 27.72700 22.18500
N  48.29900 27.05600 28.65700
C  48.82800 27.95200 27.72100
C  49.44200 29.04700 28.38300
C  49.23800 28.83200 29.78300
C  48.53700 27.59100 29.86600
C  50.10200 30.17200 27.68100
C  49.38400 29.41900 31.06100
O  50.00000 30.43700 31.41000
C  48.67700 28.44500 32.01000
C  49.61400 28.12800 33.04700
O  50.52300 27.29600 32.94800
O  49.35800 28.96400 34.05900
C  50.15500 28.91500 35.26000
H  46.26600 21.87900 31.48200
H  47.06400 22.55900 24.98700
H  49.12500 28.34200 25.59900
H  48.20200 25.68600 33.53400
H  45.89200 24.09000 33.17800
H  48.27600 23.70300 34.35600
H  48.50700 22.92000 32.79300
H  47.08400 22.46300 33.85900
H  45.32500 25.97000 33.91900
H  45.98500 27.34600 33.23900
H  47.67200 27.29400 35.25000
H  46.94100 25.77800 35.73800
H  46.46000 18.91700 29.35200
H  44.87100 19.43700 29.31600
H  46.13700 19.85500 30.70700
H  44.51700 18.83300 27.21900
H  46.24700 18.39000 27.22800
H  45.22200 18.28200 25.71700
H  46.74600 24.68800 23.57500
H  48.94100 26.63100 23.73300
H  49.35500 23.51700 24.17000
H  49.27900 24.54700 22.62400
H  48.27900 23.10300 22.77800
H  46.82300 28.10400 24.26000
H  46.08900 26.73900 23.40700
H  47.70600 28.77000 22.13700
H  46.54300 27.56600 21.52100
H  48.21000 27.06300 21.90200
H  49.33200 30.89900 27.42100
H  50.67800 29.72200 26.87300
H  50.76800 30.75200 28.32000
H  47.84100 29.05100 32.35800
H  50.21600 29.94800 35.60300
H  51.12600 28.42600 35.18800
H  49.65100 28.32000 36.02200

