158

Mg 34.94000 3.53500 29.97300
C  32.57300 4.57600 32.21100
C  37.34400 3.84700 32.46600
C  37.25600 2.55100 27.74900
C  32.57300 3.60300 27.49200
N  34.94200 4.11500 32.06800
C  33.81700 4.36500 32.79200
C  34.26400 4.48300 34.28700
C  35.74800 4.75400 34.18600
C  36.06200 4.27000 32.79600
C  36.06200 6.20200 34.40600
C  33.72300 3.27900 35.18000
C  34.19200 3.39000 36.60400
H  34.35200 4.71300 37.35100
N  36.98300 3.28500 30.10000
C  37.76900 3.46100 31.16800
C  39.07600 3.12400 30.77900
C  39.14300 2.71200 29.40600
C  37.74000 2.84500 28.96500
C  40.23200 3.31000 31.69300
C  40.34200 2.11900 28.54200
O  40.18700 1.84500 27.36000
C  41.64900 1.96500 29.08400
N  34.96300 3.37300 27.87300
C  36.00400 2.83100 27.17500
C  35.68000 2.49300 25.66600
C  34.16500 2.72500 25.68200
C  33.85600 3.25900 27.06600
C  36.58300 3.26000 24.69600
C  33.51100 1.36700 25.34500
C  33.01900 0.53400 26.53200
N  33.01400 3.99700 29.83300
C  32.15600 3.99900 28.74600
C  30.84200 4.42000 29.13900
C  30.92900 4.64100 30.51600
C  32.28500 4.40300 30.85500
C  29.62200 4.61200 28.32100
C  30.19600 4.89300 31.71200
O  29.03800 5.14300 31.96700
C  31.27200 4.89900 32.92700
C  31.35600 6.17800 33.61400
O  32.20500 7.05100 33.42200
O  30.60000 6.19400 34.78700
C  31.03900 7.06800 35.89400
H  38.09800 3.93300 33.25100
H  37.83800 2.17900 26.90300
H  31.77900 3.55100 26.74400
H  33.63800 5.29200 34.66500
H  36.38400 4.15600 34.83900
H  36.16300 6.41100 35.47100
H  35.22000 6.77000 34.01200
H  36.96900 6.33400 33.81600
H  33.90100 2.28500 34.76900
H  32.65700 3.43300 35.34500
H  35.03200 2.72800 36.81100
H  33.38900 2.96600 37.20700
H  40.49200 2.31000 32.04100
H  40.17700 3.98400 32.54700
H  41.00100 3.73300 31.04600
H  41.74900 1.35100 29.97900
H  41.96800 3.00000 29.21100
H  42.27600 1.63700 28.25500
H  35.93400 1.43900 25.55700
H  33.85800 3.47500 24.95300
H  36.12200 4.02100 24.06700
H  37.01000 2.53600 24.00200
H  37.34600 3.78500 25.27100
H  34.01500 0.76300 24.59100
H  32.56200 1.69000 24.91700
H  31.98500 0.28900 26.29000
H  33.13300 0.97500 27.52200
H  33.63700 -0.36000 26.45600
H  29.69500 4.49000 27.24000
H  29.08100 5.49300 28.66700
H  29.00200 3.77000 28.62900
H  31.01900 4.17300 33.70000
H  30.32400 7.88200 36.01300
H  31.97200 7.61600 35.76400
H  31.05100 6.59400 36.87500
Mg 6.30800 53.66000 41.72900
C  5.08900 50.28400 41.36100
C  9.39100 52.66800 40.74000
C  7.06200 56.90800 41.31000
C  2.93500 54.53600 42.21300
N  7.07600 51.74100 40.99000
C  6.45900 50.45800 40.97700
C  7.48700 49.34300 40.73000
C  8.81100 50.12100 40.73600
C  8.43400 51.63100 40.76900
C  9.81900 49.68000 41.81700
C  7.33100 48.56700 39.38500
C  6.87000 49.21100 38.13100
H  6.30300 48.33900 36.99500
N  8.08300 54.66900 41.13900
C  9.23600 54.09700 40.81400
C  10.21300 55.12400 40.64700
C  9.53700 56.37800 40.78600
C  8.14500 56.03000 41.06800
C  11.77200 54.90700 40.57900
C  10.20400 57.76200 40.75200
O  11.41800 57.88400 40.61700
C  9.44800 59.01600 41.05900
N  5.19100 55.44500 41.74800
C  5.72200 56.66900 41.59000
C  4.74500 57.86400 41.78400
C  3.44000 57.03700 42.15700
C  3.85200 55.57500 41.99300
C  5.03900 58.83500 42.91600
C  2.32500 57.36100 41.18800
C  0.92300 57.47100 41.91100
N  4.38900 52.61200 41.92600
C  3.14400 53.10200 42.20700
C  2.23400 52.03500 42.58200
C  3.00200 50.87100 42.22100
C  4.25900 51.32200 41.74600
C  0.87600 52.19100 43.08700
C  2.90500 49.41500 42.18900
O  2.06900 48.59400 42.46600
C  4.34200 49.04100 41.57900
C  4.29000 48.16900 40.39600
O  3.86800 48.51000 39.32000
O  4.61700 46.95300 40.82400
C  4.44300 45.90300 39.87900
H  10.38000 52.30500 40.45700
H  7.20400 57.98500 41.42600
H  1.95800 54.78900 42.63000
H  7.41700 48.65400 41.57100
H  9.46100 50.00600 39.86900
H  9.56500 48.67000 42.14000
H  9.71800 50.41000 42.61900
H  10.81400 49.72600 41.37500
H  6.78400 47.64500 39.58300
H  8.32700 48.21000 39.12500
H  7.71700 49.75700 37.71400
H  6.18800 50.00400 38.44000
H  12.16700 55.19600 41.55300
H  12.20800 55.53000 39.79800
H  12.09600 53.88800 40.36700
H  9.99400 59.92200 40.79500
H  9.10100 58.91200 42.08700
H  8.54800 59.15800 40.46200
H  4.67100 58.32800 40.80100
H  3.12900 57.20100 43.18900
H  5.70300 58.19900 43.50200
H  4.11000 59.08100 43.43000
H  5.53400 59.76300 42.62900
H  2.29000 56.55600 40.45400
H  2.47900 58.28800 40.63600
H  0.14000 56.96000 41.35100
H  0.74900 58.54200 41.81300
H  0.89300 57.32800 42.99200
H  0.56200 51.16000 43.25000
H  0.37800 52.81400 42.34400
H  0.83900 52.67300 44.06300
H  5.01400 48.48500 42.23200
H  4.64500 44.89300 40.23600
H  4.99300 45.99800 38.94300
H  3.38200 45.82000 39.64500

