158

Mg 26.15700 0.51300 29.71400
C  27.83200 -0.01200 32.82400
C  23.16900 0.74300 31.51500
C  24.57800 0.56900 26.80600
C  29.11600 -0.32300 28.01200
N  25.66000 0.48500 31.92700
C  26.48900 0.39800 33.00800
C  25.79400 0.57800 34.35700
C  24.33400 0.68900 33.88700
C  24.34600 0.65800 32.36200
C  23.31300 -0.33500 34.59900
C  26.33600 1.88400 34.95000
C  25.52100 2.37100 36.19700
H  26.17700 2.53100 37.55800
N  24.15600 0.55500 29.26400
C  23.07500 0.78100 30.08000
C  21.84900 0.89900 29.32400
C  22.19900 0.77800 27.93300
C  23.66600 0.61300 27.92900
C  20.50100 1.20100 29.90800
C  21.30700 0.80100 26.63200
O  21.77700 0.62100 25.55100
C  19.81800 1.10500 26.73700
N  26.73500 0.13700 27.73400
C  25.94000 0.39800 26.63300
C  26.64300 0.30800 25.28800
C  28.10500 0.34600 25.83100
C  27.99300 0.06600 27.31800
C  26.20000 -0.95100 24.48100
C  28.82600 1.67800 25.50100
C  28.16000 2.99300 25.97000
N  28.10800 -0.08800 30.26000
C  29.19700 -0.44700 29.44300
C  30.32300 -0.76900 30.30400
C  29.83600 -0.57600 31.62900
C  28.47700 -0.28600 31.51100
C  31.66000 -1.18500 29.85000
C  30.26900 -0.54600 32.96800
O  31.40300 -0.72900 33.45300
C  28.92700 -0.14900 33.83700
C  28.79200 -1.11900 34.95300
O  28.98100 -2.32500 34.91300
O  28.87900 -0.37300 36.08900
C  29.49800 -0.94700 37.24900
H  22.22500 0.75800 32.06400
H  24.05200 0.52900 25.85000
H  30.06500 -0.45500 27.48700
H  25.99700 -0.26600 35.01700
H  23.87700 1.67200 34.00000
H  22.80300 0.21400 35.39000
H  23.95100 -1.13100 34.98200
H  22.60000 -0.67200 33.84700
H  26.36300 2.69800 34.22600
H  27.38100 1.70000 35.19900
H  24.63400 1.73700 36.17800
H  25.27800 3.40300 35.94500
H  19.77900 0.38600 29.96300
H  20.06800 2.04700 29.37400
H  20.57700 1.43700 30.96900
H  19.52900 1.84900 27.48000
H  19.30200 0.18100 27.00000
H  19.43400 1.47300 25.78500
H  26.47400 1.20800 24.69800
H  28.64100 -0.44300 25.30300
H  27.05000 -1.62600 24.38000
H  25.92100 -0.73100 23.45100
H  25.30100 -1.45700 24.83300
H  29.25600 1.67300 24.49900
H  29.71100 1.73800 26.13400
H  28.78800 3.19000 26.83900
H  27.10700 2.90200 26.23400
H  28.36000 3.80900 25.27500
H  31.99000 -0.48900 29.07900
H  31.66200 -2.21600 29.49700
H  32.38000 -1.09000 30.66200
H  29.17000 0.84900 34.20300
H  29.30500 -2.00000 37.45400
H  29.12900 -0.50600 38.17500
H  30.57400 -0.80200 37.16000
Mg 41.92200 7.95100 28.96800
C  43.96500 9.23500 31.68600
C  39.80300 6.56700 31.43400
C  40.47200 5.90600 26.68700
C  44.65300 8.51700 26.91500
N  41.87000 8.06800 31.30200
C  42.79400 8.58500 32.15300
C  42.42000 8.45800 33.69300
C  41.16800 7.51200 33.49600
C  40.85300 7.34800 31.95700
C  40.96600 6.23500 34.38300
C  42.19700 9.83400 34.46900
C  41.32700 9.76600 35.78200
H  41.96100 10.27900 37.13700
N  40.18600 6.68300 29.03800
C  39.44000 6.28900 30.09300
C  38.32400 5.53100 29.68200
C  38.48200 5.34400 28.29200
C  39.74500 6.00300 27.93700
C  37.15600 5.13300 30.54800
C  37.60900 4.63200 27.31600
O  37.87700 4.45600 26.12900
C  36.41300 3.77400 27.84800
N  42.46800 7.29400 27.08100
C  41.75900 6.34700 26.38000
C  42.44800 6.21700 24.96600
C  43.65900 7.15600 24.97600
C  43.65300 7.66900 26.36600
C  42.78800 4.78600 24.49100
C  43.61100 8.31300 23.92900
C  44.73500 8.25100 22.83500
N  43.88000 8.66000 29.23800
C  44.79400 8.98200 28.24600
C  45.82300 9.81900 28.80800
C  45.56500 9.98000 30.17000
C  44.30800 9.29100 30.37300
C  47.02100 10.23400 28.06700
C  46.06100 10.53800 31.42800
O  47.08700 11.07700 31.73900
C  44.92100 10.13400 32.43800
C  45.47600 9.51200 33.60700
O  45.78700 8.34200 33.79400
O  45.72800 10.49300 34.56100
C  46.47100 10.03900 35.77700
H  39.09600 6.23400 32.19700
H  40.11700 5.27900 25.86700
H  45.38300 8.85700 26.17800
H  43.25500 7.98600 34.21100
H  40.29000 8.11800 33.71900
H  40.89900 5.37400 33.71700
H  40.10700 6.35600 35.04300
H  41.84300 6.13900 35.02400
H  41.76400 10.61700 33.84700
H  43.15200 10.26000 34.77500
H  40.94000 8.75100 35.87200
H  40.46700 10.39300 35.54600
H  36.92200 4.07400 30.65500
H  36.17300 5.56300 30.36000
H  37.40700 5.34500 31.58700
H  35.94400 3.27900 26.99700
H  35.60600 4.34200 28.31000
H  36.87700 3.05600 28.52400
H  41.58700 6.47200 24.34800
H  44.57200 6.62100 24.71800
H  43.66500 4.70000 23.85100
H  41.91500 4.38800 23.97200
H  42.96000 4.19600 25.39200
H  43.72600 9.27900 24.42000
H  42.64100 8.43800 23.44900
H  45.66500 8.38400 23.38600
H  44.61100 9.02800 22.08100
H  44.72800 7.23600 22.43600
H  46.69700 10.65500 27.11500
H  47.69400 9.39900 27.87000
H  47.48600 11.06300 28.59900
H  44.24000 10.94100 32.71000
H  47.24900 9.29600 35.60500
H  45.82300 9.49800 36.46600
H  46.82800 10.91100 36.32500

