158

Mg 8.24400 3.97600 27.83200
C  9.46300 2.61000 30.76100
C  6.40300 6.18100 29.66300
C  6.85500 4.94800 24.95500
C  9.66700 1.16800 26.12800
N  7.84700 4.17700 30.06600
C  8.63200 3.70000 31.06800
C  8.44700 4.44200 32.39400
C  7.29800 5.48200 32.00200
C  7.19800 5.32500 30.45700
C  5.95300 5.39400 32.75200
C  9.73200 5.09600 33.06900
C  10.22300 4.51000 34.43200
H  10.49100 5.52500 35.62800
N  6.77800 5.37300 27.40900
C  6.18900 6.24300 28.33100
C  5.23400 7.14700 27.51200
C  5.43700 6.81500 26.14700
C  6.39500 5.65600 26.07700
C  4.25100 8.12600 28.08400
C  4.78500 7.48400 24.91500
O  4.92200 7.04700 23.77600
C  4.07500 8.82100 24.96100
N  8.09800 3.08900 25.95500
C  7.60900 3.79900 24.86900
C  8.01100 3.13000 23.55700
C  8.63300 1.81600 23.97000
C  8.77000 1.97200 25.46200
C  6.80500 2.95900 22.60900
C  9.88800 1.52100 23.11100
C  9.74400 0.84000 21.73800
N  9.48700 2.30600 28.25700
C  10.03800 1.30500 27.49300
C  10.86100 0.43500 28.23700
C  10.67600 0.83200 29.58400
C  9.78900 1.99200 29.52100
C  11.37000 -0.89800 27.70400
C  10.89700 0.61300 31.01100
O  11.62300 -0.22600 31.51800
C  10.19200 1.83700 31.80500
C  9.38400 1.31400 32.90500
O  8.20400 1.01300 32.90800
O  10.13500 1.32600 34.04300
C  9.46600 0.89300 35.25400
H  5.88800 6.94200 30.25200
H  6.51600 5.34600 23.99600
H  10.05900 0.39900 25.46000
H  8.06900 3.70600 33.10400
H  7.60700 6.49900 32.24700
H  5.89200 6.12900 33.55400
H  5.65600 4.41000 33.11500
H  5.14600 5.69400 32.08400
H  9.42000 6.11300 33.30500
H  10.53700 4.91000 32.35800
H  11.20200 4.05800 34.27100
H  9.53500 3.80800 34.90300
H  4.32200 8.11900 29.17200
H  3.31300 7.78700 27.64400
H  4.40800 9.14100 27.71900
H  4.61300 9.62200 25.46700
H  3.16800 8.60000 25.52400
H  3.94500 9.25300 23.96900
H  8.64500 3.89900 23.11400
H  7.90000 1.02400 23.81900
H  5.88700 3.15100 23.16400
H  6.71200 1.94300 22.22600
H  6.98900 3.56600 21.72200
H  10.55100 0.83000 23.63200
H  10.50300 2.40300 22.93400
H  10.28600 -0.10200 21.65800
H  10.14200 1.49900 20.96600
H  8.69200 0.59800 21.58900
H  12.45600 -0.86300 27.61400
H  11.00500 -1.02500 26.68400
H  11.03000 -1.60700 28.45900
H  11.06300 2.36400 32.19400
H  8.94400 -0.05500 35.12700
H  8.77800 1.69200 35.53200
H  10.17200 0.80800 36.08000
Mg 54.56200 24.26200 43.79100
C  52.15300 26.58400 42.88800
C  52.57500 21.74600 42.73900
C  57.43500 22.27800 43.55800
C  56.72200 26.96700 44.43800
N  52.59400 24.20800 42.88400
C  51.75200 25.26300 42.63700
C  50.28700 24.77700 42.39500
C  50.43200 23.22900 42.64600
C  51.91800 22.99200 42.82600
C  49.53800 22.67900 43.78600
C  49.55000 25.25400 41.08100
C  50.43800 25.70600 39.89000
H  50.49400 24.97800 38.51800
N  54.89500 22.21000 43.33200
C  53.91700 21.35900 42.98000
C  54.46600 20.03500 42.75600
C  55.88100 20.12900 43.08200
C  56.14500 21.58600 43.35800
C  53.63200 18.79100 42.32000
C  56.74700 18.99800 43.30000
O  56.48100 17.87600 42.87400
C  58.05400 19.27800 44.04200
N  56.80700 24.58400 43.80000
C  57.66500 23.59200 43.84500
C  59.01200 24.08600 44.30600
C  58.83000 25.61300 44.56200
C  57.40700 25.74100 44.17700
C  59.76600 23.26500 45.41700
C  59.85700 26.45700 43.63200
C  59.15900 27.04100 42.36300
N  54.54900 26.36300 43.59200
C  55.41900 27.32100 44.11000
C  54.80400 28.49400 44.27400
C  53.53300 28.35800 43.73900
C  53.44100 26.99300 43.33000
C  55.38600 29.61900 44.87000
C  52.28700 28.94900 43.50300
O  51.92000 30.11000 43.63300
C  51.37900 27.88600 42.82600
C  51.01700 28.38600 41.52000
O  51.78300 28.62000 40.65200
O  49.67000 28.59200 41.41300
C  49.16200 29.15000 40.20400
H  51.98200 20.85900 42.50800
H  58.38400 21.74700 43.46200
H  57.33900 27.69000 44.97700
H  49.68100 25.23700 43.17500
H  50.14300 22.69700 41.74000
H  50.07700 22.67800 44.73400
H  49.41700 21.63100 43.51100
H  48.58900 23.21400 43.76200
H  48.84600 26.07000 41.23800
H  48.86800 24.47700 40.73500
H  51.48300 25.73700 40.19800
H  50.08400 26.72100 39.71100
H  54.21200 18.33400 41.51800
H  52.71200 19.20200 41.90500
H  53.37600 18.14300 43.15800
H  58.51200 18.41100 44.51800
H  57.89300 20.02700 44.81800
H  58.74700 19.74600 43.34300
H  59.65800 23.99200 43.43300
H  58.91200 25.91800 45.60600
H  59.94100 24.00900 46.19500
H  60.75500 22.90700 45.13300
H  59.19700 22.40200 45.76300
H  60.62600 25.85400 43.14800
H  60.29600 27.23800 44.25300
H  58.91800 28.10200 42.42300
H  58.18600 26.60000 42.14400
H  59.73400 26.78500 41.47300
H  54.89800 30.53400 44.53600
H  56.44000 29.61200 44.59300
H  55.26600 29.47800 45.94500
H  50.44900 27.79200 43.38700
H  49.80600 30.00700 40.00600
H  48.20200 29.63500 40.38300
H  49.13400 28.49800 39.33100

