158

Mg 46.42300 16.36900 28.78500
C  44.19500 15.97000 31.48600
C  48.52000 17.96800 30.83100
C  48.23800 17.19200 26.02000
C  43.82000 15.12100 26.60900
N  46.33600 16.72800 30.85400
C  45.37300 16.54800 31.80500
C  45.75900 17.10400 33.21200
C  47.07500 17.90200 32.90300
C  47.34600 17.51800 31.41700
C  47.22900 19.37300 33.42000
C  45.91500 15.88900 34.10100
C  45.48000 16.03000 35.61900
H  45.24600 17.46400 36.23900
N  48.14200 17.39300 28.46700
C  48.98500 17.90900 29.46900
C  50.12900 18.50000 28.85100
C  49.98500 18.38100 27.39500
C  48.77400 17.55800 27.26600
C  51.17000 19.35700 29.52300
C  50.83100 18.94800 26.21200
O  50.46300 18.97500 25.05400
C  52.13800 19.53800 26.56300
N  46.00100 16.33700 26.59900
C  46.97400 16.68700 25.67500
C  46.36100 16.56800 24.24300
C  45.14100 15.57300 24.41100
C  44.99900 15.60200 25.97900
C  46.11600 17.97300 23.55600
C  45.28500 14.03100 23.97400
C  44.34100 13.60000 22.93200
N  44.44400 15.64700 28.93000
C  43.58700 15.11400 28.04100
C  42.32200 14.75700 28.64800
C  42.54500 14.96900 30.07100
C  43.81600 15.59400 30.16700
C  41.02600 14.32900 27.94800
C  41.98400 14.99900 31.38500
O  40.87300 14.69800 31.73200
C  43.07600 15.49400 32.37100
C  42.45000 16.67700 32.94500
O  42.41500 17.76700 32.43600
O  42.06800 16.50500 34.20600
C  41.35700 17.65300 34.86200
H  49.09200 18.56700 31.54200
H  48.85900 17.34400 25.13500
H  43.06400 14.61600 26.00300
H  44.98900 17.77700 33.59200
H  47.84000 17.41100 33.50500
H  47.89500 19.41000 34.28300
H  46.26800 19.86800 33.56500
H  47.88100 19.85100 32.68900
H  46.97300 15.65900 34.22100
H  45.47300 14.99000 33.67000
H  46.25900 15.46000 36.12400
H  44.53000 15.50700 35.73100
H  52.00500 18.65700 29.54700
H  50.91800 19.64600 30.54400
H  51.36700 20.30700 29.02700
H  51.95500 20.43600 27.15400
H  52.62000 19.77300 25.61400
H  52.71700 18.75500 27.05300
H  47.17000 16.02900 23.74900
H  44.29700 16.09700 23.96200
H  46.61400 18.81500 24.03800
H  45.04400 18.16500 23.58800
H  46.37600 17.94000 22.49800
H  45.18400 13.29600 24.77300
H  46.33300 13.94600 23.68800
H  43.70700 12.78400 23.27800
H  44.84000 13.11000 22.09600
H  43.65900 14.36300 22.55800
H  40.73600 15.10000 27.23500
H  40.20000 14.30500 28.65900
H  41.08600 13.31100 27.56300
H  43.28300 14.71500 33.10500
H  40.39300 17.82600 34.38300
H  41.83800 18.63000 34.82000
H  41.10900 17.36700 35.88400
Mg 48.36500 34.51300 27.67000
C  46.38200 33.19200 30.19000
C  48.62000 37.46400 29.56100
C  49.55300 36.11700 24.97100
C  47.27300 31.84500 25.63300
N  47.71000 35.14200 29.66400
C  46.94300 34.43900 30.50300
C  47.04100 35.10300 31.95100
C  47.27300 36.58500 31.53300
C  47.94000 36.40000 30.17600
C  46.07900 37.59100 31.48700
C  48.26400 34.45800 32.67400
C  48.52900 34.98000 34.10700
H  47.64600 36.01100 34.78500
N  49.26200 36.50400 27.33000
C  49.24200 37.52600 28.24500
C  49.82600 38.64000 27.63300
C  50.16900 38.39100 26.25000
C  49.68800 36.94300 26.11400
C  49.95100 39.93700 28.40900
C  50.63000 39.25600 25.16500
O  50.72400 38.86400 24.02600
C  50.76300 40.72500 25.46300
N  48.35200 34.05100 25.61700
C  48.91300 34.88500 24.72800
C  48.95300 34.30500 23.30500
C  48.24800 32.94400 23.55200
C  47.84800 32.92800 25.03600
C  48.27300 35.17700 22.09400
C  49.08500 31.67700 23.04800
C  50.22700 31.06500 24.00500
N  47.19300 32.76000 27.87300
C  46.94300 31.70500 26.99700
C  46.16400 30.71200 27.72900
C  45.87600 31.30800 28.95700
C  46.52900 32.50600 28.99100
C  45.75600 29.28200 27.24700
C  45.17600 31.09000 30.18100
O  44.54000 30.10800 30.54200
C  45.42300 32.39100 31.05700
C  45.77600 31.95600 32.45800
O  46.75800 31.24000 32.79200
O  44.79700 32.47200 33.28800
C  44.96400 32.21900 34.71100
H  48.45900 38.41500 30.07200
H  49.74800 36.59000 24.00600
H  47.10000 30.97800 24.99200
H  46.23700 34.90300 32.65900
H  48.09800 37.02200 32.09600
H  45.15800 37.06700 31.23200
H  46.22100 38.26900 30.64500
H  46.02100 38.21200 32.38100
H  49.06200 34.59200 31.94500
H  48.21200 33.37000 32.66400
H  49.56800 35.31000 34.14900
H  48.47600 34.08400 34.72500
H  50.86700 40.44300 28.10200
H  50.12700 39.69900 29.45900
H  49.08800 40.58900 28.28200
H  50.03200 41.06800 26.19500
H  50.69800 41.37600 24.59100
H  51.74000 40.86600 25.92500
H  50.04200 34.29400 23.27100
H  47.30600 32.93200 23.00300
H  48.99300 35.38400 21.30300
H  47.98600 36.12400 22.55200
H  47.42800 34.61500 21.69700
H  49.40400 32.05400 22.07600
H  48.28000 30.94800 22.96300
H  49.65700 30.27800 24.49800
H  50.49900 31.86200 24.69700
H  51.10600 30.61300 23.54400
H  45.31200 28.84300 28.14000
H  46.64400 28.75900 26.89400
H  44.96100 29.48700 26.53000
H  44.47300 32.91500 31.16100
H  45.94400 31.87000 35.03600
H  44.29600 31.44100 35.08100
H  44.64100 33.05900 35.32600

