158

Mg -1.85500 17.41700 26.03600
C  -2.60500 15.14300 28.73400
C  -2.63900 19.96800 28.15900
C  -1.64500 19.38100 23.34800
C  -1.40400 14.60400 23.99100
N  -2.50900 17.50600 28.25600
C  -2.77300 16.46700 29.06600
C  -2.91000 17.05000 30.50000
C  -3.39100 18.54800 30.23300
C  -2.85500 18.71200 28.79700
C  -4.93400 18.63900 30.41700
C  -1.56500 17.08200 31.31000
C  -1.73000 17.48500 32.78000
H  -1.81300 16.38500 33.81900
N  -2.01800 19.40500 25.82100
C  -2.25200 20.31000 26.83100
C  -2.14200 21.70100 26.22700
C  -1.73900 21.52700 24.85900
C  -1.84000 20.06900 24.60800
C  -2.35000 23.01000 27.06700
C  -1.24900 22.51400 23.83300
O  -1.06300 22.25900 22.65900
C  -0.76200 23.86700 24.18600
N  -1.72200 17.01500 23.81600
C  -1.51700 18.04800 22.98600
C  -1.23500 17.55000 21.56600
C  -1.05500 16.00700 21.85500
C  -1.41900 15.82100 23.28600
C  -2.34100 17.85300 20.59100
C  0.38400 15.40100 21.57300
C  1.47600 16.01500 22.47700
N  -1.95600 15.36800 26.27000
C  -1.67700 14.39400 25.35900
C  -1.75500 13.05700 25.96100
C  -2.03600 13.30300 27.30500
C  -2.18700 14.71900 27.48100
C  -1.57700 11.74600 25.18000
C  -2.29600 12.65700 28.52700
O  -2.31100 11.47100 28.87200
C  -2.66600 13.82200 29.55200
C  -1.70800 13.59000 30.67200
O  -0.50900 14.01200 30.65600
O  -2.20700 12.78500 31.66500
C  -1.19800 12.26100 32.58300
H  -2.81800 20.79500 28.85000
H  -1.39500 19.90800 22.42400
H  -1.18600 13.75000 23.34600
H  -3.56500 16.46500 31.14500
H  -2.95300 19.24700 30.94600
H  -5.14200 19.52700 31.01500
H  -5.41700 17.75700 30.83700
H  -5.33100 18.83600 29.42100
H  -1.07700 17.92900 30.82700
H  -0.93200 16.20300 31.19200
H  -2.58400 18.15300 32.89000
H  -0.80300 17.99900 33.03200
H  -2.73600 22.93000 28.08300
H  -2.99400 23.50500 26.34000
H  -1.50400 23.68700 27.19000
H  -1.29200 24.39900 24.97600
H  -0.76300 24.62300 23.40000
H  0.22900 23.65500 24.58800
H  -0.30200 17.99400 21.21900
H  -1.69000 15.50600 21.12400
H  -2.99100 17.01000 20.35600
H  -2.01400 18.18000 19.60400
H  -3.05800 18.59900 20.93400
H  0.74200 15.48400 20.54700
H  0.24400 14.34800 21.81800
H  1.01000 16.78600 23.09000
H  2.22100 16.52700 21.86800
H  1.97000 15.22900 23.04800
H  -1.41700 10.92100 25.87300
H  -0.83300 11.75100 24.38400
H  -2.57500 11.66600 24.74700
H  -3.67100 13.58000 29.89900
H  -0.47000 12.97400 32.96900
H  -0.63200 11.39800 32.22900
H  -1.83800 11.84200 33.36000
Mg -10.43600 39.73400 41.60900
C  -9.55600 36.54700 40.63700
C  -7.33900 40.89100 40.38100
C  -11.45500 42.88200 41.95600
C  -13.62900 38.63500 42.35000
N  -8.64800 38.81700 40.60700
C  -8.52300 37.43300 40.30800
C  -7.14100 37.10000 39.69200
C  -6.52200 38.48000 39.68000
C  -7.55900 39.44900 40.25800
C  -5.05200 38.64400 40.12900
C  -7.11500 36.36000 38.35100
C  -5.96500 35.48000 37.94600
H  -4.95600 36.01800 36.88500
N  -9.44400 41.63300 41.31300
C  -8.22000 41.91200 40.82900
C  -8.02900 43.32800 40.87300
C  -9.17300 43.93100 41.29400
C  -10.10500 42.77800 41.57400
C  -6.68000 43.91700 40.43800
C  -9.49400 45.37000 41.44100
O  -8.62800 46.21700 41.30300
C  -10.78100 46.06700 41.76600
N  -12.36700 40.59900 41.77000
C  -12.46800 41.94500 42.02400
C  -13.94100 42.37700 42.30200
C  -14.64600 40.98800 42.49900
C  -13.52200 39.99700 42.18500
C  -14.21800 43.43200 43.35800
C  -15.95900 40.66200 41.64000
C  -17.23800 40.54300 42.44100
N  -11.32900 37.96000 41.72300
C  -12.62400 37.65400 42.08400
C  -12.81100 36.16600 42.02500
C  -11.62300 35.74800 41.43100
C  -10.78100 36.83300 41.31700
C  -14.06300 35.35400 42.26500
C  -10.92000 34.54000 40.93800
O  -11.28000 33.41900 40.95200
C  -9.53800 35.06600 40.41500
C  -8.42600 34.28300 41.08900
O  -7.98600 34.42500 42.24500
O  -7.99800 33.33000 40.26000
C  -7.16300 32.21100 40.65800
H  -6.32500 41.08300 40.02400
H  -11.72200 43.86800 42.34300
H  -14.56000 38.22400 42.74600
H  -6.63300 36.48900 40.43800
H  -6.36300 38.82100 38.65700
H  -4.58600 39.31500 39.40700
H  -4.54200 37.68400 40.21100
H  -5.03000 39.06200 41.13600
H  -7.11500 37.17400 37.62500
H  -8.08000 35.88300 38.18000
H  -6.28500 34.50900 37.56900
H  -5.42600 35.16700 38.84100
H  -5.88100 43.22500 40.70400
H  -6.27400 44.82900 40.87600
H  -6.61900 44.08600 39.36300
H  -11.52500 45.66200 41.08000
H  -10.76100 47.14700 41.62000
H  -11.05500 45.89900 42.80700
H  -14.37500 42.80000 41.39600
H  -14.82900 40.91000 43.57000
H  -14.65400 42.96700 44.24200
H  -14.89700 44.20900 43.00700
H  -13.38400 43.93700 43.84500
H  -15.73200 39.71000 41.16000
H  -15.94800 41.45100 40.88700
H  -18.02300 41.09300 41.92300
H  -17.06600 40.92800 43.44600
H  -17.55000 39.50100 42.51100
H  -14.68200 35.43100 41.37100
H  -14.55000 35.72800 43.16600
H  -13.87900 34.29200 42.42600
H  -9.64700 34.75800 39.37500
H  -7.65100 31.27400 40.38800
H  -6.86300 32.27900 41.70300
H  -6.25500 32.28800 40.05900

