158

Mg 17.19900 52.45800 25.64600
C  18.80600 51.04800 28.21400
C  14.50900 53.14500 27.66800
C  15.48900 53.78100 22.98800
C  19.83000 51.61000 23.53100
N  16.69900 51.97500 27.71500
C  17.60700 51.61400 28.63200
C  17.03000 51.93000 29.98800
C  15.53400 52.09200 29.79600
C  15.53400 52.37900 28.25800
C  14.71000 50.76800 30.09500
C  17.69200 53.15000 30.56000
C  18.32100 53.16900 31.98200
H  17.63000 52.34900 33.08800
N  15.21100 53.25700 25.42200
C  14.32300 53.53500 26.37700
C  13.23700 54.33400 25.82600
C  13.38300 54.34200 24.40700
C  14.76900 53.77400 24.21100
C  12.27500 55.11500 26.65800
C  12.35200 54.87300 23.34500
O  12.62100 54.88500 22.16800
C  10.92900 55.34400 23.75300
N  17.51800 52.53300 23.46900
C  16.72500 53.25100 22.65700
C  17.38400 53.41500 21.29900
C  18.76400 52.72800 21.44600
C  18.73600 52.25900 22.90400
C  16.49600 52.92900 20.06400
C  19.93200 53.61000 21.08100
C  21.08500 52.93100 20.40500
N  18.84600 51.24900 25.71700
C  19.84900 51.06100 24.82400
C  20.84500 50.18200 25.50100
C  20.45600 50.09300 26.83900
C  19.29700 50.91200 26.92500
C  22.11700 49.60400 24.84200
C  20.80900 49.73500 28.21700
O  21.79900 49.13500 28.56600
C  19.84300 50.46600 29.13700
C  19.22500 49.49000 30.09900
O  18.34900 48.66700 29.93800
O  19.86500 49.58200 31.34800
C  19.58600 48.54400 32.32800
H  13.75700 53.41700 28.41200
H  15.02400 54.37900 22.20100
H  20.70500 51.50900 22.88600
H  17.25900 51.11600 30.67600
H  15.09500 52.89300 30.39100
H  13.96600 50.89700 30.88100
H  15.25100 49.86100 30.36300
H  14.22700 50.52400 29.14900
H  16.93300 53.91000 30.74700
H  18.43000 53.68400 29.96300
H  18.36700 54.22900 32.23100
H  19.37800 52.90900 32.02500
H  11.29600 54.63700 26.69400
H  12.00300 56.09100 26.25600
H  12.61100 55.26100 27.68500
H  10.44300 54.38900 23.95100
H  10.55300 55.70400 22.79500
H  10.88000 56.06700 24.56700
H  17.56000 54.48300 21.17600
H  18.78300 51.82800 20.83100
H  16.15200 51.92300 20.30600
H  17.09200 52.94500 19.15200
H  15.61100 53.56600 20.07200
H  20.30700 54.25500 21.87500
H  19.56800 54.33400 20.35300
H  20.84800 51.89000 20.18500
H  21.94600 52.99900 21.07000
H  21.51700 53.44700 19.54700
H  22.54300 50.36700 24.19000
H  21.70800 48.76000 24.28700
H  22.71300 49.28100 25.69600
H  20.42500 51.18600 29.71300
H  19.66600 48.83100 33.37600
H  20.31600 47.73900 32.25000
H  18.53300 48.27300 32.24600
Mg -0.85500 33.66500 27.25800
C  -2.76200 32.14600 29.86800
C  0.60500 35.65700 29.64200
C  0.63600 35.42300 24.69700
C  -2.86700 31.97300 24.99600
N  -1.29700 33.99400 29.53800
C  -1.89300 33.16300 30.38900
C  -1.53100 33.54400 31.86100
C  -0.76400 34.87400 31.71500
C  -0.42800 34.91600 30.19000
C  -1.47200 36.19600 32.11300
C  -0.82800 32.41700 32.62800
C  -0.38400 32.69700 34.08800
H  -1.25100 31.97100 35.21100
N  0.49800 35.24300 27.22400
C  1.06100 35.89100 28.31400
C  2.07400 36.88900 27.86900
C  1.98400 36.87100 26.43400
C  1.01600 35.79400 26.02100
C  2.89300 37.75500 28.74100
C  2.61100 37.81200 25.43300
O  2.37700 37.72100 24.21700
C  3.52200 38.96800 25.88100
N  -1.15900 33.70800 25.15500
C  -0.34900 34.49700 24.29500
C  -0.71700 34.17100 22.82100
C  -1.74400 33.00100 22.98400
C  -2.01000 32.94500 24.48100
C  -1.22400 35.39400 22.07900
C  -1.23000 31.68400 22.41500
C  -0.00300 31.00600 22.90100
N  -2.38200 32.23300 27.35700
C  -3.20400 31.75000 26.36300
C  -4.13700 30.84300 26.88000
C  -3.95300 30.93400 28.28900
C  -2.95100 31.87500 28.53000
C  -5.16700 30.04700 26.09000
C  -4.31200 30.34500 29.58200
O  -5.07400 29.41300 29.79900
C  -3.59800 31.15200 30.69000
C  -4.66200 31.74500 31.54400
O  -5.56100 32.41200 31.10600
O  -4.42100 31.53300 32.88600
C  -5.37800 32.14700 33.78900
H  1.17100 36.25100 30.36300
H  1.15400 35.85100 23.83600
H  -3.56300 31.51500 24.29100
H  -2.46800 33.77400 32.36900
H  0.16000 34.81600 32.29000
H  -1.91500 36.64100 31.22200
H  -0.75100 36.91000 32.51300
H  -2.24400 36.00200 32.85800
H  0.11900 32.17100 32.14700
H  -1.45700 31.53100 32.54600
H  -0.49200 33.75800 34.31700
H  0.62700 32.38700 34.35500
H  3.92600 37.83300 28.40500
H  2.89100 37.38300 29.76600
H  2.49900 38.76800 28.66300
H  3.66700 39.65900 25.05100
H  4.47300 38.61700 26.28200
H  3.12600 39.53400 26.72400
H  0.11300 33.66900 22.32500
H  -2.71100 33.16800 22.51100
H  -0.92200 36.35800 22.48900
H  -2.30800 35.49200 22.14100
H  -0.86900 35.38600 21.04800
H  -1.02800 31.90500 21.36700
H  -2.09100 31.01700 22.45100
H  0.18200 31.47500 23.86700
H  0.87800 30.95200 22.26200
H  -0.48700 30.07600 23.19600
H  -4.63800 29.33500 25.45700
H  -5.59900 30.92200 25.60600
H  -5.80800 29.63100 26.86700
H  -3.02100 30.38400 31.20600
H  -4.85500 32.88900 34.39200
H  -5.71300 31.52800 34.62100
H  -6.26400 32.63100 33.37700

