158

Mg 47.52500 16.15700 28.90600
C  45.67100 15.59400 31.82400
C  49.60100 18.25200 30.74700
C  49.35000 16.80100 26.12300
C  45.13800 14.60300 27.07200
N  47.50700 16.88300 31.05200
C  46.75300 16.46000 32.05700
C  47.33600 16.82000 33.45400
C  48.37100 17.89500 32.99100
C  48.54300 17.60800 31.49400
C  48.15400 19.41100 33.18500
C  47.86900 15.51000 34.18800
C  47.78500 15.53700 35.71400
H  47.39700 16.91100 36.40400
N  49.32200 17.30800 28.50100
C  50.00600 18.05300 29.40500
C  51.19800 18.47800 28.72900
C  51.09800 18.23000 27.35600
C  49.90700 17.45100 27.24800
C  52.28400 19.20300 29.54200
C  52.13100 18.55400 26.14400
O  51.98700 18.22100 24.99500
C  53.44500 19.22600 26.54500
N  47.30400 15.75900 26.93100
C  48.19600 16.08500 26.00100
C  47.65000 15.74400 24.57500
C  46.43400 14.87000 24.94300
C  46.22300 15.17200 26.38200
C  47.27000 16.98000 23.67200
C  46.51800 13.37400 24.48100
C  45.73900 13.09600 23.11600
N  45.79700 15.19000 29.29900
C  44.89000 14.62100 28.47300
C  43.88800 13.97600 29.22500
C  44.18200 14.27300 30.57600
C  45.33300 15.06300 30.59300
C  42.65000 13.13300 28.74700
C  43.68000 14.08600 31.93000
O  42.66500 13.56000 32.37400
C  44.66400 15.02500 32.80500
C  43.96800 16.15800 33.49100
O  43.75200 17.30800 33.13900
O  43.67000 15.70300 34.76300
C  43.23800 16.73000 35.77200
H  50.29200 18.86000 31.33400
H  49.81700 16.80000 25.13600
H  44.48100 13.95600 26.48700
H  46.41900 17.20500 33.89800
H  49.31400 17.69700 33.50100
H  49.00300 19.92200 33.63900
H  47.28400 19.60300 33.81300
H  47.96400 19.84000 32.20100
H  48.86600 15.30200 33.80000
H  47.19000 14.70400 33.91200
H  48.75600 15.19300 36.06800
H  47.01200 14.85500 36.07000
H  52.99600 19.72200 28.90000
H  52.93100 18.47800 30.03700
H  51.89900 19.96200 30.22300
H  53.94700 18.70500 27.36100
H  53.25500 20.25900 26.83700
H  54.05400 19.35100 25.65000
H  48.41700 15.11700 24.12100
H  45.52900 15.28400 24.49800
H  47.55600 17.85200 24.26100
H  46.22100 16.99400 23.37500
H  47.84900 16.87500 22.75500
H  46.25500 12.72800 25.31900
H  47.54700 13.14300 24.20800
H  45.26100 12.14300 23.34200
H  46.39000 12.90800 22.26200
H  44.88600 13.71100 22.82900
H  42.83800 12.72700 27.75300
H  41.69300 13.65400 28.77200
H  42.57700 12.34900 29.50100
H  45.10500 14.49100 33.64600
H  43.54600 16.41200 36.76800
H  42.15300 16.80900 35.83800
H  43.72100 17.69900 35.64500
Mg 8.44900 48.05000 26.22100
C  6.61700 47.91900 29.17800
C  11.21600 48.90700 28.04800
C  10.23000 48.14600 23.34500
C  5.59600 47.29400 24.46900
N  8.84400 48.39600 28.42200
C  7.94900 48.23000 29.44100
C  8.66700 48.39100 30.82200
C  9.98400 48.99300 30.36400
C  10.02800 48.75200 28.86200
C  10.20100 50.40200 30.90900
C  8.75200 46.97000 31.64900
C  9.50600 47.12200 32.91200
H  8.76100 47.35600 34.19900
N  10.42200 48.37100 25.72800
C  11.42900 48.63500 26.65700
C  12.69800 48.74600 25.92100
C  12.48800 48.39700 24.59500
C  10.99400 48.29100 24.53700
C  13.93100 49.07800 26.60600
C  13.43200 48.21700 23.55000
O  13.04000 48.01400 22.40700
C  14.94200 48.29700 23.81000
N  7.94000 48.01100 24.15200
C  8.90000 48.02300 23.13200
C  8.23800 47.70300 21.81400
C  6.80300 47.28600 22.15300
C  6.75000 47.56000 23.71700
C  8.27400 48.76800 20.71800
C  6.53800 45.83800 21.73200
C  7.19200 44.77000 22.63900
N  6.51700 47.70000 26.64500
C  5.48200 47.37900 25.84300
C  4.30600 47.12000 26.62600
C  4.69800 47.40700 27.96100
C  6.02400 47.72400 27.95900
C  2.89900 46.84200 26.17300
C  4.24200 47.55700 29.25900
O  3.12000 47.49200 29.75800
C  5.49300 47.69100 30.15300
C  5.55600 46.41600 30.91600
O  5.76400 45.32900 30.40600
O  5.24000 46.62300 32.23800
C  5.00400 45.41400 33.08200
H  12.14000 49.14900 28.57700
H  10.80100 47.93300 22.43900
H  4.68700 47.07000 23.90700
H  8.11500 49.07000 31.47100
H  10.79000 48.37400 30.75700
H  10.53600 51.05900 30.10700
H  10.90800 50.29500 31.73100
H  9.24900 50.80000 31.25900
H  9.26200 46.24300 31.01700
H  7.72100 46.64500 31.78600
H  10.25800 47.91100 32.88300
H  10.21400 46.29300 32.93900
H  14.66700 48.27300 26.59800
H  13.82200 49.42500 27.63400
H  14.42700 49.90700 26.10100
H  15.14600 47.56700 24.59300
H  15.30000 49.31500 23.96600
H  15.46600 47.73800 23.03500
H  8.81600 46.85600 21.44500
H  6.14000 47.96600 21.61800
H  8.02800 49.75000 21.12200
H  7.44200 48.45000 20.09000
H  9.22800 48.67700 20.19800
H  6.97800 45.81900 20.73500
H  5.46900 45.76700 21.52900
H  6.43000 44.17900 23.14700
H  7.79200 45.25700 23.40900
H  7.90600 44.12900 22.12100
H  2.83900 46.49500 25.14100
H  2.26900 47.72900 26.25200
H  2.39600 46.05900 26.74000
H  5.45700 48.47700 30.90700
H  4.26100 44.74500 32.64700
H  4.59000 45.65900 34.06000
H  5.97900 44.96600 33.26800

