158

Mg 17.41800 -0.93500 27.92900
C  16.34400 0.92200 30.63300
C  19.37800 -2.67100 30.16700
C  18.93000 -2.35700 25.29200
C  15.44300 1.00700 25.82400
N  18.05400 -0.70700 30.18800
C  17.43500 0.07600 31.05600
C  17.85600 -0.28400 32.51800
C  19.01200 -1.34300 32.33800
C  18.82400 -1.58500 30.80200
C  20.40500 -0.73400 32.70700
C  16.65800 -0.79500 33.39400
C  16.55500 -0.18300 34.80000
H  17.79000 0.39300 35.46600
N  18.87900 -2.38200 27.78100
C  19.48800 -3.04200 28.81100
C  20.17700 -4.23100 28.24800
C  20.13300 -4.11600 26.80100
C  19.27300 -2.91300 26.55300
C  20.86200 -5.27800 29.20300
C  20.76200 -4.97300 25.71700
O  20.47500 -4.85500 24.55100
C  21.65700 -6.11800 26.07400
N  17.30600 -0.65300 25.89400
C  18.08000 -1.31800 24.98800
C  17.70800 -0.95000 23.61200
C  16.45200 -0.01100 23.75700
C  16.38900 0.16600 25.31700
C  18.90100 -0.33300 22.86100
C  15.06400 -0.44300 23.18200
C  14.47700 0.22100 21.94500
N  16.18700 0.62800 28.13500
C  15.34900 1.26700 27.24400
C  14.52400 2.30900 27.90000
C  14.86000 2.13100 29.22200
C  15.94400 1.16400 29.34400
C  13.60700 3.23300 27.20200
C  14.53600 2.64100 30.47900
O  13.69000 3.43900 30.81300
C  15.48400 1.90800 31.49000
C  16.25700 2.89000 32.21700
O  17.10400 3.56600 31.64100
O  16.03000 2.90700 33.56900
C  16.51200 4.10000 34.30300
H  20.02500 -3.19500 30.87300
H  19.32100 -2.96300 24.47100
H  14.81100 1.59200 25.15300
H  18.38000 0.54800 32.98900
H  18.82800 -2.25300 32.90800
H  21.19200 -1.20400 32.11800
H  20.56800 -0.94800 33.76300
H  20.50700 0.33600 32.52500
H  16.81700 -1.86600 33.52100
H  15.74500 -0.62200 32.82500
H  16.40900 -1.00900 35.49600
H  15.74800 0.54700 34.85900
H  21.86500 -5.45700 28.81700
H  20.35200 -6.23500 29.31900
H  20.86000 -4.88400 30.21900
H  22.64300 -5.71700 26.31100
H  21.63900 -6.73800 25.17800
H  21.33000 -6.71000 26.92900
H  17.53900 -1.84700 23.01700
H  16.70500 0.98800 23.40300
H  19.79900 -0.27000 23.47600
H  18.67500 0.66400 22.48300
H  19.08000 -1.03900 22.05000
H  14.27900 -0.42200 23.93800
H  15.13700 -1.51100 22.97900
H  13.53300 0.65400 22.27700
H  14.24200 -0.45000 21.11900
H  15.12700 1.00200 21.55000
H  12.61300 2.80600 27.06400
H  13.96100 3.70300 26.28500
H  13.54200 3.92900 28.03800
H  14.71000 1.53400 32.16000
H  17.45800 3.82900 34.77000
H  15.78000 4.34800 35.07200
H  16.55300 4.96300 33.63900
Mg 48.44900 34.60200 26.65100
C  46.59500 32.94500 29.15500
C  49.09600 37.08700 28.75300
C  49.92000 36.16700 24.04300
C  47.68000 31.85300 24.56100
N  47.84200 34.95500 28.69200
C  47.13000 34.19200 29.52800
C  47.31500 34.62200 30.86600
C  47.79500 36.10100 30.70200
C  48.32200 36.03600 29.28400
C  46.82300 37.27000 30.83600
C  48.41200 33.76700 31.56700
C  48.32500 33.85600 33.15000
H  47.52300 34.92100 33.88600
N  49.48800 36.38100 26.43700
C  49.62200 37.28200 27.45600
C  50.39800 38.39900 26.98600
C  50.61600 38.19800 25.54600
C  50.00300 36.87200 25.25300
C  50.74200 39.59500 27.91500
C  51.11500 39.15400 24.42900
O  50.91200 38.96100 23.23500
C  51.63700 40.61900 24.84200
N  48.71100 34.14500 24.53900
C  49.47900 34.86400 23.74600
C  49.53800 34.22700 22.31000
C  48.87800 32.82500 22.44300
C  48.43200 32.90400 23.96400
C  48.93000 35.09200 21.11700
C  49.85400 31.61500 22.25000
C  49.14700 30.31700 21.79300
N  47.47100 32.78000 26.80500
C  47.24100 31.77800 25.84700
C  46.45400 30.70400 26.41900
C  46.16900 31.16200 27.69900
C  46.78800 32.39800 27.87600
C  45.97100 29.51900 25.70200
C  45.35200 30.81300 28.88500
O  44.58300 29.86100 29.12900
C  45.51000 32.03700 29.81400
C  45.74800 31.60100 31.20300
O  46.58100 30.82100 31.59800
O  44.73600 32.05900 31.92800
C  44.68000 31.64500 33.35900
H  49.26900 37.83800 29.52600
H  50.35100 36.63700 23.15700
H  47.58200 30.93600 23.97600
H  46.34200 34.57300 31.35400
H  48.70200 36.34700 31.25400
H  45.97000 37.00500 31.46000
H  46.48400 37.63000 29.86400
H  47.34000 38.01800 31.43700
H  49.39600 34.21800 31.44000
H  48.32700 32.69000 31.42000
H  49.38200 33.83700 33.41600
H  47.83300 32.93000 33.44600
H  51.80500 39.82300 27.84000
H  50.47500 39.37000 28.94800
H  50.24400 40.47200 27.50100
H  51.38600 41.36200 24.08500
H  52.70000 40.56300 25.07700
H  51.21200 40.96000 25.78500
H  50.60200 34.08900 22.11800
H  48.01800 32.63500 21.80000
H  49.65600 35.27400 20.32400
H  48.47400 35.98500 21.54200
H  48.10600 34.50100 20.71800
H  50.35500 31.41900 23.19800
H  50.54500 31.96200 21.48200
H  49.41100 30.03300 20.77400
H  48.06300 30.42000 21.76300
H  49.33700 29.54100 22.53500
H  46.30900 28.58900 26.15900
H  46.16400 29.56200 24.63000
H  44.88700 29.53500 25.82000
H  44.63700 32.68800 29.79000
H  45.22100 32.46200 33.83700
H  45.20200 30.73200 33.65000
H  43.62400 31.58700 33.62100

