158

Mg 45.31700 4.55000 47.24600
C  43.63100 7.56700 46.43600
C  42.45200 2.92400 46.10900
C  47.03900 1.71000 47.36900
C  48.22500 6.38600 47.65600
N  43.28900 5.19400 46.23600
C  42.80900 6.45100 46.14400
C  41.34100 6.52500 45.68400
C  40.98100 5.02200 45.68400
C  42.33400 4.33100 46.00400
C  39.85400 4.65000 46.69600
C  41.11800 7.05400 44.24600
C  40.08300 8.16200 44.10100
H  39.37900 8.03100 42.73600
N  44.77200 2.56000 46.95500
C  43.56500 2.08400 46.43400
C  43.61400 0.63000 46.32600
C  44.96600 0.28600 46.73900
C  45.66800 1.50400 47.01500
C  42.50700 -0.23800 45.90300
C  45.51300 -1.13800 46.76700
O  44.75600 -2.03400 46.28000
C  46.83500 -1.61900 47.30700
N  47.37400 4.12800 47.42200
C  47.81900 2.91700 47.42500
C  49.37700 2.88000 47.73000
C  49.76600 4.34600 47.63000
C  48.33500 5.01800 47.60700
C  49.75200 2.11500 48.97000
C  50.51300 4.76100 46.39000
C  51.80000 5.43800 46.73900
N  45.90900 6.63300 47.16500
C  47.08200 7.22400 47.42100
C  46.91500 8.67600 47.32400
C  45.54000 8.82100 46.95000
C  44.98900 7.56100 46.83700
C  47.95400 9.69500 47.43300
C  44.46600 9.79800 46.64600
O  44.50000 11.00300 46.57000
C  43.18600 8.97700 46.46400
C  42.12900 9.09800 47.46500
O  41.74000 8.36000 48.35700
O  41.50300 10.37200 47.37900
C  40.18500 10.48200 47.97800
H  41.53500 2.36200 45.92400
H  47.56400 0.75500 47.30800
H  49.13700 6.93900 47.88900
H  40.65000 6.96700 46.40200
H  40.58700 4.74300 44.70700
H  40.26800 4.00200 47.46800
H  39.04300 4.08900 46.23100
H  39.30300 5.51700 47.05900
H  40.90400 6.30300 43.48600
H  42.02800 7.55700 43.91900
H  40.60300 9.11700 44.16800
H  39.26300 8.00300 44.80200
H  42.61200 -0.36700 44.82600
H  41.53700 0.20200 46.13200
H  42.52300 -1.16500 46.47600
H  46.76700 -2.69400 47.47500
H  46.94500 -1.05700 48.23400
H  47.66700 -1.56100 46.60600
H  49.86900 2.30200 46.94800
H  50.23900 4.68200 48.55300
H  48.84600 1.99400 49.56200
H  50.51000 2.64700 49.54600
H  50.15100 1.11200 48.81400
H  49.89500 5.48000 45.85300
H  50.71100 3.84300 45.83600
H  52.53400 4.81300 47.24900
H  51.47800 6.35500 47.23300
H  52.33700 5.91000 45.91600
H  48.39900 9.81800 48.42000
H  47.49900 10.63400 47.11600
H  48.66100 9.40000 46.65700
H  42.66600 9.17700 45.52600
H  39.48100 11.12300 47.44900
H  40.40300 10.99600 48.91400
H  39.71100 9.52200 48.18400
Mg 16.54400 51.34800 26.23800
C  18.51200 49.74900 28.79400
C  14.30000 52.01700 28.74000
C  14.74300 52.61600 23.91600
C  18.82500 49.91000 23.95100
N  16.45400 50.90400 28.47700
C  17.41400 50.33300 29.30100
C  17.10400 50.66800 30.79400
C  15.61000 51.19400 30.73200
C  15.37800 51.33400 29.18100
C  14.48300 50.35400 31.40300
C  18.04700 51.72900 31.42800
C  18.74400 51.37800 32.73600
H  18.12100 52.01200 33.92000
N  14.68600 52.21500 26.29000
C  13.98100 52.51600 27.43900
C  12.91500 53.43600 26.95200
C  12.96900 53.55000 25.52100
C  14.11700 52.70800 25.18000
C  11.94700 54.07600 27.83100
C  12.16100 54.34000 24.51100
O  12.41700 54.46600 23.32900
C  10.91700 55.05500 25.07000
N  16.76900 51.26500 24.27000
C  15.88800 51.92900 23.51800
C  16.25100 51.81700 22.02900
C  17.54900 50.96900 22.01700
C  17.78800 50.70400 23.46600
C  15.15400 51.19400 21.19400
C  18.71500 51.65600 21.19200
C  19.61500 52.70200 21.95200
N  18.22200 49.99800 26.26500
C  19.06600 49.54800 25.28400
C  20.16900 48.74700 25.86800
C  19.96400 48.84100 27.22400
C  18.81800 49.60800 27.46700
C  21.27800 48.00500 25.09900
C  20.44900 48.42600 28.49600
O  21.45000 47.77700 28.81500
C  19.57200 49.05700 29.56800
C  19.23300 48.05900 30.63100
O  18.45800 47.08500 30.49300
O  19.92000 48.42600 31.73800
C  19.54200 47.70100 32.97200
H  13.50900 52.20500 29.46900
H  14.26900 53.09400 23.05600
H  19.51200 49.51800 23.19700
H  17.21000 49.73200 31.34400
H  15.49300 52.20200 31.13000
H  13.86900 50.86500 32.14500
H  14.98000 49.62500 32.04300
H  13.84000 49.92800 30.63200
H  17.58700 52.71400 31.50200
H  18.85500 51.85300 30.70700
H  19.76200 51.71300 32.53800
H  18.73700 50.33000 33.03500
H  12.05300 55.16100 27.82500
H  12.04900 53.76300 28.87000
H  11.01500 53.65400 27.45500
H  10.32300 55.57300 24.31600
H  11.47600 55.77000 25.67400
H  10.33400 54.37800 25.69400
H  16.59900 52.78400 21.66600
H  17.45600 49.96500 21.60300
H  14.47200 50.84100 21.96800
H  15.37100 50.27800 20.64500
H  14.72200 51.90300 20.48700
H  18.36300 52.15500 20.29000
H  19.32800 50.78300 20.96600
H  20.61600 52.36100 22.21800
H  19.16900 53.14100 22.84400
H  19.74000 53.59700 21.34300
H  20.69000 47.19900 24.66000
H  21.99600 47.64100 25.83500
H  21.67100 48.67100 24.33100
H  20.18800 49.79500 30.08200
H  19.33200 46.66700 32.69800
H  18.72900 48.24800 33.44800
H  20.45100 47.52200 33.54700

