158

Mg 1.87500 -1.80000 43.95400
C  5.23500 -1.40100 43.40900
C  1.32200 1.12700 42.38400
C  -1.37800 -2.58500 44.10100
C  2.53700 -5.06700 45.14500
N  3.17800 -0.36900 42.83200
C  4.51700 -0.36100 42.85400
C  5.05300 0.82700 42.08400
C  3.79700 1.78400 41.85800
C  2.68700 0.79700 42.40000
C  3.82000 3.19100 42.60800
C  5.70400 0.51200 40.73000
C  6.87000 1.40700 40.41200
H  6.73800 2.24400 39.18000
N  0.18800 -0.80900 43.34000
C  0.12100 0.46400 42.81400
C  -1.20800 0.78900 42.63200
C  -2.06200 -0.22500 43.20900
C  -1.07600 -1.30100 43.61400
C  -1.74100 2.06600 42.08600
C  -3.62400 -0.22800 43.42400
O  -4.29700 0.56500 42.81000
C  -4.28400 -1.13600 44.35500
N  0.73200 -3.59300 44.56200
C  -0.57200 -3.67600 44.55200
C  -1.15900 -5.05700 44.91600
C  0.08300 -5.88100 45.09700
C  1.20200 -4.78200 44.91700
C  -2.16000 -4.98400 46.04700
C  0.38800 -7.05800 44.01900
C  0.15600 -8.50700 44.46900
N  3.55900 -3.03500 44.33100
C  3.69000 -4.29800 44.84700
C  5.12900 -4.60100 44.92200
C  5.78400 -3.48700 44.39000
C  4.78300 -2.55200 44.07900
C  5.77400 -5.79200 45.51500
C  6.96200 -2.96200 44.06800
O  8.09300 -3.44000 44.23000
C  6.72600 -1.52000 43.43700
C  7.45000 -0.45000 44.23900
O  7.57200 -0.34100 45.46500
O  8.01000 0.48600 43.43300
C  8.80000 1.54000 44.23500
H  1.04400 2.02900 41.83500
H  -2.41000 -2.93900 44.15000
H  2.74500 -6.10800 45.40300
H  5.73500 1.35200 42.75300
H  3.61800 1.98300 40.80200
H  3.90100 4.03900 41.92800
H  4.72300 3.27400 43.21200
H  3.03200 3.25800 43.35900
H  4.96000 0.67100 39.95000
H  5.89300 -0.53800 40.50600
H  7.81900 0.88800 40.28000
H  7.15900 2.10700 41.19700
H  -2.61600 1.85400 41.47200
H  -1.09000 2.58600 41.38300
H  -1.86300 2.93900 42.72800
H  -5.25800 -0.67400 44.51900
H  -3.57700 -1.36700 45.15100
H  -4.43000 -2.03200 43.75300
H  -1.71200 -5.36400 44.02900
H  0.25400 -6.13100 46.14400
H  -1.84800 -5.75700 46.75000
H  -3.18800 -5.07900 45.69800
H  -2.08600 -4.00400 46.51800
H  1.45000 -7.03900 43.77400
H  -0.14000 -6.73800 43.12100
H  -0.50800 -9.05800 43.80300
H  -0.44700 -8.59200 45.37300
H  1.09500 -9.04100 44.61900
H  6.40700 -6.34000 44.81800
H  4.96500 -6.43800 45.85900
H  6.32000 -5.35900 46.35300
H  7.29800 -1.53300 42.50900
H  8.01700 2.23100 44.54700
H  9.57200 1.99100 43.61300
H  9.45500 1.10400 44.98900
Mg 26.61300 50.11700 26.04500
C  24.53900 51.39100 28.54000
C  28.98300 49.47200 28.37900
C  28.72100 49.34600 23.52900
C  24.35800 51.37600 23.75600
N  26.69400 50.41200 28.29100
C  25.68300 50.80700 29.08200
C  26.04700 50.59700 30.59600
C  27.61400 50.21900 30.47500
C  27.79000 50.00600 28.92400
C  28.63900 51.23700 31.05500
C  25.18300 49.57800 31.37800
C  24.64300 50.04000 32.69600
H  24.90700 49.06900 33.81300
N  28.51300 49.30600 25.97900
C  29.34200 49.04300 27.06200
C  30.62900 48.48200 26.57900
C  30.54200 48.48000 25.15000
C  29.18900 49.04200 24.79400
C  31.66000 47.93400 27.54700
C  31.48200 48.09800 24.08900
O  31.38700 48.40600 22.91800
C  32.83000 47.40200 24.50100
N  26.58900 50.43900 23.91900
C  27.58500 49.99100 23.09000
C  27.22200 50.20400 21.57100
C  25.73800 50.76500 21.65300
C  25.50600 50.87900 23.19200
C  28.35200 50.98500 20.70100
C  24.69900 49.80900 20.95400
C  24.47700 48.38700 21.44800
N  24.82100 51.25900 26.04500
C  23.98100 51.69400 25.04000
C  22.81300 52.31900 25.60700
C  22.96900 52.25500 26.98400
C  24.18900 51.58100 27.20100
C  21.76400 52.91500 24.70700
C  22.40700 52.66500 28.23200
O  21.39900 53.25000 28.46600
C  23.32000 51.98400 29.34500
C  23.73400 53.09900 30.29400
O  24.36600 54.12000 29.97400
O  23.08600 52.91200 31.51700
C  23.27300 53.91300 32.56700
H  29.74500 49.03800 29.03000
H  29.23100 49.28500 22.56500
H  23.60800 51.59800 22.99400
H  25.87900 51.57900 31.03900
H  27.68600 49.22100 30.90700
H  28.20000 51.72300 31.92600
H  28.76100 51.98900 30.27600
H  29.56900 50.91800 31.52600
H  25.85200 48.74700 31.60300
H  24.38700 49.12900 30.78300
H  23.56600 50.07000 32.53000
H  24.93500 51.07400 32.87900
H  31.30200 46.91400 27.68400
H  31.53100 48.26900 28.57600
H  32.66400 48.14600 27.17900
H  33.25600 48.22500 25.07500
H  33.35500 47.03700 23.61800
H  32.66600 46.56500 25.18000
H  27.29500 49.22900 21.09100
H  25.69400 51.75600 21.20000
H  28.61200 50.42200 19.80500
H  29.20400 51.26300 21.32100
H  27.93000 51.93100 20.36200
H  25.03700 49.88600 19.92000
H  23.70700 50.25200 20.86500
H  23.49400 48.29400 21.91100
H  25.21000 48.12300 22.21100
H  24.51800 47.69400 20.60700
H  21.84800 52.47200 23.71500
H  22.02700 53.96800 24.60600
H  20.72500 52.89000 25.03600
H  22.86700 51.15100 29.88200
H  23.92200 53.71100 33.41800
H  22.27600 54.00200 32.99900
H  23.56000 54.87800 32.15000

