158

Mg -2.63300 17.24500 27.10100
C  -3.14100 15.04100 29.76000
C  -3.06300 19.84700 29.18500
C  -2.53800 19.20200 24.37100
C  -2.79600 14.36600 24.94500
N  -3.25300 17.40400 29.27600
C  -3.28900 16.41000 30.15100
C  -3.38100 16.93400 31.62600
C  -3.52300 18.46700 31.35300
C  -3.30400 18.65700 29.84100
C  -4.76500 19.22700 31.79400
C  -2.22900 16.63400 32.61000
C  -2.66600 16.13800 33.98200
H  -1.74300 16.16000 35.25600
N  -2.61000 19.24500 26.83900
C  -2.86700 20.11400 27.84100
C  -2.59900 21.41300 27.22800
C  -2.46100 21.32600 25.85300
C  -2.51400 19.89300 25.60300
C  -2.79300 22.68400 27.95200
C  -2.24300 22.33700 24.69400
O  -2.20700 22.01500 23.47500
C  -2.09900 23.81400 25.02400
N  -2.91300 16.83600 24.94300
C  -2.70300 17.85500 24.05400
C  -2.60900 17.34500 22.58000
C  -2.56400 15.74800 22.77300
C  -2.79300 15.62000 24.31400
C  -3.65700 17.86800 21.54100
C  -1.42100 14.99700 22.18800
C  -0.08600 15.31000 22.86100
N  -2.98400 15.15800 27.23400
C  -2.92500 14.11500 26.32500
C  -2.95900 12.84700 26.92300
C  -3.03300 13.18100 28.26700
C  -3.07200 14.53800 28.41100
C  -2.92200 11.59000 26.27400
C  -3.22500 12.59300 29.50400
O  -3.34700 11.45100 29.89200
C  -3.18400 13.80700 30.55900
C  -1.89400 13.57600 31.29900
O  -0.74200 13.64000 30.85800
O  -2.14800 13.22600 32.63300
C  -0.93600 12.92400 33.42400
H  -3.11100 20.71800 29.84100
H  -2.35200 19.66300 23.39900
H  -2.81500 13.53700 24.23500
H  -4.31000 16.48000 31.97100
H  -2.66300 18.96800 31.79800
H  -5.45100 19.44100 30.97500
H  -4.45100 20.14900 32.28200
H  -5.37900 18.58200 32.42400
H  -1.48500 17.43100 32.63200
H  -1.74300 15.82800 32.06100
H  -3.10500 15.14300 33.89900
H  -3.43100 16.77100 34.43000
H  -3.24400 23.52700 27.42800
H  -1.81300 22.89400 28.37900
H  -3.34400 22.46800 28.86700
H  -1.58300 24.34500 24.22300
H  -1.54200 23.91100 25.95600
H  -3.09800 24.17900 25.26000
H  -1.60000 17.59900 22.25700
H  -3.47600 15.34400 22.33200
H  -4.10000 18.78100 21.93800
H  -4.53300 17.22100 21.50700
H  -3.24600 18.02600 20.54400
H  -1.29800 15.30300 21.14900
H  -1.58500 13.92000 22.24000
H  -0.14400 15.67100 23.88700
H  0.56800 16.01400 22.34600
H  0.53700 14.41800 22.79700
H  -2.45900 11.50100 25.29100
H  -3.98600 11.45400 26.08100
H  -2.57400 10.82400 26.96600
H  -4.01900 13.79200 31.25900
H  -0.81900 11.85800 33.23400
H  -1.09900 13.02000 34.49700
H  0.00800 13.40100 33.16100
Mg 40.00700 10.32600 29.27900
C  42.16500 11.46800 31.82800
C  38.06200 8.97500 31.58600
C  38.20100 9.35600 26.72900
C  42.68800 11.06300 26.94100
N  40.08000 10.33900 31.51100
C  40.96700 10.96100 32.31400
C  40.39800 10.93400 33.72900
C  39.08400 10.03700 33.63200
C  39.06400 9.72900 32.21400
C  39.13000 8.75800 34.46100
C  39.86200 12.36300 34.09100
C  39.25400 12.49100 35.48800
H  40.13200 13.04600 36.65000
N  38.23800 9.39700 29.15900
C  37.60100 8.81700 30.24400
C  36.46300 8.15100 29.78100
C  36.45700 8.17700 28.31400
C  37.65100 9.00000 28.00000
C  35.61600 7.45500 30.69600
C  35.49400 7.53400 27.33600
O  35.76200 7.51100 26.13400
C  34.29800 6.86700 27.79000
N  40.44800 10.15800 27.11800
C  39.48700 9.85700 26.35500
C  39.92400 9.75200 24.85700
C  41.34300 10.48200 24.90300
C  41.52400 10.53700 26.47000
C  39.89600 8.35600 24.21800
C  41.42100 11.96400 24.33300
C  40.85600 13.11300 25.19000
N  42.00400 11.09900 29.30400
C  42.97200 11.34200 28.27500
C  44.11700 11.83700 28.86200
C  43.81700 11.99600 30.21100
C  42.56700 11.45800 30.48300
C  45.30500 12.29000 28.19600
C  44.46300 12.41600 31.46500
O  45.53300 12.88000 31.75400
C  43.34100 12.12000 32.51400
C  43.87800 11.34600 33.67100
O  44.10300 10.11700 33.64800
O  43.74100 12.02300 34.82800
C  44.14700 11.25900 36.01500
H  37.45100 8.43500 32.31200
H  37.63200 8.96500 25.88200
H  43.45000 11.40100 26.23700
H  41.17000 10.67600 34.45400
H  38.10700 10.50400 33.75900
H  40.09700 8.71200 34.96300
H  38.97500 7.89900 33.80900
H  38.33500 8.77800 35.20600
H  39.15900 12.71100 33.33400
H  40.75900 12.98300 34.11300
H  38.59400 11.64500 35.67700
H  38.50100 13.26700 35.35300
H  34.63400 7.31200 30.24600
H  35.50900 7.97300 31.64900
H  35.90300 6.41700 30.86300
H  33.84700 6.24400 27.01800
H  33.53600 7.59600 28.06600
H  34.58100 6.26000 28.64900
H  39.20400 10.34400 24.29200
H  42.20700 9.87300 24.64000
H  40.92900 8.09500 23.99000
H  39.38100 8.44600 23.26100
H  39.27100 7.65800 24.77500
H  40.87400 11.94100 23.39000
H  42.42400 12.34900 24.15400
H  41.78100 13.42600 25.67400
H  40.13700 12.82700 25.95800
H  40.50000 13.86700 24.48800
H  45.11100 12.75100 27.22700
H  45.98600 11.44700 28.08600
H  45.79400 13.06700 28.78400
H  43.08400 13.13000 32.83300
H  43.33000 10.58700 36.28100
H  44.35800 11.96400 36.81900
H  45.07700 10.71500 35.85400

