158

Mg -0.03400 7.47300 25.83700
C  1.12200 9.37700 28.64600
C  -0.20000 4.82500 27.91600
C  -0.95700 5.65700 23.17300
C  0.20500 10.27000 23.91800
N  0.65700 7.07100 27.94400
C  0.98400 8.01000 28.91400
C  0.82700 7.43200 30.32300
C  0.69300 5.89200 30.08900
C  0.38100 5.87300 28.55000
C  1.85700 4.91800 30.35900
C  -0.45200 8.04100 30.99300
C  -0.54700 8.09200 32.55500
H  0.65800 7.96800 33.37900
N  -0.42000 5.50100 25.61000
C  -0.45400 4.55800 26.52100
C  -0.85200 3.28500 25.89100
C  -1.11900 3.56400 24.53900
C  -0.88200 4.96000 24.38400
C  -0.74400 1.94000 26.53700
C  -1.43100 2.61500 23.34600
O  -1.79300 3.00600 22.23400
C  -1.61100 1.11600 23.62600
N  -0.26800 7.93100 23.82500
C  -0.66300 7.03900 22.97000
C  -0.83800 7.55300 21.57100
C  -0.48100 9.07700 21.74300
C  -0.12800 9.14600 23.16900
C  -0.09200 6.73300 20.50500
C  -1.57300 10.04800 21.34000
C  -2.82100 10.03900 22.11600
N  0.50600 9.43100 26.15800
C  0.60200 10.47700 25.24900
C  1.02100 11.69600 25.86400
C  1.16400 11.37500 27.20600
C  0.93600 9.90400 27.33900
C  1.28600 13.03600 25.13200
C  1.52900 11.89800 28.54700
O  1.83700 12.96900 29.03100
C  1.29900 10.61000 29.58100
C  2.42000 10.62600 30.47100
O  3.51900 10.10300 30.27100
O  2.02700 11.38100 31.56200
C  2.96300 11.63600 32.66100
H  -0.44700 3.90600 28.45200
H  -1.49000 5.23300 22.31900
H  0.15200 11.12200 23.23700
H  1.63700 7.71800 30.99400
H  -0.16400 5.48700 30.62600
H  2.41600 4.72000 29.44500
H  1.51000 3.97600 30.78500
H  2.46700 5.40200 31.12200
H  -1.27700 7.47000 30.56600
H  -0.60200 9.03800 30.57900
H  -1.31300 7.41900 32.93900
H  -0.87100 9.12900 32.65300
H  0.06100 1.37800 26.06200
H  -1.69100 1.40200 26.48800
H  -0.59800 2.02500 27.61400
H  -2.18200 1.05600 24.55300
H  -0.68600 0.55200 23.73900
H  -2.17000 0.72200 22.77700
H  -1.90200 7.46000 21.34800
H  0.48700 9.27400 21.28300
H  0.75300 6.26400 21.01000
H  0.39400 7.30400 19.71300
H  -0.81600 6.07200 20.02800
H  -1.91500 9.92200 20.31200
H  -1.19900 11.07100 21.29900
H  -3.77500 10.04000 21.59000
H  -2.80400 10.88700 22.80100
H  -2.86600 9.18000 22.78500
H  1.22700 12.79400 24.07100
H  2.31200 13.34100 25.33900
H  0.62500 13.84400 25.44500
H  0.42600 10.93500 30.14500
H  3.31100 12.66500 32.57000
H  3.73300 10.86600 32.68900
H  2.41500 11.63800 33.60400
Mg 40.64400 9.66500 30.05300
C  42.54600 10.85200 32.72300
C  38.39100 8.22700 32.40200
C  39.11300 8.10400 27.64300
C  43.12300 10.76700 27.86100
N  40.65100 9.41300 32.30700
C  41.42100 10.13400 33.21200
C  40.84300 10.18700 34.55600
C  39.58200 9.27000 34.48600
C  39.49500 8.96800 32.93500
C  39.49200 8.01600 35.39700
C  40.58200 11.59700 35.16000
C  41.12500 11.96200 36.52500
H  40.23100 12.31200 37.69000
N  39.04200 8.31900 30.01200
C  38.18100 7.94600 31.03600
C  37.07100 7.11300 30.48700
C  37.28600 7.08800 29.08800
C  38.50500 7.83000 28.83900
C  35.91200 6.63800 31.31900
C  36.37300 6.49600 27.93400
O  36.60100 6.55000 26.68100
C  35.08300 5.81400 28.29200
N  41.08800 9.54100 28.01100
C  40.24800 8.82100 27.23700
C  40.72800 9.02800 25.72200
C  41.84600 10.00200 25.79700
C  42.06400 10.10500 27.28600
C  41.15000 7.77400 24.84100
C  41.55400 11.39300 25.18100
C  40.69600 12.39600 25.91900
N  42.48600 10.74300 30.24700
C  43.41800 11.08800 29.25800
C  44.51500 11.80900 29.84600
C  44.16900 11.82500 31.25800
C  42.98800 11.08800 31.39800
C  45.67600 12.50800 29.22000
C  44.58500 12.30300 32.53900
O  45.53600 12.94300 32.92000
C  43.51400 11.65300 33.59200
C  44.26200 10.86600 34.65100
O  44.77200 9.70900 34.58300
O  44.27900 11.60300 35.79300
C  44.88100 10.93900 36.94700
H  37.80100 7.73000 33.17500
H  38.67900 7.60900 26.77200
H  43.83200 11.01600 27.06900
H  41.60500 9.81100 35.23900
H  38.68200 9.84100 34.71200
H  39.81900 7.14900 34.82200
H  38.52400 7.88000 35.87800
H  40.31400 8.21400 36.08500
H  39.52200 11.80200 35.31300
H  40.83200 12.32100 34.38600
H  41.71700 12.86800 36.39500
H  41.70100 11.11000 36.88800
H  36.01300 6.74400 32.39900
H  35.63600 5.58700 31.22700
H  35.05500 7.25800 31.05600
H  34.44600 5.67400 27.41900
H  34.64600 6.54800 28.96800
H  35.25600 4.88700 28.84000
H  39.89300 9.43400 25.15000
H  42.79100 9.66400 25.37300
H  40.65600 8.00800 23.89800
H  40.70900 6.88400 25.29100
H  42.23300 7.67400 24.76800
H  41.01800 11.18000 24.25600
H  42.42700 11.96100 24.85900
H  40.27500 12.02400 26.85300
H  39.85000 12.44300 25.23400
H  41.11700 13.39900 25.99300
H  46.01800 13.40500 29.73500
H  45.61300 12.82500 28.17900
H  46.53100 11.83700 29.14400
H  43.05400 12.54400 34.01800
H  44.26000 10.09100 37.23700
H  45.06200 11.62700 37.77300
H  45.87900 10.62600 36.63900

