158

Mg -2.15200 17.31000 25.63900
C  -2.60200 14.91900 28.35500
C  -2.91200 19.77700 27.89200
C  -2.04300 19.35700 23.12300
C  -2.05400 14.55000 23.40300
N  -2.73900 17.25800 27.88000
C  -2.85400 16.23000 28.75200
C  -3.19400 16.68900 30.11600
C  -3.56800 18.19500 29.92100
C  -3.11500 18.48400 28.46200
C  -4.98500 18.71500 30.18800
C  -2.12100 16.43300 31.28000
C  -2.47300 17.06700 32.72000
H  -2.33700 16.07300 33.81500
N  -2.27400 19.31500 25.51600
C  -2.52100 20.18000 26.58700
C  -2.38100 21.48600 26.00900
C  -2.05200 21.41700 24.62800
C  -2.10400 19.97400 24.32700
C  -2.59100 22.76900 26.85800
C  -1.75000 22.55400 23.53700
O  -1.55300 22.43100 22.34700
C  -1.71800 24.00800 23.97000
N  -2.20100 16.95800 23.55000
C  -2.04700 18.01300 22.72200
C  -1.78500 17.62600 21.23700
C  -1.84700 15.98100 21.40500
C  -1.95400 15.78100 22.86900
C  -2.86200 18.15100 20.25900
C  -0.71400 15.10600 20.77400
C  0.63500 15.15200 21.45500
N  -2.37200 15.19100 25.79400
C  -2.21900 14.26300 24.78400
C  -2.15600 12.91300 25.36800
C  -2.42600 13.12600 26.75800
C  -2.41300 14.54400 26.98200
C  -2.15600 11.62400 24.58900
C  -2.65900 12.44000 27.98500
O  -2.77000 11.25400 28.26900
C  -2.63200 13.55200 29.11100
C  -1.53800 13.29000 29.97300
O  -0.41500 13.34800 29.58400
O  -1.91500 12.92800 31.20200
C  -0.75800 12.60900 32.07600
H  -3.10100 20.59300 28.59200
H  -1.83600 20.03100 22.28900
H  -1.66400 13.69200 22.85200
H  -4.11500 16.18300 30.40400
H  -2.88200 18.69500 30.60400
H  -4.90200 19.34200 31.07600
H  -5.62600 17.87900 30.46600
H  -5.46700 19.21300 29.34600
H  -1.15800 16.77000 30.89600
H  -1.98700 15.38200 31.53300
H  -3.52900 17.32800 32.66300
H  -1.88600 17.97200 32.87500
H  -3.47600 23.34400 26.58600
H  -1.67800 23.34000 26.69300
H  -2.47200 22.48900 27.90500
H  -2.73500 24.38900 24.06300
H  -1.16800 24.55300 23.20200
H  -1.13200 24.15700 24.87700
H  -0.75400 17.89200 21.00500
H  -2.80300 15.73100 20.94600
H  -2.28300 18.52700 19.41600
H  -3.41200 18.96700 20.72800
H  -3.65700 17.45400 19.99100
H  -0.57600 15.32900 19.71600
H  -1.12600 14.09900 20.83600
H  0.61500 15.91400 22.23500
H  1.43300 15.56900 20.84100
H  0.93300 14.19400 21.88000
H  -2.72200 11.72200 23.66300
H  -2.74700 10.88400 25.12900
H  -1.15600 11.21700 24.44000
H  -3.55900 13.48400 29.68100
H  -0.28600 11.66800 31.79600
H  -1.10300 12.36000 33.08000
H  -0.06900 13.40900 32.34800
Mg 23.82600 -6.58600 47.46600
C  26.44900 -4.30800 46.39200
C  22.01200 -5.38500 44.95100
C  21.85500 -9.11600 48.12400
C  26.34500 -8.00600 49.56100
N  24.25600 -4.95900 45.92500
C  25.29200 -4.19900 45.63100
C  25.01300 -3.16900 44.48000
C  23.49600 -3.36600 44.19700
C  23.17300 -4.63700 45.09800
C  22.66600 -2.03700 44.57500
C  25.85100 -3.45000 43.17900
C  26.60300 -2.19800 42.57800
H  26.54300 -1.99600 41.05000
N  22.08700 -7.28200 46.60000
C  21.52000 -6.66500 45.56200
C  20.33000 -7.34300 45.26900
C  20.14500 -8.33900 46.30700
C  21.38200 -8.31600 47.07200
C  19.45500 -6.92600 44.07500
C  18.87700 -9.10800 46.47600
O  17.86000 -8.90600 45.83600
C  18.80400 -10.13400 47.49500
N  24.14000 -8.37700 48.56800
C  23.13400 -9.26700 48.73800
C  23.38100 -10.19600 50.04200
C  24.88500 -9.90900 50.28000
C  25.16600 -8.66500 49.44200
C  22.38000 -9.87000 51.17500
C  25.98200 -11.03200 49.90100
C  27.19000 -11.16700 50.81400
N  25.90000 -6.19000 48.07100
C  26.71400 -6.88500 48.88500
C  28.04800 -6.24600 48.92600
C  27.92600 -5.18900 47.99600
C  26.65100 -5.26500 47.43300
C  29.18000 -6.73800 49.72800
C  28.63300 -3.99000 47.49800
O  29.75000 -3.51500 47.72200
C  27.69900 -3.40700 46.36800
C  27.40100 -2.03800 46.87900
O  26.73900 -1.79500 47.86900
O  27.80400 -1.03800 45.91800
C  27.56600 0.33300 46.43400
H  21.35900 -4.91700 44.21100
H  21.18000 -9.89800 48.47900
H  27.03300 -8.49400 50.25500
H  25.24400 -2.16100 44.82700
H  23.29700 -3.67400 43.17100
H  23.30600 -1.34200 45.11900
H  21.71400 -2.20400 45.07700
H  22.49500 -1.52900 43.62500
H  25.31500 -3.94600 42.36900
H  26.73800 -4.03500 43.42000
H  27.67100 -2.25600 42.78600
H  26.17600 -1.31600 43.05600
H  19.85500 -7.41500 43.18700
H  19.53100 -5.85400 43.89100
H  18.40100 -7.17300 44.20500
H  18.63800 -9.67700 48.47000
H  19.69000 -10.74100 47.30600
H  17.98100 -10.79100 47.21200
H  23.32600 -11.22700 49.69300
H  25.08700 -9.53700 51.28400
H  21.77600 -10.72900 51.46600
H  21.64300 -9.14600 50.82700
H  22.97300 -9.38600 51.95200
H  26.41300 -10.83800 48.91900
H  25.57800 -12.04100 49.81900
H  27.16100 -12.17900 51.21800
H  27.04300 -10.36500 51.53800
H  28.12700 -10.96400 50.29700
H  29.11700 -7.79800 49.97300
H  29.27800 -6.05600 50.57300
H  30.05600 -6.55500 49.10700
H  28.21500 -3.29300 45.41400
H  27.75800 0.38700 47.50500
H  26.53200 0.57600 46.19000
H  28.24400 0.92900 45.82300

