158

Mg 36.04300 2.31000 30.77800
C  33.32500 3.06900 33.03300
C  38.08800 2.19000 33.27000
C  38.30500 1.69000 28.45800
C  33.55800 2.35600 28.16600
N  35.69800 2.63900 32.88900
C  34.56300 2.87700 33.64700
C  34.95900 2.96300 35.12500
C  36.49200 2.88500 35.16100
C  36.79500 2.49300 33.65300
C  37.25200 4.21200 35.48500
C  34.20800 1.81000 36.02000
C  33.75300 2.17000 37.45500
H  34.57600 3.18000 38.20400
N  37.93500 1.89100 30.84400
C  38.64800 1.89900 32.01600
C  39.98800 1.33800 31.79000
C  40.02100 1.17200 30.38800
C  38.74600 1.66200 29.83200
C  41.01600 1.05400 32.89700
C  41.14300 0.61800 29.51100
O  40.90500 0.39200 28.36900
C  42.54600 0.35500 30.09100
N  35.91900 1.92300 28.58500
C  37.01000 1.81500 27.88300
C  36.69600 1.48100 26.45500
C  35.13300 1.49400 26.38000
C  34.77100 1.87600 27.79400
C  37.34700 2.20600 25.29000
C  34.57500 0.05200 26.10700
C  34.50000 -0.29000 24.61500
N  33.95400 2.80800 30.53700
C  33.11400 2.73800 29.44800
C  31.78900 3.02500 29.87200
C  31.88400 3.23400 31.26800
C  33.19000 3.02000 31.59100
C  30.57600 2.96300 28.97900
C  31.08800 3.50300 32.46800
O  29.92200 3.75200 32.63800
C  32.08300 3.37900 33.65100
C  32.10800 4.72000 34.32500
O  32.54000 5.76600 33.81400
O  31.52200 4.62400 35.55800
C  31.43300 5.81300 36.44600
H  38.82100 2.16400 34.07900
H  39.00800 1.42600 27.66500
H  32.93700 2.31300 27.27000
H  34.59800 3.93500 35.46300
H  36.97000 2.12900 35.78300
H  37.76100 4.66600 34.63500
H  37.99600 4.06700 36.26800
H  36.59100 5.02700 35.77900
H  34.86900 0.94400 36.04600
H  33.38900 1.46800 35.38700
H  33.78300 1.18000 37.91000
H  32.72900 2.53900 37.38900
H  41.98800 1.43900 32.58900
H  41.00300 -0.02400 33.05400
H  40.73800 1.37000 33.90300
H  43.16800 -0.06300 29.29900
H  42.39800 -0.29400 30.95400
H  43.04400 1.26600 30.42400
H  37.01500 0.45600 26.26600
H  34.77500 2.29200 25.73100
H  36.63200 2.08800 24.47600
H  38.18100 1.59800 24.94000
H  37.60200 3.26400 25.35200
H  33.61200 -0.04700 26.60900
H  35.28500 -0.64800 26.54700
H  33.66600 -0.95400 24.38600
H  35.42000 -0.71600 24.21500
H  34.35500 0.62700 24.04300
H  29.69500 2.95500 29.62100
H  30.67100 2.03300 28.41800
H  30.50800 3.79800 28.28300
H  31.75400 2.60400 34.34200
H  31.47300 5.63400 37.52100
H  30.49600 6.33300 36.24500
H  32.24100 6.51900 36.25400
Mg -10.23400 16.51200 40.95900
C  -6.63600 16.61000 40.92000
C  -10.16200 19.69800 40.00800
C  -13.53700 16.31400 40.43400
C  -10.14900 13.09500 41.32500
N  -8.55100 17.94100 40.64600
C  -7.22400 17.82500 40.68300
C  -6.58200 19.09200 40.16200
C  -7.65400 20.15400 40.34100
C  -8.92100 19.22400 40.33500
C  -7.55500 20.95900 41.65500
C  -5.97500 18.83400 38.71400
C  -4.49000 19.11800 38.45000
H  -3.81100 18.27500 37.38000
N  -11.66500 17.89500 40.47600
C  -11.41600 19.17000 40.10700
C  -12.65400 19.82300 39.75900
C  -13.67600 18.89900 39.91100
C  -12.99600 17.62800 40.27800
C  -12.79300 21.32900 39.42100
C  -15.14800 19.22800 39.77800
O  -15.61800 20.35600 39.49700
C  -16.16900 18.14800 39.92200
N  -11.64600 14.88800 40.75000
C  -13.00500 15.10800 40.58500
C  -13.78600 13.81300 40.81200
C  -12.72400 12.76500 41.11200
C  -11.41400 13.60500 41.12600
C  -14.89600 13.78300 41.90600
C  -12.70200 11.41600 40.27400
C  -12.36600 11.59700 38.80000
N  -8.77700 15.10600 41.11000
C  -8.85400 13.76300 41.36300
C  -7.51200 13.23500 41.65600
C  -6.63900 14.34100 41.43000
C  -7.41900 15.46600 41.12800
C  -7.12700 11.76200 41.90800
C  -5.25800 14.60500 41.26500
O  -4.26900 13.88400 41.35700
C  -5.17400 16.15400 40.92000
C  -4.35700 16.97400 41.88100
O  -3.28400 17.53800 41.65800
O  -5.10400 16.94900 43.10500
C  -4.54600 17.72400 44.20600
H  -10.17400 20.76500 39.77700
H  -14.55900 16.21600 40.06400
H  -10.02800 12.02300 41.49400
H  -5.78300 19.51500 40.77100
H  -7.63700 20.97000 39.61900
H  -7.27400 20.24700 42.43100
H  -8.52200 21.29500 42.02700
H  -6.79200 21.73100 41.55600
H  -6.47800 19.59000 38.11300
H  -6.18400 17.85600 38.28000
H  -3.92500 18.76800 39.31400
H  -4.29900 20.17500 38.27100
H  -13.14300 21.38900 38.39100
H  -11.79600 21.76400 39.50100
H  -13.59600 21.81400 39.97700
H  -17.18000 18.55100 39.97100
H  -16.00000 17.63300 40.86800
H  -16.05600 17.52400 39.03500
H  -14.30100 13.51900 39.89700
H  -12.82200 12.41600 42.14000
H  -14.91500 12.80000 42.37800
H  -15.87400 13.90100 41.43900
H  -14.70600 14.60500 42.59500
H  -13.68300 10.94300 40.31800
H  -12.03500 10.73400 40.80100
H  -13.26800 11.60600 38.18800
H  -11.68000 10.86900 38.36700
H  -11.88100 12.52600 38.49900
H  -7.38700 11.17900 41.02400
H  -7.52600 11.34500 42.83200
H  -6.03700 11.77800 41.89900
H  -4.70900 16.24400 39.93800
H  -4.51200 17.09700 45.09700
H  -5.30900 18.48200 44.38600
H  -3.60100 18.18000 43.90800

