158

Mg -2.15300 16.66000 26.04300
C  -2.70700 14.44300 28.83500
C  -2.98400 19.29000 28.25400
C  -2.13800 18.68500 23.50300
C  -1.90800 13.91000 23.92500
N  -2.90800 16.77700 28.31200
C  -2.91900 15.76100 29.23800
C  -3.44300 16.29200 30.49900
C  -3.62300 17.84600 30.24500
C  -3.08600 17.99300 28.85400
C  -5.07200 18.38200 30.41700
C  -2.63700 16.07800 31.82600
C  -3.50200 15.79500 33.08500
H  -2.87400 14.99800 34.20900
N  -2.38000 18.78400 25.89700
C  -2.65000 19.73500 26.87000
C  -2.60200 21.04000 26.26400
C  -2.40900 20.82500 24.91400
C  -2.35200 19.38100 24.69900
C  -2.72800 22.23400 27.05300
C  -2.38300 21.87300 23.79200
O  -2.31800 21.56700 22.64500
C  -2.15400 23.28600 24.12700
N  -2.13100 16.26000 23.96600
C  -1.95700 17.30200 23.18300
C  -1.78500 16.90900 21.70400
C  -1.41500 15.33200 21.85800
C  -1.81900 15.12700 23.33500
C  -3.06000 17.20600 20.86600
C  0.09500 14.92900 21.55000
C  1.16600 15.71900 22.32200
N  -2.20800 14.57400 26.27900
C  -2.12700 13.57700 25.30200
C  -2.21400 12.29500 25.90700
C  -2.46100 12.61100 27.24500
C  -2.47600 13.97700 27.46800
C  -2.08400 10.96000 25.30400
C  -2.68300 11.97400 28.56500
O  -2.82600 10.80000 28.80400
C  -2.94100 13.03500 29.54200
C  -1.82200 12.78900 30.55100
O  -0.64000 13.03000 30.30700
O  -2.33600 12.33800 31.73900
C  -1.27500 11.71300 32.57600
H  -3.27400 20.15600 28.85200
H  -2.36200 19.36700 22.68100
H  -1.50000 13.03400 23.41600
H  -4.39500 15.79000 30.67200
H  -3.03700 18.40700 30.97300
H  -5.31600 19.14000 29.67200
H  -5.07700 18.84000 31.40600
H  -5.88100 17.65200 30.39500
H  -2.06300 16.94800 32.14400
H  -1.87300 15.33600 31.59000
H  -4.42000 15.31700 32.74400
H  -3.73700 16.77800 33.49200
H  -3.54700 22.81800 26.63400
H  -1.79100 22.77300 26.91900
H  -3.02900 21.97100 28.06700
H  -3.04800 23.77700 24.51100
H  -2.05000 23.74200 23.14200
H  -1.30300 23.40400 24.79700
H  -0.90300 17.35600 21.24500
H  -1.95100 14.72300 21.13000
H  -3.69900 17.93800 21.36000
H  -3.70700 16.39400 20.53300
H  -2.76600 17.84700 20.03500
H  0.32100 14.93500 20.48400
H  0.28200 13.90200 21.86700
H  1.62900 14.92000 22.90100
H  0.67000 16.51300 22.88100
H  1.94500 16.23700 21.76300
H  -2.96300 10.39200 25.00000
H  -1.51400 10.27800 25.93500
H  -1.36100 11.13800 24.50800
H  -3.87300 12.77400 30.04500
H  -0.55200 12.46100 32.90300
H  -0.74700 10.83900 32.19400
H  -1.73100 11.39600 33.51400
Mg 9.05700 3.15700 27.57700
C  10.33200 1.62000 30.42000
C  7.26000 5.33600 29.52100
C  7.79800 4.45900 24.76600
C  10.63600 0.61000 25.69100
N  8.64000 3.22400 29.78400
C  9.42200 2.67300 30.74400
C  9.07400 3.33100 32.10500
C  7.89400 4.35600 31.77300
C  7.93900 4.31900 30.31100
C  6.48800 3.94500 32.34800
C  10.25300 3.95100 32.81400
C  9.91900 4.51600 34.18800
H  10.46300 3.72800 35.39900
N  7.74500 4.67400 27.23800
C  7.15200 5.45000 28.15700
C  6.36300 6.49000 27.45700
C  6.52600 6.25100 26.03300
C  7.38100 5.10100 25.96500
C  5.55200 7.45100 28.23800
C  6.01100 7.03000 24.87700
O  6.40700 6.85200 23.75800
C  5.08500 8.13900 25.11500
N  9.18300 2.61600 25.53800
C  8.59700 3.40100 24.57300
C  8.89300 2.84400 23.21100
C  9.82500 1.60400 23.47500
C  9.90800 1.60300 24.97800
C  7.75800 2.46600 22.28900
C  11.20000 1.73500 22.72900
C  11.33000 0.97400 21.43800
N  10.28300 1.41500 27.91700
C  10.80300 0.51100 27.03600
C  11.57600 -0.42900 27.79000
C  11.50000 -0.03800 29.13800
C  10.66100 1.10100 29.12800
C  12.27700 -1.73600 27.32600
C  11.98500 -0.24300 30.48100
O  12.80400 -0.98200 30.96600
C  11.12600 0.74400 31.36900
C  10.28200 0.00300 32.34800
O  9.19300 -0.51100 32.12900
O  10.97600 -0.00100 33.52000
C  10.19100 -0.63700 34.65300
H  6.72300 6.07600 30.11800
H  7.48500 4.96900 23.85300
H  11.02100 -0.22500 25.10100
H  8.66900 2.56800 32.76900
H  8.18700 5.32100 32.18600
H  6.32700 4.45500 33.29800
H  6.57300 2.87900 32.55400
H  5.67400 4.05600 31.63200
H  10.65900 4.73300 32.17100
H  11.00300 3.16100 32.77500
H  8.88100 4.79800 34.35900
H  10.54700 5.40600 34.20300
H  5.59800 8.44700 27.79900
H  5.84200 7.57500 29.28100
H  4.48600 7.22700 28.23800
H  4.74500 8.58900 24.18300
H  5.49800 8.87300 25.80700
H  4.16700 7.70200 25.50900
H  9.35500 3.57200 22.54500
H  9.27400 0.70100 23.21300
H  6.93000 2.39700 22.99500
H  7.88000 1.52900 21.74600
H  7.53700 3.30000 21.62300
H  11.97400 1.38600 23.41200
H  11.39300 2.79500 22.56100
H  11.99500 1.64400 20.89200
H  10.38400 0.92100 20.90000
H  11.77500 0.00300 21.65400
H  13.03000 -2.05100 28.04800
H  12.80500 -1.52700 26.39500
H  11.54100 -2.52900 27.19800
H  11.84800 1.30600 31.96000
H  10.06000 -1.69500 34.42700
H  9.20600 -0.23200 34.88400
H  10.66900 -0.50600 35.62400

