158

Mg -2.42900 17.35700 27.07700
C  -3.11600 15.24000 29.72900
C  -3.09200 20.12800 29.22000
C  -2.19000 19.43400 24.47300
C  -2.50900 14.64900 24.81500
N  -2.93100 17.55500 29.20800
C  -3.03400 16.55200 30.15000
C  -3.36000 17.06300 31.56100
C  -3.36600 18.58700 31.32100
C  -3.09400 18.82500 29.83600
C  -4.76700 19.22500 31.79800
C  -2.51100 16.59500 32.72200
C  -2.29100 17.50800 33.94800
H  -1.66700 16.83600 35.19300
N  -2.53800 19.47500 26.89000
C  -2.84400 20.44200 27.88200
C  -2.66100 21.73200 27.32300
C  -2.29900 21.56500 25.94300
C  -2.35300 20.09700 25.69700
C  -3.00000 23.05300 28.04200
C  -2.09100 22.66000 24.85700
O  -1.81800 22.39900 23.71200
C  -2.09900 24.02400 25.24900
N  -2.59700 17.06000 24.90000
C  -2.27100 18.11800 24.11100
C  -1.98600 17.61000 22.62400
C  -1.97800 16.09400 22.84900
C  -2.31500 15.90800 24.27800
C  -3.05000 18.07500 21.64500
C  -0.73300 15.34000 22.40400
C  0.48600 15.30800 23.30900
N  -2.72500 15.32500 27.18100
C  -2.67700 14.32500 26.19700
C  -2.81400 13.04400 26.84300
C  -3.02000 13.41800 28.19700
C  -2.96200 14.73800 28.34200
C  -2.64600 11.68800 26.38100
C  -3.22000 12.77600 29.39600
O  -3.28100 11.58900 29.60700
C  -3.34300 13.92900 30.48300
C  -2.38600 13.68700 31.58700
O  -1.21300 14.03100 31.49100
O  -3.10300 13.15500 32.58000
C  -2.32200 12.87400 33.84200
H  -3.12800 20.99100 29.88900
H  -1.94000 20.00200 23.57400
H  -2.48300 13.81800 24.10700
H  -4.33000 16.70600 31.90500
H  -2.50700 18.99100 31.85800
H  -4.86100 19.14800 32.88200
H  -5.64900 18.76800 31.35100
H  -4.82100 20.26500 31.47800
H  -1.56400 16.21200 32.34100
H  -3.06200 15.76700 33.16600
H  -3.26000 17.86800 34.29400
H  -1.70200 18.40300 33.74900
H  -3.57800 22.90500 28.95400
H  -3.59400 23.61700 27.32300
H  -2.11200 23.66100 28.21500
H  -1.47800 24.14800 26.13600
H  -3.10900 24.38400 25.44000
H  -1.63200 24.63300 24.47500
H  -1.00300 17.95800 22.30600
H  -2.79300 15.56000 22.36000
H  -3.71100 17.21700 21.52100
H  -2.67000 18.56700 20.75000
H  -3.55000 18.88900 22.16900
H  -0.35300 15.80900 21.49600
H  -0.98400 14.30600 22.17000
H  0.37100 15.66800 24.33100
H  1.33300 15.82000 22.85200
H  0.82200 14.30200 23.56100
H  -1.88200 11.09200 26.88000
H  -2.36900 11.74400 25.32800
H  -3.63700 11.24600 26.48200
H  -4.35100 14.05300 30.87900
H  -2.22500 13.89700 34.20600
H  -1.32300 12.52700 33.57400
H  -2.75500 12.12100 34.50000
Mg 16.82900 -1.22100 28.54200
C  15.82600 0.53400 31.30900
C  18.96200 -2.96600 30.57200
C  18.18300 -2.59600 25.77100
C  14.95600 0.86500 26.48200
N  17.32000 -1.14000 30.72700
C  16.82400 -0.43000 31.65000
C  17.31500 -0.81500 33.04700
C  18.63900 -1.60000 32.75100
C  18.36400 -1.88900 31.30600
C  20.06200 -1.10100 33.13600
C  16.28900 -1.39800 34.02000
C  16.31800 -0.77300 35.44600
H  17.61600 -0.22100 35.93000
N  18.28600 -2.68500 28.28700
C  19.06300 -3.34800 29.21900
C  19.99500 -4.25700 28.47000
C  19.68400 -4.21500 27.10800
C  18.69100 -3.14000 26.97800
C  21.06300 -5.13800 29.22900
C  20.26800 -5.07600 25.90400
O  19.89600 -5.07800 24.72700
C  21.39800 -6.02400 26.13800
N  16.55600 -0.98400 26.37900
C  17.25100 -1.61000 25.48100
C  16.86200 -1.18400 24.06800
C  15.69600 -0.25700 24.27800
C  15.75000 -0.04200 25.80200
C  18.09500 -0.60600 23.16800
C  14.26700 -0.70600 23.85000
C  14.02300 -0.66800 22.34200
N  15.67300 0.37500 28.74100
C  14.93200 1.09500 27.85000
C  14.07200 2.10400 28.55200
C  14.38600 1.83600 29.90300
C  15.37400 0.81100 29.98500
C  13.12400 3.17300 27.93000
C  14.07700 2.20100 31.29700
O  13.20800 2.98900 31.70700
C  14.98600 1.44000 32.20000
C  15.88200 2.41200 32.82100
O  16.93200 2.76400 32.39300
O  15.25800 2.90000 33.94600
C  16.11800 3.80500 34.75600
H  19.69000 -3.56400 31.12500
H  18.55500 -3.05900 24.85500
H  14.48300 1.62200 25.85300
H  17.72600 0.09500 33.48700
H  18.44900 -2.52100 33.30200
H  20.57500 -0.78800 32.22600
H  20.61700 -1.88400 33.65400
H  19.93300 -0.24100 33.79300
H  16.33500 -2.48300 34.11100
H  15.30800 -1.29700 33.55500
H  16.02400 -1.50600 36.19700
H  15.58800 0.03200 35.36800
H  21.21600 -4.86700 30.27400
H  21.99300 -4.81300 28.76400
H  20.86600 -6.20800 29.17200
H  22.34200 -5.50900 26.31700
H  21.51600 -6.59100 25.21400
H  21.11700 -6.71200 26.93500
H  16.46200 -2.11700 23.67100
H  15.96600 0.68700 23.80600
H  18.59100 -1.44900 22.68700
H  18.85900 -0.22700 23.84800
H  17.61200 0.09800 22.49000
H  13.54900 0.00600 24.25600
H  14.07600 -1.76000 24.05100
H  13.37100 0.13800 22.00500
H  13.67900 -1.64700 22.00700
H  14.95700 -0.45300 21.82500
H  13.61600 3.56600 27.04000
H  12.96600 4.06800 28.53200
H  12.20400 2.66800 27.63500
H  14.39400 0.92200 32.95500
H  16.02100 3.52000 35.80300
H  15.81200 4.83400 34.57100
H  17.16600 3.67600 34.48600

