158

Mg 24.59100 -5.88600 45.54600
C  26.98100 -3.63300 44.16600
C  22.18600 -4.41800 43.55400
C  22.67800 -8.50200 46.18600
C  27.11000 -7.14800 47.65600
N  24.65000 -4.33000 43.88000
C  25.69100 -3.51300 43.55100
C  25.28400 -2.50000 42.51500
C  23.73400 -2.53000 42.67800
C  23.44600 -3.82800 43.46000
C  23.03000 -1.39600 43.41500
C  25.83700 -2.80200 41.06600
C  26.46600 -1.67500 40.22000
H  26.05900 -1.73500 38.78800
N  22.65500 -6.45000 44.96400
C  21.80700 -5.65200 44.23500
C  20.55100 -6.37300 44.04500
C  20.69800 -7.58400 44.72900
C  22.03400 -7.56900 45.29700
C  19.34600 -6.01100 43.14500
C  19.66700 -8.75000 44.81500
O  18.55500 -8.52400 44.36300
C  19.94900 -10.16300 45.39800
N  24.92100 -7.67900 46.61900
C  23.97800 -8.62100 46.76000
C  24.44500 -9.79600 47.56700
C  25.82500 -9.31400 48.16800
C  26.02600 -7.92800 47.49500
C  23.53600 -10.55900 48.50600
C  27.03400 -10.30800 48.04200
C  27.84800 -10.40400 49.34600
N  26.63700 -5.47600 45.91300
C  27.46800 -5.99700 46.83800
C  28.79300 -5.34100 46.74200
C  28.65100 -4.45700 45.65800
C  27.34000 -4.58400 45.16500
C  30.06100 -5.70700 47.51600
C  29.33800 -3.39900 44.90100
O  30.47300 -2.91900 45.07700
C  28.27000 -2.85900 43.90100
C  28.05900 -1.36800 44.08600
O  27.38200 -0.86400 44.96400
O  28.68400 -0.63300 43.13900
C  28.47700 0.84000 43.23100
H  21.47200 -3.89700 42.91300
H  22.08200 -9.36900 46.47800
H  27.86600 -7.42200 48.39500
H  25.65900 -1.52800 42.83500
H  23.35500 -2.59900 41.65900
H  22.59900 -1.78600 44.33700
H  22.31600 -0.80300 42.84300
H  23.76500 -0.63800 43.68900
H  24.94900 -3.04900 40.48300
H  26.52500 -3.63900 41.18900
H  27.50700 -1.93600 40.40800
H  26.20300 -0.74700 40.72800
H  18.38500 -6.29500 43.57300
H  19.39000 -6.58700 42.22100
H  19.34700 -4.92100 43.15200
H  19.17500 -10.79800 44.96600
H  19.95600 -10.23100 46.48500
H  20.98300 -10.45200 45.21000
H  24.68500 -10.64200 46.92200
H  25.62900 -9.13300 49.22500
H  24.08400 -10.84200 49.40500
H  23.15600 -11.41800 47.95200
H  22.68200 -9.95500 48.81300
H  27.71600 -10.08100 47.22300
H  26.83300 -11.35900 47.83400
H  28.91300 -10.40200 49.11400
H  27.66700 -11.35700 49.84300
H  27.52500 -9.64300 50.05600
H  30.63200 -6.45500 46.96500
H  29.93900 -6.15800 48.50100
H  30.69200 -4.85400 47.76500
H  28.49200 -3.07700 42.85600
H  29.46200 1.30300 43.28800
H  27.81200 1.25300 43.98900
H  28.00600 1.23500 42.33000
Mg -9.87000 17.40000 41.03000
C  -6.43900 17.31500 41.29600
C  -9.79000 20.72900 40.34200
C  -13.16600 17.24500 40.21800
C  -9.83700 13.94900 41.37600
N  -8.25400 18.83800 40.70100
C  -6.95900 18.61300 40.95100
C  -6.19800 19.91700 40.66700
C  -7.25600 21.05500 40.85500
C  -8.55500 20.19700 40.68300
C  -7.18500 21.80100 42.22600
C  -5.56200 19.92600 39.29300
C  -4.08100 19.78900 39.08300
H  -3.42900 18.68100 38.22700
N  -11.26600 18.79900 40.33600
C  -11.06000 20.14000 40.14500
C  -12.26500 20.80900 39.66000
C  -13.28500 19.79700 39.59700
C  -12.61700 18.54300 40.10900
C  -12.26300 22.25300 39.21600
C  -14.76200 20.01400 39.08700
O  -15.10100 21.10500 38.57200
C  -15.81200 18.89500 38.89400
N  -11.30200 15.72900 40.55000
C  -12.57100 15.95300 40.38900
C  -13.41700 14.64400 40.45600
C  -12.31100 13.60800 41.03300
C  -10.99700 14.45100 40.88800
C  -14.75400 14.66800 41.28600
C  -12.28400 12.20900 40.21100
C  -12.51300 10.99700 41.14900
N  -8.42500 15.84300 41.22100
C  -8.57200 14.51300 41.29400
C  -7.34600 13.87400 41.28800
C  -6.47100 14.94300 41.45700
C  -7.16500 16.12600 41.27100
C  -7.02900 12.34700 41.30400
C  -5.10600 15.29000 41.58000
O  -4.06300 14.60000 41.67000
C  -5.00400 16.86400 41.43700
C  -4.39200 17.53200 42.65800
O  -3.45000 18.29300 42.57500
O  -5.17500 17.23300 43.76600
C  -4.57300 17.96300 44.87300
H  -9.75800 21.78600 40.07000
H  -14.24700 17.32200 40.08400
H  -9.75100 12.87000 41.52100
H  -5.45300 20.03300 41.45400
H  -7.31700 21.77800 40.04100
H  -6.96800 21.16100 43.08200
H  -8.05400 22.40400 42.48600
H  -6.47500 22.59200 41.98800
H  -5.91700 20.85500 38.84800
H  -6.08400 19.10000 38.80800
H  -3.68900 19.75500 40.09900
H  -3.72300 20.67600 38.56000
H  -13.30300 22.57900 39.20500
H  -11.76500 22.29200 38.24700
H  -11.73100 22.80700 39.98900
H  -15.36300 18.18600 38.19900
H  -16.72300 19.33300 38.48500
H  -16.07900 18.39000 39.82200
H  -13.75300 14.29100 39.48100
H  -12.46300 13.43700 42.09900
H  -14.77900 13.94500 42.10100
H  -15.55300 14.36200 40.61100
H  -14.94500 15.59400 41.82800
H  -11.34900 12.19600 39.65100
H  -13.07700 12.24000 39.46300
H  -12.13600 10.19500 40.51400
H  -13.59000 10.87300 41.26100
H  -11.96400 11.10200 42.08400
H  -7.25800 11.98400 42.30700
H  -5.99100 12.06100 41.13500
H  -7.73900 11.75100 40.73100
H  -4.32400 17.09500 40.61800
H  -3.76800 17.40400 45.35200
H  -5.30900 17.94500 45.67700
H  -4.38500 19.02600 44.72300

