158

Mg 8.70000 4.34500 27.83300
C  9.98200 2.41300 30.45900
C  6.62000 6.03000 29.99900
C  7.17200 5.55600 25.25700
C  10.25700 1.77000 25.70300
N  8.29800 4.14800 29.96300
C  9.05000 3.39400 30.87800
C  8.76800 3.90300 32.31400
C  7.71100 5.06700 32.10500
C  7.44600 5.05400 30.58600
C  6.45200 4.81600 32.92100
C  10.07300 4.42000 32.97100
C  9.95800 5.26400 34.31500
H  10.12300 4.52500 35.65100
N  7.26600 5.82600 27.67500
C  6.44200 6.34500 28.64900
C  5.66100 7.37800 28.02800
C  5.91800 7.39500 26.61900
C  6.85600 6.22100 26.43400
C  4.66900 8.21900 28.83400
C  5.42200 8.33300 25.50000
O  5.79800 8.23300 24.35000
C  4.49000 9.41600 25.88000
N  8.62900 3.66000 25.80400
C  7.98000 4.45500 24.98800
C  8.06500 3.85500 23.54000
C  9.13300 2.71000 23.64800
C  9.28000 2.73400 25.15600
C  6.76400 3.50400 22.89800
C  10.45600 2.92500 22.89200
C  11.05800 1.59200 22.33000
N  9.99800 2.55000 27.96400
C  10.48900 1.64900 27.07100
C  11.45600 0.77900 27.66800
C  11.28200 1.00100 29.07000
C  10.31700 2.06900 29.16500
C  12.38200 -0.15600 27.02000
C  11.64300 0.57300 30.36200
O  12.33700 -0.35000 30.75400
C  10.90400 1.57400 31.31200
C  10.12500 0.76800 32.28000
O  9.05800 0.26500 31.99300
O  10.78400 0.65000 33.47200
C  10.02600 0.02000 34.53000
H  6.02200 6.59000 30.72100
H  6.55300 6.04400 24.50200
H  10.67800 1.05800 24.99000
H  8.43300 3.00500 32.83300
H  8.06100 6.07000 32.35100
H  5.63500 5.01000 32.22600
H  6.39500 5.39000 33.84500
H  6.25700 3.75600 33.08600
H  10.59900 5.07600 32.27700
H  10.75200 3.57900 33.11000
H  9.09500 5.92700 34.37100
H  10.78200 5.96800 34.19700
H  5.10000 9.20500 29.00600
H  4.53000 7.71600 29.79100
H  3.74800 8.35600 28.26700
H  4.29900 10.00000 24.98000
H  5.07000 9.99600 26.59700
H  3.53600 9.20700 26.36400
H  8.38600 4.63900 22.85400
H  8.66300 1.76600 23.37300
H  5.94400 3.62800 23.60600
H  7.00400 2.52500 22.48500
H  6.57500 4.05100 21.97400
H  11.18700 3.39000 23.55400
H  10.29100 3.66400 22.10800
H  12.00300 1.46600 22.85900
H  11.29100 1.72600 21.27400
H  10.35100 0.80700 22.60000
H  13.02900 0.41700 26.35600
H  11.89100 -0.94500 26.45100
H  13.06800 -0.68700 27.68100
H  11.75100 2.14100 31.70000
H  9.77500 0.84900 35.19200
H  10.67400 -0.59600 35.15300
H  9.26100 -0.69500 34.22700
Mg 49.28000 44.55000 42.43800
C  46.24400 45.06500 40.67900
C  49.67800 41.58800 40.70600
C  52.62200 44.60400 43.07900
C  49.08800 47.88400 43.45900
N  48.13300 43.51500 40.80200
C  46.84100 43.85300 40.37100
C  46.40900 42.79200 39.34200
C  47.26400 41.59200 39.62100
C  48.42200 42.25500 40.45300
C  46.67900 40.37800 40.38200
C  46.47800 43.32400 37.90700
C  45.28900 43.08700 36.92900
H  45.27800 43.81300 35.60800
N  50.92800 43.26600 41.91600
C  50.86100 42.06300 41.29100
C  52.16800 41.33600 41.44100
C  53.00800 42.16000 42.18000
C  52.24000 43.40500 42.43800
C  52.43200 39.88800 40.93700
C  54.37100 41.74200 42.61800
O  54.75600 40.65900 42.20800
C  55.39400 42.58700 43.12600
N  50.69200 46.01500 43.15000
C  51.97800 45.78300 43.45400
C  52.66200 46.97800 44.21200
C  51.46900 48.04500 44.36400
C  50.34500 47.31300 43.62100
C  53.33500 46.57100 45.52100
C  51.72800 49.43800 43.66100
C  51.12600 50.66100 44.35700
N  47.87200 46.14200 42.36000
C  47.92900 47.43200 42.76000
C  46.74500 48.14900 42.47100
C  46.07000 47.28000 41.64800
C  46.77100 46.07200 41.61500
C  46.50000 49.53400 42.92000
C  44.94600 47.12700 40.75900
O  44.12700 47.97800 40.48700
C  44.91500 45.72400 40.16200
C  43.59900 45.12900 40.68200
O  42.70000 44.88400 39.94000
O  43.53000 45.02500 42.07000
C  42.24800 44.84800 42.64300
H  49.89100 40.55600 40.42100
H  53.65500 44.46300 43.40300
H  48.96800 48.84500 43.96200
H  45.39300 42.40400 39.40000
H  47.66300 41.19500 38.68700
H  46.90000 40.36000 41.44900
H  46.99300 39.44000 39.92400
H  45.60800 40.30200 40.19500
H  47.31300 42.84300 37.39800
H  46.60200 44.40300 37.80800
H  44.38000 43.21900 37.51700
H  45.31700 42.00300 36.81900
H  53.32700 39.83300 40.31600
H  51.68900 39.57300 40.20500
H  52.49600 39.23300 41.80600
H  55.11800 42.93000 44.12300
H  55.63600 43.43900 42.49100
H  56.30200 41.99400 43.23900
H  53.49700 47.34100 43.61300
H  51.25800 48.12600 45.43000
H  53.04700 47.20300 46.36100
H  54.41000 46.56500 45.34400
H  53.04200 45.56600 45.82700
H  51.41000 49.39700 42.61900
H  52.81700 49.46200 43.68200
H  51.79800 51.45900 44.67300
H  50.70400 50.37900 45.32100
H  50.38200 51.10400 43.69500
H  46.35100 50.28600 42.14500
H  47.30900 49.81300 43.59500
H  45.55500 49.46000 43.45900
H  44.83500 45.81600 39.07800
H  42.30000 44.20000 43.51800
H  41.51600 44.38200 41.98300
H  41.91000 45.87100 42.80300

