158

Mg -10.07200 17.05900 42.88900
C  -6.73700 17.94800 42.69600
C  -10.81200 20.41400 42.25400
C  -13.08200 16.14600 42.26800
C  -9.08400 13.68600 42.82600
N  -8.90900 18.90700 42.38100
C  -7.55100 19.02500 42.44400
C  -7.07900 20.46100 42.17800
C  -8.41500 21.21300 42.42600
C  -9.47500 20.15300 42.29900
C  -8.34700 21.96000 43.80100
C  -6.52200 20.60500 40.69500
C  -5.02000 20.83000 40.55600
H  -4.26800 19.85200 39.58200
N  -11.71800 18.15400 42.25000
C  -11.89900 19.52000 42.17800
C  -13.31700 19.79200 41.81700
C  -13.96700 18.50700 41.68000
C  -12.92300 17.53200 42.05300
C  -13.87100 21.24200 41.57000
C  -15.44500 18.38800 41.32600
O  -16.16800 19.36900 41.21700
C  -16.02200 16.97500 41.00200
N  -10.95700 15.17800 42.46300
C  -12.22600 15.09100 42.50200
C  -12.71700 13.76600 42.81700
C  -11.47900 12.89500 43.00900
C  -10.43000 13.95300 42.65000
C  -13.76200 13.79100 44.02200
C  -11.45200 11.58100 42.18100
C  -11.29900 10.26800 43.08800
N  -8.33600 16.01400 42.83200
C  -8.03000 14.63300 42.79600
C  -6.58400 14.38800 42.97000
C  -6.07900 15.64100 42.90400
C  -7.14800 16.60000 42.79300
C  -5.92000 13.00200 43.20500
C  -4.77500 16.38500 42.98200
O  -3.60400 15.86300 43.02800
C  -5.21500 17.91100 42.95400
C  -4.90700 18.49700 44.30000
O  -5.11500 18.00500 45.42400
O  -4.55500 19.79300 44.09900
C  -3.84700 20.39400 45.27100
H  -11.12900 21.44700 42.09600
H  -14.13100 15.84100 42.28200
H  -8.73800 12.67100 43.03400
H  -6.27700 20.86100 42.79800
H  -8.61900 22.04700 41.75500
H  -7.87800 22.93000 43.63800
H  -7.86700 21.36000 44.57500
H  -9.33100 22.16200 44.22400
H  -6.95800 21.46000 40.17700
H  -6.70600 19.66300 40.17800
H  -4.47300 20.88700 41.49700
H  -4.85000 21.83200 40.16200
H  -13.32100 22.00900 42.11500
H  -14.90400 21.30800 41.91100
H  -13.75900 21.53800 40.52700
H  -15.24500 16.39900 40.50000
H  -16.91900 17.25100 40.44600
H  -16.28600 16.56100 41.97500
H  -13.36500 13.40000 42.02000
H  -11.32600 12.71600 44.07300
H  -13.54500 14.57300 44.75000
H  -13.48400 12.85100 44.50000
H  -14.81700 13.92200 43.78200
H  -10.63600 11.50000 41.46300
H  -12.35000 11.54900 41.56400
H  -10.85600 10.55900 44.04000
H  -10.63000 9.54400 42.62300
H  -12.34200 9.95200 43.08400
H  -4.85300 13.05300 42.99200
H  -6.36700 12.30900 42.49200
H  -6.08700 12.62400 44.21300
H  -4.63900 18.45300 42.20500
H  -4.53500 20.53600 46.10500
H  -3.33300 21.33500 45.07700
H  -3.05900 19.71100 45.59000
Mg -4.87600 24.93800 26.44200
C  -3.35400 26.66900 29.10400
C  -5.82000 22.65800 28.75100
C  -6.34700 23.54700 23.90500
C  -3.30700 27.32300 24.18600
N  -4.69000 24.80100 28.68100
C  -4.18000 25.65900 29.53300
C  -4.51500 25.35200 30.96000
C  -4.75800 23.77900 30.95300
C  -5.13500 23.74600 29.39500
C  -3.45200 22.99700 31.23600
C  -5.74100 26.17100 31.50900
C  -5.49400 26.94800 32.83800
H  -4.96000 26.18800 34.03400
N  -5.99200 23.31500 26.28500
C  -6.25900 22.45000 27.38900
C  -7.11300 21.40400 26.88300
C  -7.32200 21.69100 25.46800
C  -6.50500 22.89700 25.15700
C  -7.55000 20.27400 27.70100
C  -8.15300 21.00800 24.38400
O  -8.23900 21.27300 23.20200
C  -9.12000 19.96800 24.88300
N  -4.62400 25.28100 24.33300
C  -5.53700 24.68100 23.56400
C  -5.40200 25.13400 22.09600
C  -4.30600 26.21000 22.11100
C  -4.07800 26.33500 23.64300
C  -5.05500 23.94000 21.15400
C  -4.71700 27.56100 21.43100
C  -3.82600 28.01200 20.27500
N  -3.55400 26.59400 26.57100
C  -3.04900 27.44100 25.58800
C  -2.18700 28.40400 26.22800
C  -2.27100 28.13400 27.59300
C  -3.13700 27.06400 27.72900
C  -1.36300 29.59500 25.71500
C  -1.74400 28.58100 28.92600
O  -0.95700 29.45500 29.27600
C  -2.62300 27.69000 29.90900
C  -1.69000 27.10200 30.91500
O  -0.69900 26.44900 30.65700
O  -1.97300 27.40000 32.17100
C  -1.04600 26.95500 33.20500
H  -6.06400 21.86100 29.45700
H  -6.92400 23.25300 23.02500
H  -2.88800 28.12700 23.57700
H  -3.69800 25.63400 31.62400
H  -5.53800 23.57200 31.68600
H  -3.53400 22.35500 32.11400
H  -2.63100 23.69100 31.41400
H  -3.22800 22.38500 30.36200
H  -6.67500 25.61400 31.58000
H  -5.99500 26.92800 30.76700
H  -6.41900 27.33500 33.26400
H  -4.86600 27.83200 32.73400
H  -8.63900 20.24400 27.73900
H  -7.13700 20.29800 28.70900
H  -7.15300 19.35900 27.26200
H  -8.56500 19.06300 25.13000
H  -9.72600 19.71000 24.01500
H  -9.75000 20.35800 25.68200
H  -6.32000 25.51300 21.64500
H  -3.32200 25.84800 21.81300
H  -5.80100 23.88400 20.36100
H  -5.05400 22.98100 21.67300
H  -4.04700 24.07500 20.76200
H  -4.78200 28.34500 22.18400
H  -5.69100 27.34400 20.99200
H  -2.89500 28.53200 20.50000
H  -4.42300 28.66200 19.63600
H  -3.61400 27.23100 19.54400
H  -1.48300 29.71200 24.63800
H  -0.28400 29.45200 25.76800
H  -1.62000 30.43200 26.36500
H  -3.29000 28.31500 30.50200
H  -0.82200 25.89100 33.12400
H  -1.61500 27.21800 34.09600
H  -0.08900 27.47300 33.25700

