158

Mg 0.49600 7.57300 26.10300
C  1.36200 9.46900 28.84700
C  0.65000 4.81900 28.25700
C  0.57000 5.52300 23.41300
C  1.31800 10.33800 23.97100
N  1.24900 7.19400 28.33700
C  1.03900 8.14800 29.22900
C  1.07100 7.60600 30.61800
C  1.10800 6.11200 30.38400
C  1.02700 6.01400 28.86300
C  2.33300 5.23700 30.83900
C  -0.16300 8.10600 31.39800
C  0.06900 8.17000 32.90500
H  1.28700 7.37300 33.51800
N  0.27300 5.52700 25.88000
C  0.28000 4.57600 26.88400
C  -0.12700 3.34300 26.30000
C  -0.11300 3.45700 24.89800
C  0.32800 4.85500 24.66100
C  -0.55100 2.18000 27.09000
C  -0.34200 2.36100 23.75400
O  -0.08500 2.53100 22.57500
C  -0.93700 1.15000 24.22200
N  0.97800 7.97600 23.96100
C  0.72200 6.94200 23.11500
C  0.59400 7.50800 21.67900
C  0.68300 9.05100 21.87700
C  1.03100 9.13100 23.31700
C  1.67500 7.02100 20.65500
C  -0.59700 9.81800 21.51300
C  -0.40000 11.01300 20.61200
N  1.12800 9.46800 26.32900
C  1.35300 10.51700 25.37200
C  1.63200 11.76500 26.09300
C  1.65300 11.30500 27.43500
C  1.35500 9.99200 27.54400
C  1.89100 13.17700 25.54200
C  1.78500 11.83100 28.79600
O  1.98000 12.95900 29.22100
C  1.59100 10.62600 29.79600
C  2.73000 10.46200 30.69900
O  3.80700 9.89000 30.46400
O  2.40300 11.11500 31.86500
C  3.44800 10.83400 32.89100
H  0.59800 4.03300 29.01300
H  0.31600 4.87000 22.57500
H  1.41500 11.27000 23.41100
H  2.00500 7.83000 31.13300
H  0.16700 5.69500 30.74400
H  2.79100 4.64900 30.04300
H  1.98200 4.61600 31.66300
H  3.16500 5.89600 31.08700
H  -0.96800 7.37700 31.30800
H  -0.47200 9.01100 30.87500
H  -0.84300 7.78000 33.35700
H  0.04800 9.18500 33.30200
H  -1.49800 1.73000 26.79400
H  -0.61100 2.48500 28.13500
H  0.30400 1.50300 27.09400
H  -1.11900 0.54400 23.33400
H  -1.93100 1.36400 24.61300
H  -0.26200 0.65600 24.92000
H  -0.39500 7.21600 21.32600
H  1.47100 9.45600 21.24300
H  1.37400 6.13000 20.10300
H  2.62200 6.92000 21.18400
H  1.85100 7.76000 19.87400
H  -0.93700 10.26700 22.44700
H  -1.39100 9.16300 21.15400
H  -0.80300 10.87400 19.60900
H  0.66300 11.25000 20.58000
H  -0.91900 11.92400 20.91200
H  2.92100 13.31900 25.21400
H  1.68200 13.96200 26.26900
H  1.25100 13.45600 24.70500
H  0.74800 10.99800 30.37800
H  2.98900 11.22300 33.80000
H  4.37000 11.34300 32.60900
H  3.47500 9.74400 32.90900
Mg 40.48300 8.35400 29.65300
C  42.33400 9.62300 32.55000
C  38.22200 7.08900 31.83300
C  39.30700 6.45500 27.15000
C  43.28900 9.02800 27.67800
N  40.26900 8.46900 31.98300
C  41.07600 9.13300 32.96400
C  40.48200 9.10200 34.32500
C  39.19300 8.15300 34.06100
C  39.23900 7.75400 32.60800
C  39.02800 7.02300 35.08100
C  40.09900 10.44300 34.97800
C  39.22400 10.40600 36.22800
H  39.59600 11.32900 37.32600
N  38.90900 7.14500 29.52000
C  38.10300 6.77000 30.46700
C  36.99600 6.02500 29.90700
C  37.20400 5.97200 28.56200
C  38.51400 6.55500 28.31100
C  35.80900 5.48400 30.78900
C  36.30900 5.37200 27.49000
O  36.54500 5.40200 26.32300
C  35.02800 4.81300 27.78100
N  41.24100 7.64400 27.77300
C  40.56200 6.88600 26.86900
C  41.20400 6.89300 25.46100
C  42.23800 8.06200 25.52300
C  42.26800 8.26200 27.11500
C  41.93600 5.54200 25.03700
C  41.93200 9.31100 24.67600
C  40.71200 10.07900 25.12100
N  42.41500 9.16900 29.94400
C  43.41700 9.36900 29.05200
C  44.50500 10.10700 29.74600
C  44.09000 10.21400 31.06800
C  42.82600 9.57900 31.19800
C  45.85300 10.51000 29.12700
C  44.48900 10.73300 32.37100
O  45.52800 11.35200 32.62000
C  43.37700 10.38100 33.40000
C  43.96700 9.63300 34.51300
O  44.35700 8.47400 34.44800
O  43.99300 10.37300 35.62000
C  44.54600 9.81600 36.90300
H  37.43900 6.62900 32.44100
H  38.77500 5.83100 26.42800
H  44.11000 9.42200 27.07600
H  41.12800 8.50500 34.96800
H  38.24400 8.67500 34.18600
H  39.14400 6.00200 34.71700
H  38.07400 7.04500 35.60800
H  39.77300 7.15800 35.86500
H  39.53900 10.94400 34.18800
H  40.94600 11.06600 35.26600
H  39.28900 9.44000 36.72800
H  38.20500 10.56300 35.87600
H  34.88400 5.71400 30.26100
H  35.71100 5.96000 31.76500
H  36.00000 4.41800 30.90900
H  35.03900 4.13100 28.63100
H  34.74500 4.21500 26.91500
H  34.21100 5.53100 27.86100
H  40.40400 7.09600 24.74900
H  43.28200 7.86700 25.27900
H  41.56000 4.82900 25.77100
H  43.02000 5.62500 25.10300
H  41.78000 5.19100 24.01700
H  41.69000 9.01000 23.65700
H  42.85700 9.88800 24.65300
H  40.40300 9.79300 26.12600
H  39.89200 9.97300 24.41100
H  40.83400 11.15900 25.20000
H  46.39300 10.72700 30.04900
H  45.60000 11.35700 28.48900
H  46.27400 9.67600 28.56600
H  43.03200 11.34900 33.76300
H  45.41200 10.37700 37.25600
H  44.93600 8.82900 36.65000
H  43.88200 9.83400 37.76800

