158

Mg -2.73800 17.68800 26.99700
C  -3.23200 15.50700 29.58700
C  -3.35500 20.25200 29.20700
C  -2.25700 19.85100 24.51700
C  -2.39700 15.00600 24.78800
N  -3.08400 17.86800 29.15900
C  -3.25700 16.78600 30.01000
C  -3.63900 17.30300 31.44500
C  -4.05100 18.77000 31.23800
C  -3.48700 18.98800 29.79000
C  -5.57600 19.06800 31.39600
C  -2.67300 16.92700 32.52800
C  -2.35700 17.79000 33.69500
H  -1.89600 17.19700 34.94000
N  -2.69300 19.77600 26.94500
C  -2.97600 20.70000 27.91700
C  -2.57600 22.05000 27.43000
C  -2.19200 21.91000 26.07400
C  -2.37600 20.46100 25.76900
C  -2.58100 23.26700 28.36000
C  -1.64300 22.95000 25.15300
O  -1.39600 22.77000 23.96000
C  -1.48200 24.29200 25.65100
N  -2.61200 17.46700 24.86800
C  -2.23900 18.53000 24.13400
C  -1.97300 18.17000 22.66400
C  -1.89000 16.62100 22.83600
C  -2.37800 16.32800 24.22600
C  -3.11900 18.64100 21.66000
C  -0.44800 16.06800 22.64000
C  0.54200 16.27400 23.80000
N  -2.98700 15.68700 27.03100
C  -2.79400 14.70900 26.09500
C  -3.01600 13.42800 26.69300
C  -3.18700 13.70600 28.00500
C  -3.11200 15.06700 28.19800
C  -3.11100 12.08700 26.03100
C  -3.46100 13.03400 29.25500
O  -3.66500 11.87600 29.50900
C  -3.46800 14.18000 30.35900
C  -2.35300 13.85800 31.31500
O  -1.23900 14.30200 31.15300
O  -2.88400 13.16100 32.39200
C  -2.00900 13.09700 33.55100
H  -3.51000 21.09000 29.89000
H  -2.02900 20.55200 23.71100
H  -2.35700 14.11400 24.16000
H  -4.45100 16.63200 31.72400
H  -3.45700 19.41900 31.88100
H  -5.79000 19.39400 32.41400
H  -6.03500 18.09100 31.24700
H  -5.96600 19.70600 30.60400
H  -1.66500 16.80900 32.12900
H  -3.10800 16.07200 33.04400
H  -3.25800 18.38800 33.83300
H  -1.59200 18.53100 33.46700
H  -3.21300 24.09800 28.04600
H  -1.57900 23.68700 28.26400
H  -2.91900 23.00100 29.36100
H  -0.68800 24.18400 26.39000
H  -2.42900 24.64400 26.06000
H  -1.03000 24.92800 24.89000
H  -0.99100 18.62200 22.52100
H  -2.45700 16.16000 22.02800
H  -2.80900 19.49200 21.05400
H  -3.97100 19.05500 22.20000
H  -3.54000 17.83000 21.06600
H  0.01300 16.72100 21.89900
H  -0.44400 15.05500 22.23800
H  0.07800 16.29200 24.78600
H  0.87100 17.29200 23.59300
H  1.30300 15.51100 23.63400
H  -2.40700 12.04400 25.19900
H  -4.06800 11.91700 25.53900
H  -3.06300 11.24500 26.72100
H  -4.35000 14.16200 30.99900
H  -1.03200 12.68500 33.29700
H  -2.49000 12.38500 34.22200
H  -1.73100 14.08500 33.91800
Mg 25.67200 1.31200 29.02800
C  27.52100 1.06700 32.04900
C  22.77900 1.35300 30.88800
C  24.03500 1.57700 26.12900
C  28.68400 0.71400 27.28000
N  25.26500 1.29600 31.16100
C  26.13800 1.24700 32.20400
C  25.46400 1.44800 33.60300
C  24.00500 1.22700 33.15800
C  23.96000 1.25600 31.64000
C  23.59800 -0.29500 33.53400
C  25.82700 2.84500 34.16600
C  26.44100 2.97300 35.62500
H  26.07700 4.09800 36.56200
N  23.63200 1.56800 28.57800
C  22.53900 1.57400 29.48100
C  21.34700 1.65700 28.77300
C  21.73600 1.74500 27.40300
C  23.20800 1.67700 27.30500
C  19.98600 1.47500 29.38800
C  20.81100 1.73900 26.12400
O  21.16000 1.54300 24.95400
C  19.27500 1.79400 26.36900
N  26.32100 1.19100 26.96200
C  25.42300 1.31500 25.92800
C  26.07700 1.05400 24.55200
C  27.63600 1.07800 24.98100
C  27.58000 0.87900 26.51100
C  25.53900 -0.25400 23.84100
C  28.42100 2.33500 24.51700
C  28.15600 3.68000 25.25700
N  27.66600 0.98700 29.50400
C  28.70900 0.64700 28.67700
C  29.83900 0.47000 29.53200
C  29.47900 0.72100 30.82900
C  28.09800 0.94000 30.75600
C  31.20500 0.08000 29.09400
C  29.98700 0.90300 32.20800
O  31.14200 0.92300 32.70100
C  28.69000 1.09500 33.02200
C  28.63000 0.05800 34.07700
O  28.17400 -1.06600 33.97300
O  29.21900 0.57500 35.20700
C  29.08500 -0.17200 36.48400
H  21.83400 1.28000 31.43000
H  23.43000 1.70400 25.22800
H  29.72800 0.69000 26.96200
H  25.95900 0.77500 34.30300
H  23.25400 1.86400 33.62400
H  23.21900 -0.38900 34.55200
H  24.31500 -1.03400 33.17700
H  22.68300 -0.48800 32.97200
H  24.85900 3.33800 34.26100
H  26.40900 3.34700 33.39300
H  27.51400 3.14700 35.53900
H  26.39400 2.05400 36.20900
H  19.33500 2.25600 28.99400
H  19.87200 1.52800 30.47000
H  19.59800 0.50600 29.07200
H  18.90600 0.82400 26.70100
H  18.78400 2.00000 25.41800
H  18.92500 2.63900 26.96200
H  25.74800 1.84100 23.87300
H  28.15500 0.22300 24.54700
H  24.45400 -0.18100 23.90200
H  25.92200 -1.14400 24.34000
H  25.91700 -0.23800 22.81800
H  27.99300 2.41200 23.51700
H  29.48800 2.18600 24.35500
H  29.15000 4.10400 25.40100
H  27.62900 3.50300 26.19400
H  27.40000 4.30100 24.77600
H  31.82400 0.19000 29.98500
H  31.58400 0.72000 28.29700
H  31.20800 -0.98900 28.88000
H  28.66700 2.05200 33.54300
H  29.36400 -1.22400 36.41500
H  28.07800 -0.19400 36.90000
H  29.82800 0.27600 37.14300

