158

Mg 40.22800 9.94900 29.39700
C  41.94200 10.76700 32.15300
C  37.45900 9.09800 31.32000
C  38.64300 8.82200 26.55200
C  42.91900 11.00000 27.33000
N  39.78400 9.95400 31.47000
C  40.63000 10.39800 32.40000
C  40.05400 10.20800 33.86100
C  38.55200 9.70400 33.46700
C  38.60100 9.54200 31.97300
C  38.08000 8.34100 34.19800
C  40.00500 11.36800 34.71800
C  40.82500 11.23000 36.07400
H  41.30400 12.41900 36.85400
N  38.24800 9.11900 28.99400
C  37.30700 8.92500 29.92600
C  36.11600 8.32500 29.23700
C  36.53500 8.13400 27.87500
C  37.89100 8.70000 27.77600
C  34.92300 7.86000 30.03800
C  35.70800 7.54700 26.74100
O  36.18500 7.27600 25.68000
C  34.25900 7.13800 27.01200
N  40.81800 9.72800 27.35900
C  39.91700 9.29200 26.38300
C  40.47300 9.42300 24.96500
C  41.79300 10.33200 25.19800
C  41.79600 10.35100 26.76600
C  40.74600 8.12700 24.15100
C  41.79500 11.71100 24.45900
C  41.30800 12.92100 25.22000
N  42.15300 10.67100 29.71700
C  43.12900 11.05200 28.80100
C  44.28400 11.49100 29.59800
C  43.90500 11.30300 30.96700
C  42.60500 10.78300 30.94200
C  45.58600 12.03300 29.03400
C  44.32200 11.59200 32.33500
O  45.37400 12.11700 32.79200
C  43.05500 11.14400 33.16600
C  43.46900 10.23400 34.24400
O  43.72900 9.06700 34.13400
O  43.79700 11.05000 35.35000
C  44.40900 10.30100 36.43400
H  36.63800 8.89300 32.01000
H  38.17900 8.50300 25.61600
H  43.67400 11.33600 26.61700
H  40.56700 9.35300 34.30200
H  37.77500 10.41700 33.74300
H  39.00000 8.02200 34.68900
H  37.73400 7.61100 33.46600
H  37.21400 8.52300 34.83300
H  38.97300 11.67900 34.88000
H  40.48900 12.21000 34.22300
H  41.60100 10.46600 36.03100
H  40.10500 10.82200 36.78400
H  34.98100 8.47800 30.93500
H  35.06800 6.83000 30.36400
H  33.95200 8.00000 29.56300
H  33.70700 8.07000 27.13300
H  34.03900 6.46900 27.84400
H  33.84700 6.62700 26.14200
H  39.80600 10.14700 24.49700
H  42.74500 9.90700 24.88100
H  40.02200 7.99700 23.34600
H  40.72100 7.31200 24.87400
H  41.74300 8.18700 23.71600
H  41.11600 11.61100 23.61300
H  42.80600 11.92100 24.11100
H  40.88900 12.74700 26.21100
H  40.49500 13.56100 24.87600
H  42.15900 13.60000 25.26100
H  45.36300 12.73300 28.22900
H  46.24900 11.23500 28.69800
H  46.16100 12.53300 29.81300
H  42.66500 11.97700 33.75100
H  45.44100 10.04800 36.19000
H  43.87800 9.36700 36.61500
H  44.31500 10.95800 37.29900
Mg 0.53500 41.99700 25.39100
C  1.81600 41.89500 28.75500
C  -2.39400 40.95700 26.51200
C  -0.26100 41.22800 22.27200
C  3.80500 42.87700 24.34900
N  -0.20600 41.57500 27.38900
C  0.41200 41.60400 28.58900
C  -0.52300 41.34200 29.75900
C  -1.79100 40.77100 29.09500
C  -1.44900 41.11900 27.55600
C  -2.05800 39.26700 29.39600
C  -0.69900 42.79200 30.35700
C  -0.99800 42.72300 31.95100
H  -1.66300 41.51000 32.69300
N  -1.18600 41.38900 24.43500
C  -2.33900 41.09900 25.09500
C  -3.37800 40.88000 24.13000
C  -2.73600 40.90000 22.81500
C  -1.33700 41.16500 23.15200
C  -4.84500 40.67800 24.41700
C  -3.37100 40.75200 21.42300
O  -2.72400 40.97600 20.40400
C  -4.86000 40.56100 21.38500
N  1.60100 42.00700 23.64800
C  1.06600 41.61600 22.43300
C  2.09500 41.69100 21.37900
C  3.10700 42.67500 21.95900
C  2.86800 42.47000 23.43100
C  2.63200 40.33500 20.74200
C  3.09200 44.19700 21.55400
C  3.98200 44.59300 20.34500
N  2.47100 42.21600 26.32400
C  3.65300 42.67600 25.73800
C  4.67700 42.96600 26.78400
C  4.02700 42.63900 28.06500
C  2.67500 42.16800 27.67400
C  6.05400 43.45500 26.53500
C  4.09500 42.47700 29.48100
O  4.99900 42.59700 30.24400
C  2.70200 42.06000 29.92600
C  2.73000 40.77100 30.68800
O  2.90100 39.62400 30.30900
O  2.28800 41.08600 31.97200
C  1.81200 39.97400 32.77400
H  -3.39100 40.58500 26.75700
H  -0.42100 40.87500 21.25100
H  4.78200 43.17800 23.96600
H  0.08600 40.70500 30.40100
H  -2.70100 41.28900 29.39500
H  -2.41400 39.22000 30.42500
H  -1.22400 38.62400 29.11500
H  -2.83800 38.86600 28.74700
H  -1.57500 43.14800 29.81400
H  0.18900 43.36300 30.08800
H  -1.52000 43.65000 32.18600
H  0.02900 42.92100 32.25700
H  -5.37700 41.53700 24.00600
H  -5.00800 40.77300 25.49100
H  -5.26200 39.73100 24.07600
H  -5.27400 40.29600 20.41200
H  -5.32800 41.48000 21.73600
H  -4.96800 39.67100 22.00500
H  1.70900 42.24700 20.52500
H  4.05100 42.21500 21.66900
H  1.89000 39.53700 20.78600
H  3.50500 39.96100 21.27700
H  2.83400 40.54300 19.69200
H  3.42700 44.85500 22.35600
H  2.08600 44.52700 21.29300
H  3.33900 44.95100 19.54100
H  4.51700 43.74300 19.92000
H  4.74500 45.33500 20.58000
H  6.09600 44.17700 25.72000
H  6.73900 42.67100 26.21500
H  6.34500 43.94000 27.46700
H  2.35200 42.86800 30.56900
H  1.51600 40.56200 33.64300
H  2.62300 39.25900 32.91600
H  0.91000 39.51800 32.36500

