158

Mg 16.22100 -2.63600 27.79000
C  15.21800 -0.42800 30.46200
C  17.78500 -4.52700 30.20000
C  17.63000 -4.44100 25.40900
C  14.63300 -0.44900 25.48000
N  16.44700 -2.44100 30.08700
C  15.94100 -1.50600 30.94600
C  16.07200 -1.96000 32.41800
C  17.06000 -3.17300 32.31000
C  17.09100 -3.42000 30.75500
C  18.45600 -3.00700 33.01400
C  14.75000 -2.27800 33.03600
C  14.41400 -1.66700 34.42700
H  15.56400 -1.27400 35.30000
N  17.51200 -4.24800 27.87900
C  17.99800 -4.96400 28.90800
C  18.85600 -6.05200 28.49500
C  18.74900 -6.04100 27.05200
C  17.95700 -4.87100 26.71600
C  19.53200 -7.02500 29.47500
C  19.43700 -7.00000 26.07300
O  19.33800 -6.85300 24.84200
C  20.36900 -8.04700 26.67200
N  15.97700 -2.56600 25.78200
C  16.82600 -3.29700 25.07500
C  16.72200 -2.88800 23.57300
C  15.54900 -1.84600 23.58700
C  15.34700 -1.61500 25.06500
C  18.01800 -2.18500 23.07800
C  14.23400 -2.30800 22.91000
C  13.32800 -1.28700 22.16400
N  15.03600 -0.84300 27.86500
C  14.49600 -0.02400 26.85100
C  13.73800 1.07900 27.36000
C  14.03400 1.00500 28.78900
C  14.84000 -0.16500 29.01400
C  12.93700 2.06400 26.56600
C  13.84600 1.57100 30.08400
O  13.33100 2.62500 30.32100
C  14.42900 0.58600 31.22000
C  15.20300 1.49700 32.03600
O  16.35700 1.85300 31.88500
O  14.36300 1.85100 33.13000
C  14.93300 2.87000 33.95800
H  18.25000 -5.16200 30.95700
H  18.09700 -4.89400 24.53200
H  14.19600 0.19000 24.71000
H  16.51700 -1.09700 32.91300
H  16.63300 -4.06900 32.76000
H  18.54600 -3.83900 33.71300
H  18.45400 -2.04600 33.52800
H  19.15100 -3.11900 32.18200
H  14.69700 -3.34700 33.24500
H  13.93600 -1.97400 32.37900
H  13.78700 -2.37600 34.96900
H  13.84600 -0.75200 34.26300
H  19.65500 -8.06700 29.18000
H  19.17400 -6.90200 30.49700
H  20.55400 -6.64900 29.52700
H  19.69200 -8.87800 26.86800
H  21.10400 -7.73400 27.41400
H  21.02700 -8.37200 25.86600
H  16.43800 -3.82800 23.10000
H  15.82800 -0.86100 23.21300
H  18.19200 -2.39100 22.02200
H  18.92300 -2.23200 23.68500
H  17.91600 -1.10000 23.05500
H  13.62300 -2.68600 23.73000
H  14.58700 -3.09500 22.24400
H  12.66400 -0.98900 22.97500
H  12.72600 -1.71900 21.36400
H  13.98500 -0.45400 21.91400
H  12.90200 3.01400 27.10000
H  11.91700 1.68200 26.53600
H  13.31100 2.25100 25.56000
H  13.54100 0.24000 31.74800
H  15.36200 2.31300 34.79100
H  14.14500 3.46300 34.42100
H  15.70900 3.48700 33.50500
Mg 49.57300 45.66300 43.27800
C  46.15500 46.09500 42.34900
C  49.32500 42.35600 42.18200
C  52.88500 45.58200 43.17100
C  49.70300 49.19800 43.82600
N  47.88600 44.36200 42.53700
C  46.61600 44.76600 42.19000
C  45.77900 43.58900 41.59800
C  46.64800 42.31900 41.90600
C  48.06800 42.99400 42.22900
C  46.28000 41.34500 43.11200
C  45.39400 43.79300 40.07800
C  46.49800 43.94000 39.04600
H  46.34800 42.92500 37.84700
N  50.91500 44.15900 42.82100
C  50.60600 42.90500 42.37100
C  51.87500 42.16900 42.26600
C  52.93800 43.01700 42.50600
C  52.27900 44.34700 42.74500
C  51.84900 40.63100 42.02200
C  54.43000 42.59700 42.47600
O  54.72700 41.39400 42.33100
C  55.56400 43.67800 42.65600
N  50.95800 47.18100 43.40000
C  52.29500 46.80700 43.45900
C  53.22100 48.07900 43.58100
C  52.22500 49.20900 43.83900
C  50.84700 48.47900 43.68500
C  54.38100 47.93600 44.58900
C  52.35200 50.51700 42.91400
C  52.65900 51.85100 43.60400
N  48.20100 47.34800 43.23200
C  48.40300 48.69500 43.52900
C  47.16800 49.43200 43.23100
C  46.25100 48.43300 42.82600
C  46.93800 47.19300 42.81600
C  47.12400 50.95400 43.31200
C  44.88700 48.21100 42.33500
O  43.94500 48.97700 42.04400
C  44.80200 46.68800 42.05000
C  43.73800 46.05700 42.81200
O  42.91100 45.28400 42.33600
O  43.58200 46.52700 44.06900
C  42.50000 45.97400 44.82100
H  49.20200 41.29200 41.97000
H  53.97500 45.62900 43.14900
H  49.67800 50.22600 44.19400
H  44.84000 43.42600 42.12800
H  46.86300 41.67500 41.05300
H  46.59300 40.33400 42.84900
H  45.19100 41.39300 43.11800
H  46.78900 41.75000 43.98600
H  44.79200 44.67300 39.85100
H  44.73100 42.93200 39.98200
H  47.47800 43.74900 39.48300
H  46.58300 44.94400 38.62900
H  52.61500 40.34100 41.30200
H  50.90000 40.17900 41.73700
H  52.15600 40.20900 42.97900
H  55.43700 44.45700 41.90400
H  56.46600 43.10100 42.45300
H  55.54400 44.07400 43.67100
H  53.60400 48.18700 42.56600
H  52.32300 49.57500 44.86000
H  55.25500 47.68700 43.98700
H  54.17100 47.04300 45.17800
H  54.44200 48.77600 45.28100
H  51.40000 50.57700 42.38700
H  53.09200 50.46300 42.11500
H  51.70700 52.38100 43.63200
H  53.29200 52.52500 43.02500
H  53.00200 51.67500 44.62400
H  47.27400 51.37300 44.30700
H  46.12900 51.31300 43.04800
H  47.93000 51.17300 42.61200
H  44.53700 46.66700 40.99300
H  41.72700 46.73800 44.90200
H  42.83900 45.70100 45.82000
H  41.83200 45.17000 44.51200

