158

Mg 47.57800 15.66300 29.14900
C  45.50300 15.28100 31.85300
C  49.58400 17.68400 31.15900
C  49.61700 16.49200 26.61100
C  45.08800 14.54200 27.04400
N  47.46500 16.45000 31.17300
C  46.63300 15.94700 32.16000
C  46.96400 16.58000 33.52100
C  48.15800 17.54600 33.25700
C  48.44500 17.21200 31.74300
C  47.91300 19.03500 33.49200
C  47.30300 15.53600 34.58300
C  47.27300 15.88400 36.02700
H  46.88200 17.27700 36.43700
N  49.50500 16.63400 28.94300
C  50.07400 17.44400 29.89000
C  51.42500 17.79000 29.44900
C  51.44000 17.42300 28.11600
C  50.10900 16.88600 27.79200
C  52.41900 18.53100 30.32100
C  52.54000 17.62100 27.10000
O  52.48200 17.28400 25.98000
C  53.85300 18.36100 27.58900
N  47.38400 15.68500 27.14800
C  48.37400 16.03000 26.26600
C  47.91400 15.80200 24.80800
C  46.53700 14.96200 24.95100
C  46.27100 15.09500 26.44800
C  47.76400 17.18900 24.13200
C  46.63900 13.45900 24.36800
C  46.82100 12.26600 25.34700
N  45.70500 15.07500 29.34500
C  44.76700 14.57500 28.41300
C  43.51600 14.08800 29.14600
C  43.86800 14.28200 30.48100
C  45.13700 14.91700 30.56900
C  42.22400 13.65800 28.58500
C  43.29500 14.19000 31.77500
O  42.18200 13.76600 32.07200
C  44.30200 14.94200 32.76400
C  43.53100 16.12500 33.27000
O  43.04200 16.99000 32.58600
O  43.31100 16.04400 34.61200
C  42.73400 17.17600 35.33800
H  50.20600 18.33100 31.78100
H  50.23800 16.70100 25.73700
H  44.33500 14.25500 26.30600
H  46.04000 17.04400 33.86600
H  49.06900 17.22800 33.76400
H  46.91100 19.13400 33.91000
H  47.97400 19.51700 32.51700
H  48.69900 19.41200 34.14600
H  48.29800 15.19600 34.29500
H  46.60600 14.72100 34.38800
H  48.24000 15.57600 36.42500
H  46.64600 15.20000 36.59800
H  53.22800 17.82200 30.49800
H  52.16200 18.90300 31.31300
H  52.80800 19.37000 29.74500
H  53.59900 19.40300 27.78600
H  54.58200 18.34300 26.77800
H  54.19900 17.87000 28.49800
H  48.76800 15.17400 24.55500
H  45.68100 15.35900 24.40500
H  46.77800 17.26700 23.67300
H  48.44600 17.13500 23.28300
H  48.02300 18.05000 24.74800
H  47.47900 13.39300 23.67600
H  45.68200 13.29500 23.87100
H  45.86800 11.76100 25.50500
H  47.27300 12.65600 26.25800
H  47.50200 11.53800 24.90500
H  42.34400 13.87100 27.52300
H  41.44800 14.29700 29.00700
H  42.04000 12.59300 28.72600
H  44.52100 14.25500 33.58100
H  43.13100 18.09500 34.90700
H  43.08000 17.17200 36.37200
H  41.65000 17.11400 35.24700
Mg -6.43900 26.04700 25.68700
C  -4.80700 27.33000 28.44600
C  -8.00600 23.80600 27.84300
C  -7.19100 24.08800 23.00300
C  -4.54900 28.18800 23.55600
N  -6.24400 25.48100 27.87100
C  -5.58700 26.28800 28.76600
C  -6.12800 25.91800 30.21500
C  -6.91800 24.64200 29.94700
C  -7.11500 24.64400 28.47900
C  -6.41000 23.30900 30.59000
C  -6.99100 27.00100 30.95900
C  -7.08300 27.07800 32.52900
H  -6.34400 26.07300 33.43200
N  -7.62700 24.30900 25.35400
C  -8.23100 23.61100 26.38600
C  -9.01600 22.57800 25.84900
C  -8.73400 22.56200 24.42800
C  -7.81000 23.68300 24.16500
C  -9.89900 21.72700 26.70300
C  -9.16300 21.53500 23.35700
O  -8.66900 21.54600 22.22200
C  -10.20300 20.57400 23.68500
N  -5.83500 26.03800 23.62100
C  -6.32500 25.15200 22.72600
C  -6.07900 25.64200 21.27800
C  -5.33000 27.03200 21.40300
C  -5.25000 27.13300 22.96500
C  -5.30800 24.64800 20.41500
C  -6.06100 28.31600 20.70000
C  -7.00200 29.16100 21.59000
N  -5.05400 27.57900 25.94800
C  -4.38600 28.37600 24.97800
C  -3.48200 29.22700 25.68100
C  -3.58200 28.87300 27.03300
C  -4.54300 27.83600 27.12900
C  -2.61700 30.30800 25.14300
C  -3.09400 29.13200 28.41700
O  -2.33300 30.05600 28.82500
C  -3.92700 28.18500 29.35700
C  -2.92700 27.46500 30.24800
O  -2.44900 26.37800 29.99000
O  -2.85900 28.16900 31.34500
C  -2.49300 27.35000 32.51400
H  -8.48800 23.08500 28.50800
H  -7.54000 23.59400 22.09400
H  -4.05500 28.89100 22.88100
H  -5.29800 25.68700 30.88200
H  -7.87400 24.65100 30.47100
H  -6.34400 22.59900 29.76600
H  -7.10500 23.02900 31.38200
H  -5.43300 23.53000 31.02000
H  -8.04000 26.87300 30.69400
H  -6.83400 27.96700 30.47800
H  -8.12200 26.87500 32.79200
H  -6.94100 28.08300 32.92800
H  -9.58200 20.68600 26.63600
H  -10.93000 21.92300 26.40800
H  -10.04200 21.98700 27.75100
H  -10.55000 19.90800 22.89600
H  -11.10600 21.05100 24.06700
H  -9.73800 19.81000 24.30900
H  -7.09100 25.82100 20.91300
H  -4.34000 26.94400 20.95500
H  -5.79000 24.68500 19.43800
H  -5.46500 23.67300 20.87600
H  -4.22800 24.78500 20.47000
H  -6.69000 27.94000 19.89200
H  -5.32000 28.97500 20.24800
H  -6.58900 30.16600 21.67500
H  -7.28700 28.69100 22.53100
H  -7.93400 29.24200 21.03100
H  -1.64400 30.45000 25.61400
H  -3.18200 31.23500 25.23900
H  -2.53700 30.25600 24.05700
H  -4.59000 28.87300 29.88100
H  -2.79400 27.86600 33.42600
H  -1.40300 27.36700 32.53800
H  -3.00700 26.38800 32.50500

