158

Mg 47.22500 16.14400 28.97700
C  44.90900 15.83500 31.53900
C  49.43800 17.83300 31.23700
C  49.25900 16.92500 26.45300
C  44.83000 15.09800 26.72300
N  47.07300 16.90300 31.08100
C  46.07600 16.46600 31.98000
C  46.53000 16.93400 33.37900
C  47.73500 17.84500 33.17900
C  48.11600 17.58600 31.69800
C  47.38600 19.38300 33.48200
C  46.59400 15.68200 34.27500
C  46.61300 15.77000 35.78800
H  46.51200 17.15600 36.37200
N  49.12300 17.14000 28.86600
C  49.87100 17.67600 29.93800
C  51.16400 18.17300 29.40000
C  51.14000 17.87300 28.03900
C  49.78200 17.22700 27.72600
C  52.05100 18.99400 30.20400
C  52.16100 18.27900 26.90700
O  52.01800 17.97500 25.69500
C  53.37000 19.00000 27.39700
N  47.03400 16.17600 26.85400
C  48.04600 16.39700 25.99200
C  47.70100 16.09700 24.51700
C  46.29200 15.46200 24.68200
C  46.01000 15.57300 26.16100
C  47.88600 17.23700 23.46100
C  45.98400 14.03600 24.09100
C  46.50200 12.84800 24.90300
N  45.26200 15.49900 29.07000
C  44.43700 15.03200 28.03500
C  43.14300 14.66600 28.58000
C  43.28100 14.95300 29.99100
C  44.59900 15.52300 30.22400
C  41.91500 14.07000 27.83400
C  42.61600 14.79300 31.30800
O  41.53000 14.39100 31.57500
C  43.68100 15.34500 32.33800
C  43.07200 16.49400 33.03900
O  43.10000 17.65700 32.67000
O  42.48900 16.15900 34.25100
C  41.99400 17.16000 35.12000
H  50.01000 18.28600 32.04800
H  50.08800 16.92200 25.74300
H  44.03800 14.68000 26.09800
H  45.70900 17.50500 33.81100
H  48.53700 17.55700 33.85900
H  47.13100 19.76400 32.49300
H  48.33300 19.86600 33.72800
H  46.70100 19.54600 34.31500
H  47.53600 15.27600 33.90700
H  45.76800 15.01900 34.01500
H  47.31200 15.11900 36.31400
H  45.67100 15.26700 36.00900
H  51.58300 19.18500 31.16900
H  52.07300 19.99300 29.76800
H  53.00800 18.49100 30.34700
H  53.93300 19.24900 26.49700
H  53.88100 18.40000 28.15000
H  53.06300 19.93500 27.86600
H  48.34500 15.32100 24.10400
H  45.49700 16.10000 24.29700
H  47.66900 18.13300 24.04300
H  47.00400 17.32000 22.82500
H  48.85700 17.43000 23.00500
H  46.52300 13.88200 23.15600
H  44.93300 13.85300 23.87100
H  47.20900 13.19600 25.65600
H  46.89300 12.09300 24.22100
H  45.73200 12.25600 25.39800
H  41.30200 13.42600 28.46500
H  42.15500 13.51100 26.92900
H  41.30600 14.93700 27.58000
H  43.81100 14.58700 33.11100
H  40.99400 17.49900 34.85200
H  42.69500 17.99500 35.12600
H  42.00500 16.67200 36.09500
Mg 47.34600 34.47400 26.89000
C  45.32400 33.06800 29.42300
C  47.58000 37.22700 28.66800
C  48.97700 35.80100 24.25500
C  46.72900 31.58400 24.92300
N  46.59300 34.99300 28.82000
C  45.85200 34.27300 29.74100
C  46.12700 34.88000 31.16700
C  46.44500 36.43100 30.84400
C  46.86600 36.24700 29.34000
C  45.38000 37.39900 31.19900
C  47.31200 34.20200 31.80500
C  47.67200 34.48100 33.25800
H  46.70100 35.21700 34.21400
N  48.15800 36.23500 26.46900
C  48.16900 37.27900 27.37600
C  48.91000 38.37200 26.83600
C  49.18200 38.00200 25.50800
C  48.75000 36.65500 25.37600
C  49.26500 39.63300 27.57900
C  49.72100 38.83400 24.29600
O  49.73800 38.34000 23.15600
C  50.07100 40.30100 24.39000
N  47.67200 33.83200 24.79000
C  48.37700 34.63700 23.93200
C  48.59900 34.02500 22.58200
C  48.10800 32.52900 22.88500
C  47.47400 32.60700 24.26600
C  47.95300 34.79000 21.41700
C  49.20000 31.44300 22.79800
C  48.82100 30.35200 21.75300
N  46.21800 32.71000 27.05200
C  46.14400 31.56500 26.19700
C  45.42300 30.48800 26.90400
C  44.99800 31.05400 28.09400
C  45.52400 32.42500 28.14500
C  45.15900 29.05000 26.42000
C  44.29700 30.83500 29.32800
O  43.72700 29.80200 29.70000
C  44.30000 32.16800 30.08800
C  44.53900 31.80200 31.53800
O  45.45800 31.12100 31.99500
O  43.59000 32.40600 32.29200
C  43.61800 32.13600 33.68200
H  47.62700 38.16300 29.22800
H  49.67600 36.10000 23.47100
H  46.60700 30.66100 24.35300
H  45.24300 34.75500 31.79200
H  47.28800 36.73700 31.46400
H  45.30500 38.12600 30.39000
H  45.61400 37.79200 32.18800
H  44.41900 36.88600 31.24400
H  48.17000 34.32100 31.14400
H  47.07900 33.13900 31.87300
H  48.46700 35.18600 33.01600
H  48.08600 33.57100 33.69300
H  50.32700 39.87800 27.57900
H  49.03000 39.59700 28.64200
H  48.72000 40.53600 27.30300
H  49.62500 40.75700 25.27400
H  49.43900 40.61600 23.55900
H  51.11800 40.50000 24.16100
H  49.66700 34.02400 22.36100
H  47.33100 32.27800 22.16200
H  48.67200 35.43200 20.90900
H  47.00500 35.31000 21.55700
H  47.82600 34.04100 20.63500
H  49.28200 30.91100 23.74600
H  50.12500 31.89700 22.44200
H  47.86100 30.47900 21.25400
H  48.72100 29.50300 22.42900
H  49.63000 30.12100 21.06000
H  45.82100 28.87100 25.57300
H  44.09400 28.94700 26.20900
H  45.30900 28.47500 27.33300
H  43.27900 32.54700 30.13300
H  42.68900 32.53800 34.08600
H  44.43500 32.70600 34.12500
H  43.81400 31.10100 33.96400

