158

Mg 35.72100 2.47500 30.45400
C  33.04300 3.33700 32.61800
C  37.79400 2.64400 33.15000
C  38.21400 1.58300 28.36300
C  33.58300 2.89400 27.68900
N  35.44600 2.92800 32.60900
C  34.28100 3.14200 33.26100
C  34.43900 3.18600 34.81200
C  35.99700 3.26400 34.94800
C  36.45900 2.93000 33.51400
C  36.55100 4.56800 35.55200
C  33.63800 1.96200 35.46700
C  32.83800 2.29400 36.70500
H  33.53400 3.23500 37.72700
N  37.62900 2.12800 30.69600
C  38.32200 2.12600 31.90400
C  39.73100 1.76200 31.65700
C  39.88200 1.71700 30.27100
C  38.55100 1.82300 29.69200
C  40.66900 1.49300 32.77300
C  41.21600 1.53800 29.51400
O  41.23600 1.50900 28.31500
C  42.45300 1.34900 30.30000
N  35.93300 2.37200 28.21600
C  37.09700 1.88100 27.67500
C  36.97400 1.96600 26.12500
C  35.34400 2.16900 25.95300
C  34.93600 2.59000 27.32400
C  37.83200 3.07500 25.50900
C  34.54800 0.84300 25.43600
C  33.14200 0.96900 24.78700
N  33.75000 3.05900 30.16100
C  33.05200 3.13200 28.98000
C  31.69100 3.44700 29.32700
C  31.62600 3.55200 30.72600
C  32.95700 3.31000 31.20000
C  30.49600 3.62100 28.37600
C  30.67100 3.93500 31.83000
O  29.47100 4.15500 31.86100
C  31.63600 3.66300 33.11400
C  31.47900 4.91000 33.86100
O  32.10400 5.93600 33.49000
O  30.70300 4.80700 35.01600
C  30.72700 5.99200 35.88700
H  38.45300 2.69600 34.01900
H  39.06500 1.28900 27.74400
H  32.85600 3.05600 26.89100
H  34.07400 4.12900 35.21800
H  36.18800 2.41000 35.59800
H  36.33200 4.77500 36.60000
H  36.28200 5.38800 34.88600
H  37.62700 4.48500 35.40300
H  34.33800 1.13700 35.60000
H  32.98800 1.54100 34.69900
H  32.61000 1.33200 37.16400
H  31.86600 2.60500 36.32000
H  40.24900 1.33400 33.76600
H  41.28600 2.39200 32.76400
H  41.33200 0.63600 32.66300
H  42.55500 2.20600 30.96600
H  43.27900 1.34800 29.59000
H  42.51000 0.43400 30.88900
H  37.16400 0.98100 25.69900
H  35.10500 3.04900 25.35600
H  37.31500 3.81100 24.89200
H  38.48800 2.52300 24.83600
H  38.42900 3.53900 26.29400
H  34.50500 0.12200 26.25200
H  35.19000 0.41500 24.66600
H  33.17800 0.84800 23.70400
H  32.62400 1.86800 25.11900
H  32.49600 0.21000 25.22900
H  29.55400 3.63800 28.92400
H  30.28100 2.83300 27.65500
H  30.43000 4.61200 27.92600
H  31.08800 2.94500 33.72400
H  29.95600 6.74700 35.73100
H  31.64900 6.57300 35.85900
H  30.59300 5.67600 36.92100
Mg 41.96700 41.23600 27.51500
C  41.14500 43.60600 30.04300
C  43.41800 39.35500 30.05800
C  42.58500 39.13100 25.34300
C  41.20800 43.76400 25.11100
N  42.32300 41.52700 29.80000
C  41.74300 42.47000 30.66200
C  41.93400 42.14300 32.13700
C  42.65100 40.76700 32.04200
C  42.79300 40.51900 30.48800
C  44.00100 40.64800 32.77800
C  40.66400 42.18400 32.99100
C  40.82500 41.49800 34.34400
H  39.87300 41.92500 35.46600
N  42.94900 39.51400 27.67900
C  43.46000 38.85400 28.77500
C  43.93700 37.55700 28.32800
C  43.60000 37.46700 26.97000
C  43.03500 38.73600 26.60400
C  44.48900 36.46800 29.19400
C  43.75800 36.27800 25.92500
O  43.73400 36.31600 24.71300
C  44.13900 34.95100 26.48100
N  42.06300 41.40300 25.56200
C  42.28400 40.35200 24.80900
C  42.25100 40.62600 23.29500
C  41.77000 42.07800 23.27000
C  41.57500 42.46800 24.77700
C  43.57000 40.23100 22.65600
C  40.73900 42.51800 22.22500
C  39.41600 41.74100 22.43600
N  41.41200 43.32500 27.45700
C  41.03600 44.19000 26.41900
C  40.68900 45.48100 26.89000
C  40.66700 45.28100 28.30500
C  41.08200 43.93600 28.59400
C  40.51200 46.77600 26.17100
C  40.52400 46.01900 29.53800
O  40.23900 47.22800 29.64800
C  40.81300 44.94400 30.74600
C  41.97800 45.53600 31.49800
O  43.07800 45.70100 31.02700
O  41.58000 45.87000 32.74300
C  42.60600 46.51800 33.58000
H  43.71800 38.62200 30.81000
H  42.80700 38.34700 24.61500
H  40.87000 44.50500 24.38500
H  42.60200 42.92100 32.50600
H  41.98200 40.00900 32.45100
H  43.90200 39.79900 33.45400
H  44.06000 41.45600 33.50800
H  44.88000 40.59300 32.13600
H  39.86700 41.80100 32.35400
H  40.39400 43.21100 33.23900
H  41.87400 41.54300 34.63900
H  40.66200 40.42400 34.25700
H  45.24300 35.87900 28.67200
H  43.65700 35.89000 29.59800
H  45.02800 36.96000 30.00400
H  43.50500 34.61900 27.30400
H  45.21000 34.95100 26.68500
H  43.87400 34.33800 25.61900
H  41.50900 40.00600 22.79200
H  42.66000 42.61100 22.93500
H  44.40500 40.65800 23.21200
H  43.64800 40.60600 21.63500
H  43.74200 39.15700 22.71600
H  41.07600 42.30100 21.21200
H  40.68600 43.59500 22.38300
H  39.59700 41.31900 23.42500
H  39.26600 40.98900 21.66100
H  38.65300 42.51900 22.42700
H  39.44700 46.96800 26.04100
H  40.95700 46.89500 25.18200
H  40.82000 47.60000 26.81400
H  40.00200 44.78400 31.45700
H  43.52000 46.79500 33.05500
H  43.00700 45.89000 34.37500
H  42.15900 47.38200 34.07200

