158

Mg -3.18200 17.47100 26.75100
C  -2.97100 15.53100 29.77600
C  -3.19800 20.21600 28.69100
C  -3.53900 19.14100 23.98500
C  -3.38900 14.40900 24.94600
N  -2.98600 17.84900 28.95900
C  -2.87400 16.94300 29.96700
C  -2.83000 17.59200 31.35100
C  -2.70100 19.11800 30.96100
C  -3.09200 19.09800 29.49300
C  -3.57000 20.17800 31.73300
C  -1.70300 16.97700 32.35500
C  -1.07300 17.94400 33.45500
H  -1.01700 17.46900 34.87200
N  -3.18700 19.46600 26.41200
C  -3.28800 20.48100 27.30300
C  -3.36000 21.79300 26.57800
C  -3.27700 21.48600 25.19700
C  -3.31900 19.93600 25.16800
C  -3.29800 23.17400 27.08400
C  -3.04500 22.29300 23.91600
O  -2.88900 21.81500 22.77900
C  -3.00400 23.77200 24.01800
N  -3.52600 16.84800 24.79300
C  -3.74800 17.72900 23.77500
C  -3.93100 17.10600 22.42100
C  -3.74800 15.59000 22.76700
C  -3.52600 15.57900 24.27200
C  -5.09200 17.61000 21.58200
C  -2.74000 14.74700 21.84000
C  -1.30900 15.18700 22.08400
N  -3.33800 15.34700 27.20000
C  -3.34000 14.23600 26.34600
C  -3.40100 13.04200 27.17600
C  -3.45400 13.50000 28.51400
C  -3.25900 14.93000 28.44600
C  -3.45400 11.62800 26.77500
C  -3.46000 13.04800 29.85600
O  -3.59800 11.91100 30.29600
C  -3.13500 14.29600 30.74600
C  -1.91300 13.95500 31.48100
O  -0.74300 14.02200 31.06900
O  -2.34000 13.45600 32.70300
C  -1.25400 13.12300 33.58300
H  -3.05900 21.19800 29.14700
H  -3.78200 19.79500 23.14600
H  -3.45000 13.56700 24.25300
H  -3.80100 17.50300 31.83900
H  -1.63600 19.28500 31.12100
H  -2.84400 20.79500 32.26300
H  -4.24300 19.67200 32.42500
H  -4.14900 20.84900 31.09800
H  -0.92700 16.63600 31.67000
H  -2.13900 16.13600 32.89300
H  -1.43500 18.97000 33.38400
H  -0.04700 17.97500 33.08800
H  -2.43000 23.54200 26.53700
H  -3.16600 23.29200 28.15900
H  -4.14400 23.74200 26.69800
H  -3.90300 24.16900 24.49000
H  -3.01500 24.26800 23.04800
H  -2.07400 24.00900 24.53400
H  -3.04100 17.50700 21.93700
H  -4.69300 15.06200 22.63900
H  -5.72900 16.78500 21.26400
H  -4.81400 18.24900 20.74400
H  -5.75700 18.19400 22.21900
H  -3.00800 14.82600 20.78600
H  -2.92000 13.69000 22.03400
H  -0.94000 15.61900 21.15400
H  -0.69100 14.34500 22.39600
H  -1.30400 15.99200 22.81800
H  -2.46700 11.22500 26.54500
H  -4.28000 11.73900 26.07300
H  -3.87300 11.10600 27.63500
H  -3.94400 14.48300 31.45200
H  -1.67400 12.18700 33.95100
H  -1.36200 13.83600 34.40100
H  -0.22200 13.12500 33.23300
Mg 9.90000 47.27200 26.22700
C  7.63600 47.27100 28.80300
C  12.59700 47.77500 28.24500
C  12.13200 47.35500 23.45200
C  7.33100 46.87100 23.86800
N  10.04700 47.38200 28.32800
C  9.00900 47.41900 29.25600
C  9.61400 47.55700 30.67500
C  11.17300 47.93400 30.37900
C  11.32000 47.67800 28.90600
C  11.70800 49.27700 30.87600
C  9.39800 46.33500 31.62000
C  8.95700 46.63600 33.05100
H  9.16200 45.63700 34.15000
N  12.01100 47.58500 25.85600
C  12.93900 47.80800 26.89400
C  14.26700 47.98600 26.33400
C  14.18000 47.57200 25.01200
C  12.71800 47.48300 24.71800
C  15.42200 48.41000 27.14600
C  15.23400 47.22100 24.03500
O  14.98000 46.72600 22.92900
C  16.69000 47.35500 24.56600
N  9.78300 47.24500 24.01800
C  10.79200 47.17400 23.10600
C  10.41200 47.06400 21.64800
C  8.84000 46.86000 21.79300
C  8.62300 47.03100 23.33600
C  10.81900 48.35000 20.82200
C  8.26900 45.43500 21.29500
C  6.92900 45.61100 20.44700
N  7.94000 47.21100 26.23900
C  6.96800 47.00100 25.24500
C  5.65300 46.99300 25.87600
C  5.89600 47.04500 27.26200
C  7.30100 47.26200 27.44400
C  4.30200 46.77000 25.20200
C  5.21400 46.95100 28.58000
O  4.02600 46.84000 28.88100
C  6.36800 47.12100 29.61500
C  6.37200 45.88500 30.34300
O  6.91000 44.84400 30.00400
O  5.65800 46.03900 31.54200
C  5.68400 44.92000 32.42500
H  13.32100 47.97100 29.03900
H  12.80200 47.37800 22.59100
H  6.51900 46.90400 23.13900
H  9.12400 48.45100 31.06000
H  11.83500 47.16800 30.78300
H  12.03300 49.88800 30.03400
H  12.56400 49.15500 31.54000
H  10.87300 49.80800 31.33300
H  10.33800 45.81900 31.81600
H  8.72100 45.54800 31.28800
H  7.89100 46.86000 33.03000
H  9.52100 47.52900 33.32300
H  15.17300 48.69600 28.16800
H  15.80900 49.28900 26.63100
H  16.25800 47.71100 27.15300
H  17.33400 47.32500 23.68700
H  16.91600 46.47600 25.16900
H  16.75300 48.31900 25.07300
H  10.82800 46.13600 21.25500
H  8.28700 47.67400 21.32500
H  11.20500 49.07300 21.54200
H  9.96700 48.86700 20.38000
H  11.57300 48.14500 20.06200
H  7.99100 44.85200 22.17300
H  8.95600 44.80200 20.73300
H  6.48500 46.57500 20.69200
H  6.20800 44.92800 20.89600
H  6.97500 45.39800 19.37900
H  4.54900 46.59000 24.15600
H  3.62000 47.61500 25.29600
H  3.95900 45.82900 25.63100
H  6.04400 47.93800 30.25900
H  6.22500 45.19000 33.33200
H  5.99500 43.96100 32.01200
H  4.61000 44.95600 32.60800

