158

Mg 53.68600 24.09800 44.10200
C  51.33200 26.49900 43.62100
C  51.56200 21.70700 42.76600
C  56.28600 21.86200 44.02200
C  55.82800 26.54300 45.52900
N  51.68400 24.12300 43.05800
C  50.84800 25.23100 43.15300
C  49.51000 24.86900 42.44700
C  49.44700 23.30800 42.62200
C  50.98400 23.01200 42.86100
C  48.66000 22.67300 43.75300
C  49.40300 25.47800 41.00300
C  49.99500 24.66600 39.80100
H  50.61600 25.33900 38.55100
N  53.93600 22.02600 43.45600
C  52.90900 21.27300 42.93200
C  53.42400 19.94400 42.56800
C  54.82200 19.98900 42.88000
C  55.12200 21.36800 43.48000
C  52.49600 18.88700 41.99400
C  55.77300 18.84400 42.83900
O  55.28400 17.86600 42.34500
C  57.11200 18.81800 43.30600
N  55.82600 24.21500 44.64900
C  56.58300 23.16300 44.55700
C  57.96100 23.47400 45.15200
C  57.87800 24.93000 45.57400
C  56.43200 25.26500 45.30100
C  58.33500 22.50800 46.21900
C  58.78500 25.99700 44.80000
C  60.04300 26.51800 45.61600
N  53.66100 26.12900 44.46000
C  54.54000 26.97600 45.07400
C  53.95400 28.28200 45.24400
C  52.63500 28.11700 44.69600
C  52.55300 26.81000 44.20800
C  54.47700 29.42900 45.98400
C  51.32400 28.72600 44.51000
O  50.87600 29.83000 44.81800
C  50.46600 27.76100 43.80000
C  50.16900 28.41500 42.56600
O  50.89300 28.98800 41.81800
O  48.82700 28.23800 42.27500
C  48.27100 28.67800 40.99200
H  50.84000 20.89400 42.66600
H  57.19800 21.30700 43.79100
H  56.40500 27.43700 45.77800
H  48.70400 25.32600 43.02000
H  49.11700 22.95700 41.64400
H  48.23300 23.44400 44.39400
H  49.32200 22.04500 44.35000
H  47.84000 22.11900 43.29500
H  50.04500 26.35300 41.10400
H  48.38600 25.76300 40.73200
H  49.27600 23.96600 39.37700
H  50.86300 24.15700 40.22000
H  52.28000 18.98300 40.93000
H  51.52000 18.89000 42.47900
H  52.97100 17.91400 42.12000
H  57.09000 19.05400 44.37000
H  57.78400 19.47700 42.75600
H  57.60400 17.84500 43.31900
H  58.60700 23.38900 44.27900
H  57.99700 25.02900 46.65300
H  57.45000 21.95200 46.52700
H  58.77600 22.99900 47.08600
H  59.02900 21.86300 45.67900
H  58.22100 26.74900 44.24900
H  59.14700 25.37300 43.98300
H  60.08200 25.99300 46.57000
H  60.14400 27.59000 45.78400
H  60.92900 26.17600 45.08100
H  55.53900 29.39100 46.22800
H  53.97900 29.30900 46.94600
H  54.32400 30.39200 45.49600
H  49.52600 27.52800 44.30000
H  48.91900 28.53800 40.12600
H  47.94500 29.71500 41.07000
H  47.47200 27.94800 40.86200
Mg 0.35900 43.23100 26.05400
C  2.46700 43.44000 28.77900
C  -2.11800 42.36400 28.34100
C  -1.52500 42.63100 23.50700
C  3.10100 43.64800 23.89800
N  0.09200 43.51800 28.40200
C  1.09600 43.49700 29.26500
C  0.63800 43.42100 30.67500
C  -0.79500 42.83000 30.55300
C  -0.93900 42.88800 29.00100
C  -1.14400 41.54600 31.35200
C  0.76500 44.82500 31.37900
C  0.63300 44.79500 32.92800
H  0.68800 43.48900 33.70800
N  -1.64800 42.87300 25.93800
C  -2.51600 42.57200 26.95100
C  -3.85100 42.20900 26.40200
C  -3.62800 42.16100 24.99000
C  -2.19600 42.49300 24.75300
C  -5.10100 41.98300 27.26200
C  -4.62300 41.79300 23.98200
O  -4.31800 41.66600 22.79400
C  -6.11100 41.49800 24.35000
N  0.67200 43.27900 24.00100
C  -0.24700 42.89700 23.11800
C  0.20400 42.87200 21.59600
C  1.67600 43.41800 21.80000
C  1.83700 43.45000 23.31500
C  0.07300 41.45100 20.95800
C  1.90200 44.82200 21.11100
C  1.30000 46.01800 21.86900
N  2.37900 43.48700 26.20000
C  3.38500 43.52800 25.30700
C  4.62800 43.58900 26.00300
C  4.30800 43.50400 27.32800
C  2.93900 43.48000 27.40200
C  6.00200 43.62400 25.46300
C  4.88800 43.39500 28.60200
O  6.02400 43.40400 28.97100
C  3.75000 43.46400 29.65700
C  3.98600 42.29200 30.50800
O  3.50500 41.15700 30.40900
O  4.68500 42.69900 31.59000
C  4.97700 41.64100 32.52400
H  -2.89500 42.05200 29.04200
H  -2.11200 42.29000 22.65200
H  4.00700 43.66400 23.28900
H  1.26200 42.69300 31.19300
H  -1.51600 43.59400 30.84300
H  -1.19300 40.73200 30.62800
H  -2.15700 41.64600 31.74000
H  -0.36900 41.29100 32.07500
H  -0.12200 45.32400 30.98900
H  1.66200 45.25800 30.93500
H  -0.18800 45.42100 33.27800
H  1.56500 45.22300 33.29700
H  -5.91200 42.67800 27.04600
H  -4.83800 41.97600 28.32000
H  -5.39400 40.96200 27.01900
H  -6.31200 40.55400 24.85600
H  -6.72100 41.61700 23.45500
H  -6.43200 42.29400 25.02100
H  -0.47100 43.51800 21.03500
H  2.44500 42.75600 21.40200
H  1.07400 41.02900 21.04600
H  -0.17500 41.59600 19.90600
H  -0.71800 40.85000 21.40800
H  1.42000 44.76400 20.13500
H  2.97300 45.02400 21.10100
H  0.67800 46.54300 21.14400
H  2.13000 46.60000 22.26800
H  0.59000 45.78700 22.66300
H  6.10700 44.68100 25.21800
H  6.12400 43.02700 24.56000
H  6.77400 43.29500 26.15800
H  3.79800 44.38400 30.24000
H  5.55900 40.79400 32.15800
H  4.11200 41.22100 33.03700
H  5.60900 42.10400 33.28200

