158

Mg 36.74900 49.32400 24.93100
C  36.62500 47.29800 27.75600
C  34.94700 51.68600 26.68000
C  36.19100 50.87900 22.01300
C  38.03600 46.49500 23.12400
N  35.79800 49.39300 26.88700
C  36.13400 48.61000 27.98700
C  35.65600 49.15300 29.38200
C  34.88500 50.40500 28.86600
C  35.19100 50.50400 27.36900
C  33.43700 50.52100 29.29700
C  36.81100 49.33300 30.40400
C  36.39100 48.88500 31.86000
H  34.88700 48.85900 32.24500
N  35.88900 51.20000 24.45600
C  35.16300 52.00000 25.27700
C  34.80300 53.14200 24.52800
C  35.21000 52.94000 23.10500
C  35.84800 51.66800 23.19000
C  34.04100 54.22400 25.12500
C  35.13800 53.85100 21.93800
O  35.40600 53.53500 20.78900
C  34.61600 55.27700 22.04600
N  37.13900 48.85100 22.94300
C  36.70900 49.64100 21.89300
C  37.18900 49.02500 20.52800
C  38.08200 47.80300 20.99500
C  37.73300 47.65600 22.44000
C  35.97800 48.53100 19.65800
C  39.56700 47.88200 20.68500
C  40.34600 48.99400 21.38400
N  37.32100 47.33100 25.34500
C  37.83400 46.30800 24.53000
C  38.00500 45.07700 25.32400
C  37.55400 45.46100 26.61500
C  37.14200 46.81100 26.56700
C  38.36200 43.74000 24.77500
C  37.26300 44.96600 27.90500
O  37.33200 43.83300 28.35600
C  36.68200 46.17900 28.76900
C  35.34600 45.75300 29.19700
O  34.43600 45.62500 28.46500
O  35.33100 45.38400 30.50500
C  34.26400 44.45500 30.93100
H  34.34900 52.37200 27.28400
H  35.96700 51.32600 21.04200
H  38.44700 45.60500 22.64200
H  34.91600 48.42900 29.72500
H  35.40400 51.21200 29.38300
H  32.84100 50.97300 28.50400
H  33.42500 51.17700 30.16800
H  32.93600 49.64800 29.71600
H  37.09200 50.38600 30.42100
H  37.66100 48.75400 30.04200
H  36.90600 49.51400 32.58700
H  36.78900 47.88600 32.03500
H  33.86400 54.24800 26.20000
H  33.10800 54.31500 24.56800
H  34.65400 55.11500 24.98300
H  34.60100 55.86900 21.13000
H  35.33900 55.87800 22.59700
H  33.60700 55.39500 22.43900
H  37.77800 49.77900 20.00800
H  37.73000 46.90500 20.48700
H  36.06200 47.53400 19.22500
H  35.93600 49.28000 18.86700
H  35.12900 48.58900 20.33900
H  39.71900 47.97200 19.60900
H  40.00500 46.96000 21.06600
H  40.00800 49.17000 22.40500
H  40.06700 49.89900 20.84500
H  41.42600 48.86600 21.30700
H  37.91900 43.68200 23.78100
H  37.81800 42.93800 25.27300
H  39.43000 43.53100 24.70100
H  37.39200 46.41600 29.56200
H  33.52000 45.08800 31.41500
H  34.55300 43.92100 31.83500
H  33.90800 43.73500 30.19400
Mg 1.73800 42.69300 26.04500
C  2.88900 43.00000 29.34200
C  -1.35600 41.57100 27.47400
C  0.44600 42.17000 22.90100
C  4.75100 43.58000 24.80400
N  0.90400 42.25000 28.17200
C  1.55900 42.60400 29.37400
C  0.68900 42.23400 30.53500
C  -0.70400 41.69000 29.90100
C  -0.37000 41.87400 28.39800
C  -1.20700 40.25600 30.28000
C  0.43500 43.51100 31.38800
C  0.60500 43.40400 32.88000
H  0.30200 42.07600 33.48100
N  -0.12300 41.85000 25.26100
C  -1.24500 41.47600 26.03200
C  -2.28400 41.02500 25.15500
C  -1.78500 41.21800 23.80100
C  -0.42200 41.77000 23.94700
C  -3.57500 40.54500 25.71400
C  -2.53800 41.00700 22.55600
O  -2.04700 41.28900 21.43300
C  -4.00400 40.61000 22.53700
N  2.51700 42.64900 24.14300
C  1.82800 42.62900 22.97900
C  2.66900 43.10200 21.74700
C  3.86900 43.77000 22.46500
C  3.73800 43.28600 23.88400
C  3.08300 41.95700 20.84200
C  3.65900 45.34000 22.31800
C  4.32400 45.97200 21.07700
N  3.51900 43.18300 26.85400
C  4.68700 43.52200 26.24700
C  5.76700 43.67100 27.20300
C  5.08700 43.52500 28.41300
C  3.70300 43.18200 28.16700
C  7.15100 44.25000 27.00800
C  5.21200 43.70800 29.85800
O  6.18400 44.07400 30.47400
C  3.84600 43.33000 30.50400
C  4.26400 42.12600 31.31600
O  4.93400 41.15300 30.86700
O  3.98500 42.24400 32.66300
C  4.50700 41.18400 33.49800
H  -2.30100 41.17800 27.85500
H  0.03400 42.22300 21.89100
H  5.70200 43.74000 24.29300
H  1.19400 41.48400 31.14400
H  -1.58500 42.27900 30.15800
H  -1.70600 40.32100 31.24700
H  -0.28800 39.69200 30.44100
H  -1.84000 39.88300 29.47600
H  -0.59000 43.85700 31.24700
H  1.05800 44.35600 31.09400
H  0.08600 44.16500 33.46300
H  1.64200 43.63200 33.12900
H  -3.62300 40.25200 26.76300
H  -3.75300 39.68300 25.07100
H  -4.32000 41.33400 25.62200
H  -4.50200 40.80600 21.58700
H  -4.47800 41.34300 23.18900
H  -4.02400 39.61600 22.98300
H  2.03100 43.75100 21.14700
H  4.78400 43.32900 22.06900
H  2.26100 41.38300 20.41400
H  3.79400 41.32600 21.37600
H  3.51800 42.45700 19.97800
H  4.04600 45.81400 23.22000
H  2.60100 45.58000 22.21300
H  4.90300 46.74600 21.58000
H  3.65800 46.31400 20.28400
H  4.94300 45.23400 20.56800
H  7.43700 44.90900 27.82700
H  7.02900 44.75400 26.04900
H  7.95500 43.54300 26.80200
H  3.42400 44.11300 31.13400
H  3.98800 40.26700 33.22000
H  4.24100 41.31100 34.54700
H  5.59600 41.13900 33.47300

