158

Mg 0.76600 -1.93000 44.45400
C  4.34900 -1.39700 43.99400
C  0.40300 0.91900 42.47200
C  -2.34600 -2.77700 44.27000
C  1.56400 -4.94600 45.95900
N  2.29500 -0.40000 43.46200
C  3.66000 -0.48000 43.32900
C  4.20300 0.64600 42.45600
C  2.88900 1.41800 42.04800
C  1.74900 0.62600 42.68100
C  2.88300 2.96900 42.38400
C  5.13800 -0.01000 41.31500
C  6.56000 0.66100 41.11300
H  6.91100 0.73000 39.56500
N  -0.76200 -1.04800 43.45000
C  -0.71600 0.10300 42.77100
C  -2.09100 0.48400 42.46000
C  -2.93400 -0.61200 42.83000
C  -2.08600 -1.57800 43.53000
C  -2.44300 1.82200 41.68100
C  -4.45300 -0.62600 42.68000
O  -4.98500 0.33500 42.13900
C  -5.29800 -1.72800 43.13400
N  -0.23800 -3.75600 44.91600
C  -1.55800 -3.67500 44.93800
C  -2.12700 -5.03400 45.46200
C  -0.81700 -5.84600 45.85800
C  0.22900 -4.79000 45.64900
C  -3.15600 -4.79000 46.59800
C  -0.54700 -7.19100 44.99300
C  -0.31200 -8.44000 45.86700
N  2.52100 -2.87000 45.05600
C  2.70900 -4.06700 45.75900
C  4.09700 -4.46300 45.86400
C  4.75100 -3.42100 45.14900
C  3.77100 -2.45000 44.67800
C  4.71300 -5.53300 46.53900
C  6.06400 -2.89100 44.79100
O  7.08700 -3.46500 45.04300
C  5.83400 -1.53200 44.11700
C  6.49100 -0.42000 44.96100
O  6.53700 -0.35400 46.14600
O  7.20100 0.43800 44.09700
C  7.95500 1.40300 44.78500
H  0.38100 1.75600 41.77200
H  -3.40000 -3.05700 44.30600
H  1.72700 -5.90900 46.44800
H  4.78900 1.18100 43.20300
H  2.80400 1.50700 40.96500
H  2.13000 3.07100 43.16600
H  2.77000 3.43600 41.40600
H  3.84300 3.21200 42.84000
H  4.53000 0.07300 40.41400
H  5.31000 -1.08600 41.29700
H  7.26700 0.10300 41.72600
H  6.53300 1.65600 41.55700
H  -1.57900 2.31100 41.23000
H  -3.03500 2.56500 42.21400
H  -2.99300 1.53400 40.78500
H  -5.28300 -1.83300 44.21800
H  -5.10100 -2.73900 42.77800
H  -6.31600 -1.50500 42.81600
H  -2.62300 -5.53400 44.63000
H  -0.69600 -6.10600 46.91000
H  -3.50400 -3.75700 46.58800
H  -2.72500 -4.93900 47.58800
H  -3.96700 -5.50300 46.44400
H  0.36400 -7.01400 44.42200
H  -1.37700 -7.45300 44.33600
H  0.41700 -9.03800 45.32000
H  -1.26700 -8.93500 46.04000
H  0.15500 -8.18200 46.81700
H  5.51100 -5.99200 45.95500
H  4.00900 -6.21700 47.01400
H  5.27900 -5.09600 47.36200
H  6.30700 -1.58700 43.13700
H  8.86600 0.87300 45.06300
H  7.56000 1.94900 45.64200
H  8.18800 2.14600 44.02200
Mg 24.61400 2.20500 29.67200
C  26.86100 2.01100 32.33700
C  22.03500 2.62400 32.02200
C  22.41400 2.37100 27.14700
C  27.12200 1.21800 27.59500
N  24.51700 2.24000 31.92900
C  25.54800 2.19300 32.85000
C  25.11700 2.46700 34.31700
C  23.48100 2.60200 34.10300
C  23.27700 2.49100 32.59400
C  22.61100 1.60300 35.02100
C  25.86200 3.58600 35.06400
C  25.19000 4.53800 36.21300
H  25.76800 4.57300 37.57800
N  22.48900 2.44500 29.60500
C  21.63100 2.49600 30.66700
C  20.26700 2.50900 30.18800
C  20.27200 2.46700 28.75600
C  21.73600 2.33800 28.43700
C  19.10100 2.42200 31.16400
C  19.17800 2.44100 27.75800
O  19.31700 2.48400 26.54300
C  17.84300 2.30900 28.28600
N  24.75000 1.86000 27.67600
C  23.73800 2.15700 26.83000
C  24.23100 2.06300 25.42800
C  25.71800 1.69200 25.51700
C  25.91700 1.60100 27.05100
C  23.47600 1.07900 24.48400
C  26.69800 2.79300 24.81900
C  26.51400 4.27500 25.24700
N  26.62700 1.76700 29.80000
C  27.53900 1.34100 28.95300
C  28.88400 1.05400 29.60600
C  28.60600 1.33800 30.92000
C  27.23800 1.72700 31.00900
C  30.13100 0.74500 28.97000
C  29.19300 1.31300 32.20900
O  30.25500 0.96300 32.64300
C  28.10500 1.80400 33.24100
C  28.04100 0.76400 34.21900
O  27.53300 -0.33200 34.15000
O  28.61200 1.24200 35.37700
C  28.86800 0.17900 36.33800
H  21.21600 2.90700 32.68600
H  21.68400 2.59600 26.36600
H  27.86700 0.80100 26.91400
H  25.32900 1.52700 34.82700
H  23.07400 3.57400 34.38000
H  21.69500 2.12500 35.29500
H  23.17700 1.26900 35.89000
H  22.27300 0.71300 34.48900
H  26.36200 4.25200 34.36100
H  26.69300 3.05900 35.53200
H  24.17000 4.17400 36.33500
H  25.02300 5.55400 35.85500
H  18.57000 3.35000 30.95100
H  19.42600 2.54500 32.19700
H  18.45700 1.54300 31.19100
H  17.71500 1.27300 28.60000
H  17.09900 2.38700 27.49400
H  17.61200 3.14000 28.95300
H  23.96900 2.97600 24.89500
H  26.01600 0.72300 25.11700
H  22.66000 0.60300 25.02800
H  24.10100 0.27500 24.09500
H  23.05600 1.65600 23.66000
H  26.83900 2.56000 23.76400
H  27.69200 2.58100 25.21300
H  27.28400 4.56200 25.96300
H  25.52400 4.44600 25.67000
H  26.60400 4.90000 24.35800
H  30.88900 1.35800 29.45800
H  29.91600 0.91900 27.91600
H  30.33300 -0.32700 28.97200
H  28.44800 2.76000 33.63500
H  29.40900 -0.65800 35.89700
H  28.01100 -0.17900 36.90900
H  29.63700 0.57700 37.00000

