158

Mg 47.05100 16.05600 27.82300
C  45.20800 15.94900 30.81200
C  49.05800 18.43300 29.28000
C  48.45300 16.52200 24.74400
C  44.54700 14.25100 26.30800
N  47.06000 17.05600 29.84500
C  46.31900 16.74100 30.96800
C  46.84000 17.39400 32.19000
C  47.92100 18.45000 31.62000
C  48.09900 17.89600 30.16900
C  47.57900 19.93400 31.74200
C  47.43400 16.32300 33.19300
C  47.03200 16.52100 34.69900
H  48.15000 16.14000 35.68100
N  48.51900 17.29500 27.10900
C  49.28200 18.14800 27.93000
C  50.24700 18.78900 27.07500
C  50.13400 18.28300 25.71300
C  48.97500 17.32700 25.80200
C  51.07800 19.96900 27.60700
C  50.97100 18.57200 24.42800
O  50.66100 18.06600 23.34800
C  52.17000 19.57500 24.53100
N  46.69200 15.36200 25.86700
C  47.42800 15.60400 24.76700
C  46.98400 14.84200 23.54100
C  45.77200 14.11000 24.07900
C  45.62100 14.62000 25.50300
C  46.63300 15.75600 22.23600
C  45.91300 12.51800 23.85100
C  46.51900 11.72700 24.89200
N  45.30400 15.20700 28.39800
C  44.39700 14.47900 27.64700
C  43.26600 13.95100 28.47400
C  43.57400 14.52800 29.72600
C  44.78300 15.30500 29.65200
C  42.00100 13.20700 28.03900
C  43.06600 14.59700 31.03100
O  42.07600 14.12300 31.50500
C  44.17200 15.44600 31.86000
C  43.46500 16.43100 32.59100
O  42.80800 17.37100 32.09400
O  43.49300 16.15200 33.91600
C  42.70700 17.14100 34.75800
H  49.70100 19.16200 29.77600
H  48.93000 16.46900 23.76400
H  43.75200 13.56400 26.00900
H  46.02300 17.97200 32.62200
H  48.67700 18.25000 32.38000
H  46.58800 20.07400 32.17300
H  47.73400 20.40000 30.76900
H  48.26200 20.20400 32.54800
H  48.52200 16.40000 33.19600
H  47.09900 15.36800 32.78800
H  46.19500 15.89300 35.00400
H  46.74700 17.57000 34.78800
H  50.66800 20.43700 28.50200
H  51.07100 20.74200 26.83900
H  52.12200 19.71300 27.78900
H  51.68100 20.53200 24.35100
H  52.89400 19.32100 23.75700
H  52.73100 19.61300 25.46500
H  47.78000 14.15500 23.25400
H  44.90500 14.37700 23.47500
H  46.08200 15.15100 21.51600
H  47.52300 16.10400 21.71100
H  46.01000 16.61500 22.48700
H  46.38800 12.20200 22.92100
H  44.88900 12.16100 23.74100
H  46.74500 12.29900 25.79200
H  47.53400 11.42600 24.63200
H  46.02800 10.76500 25.03800
H  41.45900 13.77400 27.28200
H  41.33400 12.91000 28.84800
H  42.39100 12.32900 27.52300
H  44.68600 14.76600 32.53900
H  43.21400 18.10400 34.69700
H  42.72200 16.87000 35.81400
H  41.71900 17.37700 34.36300
Mg 36.67700 49.82300 25.89100
C  35.92700 47.96700 28.82500
C  35.63700 52.67000 27.50600
C  36.41600 51.48400 22.92200
C  37.41200 47.00100 24.16100
N  36.02800 50.17500 28.00300
C  35.85900 49.34500 29.03200
C  35.59600 50.05900 30.36800
C  35.47900 51.49900 29.91000
C  35.74200 51.51600 28.34100
C  34.22000 52.25500 30.31100
C  36.83300 49.71900 31.32000
C  36.47100 49.29300 32.77700
H  35.07500 49.43600 33.23800
N  36.21700 51.83400 25.32200
C  35.85900 52.84400 26.19600
C  35.70800 54.06500 25.44600
C  35.87400 53.78900 24.05200
C  36.08400 52.33000 24.04700
C  35.48700 55.34200 26.13700
C  35.71100 54.60200 22.77900
O  35.81100 54.17200 21.62800
C  35.14400 56.02100 22.78400
N  36.98800 49.30100 23.82400
C  36.84200 50.15400 22.82100
C  37.16300 49.51700 21.47500
C  37.57500 48.12900 21.94500
C  37.34400 48.10600 23.39600
C  36.09000 49.54600 20.33100
C  39.05300 47.80100 21.59300
C  40.18600 48.22400 22.49000
N  36.73300 47.83700 26.31600
C  37.08300 46.80300 25.51300
C  36.91200 45.55500 26.28400
C  36.55500 45.95200 27.58800
C  36.36500 47.37100 27.58800
C  37.30800 44.22100 25.74600
C  36.23900 45.52400 28.89100
O  36.19800 44.38500 29.33900
C  35.75900 46.76300 29.69900
C  34.59200 46.43200 30.46000
O  33.43600 46.85200 30.27400
O  34.98300 45.60400 31.51900
C  33.89500 45.18700 32.35200
H  35.30800 53.58300 28.00700
H  36.32500 52.01800 21.97500
H  37.60600 46.06400 23.63400
H  34.70400 49.66600 30.85600
H  36.34000 52.02300 30.32300
H  34.39600 53.19000 30.84200
H  33.66600 51.61400 30.99700
H  33.54900 52.37900 29.46200
H  37.50500 50.57100 31.42500
H  37.36200 48.93200 30.78200
H  37.15200 49.85700 33.41600
H  36.68100 48.22800 32.87100
H  35.27700 56.11400 25.39700
H  36.37500 55.51000 26.74600
H  34.72100 55.28200 26.91000
H  35.15800 56.31900 21.73600
H  35.87300 56.59100 23.36100
H  34.15600 56.14600 23.22800
H  38.05200 49.96200 21.02800
H  37.10100 47.34400 21.35700
H  35.27500 50.19500 20.65200
H  35.63600 48.59900 20.03800
H  36.64200 49.93000 19.47300
H  39.19100 48.11600 20.55900
H  39.14600 46.71500 21.60300
H  40.94000 48.78600 21.94000
H  40.53600 47.37200 23.07300
H  39.83200 49.03800 23.12200
H  36.97200 44.10600 24.71500
H  36.80500 43.46500 26.34900
H  38.35700 44.18100 26.04100
H  36.55700 46.83700 30.43800
H  33.15400 44.57900 31.83400
H  33.37300 46.01500 32.82900
H  34.32100 44.54400 33.12200

