158

Mg 45.14400 4.90500 47.64800
C  42.84800 7.57300 47.26000
C  42.41200 2.76400 47.05200
C  47.25200 2.52200 47.54600
C  47.73600 7.31100 47.86300
N  42.81800 5.19200 47.08400
C  42.14100 6.38400 47.04000
C  40.60000 6.14900 46.96200
C  40.43600 4.57300 47.02200
C  41.97800 4.10600 47.08200
C  39.53000 4.09300 48.19700
C  39.99400 6.80000 45.66800
C  40.91000 6.90900 44.40600
H  40.22100 6.90600 43.05800
N  44.90000 2.98600 47.18000
C  43.72900 2.23200 46.97200
C  44.02400 0.85300 46.85200
C  45.45400 0.77300 46.85600
C  45.94200 2.13000 47.22300
C  43.07100 -0.13400 46.36200
C  46.30400 -0.44700 46.53800
O  45.79500 -1.47900 46.20900
C  47.75400 -0.57100 46.56300
N  47.27800 4.90600 47.49700
C  47.88800 3.77600 47.72700
C  49.40200 3.92500 48.06600
C  49.57800 5.47300 48.07000
C  48.16400 5.94600 47.73700
C  49.74000 3.30900 49.43200
C  50.60600 5.98200 47.00700
C  51.95700 6.43400 47.53800
N  45.31700 7.05000 47.60000
C  46.43400 7.84400 47.73800
C  46.03700 9.24200 47.75800
C  44.58300 9.17100 47.62700
C  44.25500 7.79200 47.45700
C  46.83200 10.44600 47.77400
C  43.46400 9.94000 47.72800
O  43.29200 11.17800 47.81800
C  42.31400 8.91300 47.44800
C  41.36000 8.93100 48.61200
O  41.52800 8.41600 49.73700
O  40.28700 9.64900 48.32500
C  39.40500 9.96800 49.50400
H  41.54900 2.09700 47.01800
H  47.87100 1.62300 47.57400
H  48.62300 7.85700 48.19300
H  40.17400 6.54600 47.88400
H  40.11100 4.17100 46.06200
H  39.05300 3.16800 47.87400
H  38.83300 4.84900 48.55900
H  40.10600 3.86400 49.09400
H  39.69100 7.81800 45.91500
H  39.10500 6.26200 45.34000
H  41.69200 6.15300 44.33100
H  41.49000 7.83200 44.37500
H  43.19700 -1.01000 46.99700
H  43.42700 -0.39800 45.36600
H  42.03600 0.20600 46.33100
H  47.93200 -1.47300 45.97900
H  48.22600 -0.58300 47.54500
H  48.16700 0.27400 46.01200
H  50.08700 3.51600 47.32300
H  49.83500 5.92400 49.02800
H  48.87100 3.55300 50.04200
H  50.71800 3.45700 49.89100
H  49.73600 2.24600 49.19100
H  50.25600 6.83000 46.41800
H  50.82800 5.20700 46.27400
H  52.77700 5.99500 46.97000
H  52.17100 6.03600 48.53000
H  52.01500 7.52300 47.54100
H  47.75600 10.13300 48.26100
H  46.39800 11.37000 48.15500
H  47.09300 10.63300 46.73300
H  41.66200 9.11200 46.59700
H  39.24300 9.03300 50.04000
H  38.46500 10.34100 49.09700
H  39.89700 10.70900 50.13300
Mg 16.53700 52.09000 26.20100
C  18.90200 50.67500 28.56600
C  14.59200 52.72500 28.96600
C  14.30500 53.38700 24.10700
C  18.79600 51.43600 23.70800
N  16.82200 51.84200 28.39100
C  17.79400 51.21400 29.14200
C  17.51400 51.15600 30.59700
C  16.03500 51.54100 30.68300
C  15.82800 52.12100 29.28200
C  14.98300 50.46100 31.09600
C  18.42900 51.96200 31.52000
C  18.60800 51.42500 32.98100
H  17.76900 52.12500 34.07200
N  14.64800 53.03300 26.54700
C  14.04300 53.12800 27.73000
C  12.72500 53.75700 27.50300
C  12.62700 54.01200 26.05300
C  13.91500 53.47000 25.47100
C  11.65000 54.03100 28.64500
C  11.43000 54.63500 25.26200
O  11.43900 54.74000 24.02100
C  10.13600 55.10800 26.01100
N  16.54100 52.27300 24.20400
C  15.44600 52.78400 23.52500
C  15.65300 52.56700 22.06500
C  17.18300 52.31700 21.91600
C  17.58800 52.05200 23.36000
C  14.86000 51.32100 21.39500
C  18.03000 53.44300 21.38600
C  18.90700 53.08900 20.15300
N  18.48700 51.26800 26.08900
C  19.20200 51.00300 24.99200
C  20.35300 50.23700 25.31700
C  20.35200 50.11300 26.73000
C  19.15500 50.76900 27.17000
C  21.35500 49.71900 24.41600
C  21.04000 49.56600 27.89300
O  22.06300 48.89300 27.97200
C  20.18000 49.99900 29.19900
C  19.93500 48.76800 30.07900
O  19.13300 47.85800 29.88500
O  20.68200 48.85200 31.18900
C  20.30800 47.90600 32.26600
H  13.96200 52.85000 29.84900
H  13.49700 53.57200 23.39600
H  19.44600 51.26100 22.84800
H  17.56000 50.11300 30.90900
H  15.88000 52.35100 31.39600
H  13.95000 50.75500 31.27700
H  15.33600 50.38200 32.12500
H  15.18300 49.56400 30.50900
H  18.05100 52.98400 31.50100
H  19.47200 51.98600 31.20100
H  19.66400 51.58200 33.20000
H  18.47700 50.34400 32.93000
H  11.99400 53.62800 29.59600
H  10.69600 53.62400 28.31000
H  11.59200 55.10600 28.81600
H  10.42400 55.79500 26.80600
H  9.53700 54.27700 26.38200
H  9.54700 55.61400 25.24600
H  15.21000 53.45400 21.61200
H  17.38300 51.44600 21.29300
H  14.52200 51.60500 20.39800
H  13.93800 51.19300 21.96200
H  15.46400 50.41600 21.33300
H  18.65300 53.94300 22.12700
H  17.27700 54.15200 21.04100
H  19.81000 53.69600 20.22400
H  18.46400 53.45400 19.22600
H  19.15800 52.03000 20.08900
H  20.97700 50.02500 23.44000
H  21.36900 48.63000 24.46200
H  22.38400 50.07500 24.44300
H  20.89400 50.67800 29.66400
H  20.74500 46.94300 32.00200
H  19.22600 47.88300 32.39100
H  20.66100 48.32200 33.21000

