158

Mg -0.26300 7.68300 26.00700
C  0.64100 9.43800 28.92800
C  -0.56500 4.72400 27.70900
C  -0.48200 6.07900 23.06600
C  0.47100 10.73500 24.14000
N  0.11700 7.15900 28.00400
C  0.30300 8.07300 29.03700
C  0.05800 7.40800 30.42600
C  -0.16500 5.87500 30.06400
C  -0.29500 5.89400 28.49200
C  0.85600 4.83100 30.65700
C  -1.07300 8.16400 31.29300
C  -0.74600 8.42300 32.76000
H  0.40700 7.69800 33.53400
N  -0.56500 5.69500 25.47200
C  -0.65400 4.61700 26.30500
C  -0.97000 3.42800 25.59700
C  -0.96100 3.81500 24.23900
C  -0.62800 5.25700 24.19300
C  -1.20900 2.07200 26.28200
C  -1.24900 2.93200 23.01500
O  -1.29800 3.33800 21.82600
C  -1.61100 1.43600 23.10100
N  0.01000 8.33400 23.91100
C  -0.25000 7.45400 22.90900
C  -0.12400 8.14900 21.53300
C  0.10600 9.63800 21.93000
C  0.17400 9.58500 23.46300
C  0.97000 7.48700 20.64500
C  -1.00600 10.62600 21.33900
C  -2.17500 10.98900 22.24000
N  0.24200 9.68500 26.41800
C  0.56000 10.79300 25.54200
C  0.77800 11.93500 26.36500
C  0.78200 11.52400 27.78500
C  0.56700 10.09000 27.73400
C  1.00200 13.35300 25.89800
C  1.04500 11.92200 29.12300
O  1.25700 13.02300 29.59200
C  0.95000 10.58600 29.93800
C  2.22500 10.36000 30.52400
O  3.16000 9.84100 29.93900
O  2.23200 10.87600 31.80700
C  3.52500 10.84300 32.51300
H  -0.87000 3.86600 28.31100
H  -0.63100 5.52000 22.14000
H  0.70200 11.62300 23.54900
H  1.00500 7.54200 30.95000
H  -1.16300 5.66000 30.44500
H  1.28400 4.21500 29.86500
H  0.38600 4.14300 31.36000
H  1.60000 5.28400 31.31200
H  -1.93500 7.49900 31.23000
H  -1.52300 9.04500 30.83500
H  -1.62400 8.15700 33.35000
H  -0.49100 9.47500 32.89000
H  -1.86500 2.07300 27.15200
H  -0.28700 1.58100 26.59500
H  -1.70200 1.35900 25.62200
H  -2.47100 1.22600 23.73800
H  -0.69000 0.98400 23.46900
H  -1.72200 0.99900 22.10900
H  -1.03600 8.04300 20.94500
H  1.08100 10.03200 21.64400
H  1.80400 8.18300 20.55500
H  0.55600 7.58500 19.64100
H  1.24300 6.47200 20.93500
H  -1.24900 10.21300 20.36000
H  -0.45600 11.52700 21.06400
H  -3.10500 10.93200 21.67400
H  -2.13400 12.03700 22.53700
H  -2.31400 10.36100 23.11900
H  0.08100 13.93300 25.83200
H  1.29400 13.43800 24.85100
H  1.65200 13.81100 26.64300
H  0.16200 10.72800 30.67800
H  3.70400 11.82700 32.94700
H  4.32800 10.51800 31.85200
H  3.39900 10.08900 33.29000
Mg 1.05900 41.39600 25.17600
C  2.93200 41.90000 28.10300
C  -1.60500 40.46200 27.23700
C  -0.64300 40.57800 22.42800
C  4.09600 41.67300 23.28900
N  0.63500 41.32900 27.49200
C  1.61100 41.51400 28.39600
C  1.04600 41.30800 29.80700
C  -0.42200 40.77200 29.54900
C  -0.51100 40.86700 28.04200
C  -0.64200 39.22100 29.92200
C  1.04200 42.62900 30.65400
C  0.28200 42.71100 31.93100
H  0.07400 41.45400 32.76000
N  -0.82700 40.87600 24.87300
C  -1.77200 40.48200 25.86300
C  -3.02200 40.12300 25.15300
C  -2.75000 40.23700 23.76000
C  -1.34300 40.60400 23.58600
C  -4.34500 39.87600 25.91100
C  -3.79500 40.15400 22.60900
O  -3.43900 40.17400 21.42200
C  -5.25100 39.99400 22.80300
N  1.63200 41.06200 23.14600
C  0.74400 40.82500 22.16600
C  1.35500 40.87500 20.73500
C  2.82700 41.32800 21.03300
C  2.87500 41.44200 22.59400
C  1.33000 39.50500 19.99400
C  3.12500 42.69100 20.28800
C  3.06500 43.98500 21.18100
N  3.05200 41.79400 25.52900
C  4.17800 41.91800 24.66600
C  5.29100 42.20600 25.45900
C  4.91900 42.26000 26.78200
C  3.52100 41.96000 26.73600
C  6.63400 42.43900 24.93800
C  5.32200 42.43800 28.16200
O  6.43000 42.66300 28.59700
C  4.02700 42.19000 29.04200
C  4.29600 41.10500 30.03500
O  4.37600 39.88200 29.77500
O  4.75600 41.70600 31.16700
C  5.33800 40.66200 32.09800
H  -2.43400 40.04500 27.81400
H  -1.26200 40.50700 21.53100
H  5.04700 41.74900 22.75700
H  1.68100 40.61700 30.36100
H  -1.19100 41.36900 30.03900
H  0.24400 38.70600 30.29400
H  -1.04600 38.69100 29.06000
H  -1.39200 39.28800 30.71000
H  0.68600 43.41200 29.98500
H  2.06700 42.91600 30.89000
H  -0.65600 43.26200 31.86700
H  0.85700 43.26600 32.67200
H  -4.34900 39.94900 26.99900
H  -4.73600 38.90900 25.59500
H  -5.05500 40.62000 25.54900
H  -5.70600 40.85700 23.29100
H  -5.43900 39.06000 23.33300
H  -5.61100 39.98200 21.77500
H  0.83900 41.54900 20.05100
H  3.50200 40.54000 20.70000
H  2.27300 38.96900 20.10800
H  1.11900 39.68900 18.94100
H  0.55900 38.84800 20.39800
H  2.30300 42.98600 19.63600
H  4.02600 42.66200 19.67400
H  4.05000 44.15900 21.61300
H  2.35500 43.89300 22.00300
H  2.73300 44.80000 20.53800
H  6.52000 43.17600 24.14400
H  7.00200 41.52600 24.47100
H  7.25700 42.77500 25.76700
H  3.87600 43.11000 29.60700
H  5.95800 40.98300 32.93500
H  5.88400 39.92000 31.51500
H  4.43000 40.27800 32.56300

