158

Mg 1.49800 7.84100 25.82800
C  2.17200 9.96800 28.51300
C  2.03100 5.21700 27.96200
C  1.04600 5.71700 23.24600
C  1.20000 10.57500 23.66400
N  1.92700 7.63700 27.98200
C  2.11100 8.64200 28.92100
C  2.25900 8.07000 30.38800
C  2.40400 6.54500 30.17000
C  2.15100 6.43600 28.61400
C  3.79800 5.86400 30.55100
C  0.99900 8.47200 31.23400
C  1.16900 9.28000 32.53200
H  2.34100 8.80800 33.41300
N  1.46100 5.70700 25.62000
C  1.79300 4.83100 26.59700
C  1.76100 3.45900 26.09300
C  1.30500 3.52000 24.75600
C  1.21600 5.01300 24.48000
C  2.12000 2.28400 27.02600
C  0.97700 2.47300 23.69400
O  0.51700 2.70400 22.61200
C  1.18100 0.94500 24.13600
N  1.42200 8.16300 23.70900
C  1.03700 7.10600 22.91900
C  0.65400 7.47600 21.46500
C  0.70100 9.05100 21.58600
C  1.05600 9.31800 23.09400
C  1.52200 6.79900 20.33300
C  -0.59500 9.76200 21.19600
C  -0.58400 10.58800 19.90800
N  1.67600 9.85300 25.98200
C  1.50700 10.86900 25.04700
C  1.65400 12.14300 25.73900
C  2.03200 11.84200 27.10200
C  1.97800 10.43800 27.19900
C  1.40900 13.54800 25.18600
C  2.39000 12.47200 28.31300
O  2.67900 13.64400 28.52300
C  2.31700 11.24700 29.34700
C  3.56600 11.27800 30.14000
O  4.65200 10.88300 29.77400
O  3.32400 11.95500 31.29100
C  4.50900 12.31100 32.06000
H  2.20200 4.45000 28.72000
H  0.89200 4.98900 22.44700
H  1.02600 11.39700 22.96700
H  3.18900 8.46100 30.79800
H  1.66500 5.95000 30.70500
H  4.25400 5.97200 31.53500
H  4.57500 6.18000 29.85500
H  3.66600 4.78200 30.51900
H  0.47700 7.56900 31.55400
H  0.36400 9.01500 30.53400
H  0.25100 9.22300 33.11700
H  1.29700 10.35200 32.38400
H  1.36800 1.50000 26.93400
H  2.33200 2.39900 28.08900
H  3.04500 1.81000 26.69700
H  0.94300 0.24400 23.33700
H  0.56400 0.74000 25.01100
H  2.17100 0.74200 24.54500
H  -0.38900 7.19300 21.32600
H  1.48200 9.45100 20.93900
H  2.53300 6.56600 20.66600
H  1.55700 7.53900 19.53300
H  1.04500 5.92300 19.89100
H  -0.82800 10.53700 21.92700
H  -1.42400 9.05600 21.23700
H  -0.02500 10.09700 19.11200
H  -0.19200 11.58200 20.12100
H  -1.64800 10.60400 19.67300
H  2.39700 13.97100 25.00200
H  0.97000 14.06500 26.03900
H  0.78000 13.45900 24.30000
H  1.45500 11.47300 29.97400
H  5.02600 11.40400 32.37100
H  4.21800 12.77500 33.00200
H  5.05100 13.04000 31.45700
Mg -9.68300 18.05900 42.85100
C  -6.32500 17.40600 42.46500
C  -9.08900 21.35700 41.89700
C  -13.09600 18.57900 42.40000
C  -10.30900 14.59800 43.06700
N  -7.86800 19.22000 42.40800
C  -6.63700 18.74200 42.22900
C  -5.55100 19.78700 41.98600
C  -6.45200 21.16800 42.01900
C  -7.88800 20.54400 42.05400
C  -6.26400 22.07600 43.27600
C  -4.78100 19.55500 40.61300
C  -5.72800 18.99000 39.48800
H  -5.42300 19.39100 38.03800
N  -10.94800 19.71000 42.42700
C  -10.46200 20.93000 42.08400
C  -11.59900 21.77600 41.75200
C  -12.81300 21.08100 42.00500
C  -12.32900 19.71700 42.24600
C  -11.48400 23.17000 41.25300
C  -14.16800 21.65200 41.88900
O  -14.32800 22.79900 41.61900
C  -15.42300 20.89200 42.18600
N  -11.39900 16.81400 42.66500
C  -12.65400 17.24900 42.54900
C  -13.70800 16.19300 42.65700
C  -12.84600 14.82800 42.81700
C  -11.39100 15.45500 42.81800
C  -14.67600 16.38600 43.80600
C  -13.18700 13.71800 41.66200
C  -13.49600 12.23600 42.09000
N  -8.55900 16.33100 42.97300
C  -8.93600 14.99400 43.10300
C  -7.78700 14.17700 43.10600
C  -6.75300 15.09200 42.87400
C  -7.24700 16.37800 42.87300
C  -7.76800 12.60600 43.12000
C  -5.29200 15.20800 42.61200
O  -4.41600 14.32600 42.48200
C  -4.98700 16.74000 42.49100
C  -4.13600 17.20800 43.57100
O  -2.94900 17.37900 43.41000
O  -4.79200 17.20200 44.76900
C  -3.84700 17.41800 45.91300
H  -8.85700 22.33600 41.47300
H  -14.17000 18.77400 42.36100
H  -10.57400 13.54300 43.16300
H  -4.96200 19.71100 42.90000
H  -6.31900 21.72500 41.09200
H  -5.46300 21.79100 43.95800
H  -7.18600 22.15500 43.85200
H  -6.03900 23.08500 42.93200
H  -3.92500 18.89400 40.75100
H  -4.35400 20.49900 40.27400
H  -6.65300 19.54300 39.65000
H  -5.79100 17.91700 39.66900
H  -12.27900 23.45000 40.56200
H  -10.54800 23.34200 40.72200
H  -11.42100 23.87600 42.08100
H  -15.35800 20.29200 43.09400
H  -15.50300 20.18600 41.35900
H  -16.22500 21.62000 42.30800
H  -14.12800 16.09800 41.65500
H  -12.90700 14.41800 43.82500
H  -14.38100 17.36500 44.18400
H  -14.55300 15.71000 44.65100
H  -15.74300 16.49200 43.61200
H  -12.27700 13.72300 41.06200
H  -13.99400 14.06500 41.01600
H  -13.52200 12.14200 43.17500
H  -12.76200 11.59700 41.60000
H  -14.42900 11.90500 41.63200
H  -7.82900 12.17100 44.11800
H  -6.88600 12.26400 42.57800
H  -8.66500 12.29900 42.58100
H  -4.48300 17.02000 41.56600
H  -3.24400 16.53800 46.13600
H  -4.51400 17.63700 46.74700
H  -3.15200 18.25100 45.81400

