158

Mg 25.49900 1.10200 28.68200
C  27.36200 0.77400 31.61300
C  22.81100 1.85400 30.61400
C  23.64300 1.03800 25.80200
C  28.20300 -0.11600 26.91200
N  25.16900 1.32900 30.86000
C  26.09300 1.28600 31.85100
C  25.41900 1.63800 33.21400
C  23.97400 1.85400 32.88400
C  23.96700 1.69000 31.33100
C  22.89400 0.91400 33.60800
C  26.12800 2.79900 33.99500
C  26.67400 2.43700 35.34900
H  26.64000 3.40700 36.55600
N  23.50200 1.51600 28.23900
C  22.56100 1.83900 29.18500
C  21.28900 1.95400 28.58200
C  21.43200 1.73100 27.13900
C  22.91300 1.46600 26.97000
C  20.01000 2.08900 29.38700
C  20.35800 1.75500 26.04900
O  20.66300 1.63600 24.86300
C  18.97200 2.00700 26.31700
N  25.91800 0.50600 26.67500
C  24.96700 0.68900 25.66700
C  25.64100 0.72300 24.27800
C  27.07700 0.16500 24.58500
C  27.11200 0.26100 26.11400
C  24.85200 -0.14800 23.28600
C  28.19300 0.88800 23.80200
C  28.64800 2.29800 24.32600
N  27.40800 0.31500 29.15000
C  28.38700 -0.06400 28.26800
C  29.46800 -0.53200 29.08000
C  29.15500 -0.11400 30.38300
C  27.84800 0.37700 30.36700
C  30.78400 -1.17500 28.74300
C  29.72200 0.03900 31.71100
O  30.84700 -0.33300 32.07600
C  28.57500 0.63400 32.57200
C  28.26700 -0.25100 33.63700
O  27.54600 -1.28200 33.69100
O  28.87800 0.17100 34.88200
C  28.52700 -0.69200 36.07900
H  22.05800 2.30000 31.26700
H  23.01900 0.91900 24.91400
H  29.14900 -0.45400 26.48400
H  25.57800 0.71000 33.76300
H  23.70500 2.90000 33.03100
H  23.35100 0.49300 34.50300
H  22.45700 0.11000 33.01600
H  22.15200 1.64300 33.93300
H  25.48300 3.66000 34.17100
H  26.88500 3.18300 33.31200
H  27.74000 2.30800 35.15900
H  26.28800 1.44700 35.59000
H  19.16600 1.46000 29.10300
H  19.60300 3.08300 29.20000
H  20.24100 1.74500 30.39500
H  18.38600 2.24200 25.42900
H  18.79200 2.82700 27.01100
H  18.50800 1.15500 26.81300
H  25.75100 1.74300 23.91200
H  27.20900 -0.89200 24.35200
H  24.12300 -0.76100 23.81600
H  25.62600 -0.74800 22.80800
H  24.40600 0.48600 22.52000
H  27.92400 1.07100 22.76200
H  29.06400 0.23400 23.77700
H  28.03400 2.66600 25.14800
H  28.58900 3.02100 23.51200
H  29.62700 2.13000 24.77300
H  30.76000 -1.62000 27.74900
H  31.05200 -1.88800 29.52300
H  31.59600 -0.45500 28.63600
H  28.95800 1.54700 33.02700
H  27.56100 -0.38600 36.48100
H  29.30300 -0.42700 36.79700
H  28.60800 -1.77300 35.96400
Mg 30.18900 57.23800 40.50300
C  27.36500 55.30500 39.50300
C  32.15000 54.45700 39.85800
C  32.91300 59.27200 40.46400
C  28.03800 60.07700 40.40300
N  29.78600 55.14800 39.70500
C  28.57000 54.55300 39.41100
C  28.79600 53.20500 38.70600
C  30.12800 52.82700 39.41100
C  30.77200 54.22700 39.62900
C  30.10100 52.08300 40.82800
C  28.88500 53.35800 37.12100
C  27.91500 52.41700 36.31500
H  27.14300 52.89300 35.07600
N  32.28100 56.93200 40.25900
C  32.82800 55.69400 40.00000
C  34.30100 56.00800 40.02500
C  34.58100 57.38600 40.22400
C  33.24700 57.94600 40.32800
C  35.24100 54.93800 39.53700
C  36.00800 58.03100 40.29200
O  37.01400 57.37100 40.09300
C  36.29400 59.45200 40.79400
N  30.42600 59.30600 40.46400
C  31.64100 59.92200 40.54300
C  31.55300 61.43800 40.67900
C  29.97800 61.64800 40.74900
C  29.43800 60.24300 40.54800
C  32.22900 62.20000 41.90400
C  29.42700 62.62200 39.74400
C  28.22800 63.41900 40.26900
N  28.09800 57.64700 40.25600
C  27.37700 58.82200 40.25500
C  25.92200 58.52800 40.01100
C  25.87100 57.19800 39.75300
C  27.20000 56.70300 39.84600
C  24.76100 59.58300 39.93200
C  25.06100 56.03900 39.30000
O  23.91300 55.97700 39.09200
C  25.94600 54.77600 39.17700
C  25.55000 53.76400 40.15700
O  26.25700 53.44100 41.07900
O  24.36500 53.16400 39.77800
C  24.02800 51.81200 40.14000
H  32.81000 53.59700 39.72100
H  33.70100 60.02500 40.40700
H  27.31100 60.88600 40.49500
H  28.03700 52.49000 39.02400
H  30.80700 52.30700 38.73600
H  29.09700 51.66000 40.83800
H  30.17900 52.80900 41.63700
H  30.78400 51.24000 40.93800
H  29.93800 53.25300 36.86400
H  28.51600 54.34000 36.82300
H  27.32300 51.83700 37.02300
H  28.49000 51.58900 35.90100
H  34.80800 54.31700 38.75300
H  35.61700 54.22500 40.27000
H  36.07500 55.49500 39.10800
H  36.28700 60.23200 40.03300
H  37.22000 59.40300 41.36700
H  35.57800 59.68000 41.58400
H  31.95100 61.91300 39.78300
H  29.68800 62.02900 41.72900
H  33.00600 62.88800 41.56800
H  32.77600 61.47600 42.50800
H  31.50700 62.78200 42.47700
H  29.14900 62.23400 38.76400
H  30.09800 63.45400 39.53200
H  28.45200 64.48100 40.37400
H  27.83000 63.16100 41.25000
H  27.50400 63.25200 39.47200
H  24.96000 60.24000 39.08600
H  24.70800 60.14500 40.86500
H  23.88700 59.00000 39.64300
H  25.72100 54.28200 38.23200
H  23.09600 51.72400 40.69900
H  24.83300 51.31600 40.68200
H  23.86200 51.31600 39.18400

