158

Mg 44.56900 4.13300 46.43800
C  42.31100 6.75100 46.54800
C  41.87600 1.89600 45.89800
C  46.78700 1.60700 45.56800
C  47.14100 6.40400 46.10500
N  42.38800 4.33600 46.24000
C  41.66600 5.52300 46.31300
C  40.17500 5.23700 46.36200
C  40.00700 3.67400 46.13900
C  41.51100 3.26100 46.15000
C  39.12000 2.88500 47.24300
C  39.36900 6.08100 45.39700
C  39.33100 5.85000 43.89500
H  39.51200 7.03700 42.90000
N  44.36200 2.02500 45.98700
C  43.18100 1.35800 45.86400
C  43.43300 -0.02000 45.44400
C  44.85200 -0.15800 45.47000
C  45.46400 1.18000 45.65900
C  42.34100 -1.02000 45.11800
C  45.60200 -1.43500 45.19100
O  45.08400 -2.54600 44.98000
C  47.16800 -1.53700 45.14800
N  46.74400 3.99600 45.88800
C  47.39100 2.79500 45.78700
C  48.88800 2.98600 45.53100
C  48.96600 4.58800 45.41500
C  47.58700 5.05000 45.90900
C  49.85700 2.28700 46.55300
C  49.09300 5.17400 43.98500
C  50.54500 5.25400 43.57500
N  44.73100 6.12800 46.31100
C  45.83900 6.89700 46.39500
C  45.55300 8.27600 46.69700
C  44.15900 8.24800 46.79500
C  43.71600 6.96100 46.46200
C  46.45800 9.44100 46.77300
C  42.99100 9.02100 47.25900
O  42.93900 10.18000 47.61000
C  41.71600 8.12200 46.94500
C  40.85000 8.09400 48.07000
O  40.95500 7.41700 49.10700
O  39.76600 8.85200 47.76800
C  38.56900 8.65200 48.66000
H  41.02100 1.21900 45.84700
H  47.45600 0.81800 45.21900
H  47.93200 7.15400 46.17700
H  39.82000 5.53000 47.35000
H  39.47900 3.40700 45.22400
H  38.24000 2.33800 46.90500
H  38.75200 3.69100 47.87800
H  39.81000 2.32400 47.87400
H  39.55900 7.15200 45.46600
H  38.33200 6.20300 45.71100
H  38.34400 5.46500 43.64000
H  40.09500 5.10800 43.66200
H  42.67400 -1.73900 44.37000
H  41.37900 -0.59400 44.83300
H  42.08300 -1.54800 46.03600
H  47.69100 -1.25700 46.06200
H  47.62200 -1.00900 44.31000
H  47.50100 -2.57200 45.06300
H  49.06300 2.59500 44.52900
H  49.81600 4.83000 46.05300
H  50.62300 1.90000 45.88000
H  49.39700 1.48400 47.12900
H  50.40100 3.05100 47.10700
H  48.67600 6.17600 43.88200
H  48.60000 4.64400 43.17000
H  51.16700 4.95600 44.41900
H  50.78500 6.27200 43.26800
H  50.73400 4.48900 42.82200
H  47.25200 9.44800 46.02600
H  46.83100 9.37200 47.79500
H  45.96600 10.38900 46.55500
H  41.19800 8.61300 46.12100
H  37.71200 8.68000 47.98800
H  38.40200 9.47900 49.35000
H  38.52600 7.72200 49.22700
Mg -1.90900 33.77700 26.85400
C  -3.87800 31.97400 29.06600
C  -0.80200 35.76900 29.47600
C  -0.17700 35.46300 24.62800
C  -3.43600 32.02600 24.32900
N  -2.26300 33.83100 28.99100
C  -3.07700 32.98900 29.71200
C  -2.95200 33.25400 31.22700
C  -2.17700 34.63400 31.31200
C  -1.69300 34.75300 29.85000
C  -2.90300 35.88100 31.78800
C  -2.20800 31.98900 31.95300
C  -2.82800 31.64200 33.36300
H  -1.88300 31.38000 34.61200
N  -0.59900 35.25500 27.02200
C  -0.24200 35.92900 28.16100
C  0.75900 36.91600 27.90900
C  1.08300 36.76500 26.52300
C  0.09600 35.78900 25.97700
C  1.35000 37.85500 28.99200
C  2.04300 37.51600 25.69900
O  2.20100 37.30800 24.52400
C  2.73800 38.64900 26.23600
N  -1.87100 33.84100 24.82200
C  -1.00000 34.52800 24.12500
C  -1.13600 34.34600 22.60100
C  -2.06600 33.13800 22.55500
C  -2.46900 32.95500 23.98200
C  -1.61800 35.59800 21.87900
C  -1.51600 31.79600 21.95200
C  -2.50800 30.88200 21.17900
N  -3.45500 32.33500 26.60500
C  -3.86500 31.67800 25.54900
C  -4.84000 30.67500 25.93500
C  -4.90900 30.69500 27.32200
C  -3.98500 31.72900 27.65100
C  -5.63200 29.75000 25.05700
C  -5.45300 30.16800 28.52000
O  -6.27000 29.24600 28.70400
C  -4.75800 30.90700 29.69800
C  -5.76800 31.38200 30.60600
O  -6.59000 32.19400 30.23400
O  -5.56300 30.90900 31.88400
C  -6.54800 31.31100 32.85800
H  -0.43300 36.35300 30.32100
H  0.38600 35.97100 23.84300
H  -3.95300 31.50800 23.51800
H  -3.93200 33.30000 31.70200
H  -1.30900 34.57700 31.96800
H  -3.62200 36.06200 30.98900
H  -2.33900 36.81000 31.86600
H  -3.52700 35.72500 32.66800
H  -1.20300 32.27100 32.26800
H  -2.30200 31.14200 31.27300
H  -3.32200 30.71400 33.07700
H  -3.63000 32.33600 33.61500
H  1.07900 38.88800 28.77600
H  2.43700 37.92000 28.94500
H  1.09500 37.64100 30.03000
H  3.16800 38.32200 27.18200
H  1.92100 39.36600 26.32800
H  3.58600 39.02900 25.66600
H  -0.17500 34.09300 22.15300
H  -2.99500 33.41500 22.05500
H  -2.47800 35.51000 21.21600
H  -0.79500 36.00000 21.28800
H  -1.91100 36.39300 22.56300
H  -1.05600 31.23200 22.76300
H  -0.73200 32.09700 21.25600
H  -1.97000 30.49700 20.31300
H  -3.38400 31.34500 20.72500
H  -2.69200 30.04800 21.85600
H  -6.51400 29.52500 25.65600
H  -5.02900 28.91200 24.70800
H  -5.99600 30.15700 24.11400
H  -4.19100 30.14700 30.23700
H  -7.26400 30.55300 33.17700
H  -7.04000 32.26400 32.66600
H  -5.96400 31.34500 33.77800

