158

Mg 1.44800 8.00200 26.48500
C  1.93700 10.22200 29.10900
C  2.18800 5.35700 28.65600
C  1.53200 6.08100 23.77900
C  1.28900 10.78500 24.36300
N  1.98700 7.77600 28.63100
C  2.02800 8.89000 29.52000
C  2.01500 8.39800 30.98000
C  2.29900 6.83600 30.75700
C  2.08500 6.63600 29.27600
C  3.62500 6.27600 31.20200
C  0.71800 8.76100 31.71900
C  0.57200 7.99500 33.09300
H  1.81600 7.61000 33.87200
N  1.82100 6.00900 26.30300
C  2.19200 5.08600 27.26200
C  2.29700 3.80900 26.63300
C  2.11700 3.98700 25.22200
C  1.82100 5.43900 25.04500
C  2.51600 2.49500 27.38500
C  2.34900 3.00400 24.10900
O  2.26600 3.32200 22.91400
C  2.68700 1.59700 24.41900
N  1.27400 8.35400 24.32000
C  1.28500 7.37900 23.45800
C  1.16900 7.91600 21.94900
C  1.15600 9.45000 22.17800
C  1.25500 9.53400 23.72200
C  2.33200 7.29600 21.02900
C  -0.10700 10.11900 21.62300
C  0.11700 11.13300 20.47600
N  1.53200 10.13500 26.61000
C  1.41300 11.08900 25.67700
C  1.57000 12.41400 26.25300
C  1.78200 12.12700 27.66600
C  1.76100 10.73200 27.82800
C  1.52200 13.79900 25.56300
C  1.93200 12.74400 28.93300
O  2.03300 13.92300 29.21900
C  1.91600 11.49300 29.92000
C  3.10300 11.66800 30.71100
O  4.28000 11.61400 30.22200
O  2.81400 11.61000 32.08400
C  3.90400 11.83400 33.07000
H  2.32100 4.52300 29.34900
H  1.60000 5.50000 22.85700
H  1.16500 11.67000 23.73500
H  2.81600 8.90100 31.52200
H  1.49500 6.32100 31.28300
H  4.23800 5.89700 30.38400
H  3.51000 5.45800 31.91200
H  4.17300 7.14300 31.57200
H  -0.09700 8.47300 31.05500
H  0.87000 9.83300 31.84800
H  0.01700 7.08400 32.87300
H  -0.05800 8.56700 33.77500
H  2.66200 2.61800 28.45800
H  3.37000 1.94900 26.98400
H  1.67100 1.80700 27.40500
H  2.59000 0.90200 23.58500
H  2.09800 1.18600 25.23900
H  3.75200 1.62100 24.64900
H  0.24600 7.52800 21.51800
H  2.02000 9.87000 21.66200
H  2.97900 8.15600 20.85900
H  2.09300 6.79200 20.09300
H  2.94200 6.61000 21.61800
H  -0.66400 10.70100 22.35700
H  -0.77900 9.31900 21.31300
H  -0.14800 10.55400 19.59200
H  1.15700 11.45700 20.46500
H  -0.50900 12.01100 20.63400
H  0.70300 13.93000 24.85700
H  2.49500 13.88600 25.07800
H  1.55700 14.76000 26.07600
H  1.01400 11.52200 30.53100
H  4.90700 11.99400 32.67400
H  3.98300 10.96300 33.72100
H  3.65300 12.67300 33.71900
Mg 44.77600 3.04500 47.17800
C  42.36400 5.53100 46.75200
C  42.10900 0.78600 47.09900
C  46.97300 0.59700 47.01000
C  47.28300 5.45300 46.68900
N  42.54000 3.16500 47.09500
C  41.81200 4.26900 46.94700
C  40.36000 3.89700 46.69700
C  40.28300 2.50400 47.41600
C  41.72000 2.11500 47.19500
C  39.79900 2.42700 48.94700
C  40.12000 3.96000 45.18300
C  38.68800 4.34700 44.78600
H  38.56300 5.47000 43.81000
N  44.55600 0.96200 47.07700
C  43.42700 0.21400 47.01900
C  43.73300 -1.18800 46.96600
C  45.17700 -1.27700 46.95200
C  45.66400 0.13000 46.99200
C  42.78700 -2.26500 46.80400
C  45.96000 -2.57800 46.92200
O  45.29900 -3.57400 47.04000
C  47.43200 -2.77900 46.63600
N  46.85800 3.00000 46.70300
C  47.59900 1.82300 46.95200
C  49.12500 2.21600 47.14900
C  49.10300 3.75900 47.14500
C  47.63600 4.14400 46.84100
C  49.84900 1.63800 48.43200
C  50.13400 4.30100 46.14300
C  51.27000 5.09300 46.89300
N  44.86600 5.06200 46.87300
C  45.94100 5.93100 46.61400
C  45.39200 7.29200 46.39100
C  44.02100 7.08900 46.52300
C  43.74900 5.75400 46.72300
C  46.15400 8.58000 46.13900
C  42.80200 7.86300 46.50400
O  42.61400 9.08500 46.41900
C  41.67500 6.85200 46.68900
C  40.96500 7.23300 47.94100
O  41.38800 7.31400 49.08300
O  39.65800 7.43600 47.59500
C  38.63400 7.70100 48.61300
H  41.25300 0.11500 47.19400
H  47.70200 -0.16200 47.30100
H  47.98900 6.26300 46.88400
H  39.82200 4.72600 47.15600
H  39.69500 1.82500 46.79800
H  40.60000 2.05900 49.58800
H  38.96100 1.73100 48.97600
H  39.48300 3.43900 49.19900
H  40.46400 3.00100 44.79700
H  40.74100 4.75500 44.77000
H  38.01800 4.41700 45.64300
H  38.35900 3.48700 44.20200
H  42.85200 -2.67100 45.79400
H  41.78000 -1.92000 47.04100
H  43.00500 -3.12100 47.44300
H  48.11700 -2.42200 47.40500
H  47.77200 -2.25200 45.74500
H  47.55400 -3.81600 46.32300
H  49.56000 1.79400 46.24300
H  49.23100 4.16700 48.14800
H  50.68000 1.06400 48.02100
H  49.18300 0.98300 48.99500
H  50.27400 2.37700 49.11100
H  49.77000 4.92100 45.32400
H  50.65600 3.51200 45.60200
H  52.03500 5.19900 46.12300
H  51.75600 4.63700 47.75600
H  50.91900 6.10900 47.07000
H  45.51700 9.37000 45.74100
H  47.03200 8.37900 45.52600
H  46.43600 9.04800 47.08200
H  41.00200 6.78600 45.83400
H  38.67400 7.01200 49.45600
H  37.62900 7.60000 48.20200
H  38.77600 8.68300 49.06500

