158

Mg 35.95600 1.10800 29.61400
C  33.87100 2.14800 32.36200
C  38.67800 1.15800 31.62800
C  37.69000 0.49000 26.86700
C  33.10800 1.62400 27.57000
N  36.19100 1.33800 31.77400
C  35.19800 1.84600 32.73000
C  35.80400 1.79500 34.15900
C  37.41900 1.68200 33.83300
C  37.43800 1.29900 32.35700
C  38.37900 2.89000 34.18200
C  35.34200 0.66400 35.09800
C  35.10200 0.89500 36.58700
H  35.57200 2.19800 37.27900
N  37.83300 0.80200 29.28400
C  38.81300 0.92300 30.24300
C  40.11500 0.78800 29.58100
C  39.89000 0.43400 28.24900
C  38.38500 0.48900 28.07600
C  41.44300 0.75700 30.23100
C  40.85200 -0.07200 27.21000
O  40.46500 -0.41600 26.07200
C  42.36500 -0.23800 27.44600
N  35.43900 0.90100 27.52100
C  36.35200 0.74100 26.55900
C  35.74200 0.84100 25.14400
C  34.26500 0.84300 25.48000
C  34.24800 1.03400 26.95800
C  36.35600 2.05400 24.29800
C  33.53300 -0.50100 24.97600
C  32.73100 -0.44100 23.65100
N  33.96200 1.76500 29.89800
C  32.95200 1.95600 28.93100
C  31.76200 2.45800 29.57900
C  32.06300 2.51000 30.95200
C  33.39300 2.14800 31.04400
C  30.44200 2.74800 28.81100
C  31.55300 2.91500 32.29000
O  30.54400 3.35200 32.74900
C  32.74300 2.66300 33.23100
C  32.94200 3.96200 33.96000
O  33.25500 5.02300 33.46600
O  32.58500 3.82400 35.26300
C  32.28200 5.14100 35.98600
H  39.57900 1.21900 32.24300
H  38.35400 0.23500 26.03900
H  32.21300 1.65100 26.94500
H  35.52300 2.77900 34.53300
H  37.82900 0.76300 34.25200
H  38.70400 3.42900 33.29200
H  39.34800 2.64800 34.62000
H  37.69600 3.54600 34.72200
H  35.97800 -0.21700 35.01200
H  34.37000 0.40400 34.67900
H  35.44600 0.04400 37.17400
H  34.02400 0.99300 36.71800
H  41.61900 1.46700 31.03900
H  42.19600 1.05600 29.50100
H  41.73900 -0.24800 30.53200
H  42.84900 0.73800 27.41400
H  42.69100 -0.81500 26.58100
H  42.74000 -0.85900 28.26000
H  35.88500 -0.10200 24.61700
H  33.80100 1.71200 25.01200
H  36.63400 2.90700 24.91900
H  35.50700 2.26100 23.64700
H  37.19600 1.63100 23.74800
H  32.79300 -0.81900 25.71100
H  34.25000 -1.31200 24.85000
H  31.69600 -0.71100 23.86000
H  33.12300 -1.23500 23.01600
H  32.81900 0.53600 23.17600
H  30.24600 2.10700 27.95200
H  30.42900 3.80500 28.54600
H  29.74500 2.61300 29.63800
H  32.50200 1.91300 33.98500
H  31.39000 5.64000 35.60800
H  33.10300 5.83900 36.14900
H  31.99900 4.82600 36.99100
Mg 53.81500 22.68400 44.81000
C  51.51700 25.39600 44.02500
C  51.39200 20.51500 44.14000
C  56.31500 20.36500 44.56800
C  56.35300 25.19900 45.23600
N  51.75700 22.93200 44.07800
C  51.00000 24.09500 43.95100
C  49.46200 23.70300 43.81600
C  49.47900 22.21800 44.28500
C  50.94600 21.84600 44.10400
C  49.01700 21.94900 45.73300
C  48.88900 23.94400 42.34200
C  49.82600 23.47000 41.17700
H  49.24300 23.07100 39.81700
N  53.89700 20.65200 44.33400
C  52.74200 19.96500 44.09400
C  53.10900 18.56700 43.89900
C  54.55100 18.49500 44.06100
C  54.99000 19.85800 44.34400
C  52.26500 17.52700 43.43400
C  55.37200 17.17100 43.99500
O  54.87500 16.07600 43.83800
C  56.87900 17.26800 44.16400
N  56.08500 22.79700 44.92700
C  56.84400 21.64900 44.85100
C  58.28800 21.90100 45.25000
C  58.31700 23.52200 45.52900
C  56.84000 23.92600 45.23400
C  58.70500 20.95800 46.42300
C  59.35500 24.36700 44.70300
C  60.09500 25.44300 45.56800
N  53.94200 24.80300 44.66200
C  55.04400 25.65800 44.88800
C  54.62200 27.05800 44.81900
C  53.24200 26.98200 44.52500
C  52.87100 25.61500 44.39800
C  55.54200 28.25400 45.06900
C  52.10300 27.78600 44.18700
O  51.93400 28.98800 44.15100
C  50.98500 26.78800 43.85400
C  50.74200 26.93300 42.39100
O  51.49300 26.52700 41.46400
O  49.56200 27.57600 42.17400
C  49.11500 27.74000 40.80100
H  50.59200 19.77400 44.18300
H  57.19600 19.72000 44.58900
H  57.17800 25.89400 45.40600
H  49.00900 24.35300 44.56400
H  48.89000 21.62200 43.58800
H  48.78500 22.80600 46.36600
H  49.86800 21.53300 46.27200
H  48.26100 21.16300 45.70800
H  48.75400 25.01900 42.22700
H  47.90400 23.49200 42.22200
H  50.17300 22.47100 41.44100
H  50.61200 24.20900 41.02200
H  51.25600 17.81400 43.13700
H  52.07500 16.89100 44.29900
H  52.70700 16.98900 42.59500
H  56.90400 17.70500 45.16300
H  57.18200 17.91100 43.33800
H  57.35900 16.31500 43.93900
H  58.86500 21.72600 44.34200
H  58.59900 23.65800 46.57300
H  58.98500 19.99200 46.00100
H  57.82900 20.83000 47.05800
H  59.58200 21.32400 46.95600
H  58.84400 24.96900 43.95200
H  60.10600 23.74000 44.22200
H  60.13200 26.44300 45.13700
H  61.15800 25.20300 45.59500
H  59.77100 25.58800 46.59900
H  55.83500 28.12100 46.11000
H  55.03900 29.20600 44.90200
H  56.41800 28.19100 44.42300
H  50.10100 26.93700 44.47300
H  49.89400 28.00700 40.08600
H  48.36700 28.53200 40.78000
H  48.65000 26.83000 40.42200

