158

Mg 24.73600 -8.42500 47.39100
C  27.17000 -6.16800 46.40600
C  22.78200 -7.42700 44.78600
C  22.68300 -11.02500 48.05000
C  27.19700 -9.81500 49.58000
N  24.89900 -6.89800 45.81500
C  26.02900 -6.15700 45.56400
C  25.82700 -5.19300 44.38700
C  24.28100 -5.38400 44.13000
C  23.97300 -6.65000 44.94800
C  23.45600 -4.07100 44.47500
C  26.66900 -5.66700 43.17700
C  27.48700 -4.59200 42.34300
H  26.99000 -4.32700 40.94400
N  22.88500 -9.05100 46.61000
C  22.25100 -8.50000 45.53000
C  21.02300 -9.20200 45.27000
C  20.99200 -10.28800 46.19500
C  22.20400 -10.15700 47.05900
C  20.06000 -8.79200 44.17500
C  19.92000 -11.35700 46.15300
O  19.01400 -11.41400 45.32300
C  19.75300 -12.26100 47.39100
N  24.96500 -10.23400 48.57300
C  23.87000 -10.97100 48.83100
C  24.27100 -12.12400 49.79400
C  25.63100 -11.65900 50.45000
C  26.00800 -10.52100 49.48800
C  23.18400 -12.67000 50.77100
C  26.69700 -12.75100 50.56500
C  27.45200 -12.85100 51.91300
N  26.76100 -8.10000 47.93600
C  27.58200 -8.72800 48.82900
C  28.90900 -8.04500 48.90500
C  28.77200 -6.99700 47.96200
C  27.44300 -7.09200 47.42600
C  30.02400 -8.37600 49.69600
C  29.43200 -5.95700 47.23600
O  30.62700 -5.66700 47.23300
C  28.45700 -5.32300 46.27300
C  28.12700 -3.90400 46.51700
O  27.50400 -3.57900 47.50600
O  28.68100 -3.10800 45.51700
C  28.12300 -1.77700 45.48700
H  22.17400 -7.01600 43.97700
H  21.99400 -11.84000 48.28100
H  27.93500 -10.25000 50.25600
H  26.05100 -4.19600 44.76500
H  24.10800 -5.56700 43.07000
H  22.82800 -4.28400 45.34000
H  22.87700 -3.75500 43.60800
H  24.03900 -3.21300 44.81000
H  26.08300 -6.13800 42.38700
H  27.34100 -6.48300 43.44400
H  28.54700 -4.79200 42.50100
H  27.27800 -3.72200 42.96500
H  19.18200 -9.40400 43.97000
H  20.56600 -8.68400 43.21600
H  19.73200 -7.80300 44.49200
H  20.39800 -13.13700 47.32500
H  18.70000 -12.53900 47.44500
H  19.98700 -11.67400 48.27900
H  24.50000 -12.97900 49.16000
H  25.43300 -11.20700 51.42200
H  22.20800 -12.32800 50.42700
H  23.41200 -12.05900 51.64500
H  23.25500 -13.71500 51.07400
H  27.36100 -12.75900 49.70100
H  26.17500 -13.70800 50.55100
H  28.51200 -12.99700 51.70500
H  27.06000 -13.66200 52.52600
H  27.28400 -11.93800 52.48300
H  30.64200 -9.17600 49.28900
H  29.74900 -8.65900 50.71300
H  30.58600 -7.44300 49.73400
H  28.94400 -5.38300 45.29900
H  27.14000 -1.88300 45.94500
H  28.12300 -1.34500 44.48600
H  28.65900 -1.05900 46.10800
Mg 46.81700 35.71000 28.82100
C  44.98300 33.41100 30.99300
C  47.19200 37.74900 31.33900
C  48.06400 37.81900 26.62200
C  46.07400 33.44000 26.23700
N  46.29900 35.50900 30.93000
C  45.74500 34.46200 31.64000
C  45.69700 34.79300 33.11400
C  46.11500 36.30000 33.12900
C  46.60600 36.52300 31.71300
C  44.93600 37.30000 33.54100
C  46.81800 33.98000 33.84200
C  46.93700 33.94500 35.36100
H  46.07200 34.86600 36.24600
N  47.63700 37.48300 28.99300
C  47.74500 38.19800 30.16900
C  48.38100 39.49700 29.89800
C  48.68500 39.55500 28.52400
C  48.16100 38.26300 27.98000
C  48.70500 40.55900 30.86000
C  49.41300 40.50600 27.66900
O  49.72400 40.38900 26.50800
C  49.97300 41.81400 28.16500
N  47.01600 35.66900 26.67200
C  47.50600 36.65700 26.03700
C  47.33900 36.46200 24.56600
C  47.08000 34.94900 24.44800
C  46.63300 34.62600 25.89300
C  46.26200 37.41200 23.97500
C  48.38300 34.14800 24.12000
C  48.35700 33.34700 22.80500
N  45.74500 33.84500 28.58900
C  45.58000 33.01100 27.48100
C  44.74300 31.84600 27.81400
C  44.49300 31.96600 29.20500
C  45.16900 33.12300 29.63700
C  44.23800 30.70100 26.93100
C  43.77400 31.44200 30.41000
O  43.11600 30.41100 30.45000
C  43.94800 32.43400 31.58000
C  44.25200 31.85500 32.91100
O  45.20400 31.03400 33.08800
O  43.41600 32.31300 33.94100
C  43.70600 31.81200 35.27100
H  47.40800 38.37500 32.20800
H  48.61600 38.47100 25.94200
H  45.96000 32.67500 25.46600
H  44.75900 34.71100 33.66400
H  46.96700 36.43100 33.79600
H  44.16900 36.75700 34.09300
H  44.53500 37.97200 32.78300
H  45.34700 37.94200 34.32000
H  47.80400 34.24500 33.46100
H  46.70800 32.94600 33.51500
H  47.97300 34.27100 35.46400
H  47.01900 32.92200 35.72700
H  49.75600 40.83300 30.96000
H  48.58300 40.27500 31.90500
H  48.06300 41.42100 30.67600
H  49.23700 42.35400 28.76200
H  50.04300 42.47200 27.29900
H  50.81900 41.47700 28.76300
H  48.26300 36.83300 24.12400
H  46.28700 34.57100 23.80200
H  45.54700 37.65100 24.76200
H  45.75000 36.93400 23.14000
H  46.72900 38.38000 23.79300
H  48.49400 33.34100 24.84400
H  49.22300 34.84100 24.05500
H  48.11200 32.30400 23.00900
H  49.35000 33.31400 22.35500
H  47.62300 33.79700 22.13700
H  44.48000 29.64700 27.06500
H  44.55500 30.95600 25.92000
H  43.15700 30.80600 27.02600
H  42.94900 32.87000 31.60100
H  43.14700 32.49700 35.90900
H  44.77200 31.84600 35.49800
H  43.26300 30.84900 35.52400

