158

Mg 35.56600 1.54500 28.86700
C  33.44400 2.60100 31.30400
C  38.10400 1.30900 31.12800
C  37.80600 1.22000 26.19100
C  33.02400 1.81600 26.49600
N  35.71400 1.74300 31.01000
C  34.68900 2.20700 31.84200
C  35.11600 2.28100 33.30500
C  36.69000 2.01100 33.16100
C  36.80900 1.61500 31.67400
C  37.43700 3.22900 33.43200
C  34.37900 1.30000 34.31600
C  33.81800 1.93500 35.70500
H  34.51400 3.21400 36.26600
N  37.67500 1.27600 28.67200
C  38.52700 1.08900 29.77300
C  39.75800 0.48300 29.28600
C  39.74900 0.60200 27.85300
C  38.31800 1.04400 27.48700
C  40.89800 0.00200 30.17300
C  40.86100 0.40200 26.86500
O  40.67600 0.64900 25.67700
C  42.19900 -0.18400 27.37300
N  35.40600 1.68100 26.65200
C  36.50100 1.49600 25.79300
C  36.01000 1.71300 24.36700
C  34.45100 1.50600 24.39200
C  34.24400 1.68600 25.92800
C  36.36400 3.12200 23.77000
C  34.00500 0.06000 24.02700
C  33.03300 0.01900 22.78400
N  33.61000 1.97800 28.89100
C  32.69500 2.10400 27.78600
C  31.45900 2.69500 28.24200
C  31.70500 2.93000 29.61400
C  33.02000 2.49200 29.92300
C  30.14500 2.96400 27.52900
C  31.11400 3.42000 30.88000
O  30.00100 3.74100 31.21000
C  32.24300 3.28400 32.04100
C  32.58300 4.70000 32.46200
O  33.54500 5.35500 32.10600
O  31.64900 5.13200 33.37300
C  31.98000 6.36100 34.02200
H  38.88200 1.13300 31.87300
H  38.50200 1.33200 25.35700
H  32.23200 1.88700 25.74800
H  34.96800 3.29000 33.68900
H  37.06800 1.13400 33.68700
H  36.84700 4.02500 33.88600
H  37.93800 3.68900 32.58000
H  38.18100 2.94500 34.17600
H  35.04700 0.51700 34.67400
H  33.52100 0.95400 33.74100
H  33.79700 1.10700 36.41400
H  32.78500 2.21900 35.50200
H  41.80400 0.60000 30.06900
H  41.21600 -1.02500 29.99500
H  40.70800 0.03000 31.24600
H  42.91700 0.58000 27.67200
H  42.52000 -0.71800 26.47800
H  42.23700 -1.01400 28.07900
H  36.52600 0.96300 23.76800
H  33.91800 2.28500 23.84600
H  37.38600 3.02500 23.40200
H  36.30900 3.84000 24.58800
H  35.77500 3.48000 22.92500
H  33.53900 -0.32500 24.93400
H  34.91800 -0.48600 23.79100
H  33.23800 -0.85500 22.16600
H  33.24500 0.89600 22.17300
H  31.97300 -0.02600 23.03400
H  30.01500 2.31100 26.66500
H  30.19900 4.01000 27.22900
H  29.40300 2.75200 28.29900
H  31.85800 2.69700 32.87400
H  33.00800 6.39600 34.38300
H  31.29000 6.67000 34.80700
H  31.85400 7.16600 33.29800
Mg 26.45100 50.38400 26.48500
C  24.03800 51.60300 28.74800
C  28.58100 49.75100 29.05900
C  28.61400 49.46500 24.22300
C  24.27200 51.53600 23.89300
N  26.28700 50.70100 28.65800
C  25.19600 51.04100 29.38800
C  25.41900 50.72100 30.87900
C  26.99200 50.53800 30.91600
C  27.31800 50.26100 29.46800
C  27.73300 51.67200 31.58900
C  24.73200 49.37600 31.44000
C  23.91300 49.69300 32.75000
H  24.59800 50.37600 33.96000
N  28.37400 49.58800 26.60600
C  29.10100 49.39800 27.76400
C  30.43000 48.89300 27.43300
C  30.47100 48.92800 26.01800
C  29.07400 49.28300 25.51900
C  31.52900 48.67100 28.43300
C  31.57700 48.50100 25.09800
O  31.63100 48.67200 23.93900
C  32.83400 47.84500 25.73500
N  26.48000 50.68000 24.31900
C  27.43900 49.99200 23.64800
C  27.11500 49.93400 22.16900
C  25.63200 50.46000 22.09700
C  25.39100 50.87900 23.51900
C  28.16200 50.54700 21.09400
C  24.61900 49.51900 21.41000
C  23.96000 48.34900 22.21200
N  24.63900 51.51700 26.27800
C  23.90000 51.85300 25.23900
C  22.71200 52.52500 25.65500
C  22.61600 52.39700 27.01800
C  23.91500 51.82300 27.34700
C  21.75600 53.29500 24.73200
C  21.91500 52.59200 28.28300
O  20.76900 52.99200 28.55800
C  22.79100 52.09500 29.37300
C  22.88800 53.11800 30.39000
O  23.50500 54.18600 30.30500
O  22.11200 52.71800 31.47900
C  22.29900 53.53400 32.62700
H  29.24000 49.52100 29.89900
H  29.32600 49.23100 23.42900
H  23.56300 51.69900 23.07800
H  25.10400 51.56800 31.48800
H  27.12400 49.65600 31.54300
H  27.21200 52.33300 32.28200
H  28.31700 52.33500 30.95200
H  28.43400 51.18500 32.26700
H  25.36900 48.54000 31.72700
H  24.05200 49.10000 30.63400
H  23.45100 48.77100 33.10500
H  23.03700 50.25400 32.42300
H  31.91200 47.68400 28.17500
H  31.26700 48.56200 29.48500
H  32.38600 49.33700 28.32900
H  33.43800 47.30900 25.00300
H  32.52600 47.04100 26.40200
H  33.52500 48.58800 26.13300
H  27.02000 48.86800 21.96200
H  25.71000 51.41900 21.58600
H  28.96000 51.21400 21.42100
H  27.63700 51.26600 20.46500
H  28.57000 49.73400 20.49300
H  25.14900 48.99000 20.61700
H  23.78100 50.14700 21.11000
H  24.30500 48.22800 23.23900
H  24.19000 47.40200 21.72600
H  22.87700 48.46100 22.16600
H  22.11100 54.26600 24.38900
H  20.85000 53.52400 25.29300
H  21.64100 52.74400 23.79900
H  22.52200 51.15800 29.86000
H  22.45800 54.58000 32.36700
H  23.12000 53.07500 33.17800
H  21.44100 53.38600 33.28200

