158

Mg 53.32500 24.39400 43.37700
C  50.54000 26.49700 42.99600
C  51.37400 21.72800 42.37100
C  56.19500 22.67300 42.80300
C  55.17400 27.27500 44.10900
N  51.25100 24.16000 42.65500
C  50.31600 25.17900 42.60700
C  48.91400 24.60000 42.19900
C  49.11600 23.03800 42.38300
C  50.65700 22.95400 42.47100
C  48.43000 22.47000 43.71300
C  48.42900 25.06800 40.81300
C  49.40600 25.40100 39.64900
H  49.02700 24.96000 38.23200
N  53.76500 22.47400 42.79400
C  52.77200 21.49500 42.50800
C  53.43600 20.24000 42.24900
C  54.85900 20.37400 42.53600
C  55.02700 21.92200 42.74000
C  52.70500 18.88800 41.88500
C  55.80600 19.27900 42.62300
O  55.51500 18.12400 42.29600
C  57.28500 19.47100 43.01300
N  55.39700 24.89400 43.30000
C  56.37200 24.01800 43.04200
C  57.72700 24.64500 43.41000
C  57.42200 26.17700 43.72000
C  55.93500 26.15900 43.71100
C  58.32900 23.84600 44.65100
C  58.07200 27.11400 42.59200
C  57.90100 26.79100 41.07700
N  52.93900 26.39600 43.71400
C  53.76200 27.44500 44.06300
C  52.94700 28.62500 44.37200
C  51.69200 28.26900 43.94900
C  51.75600 26.92800 43.49400
C  53.44100 29.88300 44.93000
C  50.31000 28.68700 43.90800
O  49.90400 29.79300 44.21800
C  49.44700 27.69200 43.10900
C  49.22100 28.32800 41.84900
O  50.02800 28.62300 40.97400
O  47.83200 28.57400 41.79700
C  47.24800 28.91000 40.48500
H  50.80600 20.86100 42.02600
H  57.18700 22.21900 42.75500
H  55.78700 28.15700 44.30400
H  48.24900 25.14500 42.86800
H  48.77200 22.43000 41.54600
H  47.63100 23.17000 43.95700
H  49.14600 22.34900 44.52600
H  47.86700 21.59700 43.38100
H  47.98500 26.05000 40.97100
H  47.72300 24.30600 40.48000
H  50.41700 25.12500 39.94800
H  49.34300 26.48800 39.60000
H  52.84000 18.75900 40.81200
H  51.65800 19.00100 42.16600
H  53.07600 18.00700 42.40900
H  57.63200 18.61500 43.59000
H  57.24500 20.27300 43.75100
H  57.93700 19.75400 42.18600
H  58.49400 24.47100 42.65500
H  57.69300 26.42300 44.74600
H  58.68600 24.56800 45.38500
H  59.14600 23.22800 44.28000
H  57.51300 23.25600 45.07100
H  59.14600 27.07800 42.77200
H  57.73300 28.12600 42.81200
H  57.59800 27.74800 40.65300
H  57.16100 26.03200 40.82500
H  58.87800 26.48800 40.70100
H  53.89300 30.51500 44.16500
H  54.04600 29.63100 45.80100
H  52.62200 30.45900 45.36100
H  48.52400 27.42700 43.62300
H  47.64900 29.88800 40.21700
H  46.16300 28.92000 40.58800
H  47.42500 28.16100 39.71300
Mg -12.12800 37.86800 42.10400
C  -9.87700 35.33200 41.23500
C  -10.15900 40.06400 40.12700
C  -14.61400 40.19800 41.96100
C  -14.29900 35.56000 43.38200
N  -10.38100 37.62700 40.68200
C  -9.57900 36.51600 40.55100
C  -8.38500 36.69800 39.62400
C  -8.51600 38.24400 39.29400
C  -9.75200 38.71900 40.03500
C  -7.26400 39.02400 39.57000
C  -8.62500 35.63000 38.45200
C  -7.44500 34.84900 37.93500
H  -6.77000 35.61400 36.81300
N  -12.28600 39.89600 41.42400
C  -11.32600 40.59100 40.67300
C  -11.71400 41.93600 40.46700
C  -13.04100 42.03200 40.93800
C  -13.42900 40.67300 41.43000
C  -10.85200 43.00100 39.74200
C  -13.87300 43.20500 40.86800
O  -13.43600 44.23100 40.40900
C  -15.30800 43.32100 41.31800
N  -14.24100 37.89900 42.55000
C  -15.02000 38.95000 42.45500
C  -16.50900 38.59000 42.80300
C  -16.30800 37.17900 43.37400
C  -14.91000 36.80000 42.96300
C  -17.04100 39.72700 43.79400
C  -17.33300 36.13900 42.78500
C  -17.94200 35.16700 43.84400
N  -12.14300 35.85000 42.33400
C  -13.00100 35.05600 42.96600
C  -12.47900 33.73000 43.14000
C  -11.30000 33.82500 42.43000
C  -11.08200 35.14300 42.00000
C  -13.22100 32.53400 43.79600
C  -10.07100 33.09900 42.08100
O  -9.77900 31.94200 42.29100
C  -9.04700 34.09400 41.35600
C  -7.91200 34.22500 42.33700
O  -7.04500 33.40100 42.63800
O  -7.94600 35.54800 42.89800
C  -6.71200 35.90600 43.60400
H  -9.46400 40.73700 39.61900
H  -15.48200 40.85900 41.92300
H  -14.94800 34.90200 43.96300
H  -7.41800 36.50600 40.08900
H  -8.79500 38.33900 38.24400
H  -6.35000 38.49200 39.30700
H  -7.15600 39.24900 40.63100
H  -7.37500 39.89600 38.92500
H  -8.95500 36.21100 37.59100
H  -9.32100 34.86100 38.78500
H  -8.00300 33.96300 37.63000
H  -6.82100 34.60700 38.79600
H  -11.00100 44.03200 40.06600
H  -11.02700 42.90800 38.67000
H  -9.79700 42.82900 39.95700
H  -15.94600 42.70900 40.68000
H  -15.67000 44.34200 41.43900
H  -15.32700 42.95700 42.34500
H  -17.05100 38.57600 41.85800
H  -16.41000 37.22900 44.45800
H  -17.91600 40.26800 43.43200
H  -16.22100 40.41200 44.01000
H  -17.25300 39.23600 44.74400
H  -17.05500 35.46800 41.97200
H  -18.10900 36.72100 42.28800
H  -18.87600 35.65700 44.12100
H  -17.17900 35.02800 44.61000
H  -18.16300 34.21800 43.35500
H  -12.77700 32.35700 44.77500
H  -13.18500 31.68700 43.11000
H  -14.26100 32.82400 43.94700
H  -8.70300 33.59000 40.45200
H  -6.42100 35.33100 44.48300
H  -6.90200 36.92600 43.93900
H  -5.85800 35.86600 42.92800

