158

Mg 1.81300 -2.68800 44.68700
C  4.90600 -1.21900 43.79800
C  0.23800 -0.16500 42.97700
C  -0.98800 -4.48900 45.05800
C  3.77000 -5.56200 45.79100
N  2.58500 -0.98800 43.50200
C  3.82300 -0.48400 43.33900
C  3.87500 0.84600 42.50600
C  2.40800 1.29600 42.69900
C  1.64800 -0.03700 43.00800
C  2.19300 2.39800 43.81900
C  4.42400 0.78600 41.05000
C  5.77400 1.59600 40.83000
H  6.91400 0.76100 40.33200
N  -0.04800 -2.39300 44.03000
C  -0.51900 -1.30600 43.40300
C  -1.89200 -1.40300 43.13600
C  -2.32600 -2.62200 43.74800
C  -1.10300 -3.21800 44.33800
C  -2.70300 -0.55400 42.27300
C  -3.70900 -3.18600 43.75900
O  -4.60900 -2.53000 43.28900
C  -4.06100 -4.55800 44.35100
N  1.44900 -4.80700 45.24900
C  0.10400 -5.20000 45.43100
C  0.07300 -6.61300 45.99200
C  1.57600 -6.90400 46.33800
C  2.36200 -5.73700 45.76500
C  -0.83400 -6.85400 47.30100
C  2.06400 -8.22200 45.65400
C  3.13200 -9.06700 46.40400
N  3.82800 -3.29200 44.93800
C  4.48500 -4.44600 45.42300
C  5.84900 -4.19800 45.51600
C  6.07600 -2.94800 44.83400
C  4.82800 -2.45800 44.52800
C  6.81000 -5.10400 46.21200
C  7.10900 -2.00500 44.37700
O  8.33500 -1.96900 44.46900
C  6.35700 -0.75700 43.76100
C  6.64100 0.51900 44.60400
O  6.14800 0.88400 45.62900
O  7.50300 1.21600 43.90500
C  8.08100 2.44600 44.49300
H  -0.19300 0.66400 42.41300
H  -1.85700 -5.14500 45.14600
H  4.33900 -6.36600 46.26100
H  4.40900 1.50300 43.19300
H  2.07600 1.64700 41.72200
H  2.44700 3.36500 43.38300
H  2.85900 2.23400 44.66500
H  1.21100 2.39700 44.29200
H  3.80000 1.24300 40.28100
H  4.49500 -0.26700 40.77900
H  6.09200 2.01000 41.78600
H  5.68900 2.41800 40.11900
H  -2.09600 0.15800 41.71600
H  -3.40100 0.03200 42.87200
H  -3.29600 -1.15300 41.58200
H  -3.49800 -5.24300 43.71700
H  -5.13800 -4.57600 44.18200
H  -3.85900 -4.63200 45.42000
H  -0.28700 -7.25700 45.19000
H  1.68200 -6.97900 47.42000
H  -0.92400 -7.90700 47.56800
H  -1.82400 -6.40900 47.20500
H  -0.41400 -6.30900 48.14700
H  2.45300 -7.98400 44.66400
H  1.19800 -8.87800 45.56400
H  3.69300 -9.55000 45.60300
H  2.76900 -9.88500 47.02600
H  3.72500 -8.51700 47.13500
H  7.08100 -5.85000 45.46500
H  6.41900 -5.59900 47.10000
H  7.66400 -4.44300 46.35700
H  6.70700 -0.75600 42.72800
H  8.07200 3.20600 43.71200
H  9.12100 2.20700 44.71800
H  7.63400 2.76600 45.43500
Mg 46.72900 25.48500 28.36300
C  47.36700 27.62400 31.06200
C  46.25900 22.89300 30.65900
C  46.16200 23.26300 25.89000
C  47.65300 27.91200 26.06500
N  46.85900 25.32800 30.60000
C  47.00400 26.38100 31.52800
C  46.89500 25.89100 32.96000
C  46.67400 24.32200 32.74200
C  46.66800 24.13300 31.26200
C  47.62700 23.30800 33.54400
C  45.77900 26.67100 33.88100
C  46.25000 26.71100 35.33400
H  45.40800 27.60100 36.30300
N  46.18100 23.45900 28.33500
C  46.08800 22.53700 29.38100
C  45.70900 21.21500 28.86900
C  45.60700 21.37100 27.45700
C  45.98300 22.78200 27.13600
C  45.66000 19.99700 29.70500
C  45.21300 20.27600 26.40300
O  45.18900 20.36800 25.20300
C  44.94700 18.96000 26.87000
N  47.03500 25.57100 26.28300
C  46.58000 24.50100 25.50800
C  46.77000 24.90000 24.02200
C  47.08100 26.42800 24.02900
C  47.27300 26.68800 25.53800
C  47.83800 24.03800 23.20200
C  45.85900 27.35500 23.54700
C  46.20200 28.55500 22.58400
N  47.43000 27.32000 28.45800
C  47.79400 28.21700 27.40300
C  48.23700 29.48800 28.04000
C  48.12300 29.26300 29.47900
C  47.68000 27.92500 29.64800
C  49.06300 30.44700 27.34900
C  48.42200 29.80500 30.72000
O  49.09600 30.79400 30.98600
C  47.78900 28.91400 31.72500
C  48.85900 28.72800 32.77800
O  49.93100 28.26400 32.66100
O  48.31600 29.18900 33.97400
C  49.06300 29.40000 35.15800
H  46.07700 22.12900 31.41800
H  45.98400 22.47400 25.15700
H  47.77600 28.66700 25.28500
H  47.85800 25.90400 33.47100
H  45.65500 24.16300 33.09400
H  48.29300 23.80000 34.25300
H  48.14000 22.70000 32.79900
H  46.99900 22.65800 34.15300
H  44.82300 26.14800 33.90900
H  45.53600 27.62600 33.41500
H  47.23600 27.17200 35.27400
H  46.25200 25.67000 35.65700
H  44.60500 19.74500 29.81000
H  46.11800 20.03200 30.69400
H  46.02800 19.01100 29.42100
H  44.12200 19.07400 27.57300
H  45.79200 18.51900 27.39900
H  44.60300 18.28500 26.08500
H  45.85200 24.74300 23.45500
H  47.98700 26.73600 23.50800
H  48.04800 23.05800 23.62900
H  48.70600 24.67000 23.01500
H  47.36600 23.87900 22.23300
H  45.29200 27.63000 24.43600
H  45.20500 26.71300 22.95600
H  47.26900 28.75900 22.49200
H  45.62800 29.44600 22.84000
H  45.87600 28.48700 21.54600
H  50.08400 30.07600 27.26000
H  48.98600 31.42200 27.83200
H  48.69900 30.56500 26.32800
H  46.90700 29.41800 32.12000
H  48.92500 30.38200 35.61100
H  50.11200 29.10600 35.13100
H  48.54100 28.76900 35.87800

