158

Mg 17.39200 -1.52600 27.02600
C  16.25700 0.61600 29.52500
C  19.23600 -3.14300 29.24200
C  18.70600 -3.34200 24.42300
C  15.72800 0.51800 24.61300
N  17.95000 -1.05500 29.16100
C  17.18100 -0.31600 30.00300
C  17.45900 -0.59800 31.51100
C  18.66800 -1.66700 31.34300
C  18.62700 -2.03100 29.82900
C  19.99800 -0.96900 31.76400
C  16.25100 -1.13400 32.36600
C  16.26100 -0.78500 33.87900
H  17.50600 -0.12100 34.41900
N  18.64900 -3.16300 26.85300
C  19.22700 -3.72300 27.90200
C  19.88600 -4.91600 27.51900
C  19.85500 -4.98700 26.07200
C  19.05200 -3.80200 25.71800
C  20.59700 -5.87900 28.52300
C  20.48700 -5.97100 25.07100
O  20.19100 -5.84100 23.88900
C  21.50100 -6.95600 25.55300
N  17.05600 -1.52200 24.81500
C  17.87200 -2.23000 23.97800
C  17.87700 -1.66200 22.54200
C  16.74100 -0.57200 22.64900
C  16.47000 -0.54800 24.10800
C  19.20200 -1.16000 21.95700
C  15.60200 -0.74100 21.64000
C  14.18100 -0.98600 22.06700
N  16.18800 0.15100 27.00600
C  15.54700 0.78500 25.95800
C  14.63600 1.75100 26.56000
C  14.92600 1.78900 27.92500
C  15.92300 0.85700 28.16000
C  13.62400 2.63500 25.86600
C  14.54400 2.35700 29.23400
O  13.64000 3.15700 29.57000
C  15.41800 1.64300 30.35200
C  16.19500 2.75800 31.03900
O  17.36900 3.01300 30.72500
O  15.42100 3.28500 32.04000
C  16.30300 3.87900 33.11400
H  19.82100 -3.77300 29.91500
H  19.22400 -3.74900 23.55200
H  15.24900 1.19900 23.90700
H  17.69400 0.38900 31.91100
H  18.62900 -2.50400 32.03900
H  20.65300 -1.71400 32.21500
H  19.82800 -0.15100 32.46400
H  20.53600 -0.49200 30.94400
H  16.25200 -2.20600 32.56200
H  15.30800 -0.94000 31.85600
H  16.07900 -1.69800 34.44500
H  15.49800 -0.06100 34.16400
H  20.05100 -6.03700 29.45300
H  21.58400 -5.47800 28.75300
H  20.63900 -6.87400 28.08000
H  21.05100 -7.76200 26.13200
H  22.29000 -6.43500 26.09700
H  21.90400 -7.39300 24.64000
H  17.72200 -2.55200 21.93100
H  17.24200 0.39400 22.58800
H  19.15400 -0.09800 21.71700
H  19.35200 -1.74100 21.04700
H  19.93900 -1.35200 22.73700
H  15.89000 -1.50300 20.91600
H  15.52400 0.21800 21.12900
H  13.76300 -1.71200 21.37100
H  13.55500 -0.09500 22.00800
H  14.10400 -1.31700 23.10300
H  12.64700 2.57600 26.34500
H  13.55100 2.36800 24.81100
H  14.01800 3.65100 25.87800
H  14.83200 1.20900 31.16200
H  16.77300 4.73700 32.63300
H  17.07400 3.19900 33.47300
H  15.77000 4.25900 33.98600
Mg 26.12700 0.55300 28.84800
C  28.01100 0.16200 31.67000
C  23.39500 1.18800 30.80700
C  24.16800 0.74300 26.09100
C  28.65400 -0.96900 26.87600
N  25.79400 0.62300 31.00400
C  26.75100 0.61200 31.97500
C  26.10200 0.71900 33.37900
C  24.56400 0.84300 33.08400
C  24.58700 0.91400 31.58000
C  23.72500 -0.31200 33.61600
C  26.64500 1.96700 34.20500
C  26.63800 1.77600 35.68100
H  26.26700 2.97400 36.64000
N  24.09200 1.08700 28.45500
C  23.13100 1.34100 29.44500
C  21.88100 1.71700 28.79400
C  22.05700 1.49400 27.37400
C  23.48000 1.13200 27.25500
C  20.55800 2.11700 29.42600
C  21.08100 1.53500 26.21400
O  21.34600 1.50600 25.05000
C  19.62900 1.83500 26.52800
N  26.23900 -0.29800 26.81200
C  25.37400 0.06800 25.81200
C  25.81000 -0.42200 24.40900
C  27.25200 -0.83700 24.70900
C  27.43000 -0.61000 26.21500
C  24.91200 -1.56000 23.83700
C  28.35300 -0.19800 23.80300
C  28.90200 1.13700 24.22300
N  28.00000 -0.25300 29.12100
C  28.90500 -0.83700 28.29700
C  30.08400 -1.01700 29.07500
C  29.85300 -0.63900 30.40800
C  28.53400 -0.22300 30.41000
C  31.40500 -1.44300 28.54200
C  30.40900 -0.50700 31.69300
O  31.53000 -0.69400 32.10700
C  29.25300 0.06300 32.61100
C  28.89900 -0.98100 33.58900
O  28.08900 -1.89300 33.49200
O  29.70900 -0.69400 34.70600
C  29.40800 -1.47100 35.90300
H  22.50400 1.34700 31.41800
H  23.66200 0.77300 25.12400
H  29.52300 -1.42300 26.39500
H  26.41000 -0.17900 33.91600
H  24.16700 1.82000 33.35700
H  23.29400 -0.89600 32.80300
H  22.83400 -0.02200 34.17200
H  24.23400 -0.99700 34.29400
H  26.00800 2.83300 34.02500
H  27.66800 2.21600 33.92500
H  27.58100 1.31900 35.98400
H  25.78800 1.10000 35.77600
H  19.87100 1.27100 29.41500
H  19.99700 2.90400 28.92200
H  20.68900 2.43300 30.46100
H  18.86600 1.80500 25.75000
H  19.62000 2.86800 26.87800
H  19.31700 1.05900 27.22700
H  25.64800 0.38200 23.69200
H  27.44300 -1.90600 24.61900
H  24.97200 -2.35800 24.57600
H  25.11100 -2.03600 22.87700
H  23.89300 -1.17300 23.84900
H  27.97500 -0.20000 22.78100
H  29.23900 -0.82100 23.92700
H  28.27600 1.58900 24.99200
H  28.93000 1.73900 23.31500
H  29.97000 1.07200 24.42900
H  32.10500 -1.82500 29.28500
H  31.92600 -0.62200 28.05000
H  31.37000 -2.18400 27.74400
H  29.55900 1.02100 33.03300
H  28.52200 -1.04600 36.37400
H  30.27100 -1.41900 36.56600
H  29.21700 -2.54200 35.83400

