158

Mg -2.67100 17.03600 27.06300
C  -3.01300 14.98300 29.86700
C  -2.79400 19.71700 29.12300
C  -2.16800 19.01300 24.44200
C  -2.65000 14.13900 25.00200
N  -2.81400 17.25500 29.31800
C  -2.81800 16.32100 30.31000
C  -2.94500 16.93200 31.69600
C  -2.87700 18.53300 31.36300
C  -2.86200 18.54500 29.82700
C  -4.08100 19.27100 32.04100
C  -1.89300 16.43400 32.78400
C  -1.53600 17.33500 33.96100
H  -1.02500 16.67600 35.25700
N  -2.57800 19.09000 26.74900
C  -2.72400 20.04500 27.78000
C  -2.58300 21.42500 27.25700
C  -2.44400 21.22200 25.84700
C  -2.36000 19.73800 25.62900
C  -2.74600 22.71700 28.09900
C  -2.38500 22.22000 24.69900
O  -2.20600 21.89100 23.54200
C  -2.18600 23.67600 25.02000
N  -2.48700 16.65400 25.02500
C  -2.24000 17.64200 24.16200
C  -2.07000 17.05800 22.70700
C  -1.96900 15.52400 22.91300
C  -2.39800 15.39500 24.39300
C  -3.36100 17.49300 21.87700
C  -0.52800 14.84200 22.62600
C  0.64100 15.63100 23.20000
N  -2.84900 14.99300 27.42200
C  -2.81700 13.92000 26.39200
C  -3.07200 12.74300 27.15900
C  -3.07600 13.10400 28.55000
C  -2.91200 14.42300 28.61900
C  -3.41700 11.41700 26.57100
C  -3.28100 12.56400 29.96800
O  -3.59900 11.51100 30.49500
C  -3.12600 13.88000 30.82600
C  -1.84400 13.60700 31.54700
O  -0.75700 13.89400 31.17200
O  -2.11500 13.04200 32.78000
C  -1.04200 12.76900 33.75500
H  -2.78200 20.61800 29.74000
H  -1.89800 19.59400 23.55800
H  -2.58500 13.30700 24.29700
H  -3.90000 16.69800 32.16500
H  -1.95100 18.84500 31.84700
H  -4.47800 18.68500 32.87000
H  -4.90800 19.60900 31.41700
H  -3.71500 20.18500 32.51100
H  -1.00900 16.14900 32.21400
H  -2.27600 15.53000 33.25800
H  -2.23300 18.10300 34.29600
H  -0.55600 17.79600 33.83700
H  -2.58900 22.67400 29.17700
H  -3.73200 23.10900 27.84900
H  -2.03300 23.49600 27.83300
H  -1.41000 23.86600 25.76100
H  -3.08200 24.06600 25.50400
H  -1.94400 24.34400 24.19400
H  -1.14300 17.48800 22.32500
H  -2.72200 15.02800 22.29900
H  -3.93800 18.23800 22.42500
H  -3.98400 16.65800 21.55600
H  -3.10000 17.97700 20.93500
H  -0.41400 14.81200 21.54300
H  -0.48900 13.78600 22.89500
H  1.22100 16.06500 22.38600
H  1.41400 15.01900 23.66500
H  0.38700 16.25100 24.06000
H  -3.86900 10.79600 27.34500
H  -2.50500 10.93600 26.21800
H  -4.14800 11.56700 25.77700
H  -3.95400 14.04500 31.51500
H  -1.39500 12.67400 34.78200
H  -0.18000 13.43700 33.73000
H  -0.74000 11.73900 33.56900
Mg 15.94200 -2.22500 28.64200
C  15.02900 0.18000 31.05900
C  17.97900 -3.77900 31.00000
C  17.49000 -4.07800 26.23800
C  14.48100 -0.24100 26.23800
N  16.61400 -1.68600 30.80100
C  16.03500 -0.75700 31.54700
C  16.61100 -1.02400 32.94600
C  17.64400 -2.19200 32.86100
C  17.40600 -2.63100 31.46600
C  19.10400 -1.63500 33.22600
C  15.55600 -1.20100 34.01000
C  15.61500 -0.18400 35.15000
H  16.90300 0.52100 35.55500
N  17.33700 -3.83500 28.66800
C  17.88800 -4.46000 29.74900
C  18.63700 -5.63800 29.31800
C  18.55200 -5.67600 27.85700
C  17.76600 -4.50700 27.51200
C  19.57500 -6.40200 30.20500
C  19.14200 -6.66500 26.91400
O  19.03000 -6.56500 25.73200
C  19.93000 -7.84900 27.45200
N  16.19500 -2.04200 26.62000
C  16.80800 -2.94600 25.81700
C  16.58100 -2.61600 24.31300
C  15.44500 -1.61300 24.37600
C  15.36600 -1.28200 25.85900
C  17.88900 -2.00600 23.68200
C  14.04800 -2.09300 23.91600
C  13.23900 -1.17200 22.98000
N  14.87000 -0.50400 28.58800
C  14.36300 0.22800 27.53200
C  13.53300 1.26600 28.06400
C  13.80800 1.27000 29.43000
C  14.67600 0.27600 29.70800
C  12.64000 2.21900 27.32700
C  13.41500 1.98900 30.64600
O  12.67400 2.98200 30.78400
C  14.23600 1.31800 31.78900
C  15.05500 2.43900 32.30900
O  16.13700 2.77500 31.88700
O  14.30100 3.05500 33.32300
C  14.87200 4.22800 33.93100
H  18.58200 -4.30500 31.74300
H  17.97300 -4.52700 25.36700
H  13.82900 0.15800 25.45800
H  17.10800 -0.08400 33.18500
H  17.54500 -3.03600 33.54400
H  19.05400 -0.89300 34.02300
H  19.53700 -1.18100 32.33500
H  19.88800 -2.34100 33.50100
H  15.76200 -2.23400 34.29000
H  14.57300 -1.25900 33.54300
H  15.31900 -0.77600 36.01600
H  14.90500 0.62800 34.99000
H  20.61500 -6.15400 29.99300
H  19.36700 -7.46300 30.06600
H  19.33200 -6.32600 31.26500
H  19.35900 -8.38100 28.21300
H  20.90800 -7.54600 27.82600
H  20.14200 -8.60600 26.69700
H  16.24700 -3.45100 23.69800
H  15.63400 -0.74400 23.74500
H  18.10800 -1.03100 24.11900
H  17.57800 -1.89300 22.64400
H  18.82500 -2.56100 23.62000
H  13.40300 -2.37700 24.74700
H  14.18400 -3.01400 23.34900
H  12.20600 -1.50900 23.06100
H  13.74000 -1.22200 22.01300
H  13.36800 -0.11200 23.19800
H  12.61400 1.93100 26.27600
H  13.11800 3.18100 27.14700
H  11.68200 2.35200 27.83100
H  13.66800 0.84300 32.58900
H  14.25700 4.57400 34.76200
H  15.23000 5.08300 33.35700
H  15.73700 3.78200 34.42200

