158

Mg 16.84900 51.46700 26.01400
C  18.85700 50.14100 28.62600
C  14.82200 52.70400 28.45000
C  15.14200 52.94800 23.49300
C  19.30900 50.27700 23.78600
N  16.74600 51.15700 28.28700
C  17.70900 50.70100 29.14600
C  17.30100 51.03600 30.64200
C  15.80000 51.43900 30.41400
C  15.78600 51.77900 28.98900
C  14.69800 50.53200 30.85900
C  18.34300 51.99100 31.28300
C  18.47000 51.87000 32.84500
H  17.47300 51.13100 33.69500
N  15.14000 52.62900 25.99700
C  14.44000 53.00900 27.12200
C  13.28600 53.75900 26.70300
C  13.33800 53.87200 25.28400
C  14.57000 53.12900 24.83800
C  12.27800 54.30100 27.68300
C  12.44300 54.66500 24.38700
O  12.56500 54.65200 23.16500
C  11.48200 55.58700 24.90100
N  17.10500 51.50700 23.91900
C  16.36300 52.27300 23.10300
C  17.03000 52.25400 21.71800
C  18.18400 51.28700 21.75900
C  18.23600 51.03900 23.24300
C  16.02200 52.10800 20.53800
C  19.41300 51.76100 20.99700
C  20.39400 50.74600 20.28700
N  18.66900 50.37900 26.08700
C  19.53400 49.95000 25.08600
C  20.64500 49.22700 25.67500
C  20.38000 49.33900 27.07900
C  19.20000 49.99200 27.27200
C  21.86000 48.66700 24.94800
C  20.95300 48.91100 28.28200
O  21.90000 48.15800 28.46300
C  20.05300 49.58800 29.37200
C  19.70500 48.63700 30.45600
O  18.90000 47.71600 30.28400
O  20.48000 48.85900 31.50600
C  20.25900 47.93100 32.65500
H  14.27100 53.22200 29.23700
H  14.65900 53.50200 22.68500
H  20.11900 49.98200 23.11600
H  17.41800 50.13400 31.24300
H  15.57300 52.28200 31.06600
H  14.48000 49.76600 30.11500
H  13.74500 50.99800 31.11100
H  14.93700 50.21300 31.87400
H  17.95600 52.96200 30.97100
H  19.36500 51.90800 30.91500
H  18.67200 52.88200 33.19600
H  19.36400 51.27800 33.04400
H  11.23700 54.37100 27.36800
H  12.68600 55.26200 27.99400
H  12.35600 53.82100 28.65800
H  11.91200 56.32100 25.58400
H  10.70300 55.11900 25.50300
H  11.06100 56.22100 24.12200
H  17.47200 53.23700 21.55400
H  17.94000 50.31900 21.32200
H  15.01400 52.00000 20.93800
H  16.14700 51.31600 19.79900
H  16.13900 53.02700 19.96400
H  20.05400 52.30900 21.68800
H  19.07300 52.44800 20.22300
H  20.46400 51.05200 19.24300
H  20.01700 49.72300 20.28700
H  21.37400 50.67100 20.75900
H  21.81400 47.58200 24.84800
H  22.83500 48.82300 25.41000
H  21.78800 49.11400 23.95600
H  20.59400 50.43600 29.79100
H  20.20000 46.91600 32.26000
H  19.45300 48.17500 33.34700
H  21.10600 47.95000 33.34100
Mg -1.90100 33.69900 26.84500
C  -3.66800 31.77500 29.21900
C  -0.69700 35.60300 29.44000
C  -0.61700 35.77600 24.53500
C  -3.79000 32.07400 24.42900
N  -2.20300 33.70600 29.03500
C  -2.94000 32.77100 29.78700
C  -2.69100 32.98200 31.24700
C  -2.04900 34.41400 31.28400
C  -1.64000 34.59700 29.82900
C  -3.03000 35.50000 31.75600
C  -1.84600 31.82900 31.82500
C  -2.33700 31.26600 33.18400
H  -1.57500 31.92100 34.40000
N  -0.66900 35.39500 26.92900
C  -0.22800 35.98000 28.09000
C  0.64500 37.07800 27.77000
C  0.56000 37.18600 26.34400
C  -0.23300 36.07900 25.88600
C  1.36200 37.83800 28.87200
C  1.16500 38.23200 25.41800
O  0.99000 38.23200 24.19900
C  2.26200 39.10100 25.97400
N  -2.33900 33.97400 24.81600
C  -1.49800 34.80500 24.07200
C  -1.53800 34.44400 22.58800
C  -2.47500 33.16100 22.53600
C  -2.92000 33.01400 24.02000
C  -1.90300 35.67000 21.69300
C  -1.81700 31.83000 21.97700
C  -1.05800 30.88000 22.92600
N  -3.33300 32.11400 26.76400
C  -4.07000 31.65800 25.74700
C  -4.89400 30.54700 26.17500
C  -4.75100 30.45300 27.52600
C  -3.88100 31.53400 27.83700
C  -5.64000 29.52300 25.29500
C  -5.10100 29.75800 28.76600
O  -5.76900 28.76800 28.88500
C  -4.38100 30.55600 29.92400
C  -5.40900 30.95800 30.95200
O  -6.17600 31.87500 30.82300
O  -5.36600 30.21800 32.13900
C  -6.20700 30.64800 33.23400
H  -0.23900 35.96600 30.36200
H  -0.26700 36.33000 23.66200
H  -4.34100 31.45500 23.71800
H  -3.67000 33.04200 31.72300
H  -1.21800 34.58400 31.96800
H  -3.85500 35.08400 32.33300
H  -3.47100 36.03600 30.91500
H  -2.53300 36.21900 32.40800
H  -0.84400 32.24200 31.94200
H  -1.75200 31.02100 31.10000
H  -2.09300 30.20700 33.26800
H  -3.41400 31.41200 33.26500
H  2.42100 37.68300 28.66400
H  0.99000 37.63500 29.87600
H  1.28200 38.92100 28.78300
H  1.76400 39.86200 26.57500
H  2.78000 39.59100 25.14900
H  2.99100 38.49900 26.51500
H  -0.50600 34.12400 22.44300
H  -3.40900 33.29400 21.98900
H  -2.60600 35.45500 20.88800
H  -1.03500 35.94800 21.09500
H  -2.32100 36.49800 22.26500
H  -1.17400 31.95200 21.10600
H  -2.70000 31.32700 21.58100
H  -0.55400 31.33600 23.77800
H  -0.40000 30.28400 22.29300
H  -1.90500 30.27700 23.25300
H  -6.16000 29.98100 24.45400
H  -6.48200 29.07300 25.82000
H  -4.91700 28.76200 25.00000
H  -3.72700 29.81100 30.37900
H  -5.81700 31.47800 33.82500
H  -6.10400 29.82300 33.93900
H  -7.26300 30.81300 33.02400

