158

Mg 2.45500 -2.45500 45.06200
C  5.76600 -1.81300 44.44000
C  1.62000 0.15300 42.84000
C  -0.85500 -3.42100 45.07200
C  3.29100 -5.51700 46.55900
N  3.54300 -0.95500 43.94500
C  4.92500 -0.89700 43.81900
C  5.45200 0.16200 42.81200
C  4.06200 0.80900 42.38500
C  3.00600 -0.08000 43.08200
C  3.93400 2.22000 42.93400
C  6.30900 -0.35500 41.60100
C  7.72200 0.27500 41.47000
H  8.01800 1.01600 40.21200
N  0.62200 -1.54400 44.33300
C  0.51800 -0.53600 43.38200
C  -0.85300 -0.31300 43.18900
C  -1.63200 -1.21700 43.96900
C  -0.64400 -2.12200 44.55400
C  -1.28900 0.88000 42.25800
C  -3.14100 -1.17200 44.14000
O  -3.85700 -0.37000 43.48800
C  -3.73000 -2.01900 45.11800
N  1.40000 -4.34000 45.58200
C  0.04300 -4.37100 45.58800
C  -0.48100 -5.66800 46.26500
C  0.85700 -6.39300 46.67300
C  1.93700 -5.46600 46.14000
C  -1.62300 -5.45200 47.34300
C  0.91300 -7.83000 46.10700
C  0.53200 -9.03200 47.07000
N  4.16300 -3.44700 45.52800
C  4.33500 -4.70600 46.06700
C  5.79100 -4.97900 46.18400
C  6.43400 -3.84100 45.55000
C  5.39700 -3.01300 45.17800
C  6.50600 -6.20500 46.75200
C  7.72000 -3.20600 45.19800
O  8.88800 -3.50100 45.43300
C  7.30800 -1.89700 44.45900
C  7.76200 -0.75200 45.25800
O  7.61700 -0.64400 46.46600
O  8.45400 0.19000 44.46300
C  8.69400 1.46700 45.05900
H  1.49000 0.84900 42.00900
H  -1.91100 -3.60300 45.28400
H  3.60400 -6.47200 46.98700
H  5.98700 0.90000 43.41000
H  3.81600 0.82700 41.32300
H  3.74200 2.89100 42.09700
H  4.74100 2.50300 43.60800
H  3.04600 2.37800 43.54600
H  5.80500 -0.12600 40.66100
H  6.28200 -1.43700 41.73000
H  8.39300 -0.56000 41.67200
H  7.98800 1.00200 42.23700
H  -2.18200 0.49700 41.76400
H  -0.59600 1.09200 41.44400
H  -1.41700 1.82600 42.78400
H  -3.16300 -2.04300 46.04800
H  -3.77400 -3.01100 44.66800
H  -4.77200 -1.75700 45.29900
H  -1.00600 -6.21500 45.48200
H  0.94800 -6.55300 47.74800
H  -2.07600 -4.46200 47.30200
H  -1.27800 -5.39700 48.37500
H  -2.42800 -6.18100 47.25100
H  1.95100 -7.98300 45.81200
H  0.36000 -8.03400 45.19000
H  -0.42000 -9.38800 46.67800
H  0.27900 -8.65500 48.06100
H  1.36900 -9.72700 47.13600
H  6.09000 -6.54500 47.70100
H  7.56500 -5.98500 46.88400
H  6.42300 -6.92500 45.93900
H  7.79900 -1.97600 43.48900
H  7.80500 1.80800 45.59000
H  8.85100 2.21300 44.28000
H  9.53500 1.39300 45.74800
Mg -12.11700 38.41300 42.80600
C  -10.28500 35.68100 41.44400
C  -9.74100 40.57900 41.34000
C  -14.23000 40.96100 43.35200
C  -14.71200 36.13900 43.44700
N  -10.40500 38.15300 41.33900
C  -9.78700 36.95000 41.06200
C  -8.33300 37.14100 40.47400
C  -8.12100 38.70400 40.60800
C  -9.45500 39.16900 41.20000
C  -6.95800 39.09700 41.46100
C  -8.11400 36.48200 39.04500
C  -6.80500 35.66300 38.91400
H  -5.85700 36.21200 37.88400
N  -11.96500 40.48900 42.59000
C  -10.92100 41.17100 41.93700
C  -11.19600 42.60300 41.91400
C  -12.47000 42.75000 42.54600
C  -12.93800 41.39100 42.92400
C  -10.30400 43.68200 41.38600
C  -13.25900 44.05500 42.80500
O  -12.85700 45.11900 42.31900
C  -14.46000 44.06100 43.69800
N  -14.21400 38.56800 43.27800
C  -14.82500 39.69900 43.50700
C  -16.34800 39.52000 43.85400
C  -16.44800 37.95800 43.83300
C  -14.99900 37.52400 43.61100
C  -16.92900 40.13000 45.10000
C  -17.47700 37.44700 42.78900
C  -17.08500 37.26600 41.30300
N  -12.51100 36.28000 42.61700
C  -13.49900 35.50900 43.03300
C  -13.21200 34.10000 42.73000
C  -11.93900 34.09600 42.19400
C  -11.51800 35.46600 42.09400
C  -14.10900 32.90200 42.99000
C  -10.85800 33.28600 41.67000
O  -10.82700 32.09900 41.39300
C  -9.63100 34.31400 41.37000
C  -8.54000 34.19900 42.41100
O  -8.77700 34.24900 43.64100
O  -7.33400 34.12900 41.90200
C  -6.29200 33.89100 42.85700
H  -8.95400 41.32000 41.18600
H  -15.03000 41.69400 43.23000
H  -15.54900 35.47200 43.66800
H  -7.69600 36.64700 41.20700
H  -7.92700 39.06900 39.59900
H  -6.72300 38.40000 42.26500
H  -7.07400 40.07500 41.92800
H  -6.08600 38.99900 40.81500
H  -7.91500 37.33000 38.39000
H  -8.98400 36.07000 38.53500
H  -7.07200 34.61700 38.76200
H  -6.38600 35.77700 39.91400
H  -10.71700 44.65800 41.64200
H  -10.34800 43.71300 40.29800
H  -9.32700 43.65100 41.86900
H  -15.37500 43.77700 43.17900
H  -14.54300 45.08200 44.07200
H  -14.21800 43.52400 44.61500
H  -16.86000 39.86300 42.95500
H  -16.77300 37.58100 44.80200
H  -17.79000 40.77100 44.91400
H  -16.22400 40.66300 45.73800
H  -17.34000 39.35900 45.75200
H  -18.35000 38.08600 42.92900
H  -17.61200 36.43900 43.18000
H  -17.82400 37.67000 40.61000
H  -16.88400 36.21200 41.11100
H  -16.20300 37.88600 41.13700
H  -14.73300 32.72400 42.11500
H  -14.80600 33.17100 43.78400
H  -13.66500 31.92400 43.17800
H  -9.23300 34.06700 40.38600
H  -5.42000 34.45900 42.53300
H  -5.99500 32.84200 42.83000
H  -6.40600 34.11100 43.91900

