158

Mg 30.51100 57.97800 40.10000
C  27.71300 56.12100 39.15700
C  32.51000 55.53700 38.53500
C  33.11300 60.11400 40.07800
C  28.47100 60.48600 41.15000
N  30.10000 56.03300 38.98200
C  28.87900 55.49000 38.83900
C  28.98000 54.06900 38.14300
C  30.53600 53.75600 38.50100
C  31.12800 55.21100 38.65900
C  30.69400 52.93600 39.80300
C  28.85100 54.12800 36.61000
C  27.78800 53.37200 35.93800
H  26.85700 54.16700 35.02600
N  32.59400 57.82000 39.45600
C  33.15300 56.74900 38.75000
C  34.51100 57.08300 38.55300
C  34.74300 58.36800 39.00400
C  33.46600 58.87300 39.49600
C  35.56600 56.20300 37.81100
C  36.13800 59.09000 38.89100
O  37.05100 58.54300 38.24200
C  36.42700 60.49400 39.46500
N  30.71300 59.96200 40.52400
C  31.91100 60.63000 40.53200
C  31.74900 62.06200 41.05000
C  30.20300 62.21000 41.39300
C  29.75500 60.78900 40.97300
C  32.76200 62.39600 42.17600
C  29.39300 63.35700 40.65700
C  28.33300 64.18500 41.40700
N  28.42800 58.29000 40.26000
C  27.75300 59.33800 40.73100
C  26.33300 59.03100 40.64500
C  26.25000 57.76200 40.09100
C  27.55400 57.37200 39.84400
C  25.23200 59.88200 41.16300
C  25.37400 56.69800 39.76900
O  24.16600 56.52600 39.83300
C  26.31200 55.59900 39.16000
C  26.28900 54.40700 40.07500
O  26.76500 54.42300 41.19700
O  25.73000 53.36600 39.38100
C  25.48500 52.06700 40.09300
H  33.09000 54.64600 38.28800
H  33.94300 60.82300 40.10100
H  27.79100 61.27900 41.46600
H  28.27300 53.36300 38.57600
H  31.03800 53.11500 37.77700
H  29.76800 52.98100 40.37600
H  31.52000 53.33000 40.39500
H  30.86800 51.87200 39.64100
H  29.82000 53.97100 36.13500
H  28.66600 55.16600 36.33500
H  27.15100 52.93400 36.70600
H  28.12000 52.52600 35.33600
H  35.99200 56.78400 36.99300
H  34.97000 55.44900 37.29800
H  36.23400 55.70000 38.51100
H  36.11200 60.54300 40.50800
H  35.70500 61.14400 38.97100
H  37.48100 60.75800 39.37800
H  32.03200 62.64500 40.17300
H  30.15500 62.25700 42.48100
H  33.42300 61.54700 42.34900
H  32.23700 62.62700 43.10200
H  33.36600 63.21900 41.79300
H  28.81500 62.90900 39.84800
H  30.04400 64.09800 40.19200
H  28.68100 65.20400 41.57400
H  28.11400 63.64000 42.32600
H  27.38900 64.23700 40.86500
H  25.54400 60.92600 41.18100
H  24.80700 59.71800 42.15400
H  24.50300 59.74400 40.36500
H  25.96300 55.19700 38.20900
H  24.80400 52.33100 40.90200
H  26.38100 51.55700 40.44900
H  24.95900 51.46600 39.35100
Mg -10.64600 40.00700 42.45900
C  -10.14100 36.65600 41.30700
C  -7.67500 40.90300 41.09900
C  -11.53400 43.24500 42.79600
C  -14.03700 39.16300 42.94700
N  -9.18800 38.92400 41.21300
C  -9.10300 37.55000 41.02600
C  -7.82500 37.18100 40.28300
C  -6.92700 38.51600 40.42000
C  -7.94300 39.53400 40.89500
C  -5.84500 38.36000 41.46500
C  -8.05300 36.74100 38.81900
C  -7.36600 35.50800 38.31700
H  -6.22400 35.61100 37.32100
N  -9.67500 41.87600 42.12500
C  -8.44800 41.97300 41.49900
C  -8.12500 43.36600 41.41000
C  -9.19400 44.09900 42.07100
C  -10.17000 43.09700 42.40100
C  -6.88200 43.85300 40.69100
C  -9.32800 45.54000 42.27100
O  -8.69400 46.34700 41.61500
C  -10.27000 46.16800 43.23600
N  -12.48100 41.12800 42.63000
C  -12.51300 42.34800 43.00600
C  -13.95000 42.85000 43.22800
C  -14.79200 41.54000 43.13100
C  -13.68500 40.54900 42.84100
C  -14.05800 43.59800 44.55800
C  -15.77500 41.37900 41.95000
C  -17.12400 40.72500 42.31500
N  -11.80100 38.21100 42.47900
C  -13.16600 38.02100 42.73000
C  -13.41400 36.59400 42.58100
C  -12.22100 36.02300 42.10800
C  -11.30600 37.09400 41.91600
C  -14.70000 35.92500 42.95700
C  -11.66900 34.76100 41.76200
O  -11.97300 33.65200 41.84200
C  -10.31000 35.20100 41.11100
C  -9.17400 34.32500 41.59500
O  -8.60500 34.41100 42.66900
O  -8.73400 33.43600 40.65800
C  -7.50600 32.55700 40.94800
H  -6.64300 41.19800 40.89800
H  -11.86100 44.26900 42.98800
H  -15.07200 38.89900 43.17300
H  -7.28500 36.40600 40.82600
H  -6.35400 38.80000 39.53700
H  -4.97000 39.00500 41.38700
H  -5.49200 37.32900 41.48200
H  -6.22600 38.69100 42.43100
H  -7.59200 37.57800 38.29500
H  -9.07500 36.80500 38.44600
H  -8.11200 34.85400 37.86600
H  -6.89400 34.97700 39.14400
H  -7.21100 44.79200 40.24400
H  -6.47200 43.13900 39.97700
H  -6.04700 44.17100 41.31500
H  -11.19300 46.38500 42.69800
H  -9.86400 46.89200 43.94200
H  -10.55300 45.42800 43.98400
H  -14.18300 43.53700 42.41500
H  -15.18900 41.24900 44.10400
H  -13.12100 44.08000 44.83600
H  -14.40100 42.88200 45.30600
H  -14.84800 44.33100 44.39500
H  -15.36700 40.89700 41.06100
H  -16.06400 42.36100 41.57700
H  -17.08000 40.28200 43.31000
H  -17.49600 40.01600 41.57500
H  -17.90700 41.48400 42.31400
H  -14.75800 34.86800 42.70000
H  -15.43200 36.33900 42.26400
H  -14.92500 36.09200 44.01000
H  -10.42700 34.96100 40.05500
H  -7.17000 32.46000 41.98000
H  -6.57700 32.94000 40.52500
H  -7.68500 31.67200 40.33700

