158

Mg 1.49800 -2.93300 45.07300
C  4.90600 -1.98200 44.28700
C  0.49900 -0.35400 42.90700
C  -1.55800 -4.04100 45.39500
C  2.78600 -5.42100 46.96300
N  2.57300 -1.48600 43.55900
C  3.88800 -1.21000 43.53400
C  4.14300 -0.01800 42.65500
C  2.72400 0.56800 42.35300
C  1.88500 -0.49000 43.00900
C  2.59100 1.98400 42.94000
C  5.01000 -0.43300 41.42400
C  6.10000 0.54300 40.99900
H  5.88500 1.39200 39.71900
N  -0.22700 -2.27300 44.23700
C  -0.47500 -1.21600 43.37800
C  -1.89900 -1.11800 43.17000
C  -2.49200 -2.24500 43.79900
C  -1.41800 -2.93700 44.49800
C  -2.65000 -0.10300 42.37600
C  -4.01500 -2.51800 43.75400
O  -4.86700 -1.79800 43.24200
C  -4.60200 -3.75800 44.40000
N  0.78900 -4.53600 45.87500
C  -0.52200 -4.80400 45.96500
C  -0.78300 -6.09200 46.76100
C  0.57800 -6.46200 47.42300
C  1.45600 -5.43000 46.69400
C  -1.93800 -6.04200 47.83100
C  1.03700 -7.97500 47.16200
C  1.44700 -8.66700 48.46300
N  3.41800 -3.68800 45.53500
C  3.78900 -4.63900 46.42900
C  5.22000 -4.77300 46.50900
C  5.67800 -3.69800 45.80800
C  4.56600 -3.10700 45.12600
C  6.00300 -5.87400 47.23900
C  6.83600 -2.99400 45.35500
O  8.00200 -3.13100 45.67100
C  6.40000 -1.74600 44.54500
C  6.51500 -0.50200 45.43400
O  5.76300 -0.35900 46.37800
O  7.47500 0.37500 44.97700
C  7.50200 1.71900 45.61300
H  0.14700 0.50100 42.32500
H  -2.54700 -4.43600 45.63800
H  3.24100 -6.12700 47.66100
H  4.80400 0.61600 43.24700
H  2.59800 0.54300 41.27100
H  3.52400 2.36600 43.35400
H  1.79000 2.13500 43.66400
H  2.46100 2.74100 42.16600
H  4.33700 -0.29600 40.57700
H  5.47200 -1.39300 41.65400
H  6.98300 -0.05000 40.76400
H  6.43500 1.21500 41.79000
H  -3.25700 0.45700 43.08800
H  -3.30500 -0.42700 41.56800
H  -2.02500 0.62300 41.85600
H  -4.55700 -3.58300 45.47500
H  -3.96100 -4.56800 44.05200
H  -5.58900 -3.90000 43.96000
H  -1.04800 -6.70800 45.90200
H  0.57500 -6.34400 48.50600
H  -2.32200 -5.02900 47.95200
H  -1.63600 -6.47600 48.78500
H  -2.67200 -6.66300 47.31600
H  1.77700 -7.98900 46.36100
H  0.25500 -8.58800 46.71400
H  1.54300 -7.94500 49.27400
H  2.36200 -9.19700 48.19800
H  0.79400 -9.47600 48.79000
H  5.66900 -5.69800 48.26200
H  7.07300 -5.75200 47.07500
H  5.75900 -6.89400 46.94200
H  6.94700 -1.56600 43.61900
H  7.76700 2.46800 44.86700
H  8.16200 1.69600 46.48100
H  6.52300 1.93300 46.04100
Mg -2.39000 34.18300 26.70800
C  -3.95300 32.73900 29.42100
C  -0.81300 36.40300 28.79700
C  -1.16800 35.98600 24.07200
C  -4.52500 32.50800 24.60500
N  -2.49400 34.65800 28.85600
C  -3.05900 33.78900 29.80300
C  -2.51900 34.03200 31.20800
C  -1.66800 35.30600 30.92600
C  -1.73800 35.57700 29.42100
C  -2.07900 36.59000 31.72400
C  -1.75100 32.81000 31.79500
C  -2.38100 32.27900 33.20300
H  -1.42500 32.35300 34.36400
N  -1.12800 35.92900 26.46600
C  -0.55400 36.64300 27.46800
C  0.52000 37.53000 26.93400
C  0.39100 37.33500 25.52200
C  -0.73300 36.40200 25.30800
C  1.25600 38.54000 27.75800
C  1.20700 37.89700 24.44600
O  1.10500 37.71200 23.24700
C  2.43200 38.60700 24.88400
N  -3.02100 34.50000 24.62800
C  -2.23500 35.17000 23.77600
C  -2.55300 34.67000 22.35300
C  -3.35600 33.41300 22.55900
C  -3.68800 33.50000 23.98700
C  -3.40900 35.69200 21.61000
C  -2.59300 32.04400 22.14700
C  -3.20700 31.08200 21.10300
N  -3.92800 32.87000 26.90000
C  -4.70400 32.27100 25.96200
C  -5.46200 31.20100 26.60900
C  -5.17600 31.31900 27.93900
C  -4.28400 32.41900 28.06500
C  -6.33900 30.09800 25.93500
C  -5.43500 30.81800 29.21800
O  -6.21100 29.93600 29.55900
C  -4.65400 31.66000 30.25600
C  -5.59700 32.23600 31.24600
O  -6.28000 33.19900 31.14100
O  -5.66400 31.42600 32.38500
C  -6.62200 31.91000 33.35600
H  -0.17500 36.95400 29.49100
H  -0.74800 36.27600 23.10600
H  -5.00800 31.81200 23.91600
H  -3.40500 34.25000 31.80500
H  -0.63500 34.99300 31.08100
H  -1.21400 36.88700 32.31700
H  -3.01700 36.43400 32.25700
H  -2.18800 37.43800 31.04800
H  -0.71900 33.08700 32.01300
H  -1.75300 32.02900 31.03500
H  -2.80700 31.27600 33.24600
H  -3.18900 32.90100 33.58900
H  0.63800 38.79700 28.61800
H  1.41800 39.49200 27.25100
H  2.20100 38.15000 28.13600
H  3.06900 38.71700 24.00600
H  3.03900 38.02400 25.57700
H  2.21700 39.62400 25.21300
H  -1.65500 34.35500 21.82200
H  -4.29300 33.41500 22.00100
H  -2.97300 36.65200 21.88800
H  -4.47900 35.57800 21.78500
H  -3.27400 35.57300 20.53500
H  -2.45300 31.42300 23.03100
H  -1.58700 32.24600 21.77700
H  -3.34200 30.06700 21.47800
H  -2.50000 30.86400 20.30300
H  -4.05500 31.54200 20.59600
H  -6.04200 29.06100 26.08800
H  -6.43000 30.25000 24.85900
H  -7.32500 30.20500 26.38800
H  -3.93100 30.97200 30.69300
H  -7.56500 31.98300 32.81500
H  -6.19100 32.86300 33.66400
H  -6.56700 31.20400 34.18500

