158

Mg 26.15700 0.51300 29.71400
C  27.83200 -0.01200 32.82400
C  23.16900 0.74300 31.51500
C  24.57800 0.56900 26.80600
C  29.11600 -0.32300 28.01200
N  25.66000 0.48500 31.92700
C  26.48900 0.39800 33.00800
C  25.79400 0.57800 34.35700
C  24.33400 0.68900 33.88700
C  24.34600 0.65800 32.36200
C  23.31300 -0.33500 34.59900
C  26.33600 1.88400 34.95000
C  25.52100 2.37100 36.19700
H  26.17700 2.53100 37.55800
N  24.15600 0.55500 29.26400
C  23.07500 0.78100 30.08000
C  21.84900 0.89900 29.32400
C  22.19900 0.77800 27.93300
C  23.66600 0.61300 27.92900
C  20.50100 1.20100 29.90800
C  21.30700 0.80100 26.63200
O  21.77700 0.62100 25.55100
C  19.81800 1.10500 26.73700
N  26.73500 0.13700 27.73400
C  25.94000 0.39800 26.63300
C  26.64300 0.30800 25.28800
C  28.10500 0.34600 25.83100
C  27.99300 0.06600 27.31800
C  26.20000 -0.95100 24.48100
C  28.82600 1.67800 25.50100
C  28.16000 2.99300 25.97000
N  28.10800 -0.08800 30.26000
C  29.19700 -0.44700 29.44300
C  30.32300 -0.76900 30.30400
C  29.83600 -0.57600 31.62900
C  28.47700 -0.28600 31.51100
C  31.66000 -1.18500 29.85000
C  30.26900 -0.54600 32.96800
O  31.40300 -0.72900 33.45300
C  28.92700 -0.14900 33.83700
C  28.79200 -1.11900 34.95300
O  28.98100 -2.32500 34.91300
O  28.87900 -0.37300 36.08900
C  29.49800 -0.94700 37.24900
H  22.22500 0.75800 32.06400
H  24.05200 0.52900 25.85000
H  30.06500 -0.45500 27.48700
H  25.99700 -0.26600 35.01700
H  23.87700 1.67200 34.00000
H  22.80300 0.21400 35.39000
H  23.95100 -1.13100 34.98200
H  22.60000 -0.67200 33.84700
H  26.36300 2.69800 34.22600
H  27.38100 1.70000 35.19900
H  24.63400 1.73700 36.17800
H  25.27800 3.40300 35.94500
H  19.77900 0.38600 29.96300
H  20.06800 2.04700 29.37400
H  20.57700 1.43700 30.96900
H  19.52900 1.84900 27.48000
H  19.30200 0.18100 27.00000
H  19.43400 1.47300 25.78500
H  26.47400 1.20800 24.69800
H  28.64100 -0.44300 25.30300
H  27.05000 -1.62600 24.38000
H  25.92100 -0.73100 23.45100
H  25.30100 -1.45700 24.83300
H  29.25600 1.67300 24.49900
H  29.71100 1.73800 26.13400
H  28.78800 3.19000 26.83900
H  27.10700 2.90200 26.23400
H  28.36000 3.80900 25.27500
H  31.99000 -0.48900 29.07900
H  31.66200 -2.21600 29.49700
H  32.38000 -1.09000 30.66200
H  29.17000 0.84900 34.20300
H  29.30500 -2.00000 37.45400
H  29.12900 -0.50600 38.17500
H  30.57400 -0.80200 37.16000
Mg 48.43400 14.81800 28.38000
C  46.29700 14.34300 31.05700
C  50.10000 17.24900 30.30000
C  50.59900 15.16600 25.92200
C  46.22800 13.22700 26.30900
N  48.30100 15.67300 30.50600
C  47.39000 15.20400 31.46200
C  47.66700 15.75800 32.81800
C  48.63900 16.97900 32.41000
C  49.01900 16.62900 30.95400
C  47.87500 18.27400 32.52900
C  48.17500 14.64500 33.87100
C  47.98100 15.13500 35.28400
H  49.19900 15.02900 36.22900
N  50.30300 15.81700 28.23400
C  50.76500 16.85100 29.08200
C  51.99500 17.32300 28.55400
C  52.13600 16.73500 27.26000
C  51.00600 15.83300 27.07600
C  52.89700 18.39800 29.27900
C  53.28000 16.86800 26.33300
O  53.41100 16.17900 25.33000
C  54.51400 17.68700 26.67700
N  48.48600 14.02100 26.41100
C  49.47200 14.39400 25.58300
C  49.20700 14.00900 24.08900
C  47.77600 13.37900 24.19600
C  47.46500 13.56600 25.72900
C  49.15500 15.31400 23.18600
C  47.57600 11.86800 23.81500
C  46.29400 11.51400 23.07600
N  46.63600 14.00500 28.53500
C  45.85000 13.33800 27.59600
C  44.58400 12.97900 28.16300
C  44.75300 13.31300 29.56300
C  45.96400 13.94800 29.69000
C  43.27000 12.47900 27.50300
C  44.14000 13.29100 30.85500
O  43.05200 12.88100 31.22200
C  45.09800 13.92900 31.80000
C  44.31000 15.10700 32.34500
O  44.28300 16.17700 31.76500
O  44.00300 14.89300 33.65800
C  43.64600 16.05600 34.44600
H  50.56400 18.09400 30.81300
H  51.21700 15.40100 25.05300
H  45.57500 12.82200 25.53300
H  46.74000 16.12000 33.26400
H  49.51800 16.88900 33.04800
H  47.12900 18.16100 33.31600
H  47.40400 18.41500 31.55600
H  48.56600 19.07200 32.80100
H  49.17200 14.29500 33.60300
H  47.63700 13.70900 33.72300
H  47.19300 14.47300 35.64000
H  47.65800 16.17600 35.24900
H  52.87700 19.30900 28.68100
H  53.90500 18.12100 29.58600
H  52.44100 18.75900 30.20100
H  54.33000 18.76100 26.71900
H  55.30500 17.56900 25.93700
H  55.02600 17.49700 27.62000
H  49.94900 13.35100 23.63700
H  47.08500 13.95000 23.57600
H  49.40400 16.16500 23.82100
H  48.15900 15.36200 22.74600
H  49.97200 15.27600 22.46600
H  47.74100 11.23900 24.68900
H  48.34800 11.54200 23.11800
H  46.46700 10.97800 22.14200
H  45.65500 12.35700 22.81600
H  45.71000 10.92900 23.78700
H  42.40900 13.00300 27.91600
H  43.25700 11.41900 27.75800
H  43.45400 12.67600 26.44700
H  45.40500 13.26900 32.61200
H  44.29400 16.37900 35.26100
H  42.67700 15.94600 34.93400
H  43.42100 16.93100 33.83800

