158

Mg 7.81400 3.44400 27.71800
C  9.20100 1.99000 30.60600
C  5.76500 5.32300 29.76300
C  5.97800 4.46700 25.05700
C  9.12900 0.76700 25.90100
N  7.46100 3.55300 29.89100
C  8.23300 2.95400 30.87400
C  7.94600 3.49200 32.26800
C  6.69500 4.34100 31.99000
C  6.57200 4.41300 30.43600
C  5.33800 3.84500 32.48200
C  9.17000 4.23900 32.91400
C  9.87600 3.87200 34.20000
H  9.98900 4.82700 35.37300
N  6.20000 4.85100 27.45900
C  5.61000 5.54100 28.40300
C  4.75300 6.58200 27.81800
C  4.75500 6.38200 26.43100
C  5.65700 5.14300 26.28900
C  3.99200 7.62500 28.63000
C  4.10500 7.11200 25.35100
O  4.31700 6.88700 24.15600
C  3.10800 8.19100 25.73100
N  7.47100 2.61500 25.80100
C  6.74900 3.31700 24.76700
C  6.96700 2.65200 23.39600
C  8.16100 1.66600 23.67400
C  8.14700 1.61500 25.25300
C  5.66200 2.00000 22.77300
C  9.61900 2.15100 23.13300
C  10.42800 1.01600 22.56000
N  9.14500 1.81900 28.04500
C  9.64200 0.89200 27.20300
C  10.55000 0.07400 27.91700
C  10.47200 0.52400 29.26100
C  9.56100 1.57700 29.28900
C  11.25300 -1.07800 27.39200
C  10.91400 0.24000 30.55900
O  11.65300 -0.63700 30.98400
C  10.02500 1.20600 31.61100
C  9.20100 0.25000 32.37900
O  8.22200 -0.38000 31.88500
O  9.68400 0.28800 33.67700
C  8.72400 -0.21500 34.66400
H  5.39100 6.04200 30.49400
H  5.47500 4.82900 24.15700
H  9.55500 0.02300 25.22600
H  7.60200 2.59300 32.78000
H  6.71100 5.37900 32.31900
H  4.72200 4.64500 32.89400
H  5.53000 3.12900 33.28100
H  4.77100 3.20300 31.80800
H  8.81600 5.26900 32.94300
H  9.93600 4.34400 32.14600
H  10.89100 3.55700 33.96000
H  9.28200 3.01700 34.52200
H  4.23500 8.66000 28.38900
H  4.14500 7.47400 29.69900
H  2.92600 7.54000 28.42200
H  2.23900 7.76400 26.23300
H  2.70100 8.65400 24.83200
H  3.53900 9.03400 26.27100
H  7.22100 3.52200 22.79000
H  7.91900 0.64300 23.38400
H  4.78500 2.04200 23.41900
H  5.80600 0.97500 22.43000
H  5.46700 2.62600 21.90300
H  10.07700 2.50200 24.05800
H  9.55300 2.97400 22.42100
H  9.77300 0.19500 22.26600
H  11.21500 0.73200 23.25800
H  10.82400 1.40900 21.62400
H  12.18700 -0.74300 26.94100
H  10.63100 -1.50000 26.60200
H  11.53100 -1.83200 28.12800
H  10.66600 1.79300 32.26800
H  9.32000 -0.78300 35.37900
H  7.87800 -0.77400 34.26500
H  8.31400 0.64800 35.18800
Mg 49.53300 46.16800 42.88400
C  45.97200 46.46900 41.89700
C  49.23300 42.87400 42.01000
C  52.80500 45.96100 43.08000
C  49.63400 49.64100 43.03000
N  47.81500 44.87800 42.00700
C  46.47200 45.21500 41.54800
C  45.70300 43.95500 41.08000
C  46.64000 42.77600 41.48300
C  47.96400 43.59800 41.87000
C  46.15600 42.00000 42.75600
C  45.23700 43.84000 39.57500
C  46.31400 44.38800 38.52800
H  46.69800 43.54100 37.30000
N  50.87900 44.63300 42.55100
C  50.53600 43.30400 42.28000
C  51.77800 42.50500 42.34500
C  52.87900 43.38600 42.53700
C  52.23000 44.76800 42.76700
C  51.76600 41.02700 42.10300
C  54.28400 42.97000 42.36900
O  54.54100 41.84100 41.93100
C  55.40900 43.93200 42.52500
N  50.97100 47.59900 42.87500
C  52.28200 47.28300 43.15100
C  53.09900 48.51100 43.56800
C  52.03800 49.65200 43.35900
C  50.79300 48.92500 42.95300
C  53.53700 48.32200 45.09300
C  52.31900 50.76700 42.28200
C  52.11400 52.21100 42.82400
N  48.06700 47.80500 42.73900
C  48.34100 49.13500 42.76900
C  46.99400 49.82400 42.67600
C  46.12900 48.86300 42.23500
C  46.79000 47.55100 42.34200
C  46.73900 51.28500 42.79500
C  44.75600 48.60900 41.81100
O  43.84600 49.34600 41.69000
C  44.64800 47.06700 41.44000
C  43.41300 46.44200 42.01900
O  42.42200 46.05100 41.40400
O  43.50600 46.52500 43.40000
C  42.25100 46.08800 44.11500
H  49.10000 41.83000 41.72000
H  53.86700 45.88900 43.32600
H  49.72800 50.71800 43.18700
H  44.82100 43.98200 41.72000
H  46.75100 42.20300 40.56200
H  46.88200 42.04900 43.56700
H  46.22800 40.92700 42.57500
H  45.22400 42.40700 43.14900
H  44.39900 44.49600 39.33700
H  44.88200 42.82600 39.39300
H  47.29300 44.59900 38.95900
H  45.91900 45.32000 38.12300
H  52.48300 40.48100 42.71700
H  52.15400 40.86500 41.09700
H  50.81900 40.49000 42.15400
H  55.34500 44.71100 41.76500
H  56.35000 43.39200 42.42000
H  55.40900 44.40000 43.50900
H  53.95200 48.59000 42.89400
H  51.97300 50.24900 44.26800
H  54.05500 47.40000 45.35800
H  52.62100 48.26500 45.68100
H  54.13700 49.17500 45.41000
H  51.64100 50.72500 41.42900
H  53.34300 50.73200 41.91100
H  52.07100 52.23800 43.91300
H  51.19900 52.69600 42.48400
H  53.01100 52.76600 42.54700
H  46.81200 51.57800 41.74800
H  47.46700 51.68300 43.50200
H  45.75000 51.52700 43.18200
H  44.60100 46.96900 40.35500
H  41.83500 45.25600 43.54900
H  41.66000 47.00300 44.08400
H  42.35200 45.84700 45.17300

