158

Mg 10.36200 46.41000 25.40800
C  8.23300 46.80800 28.11800
C  12.69400 48.37300 27.09700
C  12.24700 46.18000 22.71000
C  7.37900 45.67000 23.48100
N  10.39400 47.57100 27.27500
C  9.50800 47.37800 28.33200
C  10.01100 48.03900 29.64400
C  11.19200 48.93700 29.06200
C  11.46100 48.23200 27.75000
C  10.85700 50.38200 28.74200
C  10.48300 46.99700 30.62900
C  9.93900 47.14800 32.12500
H  9.93000 45.90000 33.10400
N  12.31300 47.05000 25.07000
C  13.10400 47.84400 25.84800
C  14.43700 48.01900 25.07100
C  14.27600 47.36900 23.81300
C  12.89900 46.86900 23.80100
C  15.58700 48.79500 25.67500
C  15.25700 47.21200 22.70500
O  15.06700 46.53100 21.66800
C  16.60800 47.86500 22.81900
N  9.92000 45.97400 23.41700
C  10.88800 45.81600 22.49200
C  10.24300 45.34300 21.06300
C  8.71200 45.21700 21.34600
C  8.64100 45.67300 22.86100
C  10.72600 46.22600 19.94800
C  8.17800 43.79200 21.02900
C  6.79300 43.60800 20.30300
N  8.23900 46.16300 25.67500
C  7.18400 45.84200 24.87800
C  5.96400 45.70500 25.60900
C  6.35500 46.05900 26.86400
C  7.73200 46.30500 26.89900
C  4.57700 45.43200 25.07100
C  5.85200 46.27500 28.23500
O  4.72400 46.20800 28.66800
C  7.03400 46.76300 29.08000
C  7.22600 45.93300 30.16700
O  7.88600 44.88800 30.14800
O  6.43500 46.19900 31.29800
C  6.41600 45.09600 32.30600
H  13.26400 49.14100 27.62500
H  12.90100 45.89200 21.88400
H  6.59200 45.23100 22.86500
H  9.20200 48.61800 30.08900
H  12.00000 48.93200 29.79400
H  9.76800 50.36000 28.69700
H  11.25100 50.49400 27.73200
H  11.32100 51.14100 29.37300
H  11.57000 47.05100 30.57900
H  10.17200 46.00800 30.29000
H  8.98200 47.66800 32.14000
H  10.67400 47.89100 32.43600
H  15.29200 49.33300 26.57500
H  15.90800 49.47600 24.88700
H  16.46200 48.20000 25.94000
H  17.09700 47.48800 23.71700
H  16.34900 48.91700 22.93800
H  17.19000 47.73700 21.90700
H  10.78100 44.42000 20.84800
H  8.20700 45.96300 20.73200
H  11.00300 47.23800 20.24300
H  10.06900 46.27000 19.07900
H  11.63200 45.82700 19.49300
H  8.07700 43.28300 21.98800
H  8.90400 43.40400 20.31400
H  6.88600 43.72700 19.22400
H  6.16800 44.43700 20.63400
H  6.35000 42.65400 20.58800
H  3.95300 46.31700 24.95000
H  4.09400 44.72500 25.74600
H  4.71300 44.86600 24.15000
H  6.76100 47.71100 29.54400
H  5.42000 44.65400 32.31300
H  6.44400 45.57100 33.28700
H  7.07200 44.23000 32.21900
Mg -12.21100 15.93600 41.87600
C  -9.36900 14.12500 41.23200
C  -10.80200 18.63000 40.10400
C  -15.32600 17.37200 41.68900
C  -13.72200 12.95500 42.96300
N  -10.44500 16.15800 40.56200
C  -9.35500 15.34100 40.56300
C  -8.11000 15.94900 39.90400
C  -8.54300 17.50500 39.79200
C  -10.07600 17.46100 40.15400
C  -7.67600 18.53700 40.57900
C  -7.61600 15.17800 38.64900
C  -6.16300 14.78000 38.67200
H  -5.40600 15.60500 37.60600
N  -13.00400 17.84900 41.18400
C  -12.19500 18.77400 40.51200
C  -13.01800 19.89000 40.28200
C  -14.32300 19.57200 40.62800
C  -14.29000 18.19400 41.23300
C  -12.34000 21.16000 39.74700
C  -15.52000 20.45400 40.41100
O  -15.36200 21.50900 39.72800
C  -16.86500 20.19700 40.98300
N  -14.24700 15.28100 42.27700
C  -15.32700 16.08700 42.13500
C  -16.61300 15.26000 42.41000
C  -16.07700 13.87800 42.86300
C  -14.59000 14.08500 42.72000
C  -17.59700 16.12100 43.35000
C  -16.64900 12.65100 42.06700
C  -17.48000 11.62600 42.83600
N  -11.71300 13.92700 42.13600
C  -12.36900 12.85800 42.72600
C  -11.44400 11.70600 42.93300
C  -10.23800 12.24800 42.36500
C  -10.47900 13.53100 41.88400
C  -11.76500 10.31700 43.56600
C  -8.86300 11.90700 42.09700
O  -8.22400 10.88600 42.43500
C  -8.21200 13.15400 41.39800
C  -7.10400 13.56200 42.38500
O  -7.24700 14.09900 43.44500
O  -5.92600 13.12500 41.86800
C  -4.69100 13.38000 42.69800
H  -10.42900 19.58600 39.73000
H  -16.34200 17.73100 41.51300
H  -14.16500 12.06900 43.42300
H  -7.25600 15.84100 40.57200
H  -8.50900 17.76300 38.73300
H  -7.19300 19.26700 39.93000
H  -7.02000 18.06300 41.30900
H  -8.30800 19.08400 41.27900
H  -7.80000 15.77700 37.75600
H  -8.14400 14.23000 38.54600
H  -6.17500 13.70300 38.50300
H  -5.63600 15.04200 39.58900
H  -12.98200 22.04100 39.75500
H  -11.86600 21.15600 38.76600
H  -11.50400 21.43400 40.39000
H  -17.42400 21.12800 41.08000
H  -16.84800 19.80500 42.00000
H  -17.35400 19.54400 40.26000
H  -17.12600 15.19000 41.45100
H  -16.16800 13.82700 43.94800
H  -18.41000 16.48100 42.71900
H  -16.98100 16.89100 43.81400
H  -17.92700 15.42100 44.11900
H  -15.88400 12.20600 41.43200
H  -17.40400 12.93600 41.33500
H  -18.53600 11.88100 42.74800
H  -17.09600 11.52500 43.85200
H  -17.30600 10.59700 42.52300
H  -10.90600 9.85600 44.05400
H  -12.17800 9.63200 42.82500
H  -12.48800 10.47900 44.36600
H  -7.74500 12.88100 40.45200
H  -3.86600 12.73900 42.38500
H  -4.84900 13.28900 43.77300
H  -4.41800 14.40700 42.45600

