158

Mg 8.04300 2.40000 27.81400
C  9.94200 0.92000 30.52600
C  6.32900 4.20600 30.07500
C  6.43700 3.57800 25.20300
C  9.56200 -0.10000 25.78200
N  8.18800 2.44500 30.06600
C  9.10300 1.92800 30.97400
C  8.99400 2.58500 32.36700
C  7.64700 3.43800 32.14600
C  7.32800 3.38900 30.67200
C  6.48000 3.00400 32.97200
C  10.29200 3.32900 32.73000
C  10.97200 2.82700 34.03600
H  11.03000 3.81100 35.19300
N  6.58500 3.74600 27.65400
C  6.03100 4.43800 28.69700
C  5.03900 5.35300 28.09100
C  5.08700 5.21400 26.71200
C  6.04700 4.19900 26.45200
C  4.23900 6.28500 29.03900
C  4.38000 5.99100 25.60800
O  4.38700 5.67300 24.38400
C  3.68800 7.29300 25.99600
N  8.04700 1.84500 25.82600
C  7.20400 2.43200 24.89700
C  7.47700 1.93900 23.46000
C  8.61100 0.94600 23.72500
C  8.72600 0.85800 25.21200
C  6.17200 1.29100 22.80600
C  9.99600 1.23300 23.08100
C  10.89800 0.10500 22.57600
N  9.44700 0.66400 28.04300
C  9.91100 -0.16000 27.13600
C  10.84400 -0.98500 27.74300
C  10.93400 -0.63900 29.07300
C  9.98900 0.38800 29.24600
C  11.54200 -2.09700 27.01200
C  11.59100 -0.96200 30.42900
O  12.40000 -1.76400 30.77000
C  10.88700 0.10400 31.35400
C  10.23400 -0.55500 32.53600
O  9.13300 -1.02000 32.53400
O  11.01200 -0.39700 33.67400
C  10.35500 -0.76000 34.95600
H  5.76200 4.90900 30.68900
H  5.92800 3.91900 24.29900
H  10.18400 -0.69500 25.11100
H  8.90500 1.80300 33.12200
H  7.77100 4.51800 32.22600
H  5.92000 2.28200 32.37800
H  5.84000 3.84900 33.22500
H  6.73100 2.41700 33.85500
H  9.99500 4.37500 32.81200
H  11.05100 3.16100 31.96600
H  11.99900 2.53200 33.82400
H  10.52000 1.90700 34.40700
H  4.31700 6.03600 30.09800
H  3.24900 6.51300 28.64500
H  4.73900 7.24700 28.92500
H  2.80500 7.14300 26.61700
H  3.30100 7.68200 25.05300
H  4.39700 7.98300 26.45300
H  7.75800 2.78700 22.83500
H  8.32600 0.02100 23.22400
H  5.31900 1.71100 23.33900
H  6.01600 0.21300 22.83100
H  6.21100 1.77300 21.82900
H  10.53000 1.76700 23.86700
H  9.74500 1.91000 22.26400
H  11.76700 -0.07100 23.20900
H  11.35700 0.34600 21.61700
H  10.43400 -0.87300 22.45000
H  12.55100 -2.34700 27.34200
H  11.68400 -1.96900 25.93900
H  10.85200 -2.92700 27.16300
H  11.64400 0.73400 31.82100
H  10.41200 -1.82700 35.17100
H  9.30200 -0.47900 34.91200
H  10.97100 -0.17900 35.64200
Mg 26.75400 50.50800 26.85200
C  24.97300 51.76800 29.65500
C  29.38900 49.79900 28.97300
C  28.78700 50.04500 24.13800
C  24.37000 51.96400 24.82400
N  27.03700 50.50900 29.05100
C  26.11700 51.01200 29.97400
C  26.63200 50.71200 31.36700
C  28.14800 50.49500 31.07500
C  28.22900 50.26900 29.60100
C  29.11700 51.65500 31.57600
C  25.86000 49.42800 31.84100
C  25.22100 49.49800 33.26200
H  25.97100 50.21300 34.38400
N  28.72600 49.75300 26.60800
C  29.64700 49.53200 27.61800
C  30.85700 49.08200 27.03800
C  30.79600 49.23700 25.60200
C  29.40900 49.71900 25.37100
C  31.98100 48.50900 27.84800
C  31.90600 49.00500 24.57600
O  31.73100 49.40500 23.41100
C  33.21700 48.43600 24.87800
N  26.59300 50.93500 24.86900
C  27.51500 50.55500 23.89400
C  26.88100 50.73900 22.49000
C  25.45100 51.24500 22.71900
C  25.44200 51.40700 24.24900
C  27.68600 51.71000 21.51000
C  24.34000 50.28900 22.23800
C  24.34000 48.77600 22.75700
N  24.97500 51.59000 27.09000
C  24.12900 52.20300 26.20500
C  23.08900 52.90200 26.84600
C  23.34600 52.74600 28.21500
C  24.56800 51.99100 28.31400
C  21.96200 53.60800 26.08300
C  22.85800 53.00000 29.59200
O  21.86000 53.67700 29.90000
C  23.92800 52.43600 30.59300
C  24.49100 53.47500 31.50900
O  25.58400 53.99200 31.34900
O  23.59400 53.94300 32.37200
C  24.11200 55.07700 33.14500
H  30.23100 49.61900 29.64400
H  29.33400 49.98800 23.19400
H  23.56500 52.32100 24.17800
H  26.46200 51.53800 32.05700
H  28.51200 49.57300 31.52800
H  29.87400 51.25900 32.25300
H  28.65200 52.44300 32.16900
H  29.60700 52.24300 30.80000
H  26.48100 48.53300 31.87600
H  25.01400 49.15400 31.21100
H  25.05600 48.43300 33.42600
H  24.25100 49.96500 33.09200
H  32.86800 49.14100 27.81800
H  32.15600 47.50500 27.46000
H  31.70400 48.45700 28.90100
H  33.78300 48.92300 25.67200
H  33.94200 48.55000 24.07200
H  32.98600 47.41800 25.19200
H  26.89200 49.74100 22.05300
H  25.45000 52.19700 22.18900
H  28.46300 52.21200 22.08700
H  27.11700 52.42400 20.91300
H  28.22900 51.17400 20.73200
H  24.42900 50.25400 21.15300
H  23.45000 50.91200 22.32500
H  23.36200 48.52200 23.16600
H  25.13300 48.57400 23.47700
H  24.57700 48.09300 21.94100
H  22.28200 54.08200 25.15500
H  21.52700 54.45100 26.62000
H  21.18000 52.87000 25.90900
H  23.58900 51.66400 31.28300
H  24.45700 55.96200 32.61000
H  24.91700 54.73300 33.79400
H  23.31900 55.41100 33.81500

