158

Mg 47.55200 16.19800 28.71400
C  45.35300 15.93900 31.36500
C  49.55600 18.22900 30.57000
C  49.59100 16.54500 26.12300
C  45.23200 14.51300 26.78200
N  47.51100 16.92300 30.74800
C  46.55300 16.60900 31.64500
C  46.92800 17.22100 33.08100
C  48.07900 18.22900 32.65100
C  48.45100 17.72600 31.26000
C  47.71300 19.70600 32.71800
C  47.39200 16.14100 34.10600
C  47.50600 16.58900 35.61500
H  47.01300 17.99300 36.00300
N  49.46000 17.03000 28.51800
C  50.05200 17.89200 29.34200
C  51.27100 18.38600 28.71400
C  51.36800 17.72100 27.52700
C  50.10200 17.03600 27.33100
C  52.22000 19.32800 29.45200
C  52.48100 17.78300 26.51400
O  52.36200 17.24300 25.42700
C  53.70600 18.52800 26.76500
N  47.35600 15.66300 26.65900
C  48.39300 15.88000 25.80700
C  48.15900 15.21700 24.46200
C  46.80700 14.44200 24.72800
C  46.42300 14.91100 26.13600
C  48.25100 16.11300 23.19600
C  46.72700 12.92300 24.45000
C  45.52800 12.45400 23.62800
N  45.60600 15.40500 28.97900
C  44.83300 14.71000 28.06300
C  43.55000 14.37600 28.67700
C  43.70800 14.79900 29.91800
C  44.96200 15.39100 30.10300
C  42.48800 13.50800 28.12500
C  43.07100 14.86500 31.19100
O  41.97100 14.50000 31.61000
C  44.18100 15.51700 32.24000
C  43.51600 16.53500 33.01900
O  42.99300 17.54800 32.59300
O  43.44200 16.17400 34.31100
C  42.80800 17.19200 35.14400
H  50.17500 18.90700 31.16200
H  50.23300 16.58400 25.24000
H  44.45500 13.94600 26.26500
H  46.09700 17.77000 33.52400
H  48.93400 18.09600 33.31300
H  48.02200 20.22200 31.80900
H  48.17400 20.27600 33.52400
H  46.63000 19.77800 32.61100
H  48.32300 15.84200 33.62400
H  46.79900 15.23100 34.00600
H  48.57600 16.39800 35.69800
H  46.91200 15.91000 36.22600
H  53.18900 18.83300 29.51600
H  51.89100 19.57500 30.46200
H  52.42200 20.22600 28.86800
H  53.56800 19.58300 27.00100
H  54.29800 18.57100 25.85100
H  54.29900 18.03100 27.53300
H  48.84800 14.38600 24.31400
H  46.18500 14.86900 23.94100
H  48.05100 17.14700 23.47500
H  47.48100 15.78400 22.49800
H  49.24600 16.08000 22.75300
H  46.62700 12.50800 25.45200
H  47.58500 12.42300 24.00000
H  45.94800 11.87800 22.80300
H  44.95500 13.27400 23.19600
H  44.88100 11.83200 24.24800
H  42.87100 12.86200 27.33500
H  41.78600 14.13100 27.57200
H  41.93200 12.88200 28.82400
H  44.54200 14.69800 32.86200
H  41.73100 17.28100 34.99800
H  43.26800 18.17900 35.17200
H  42.95000 16.77400 36.14100
Mg 26.09300 50.54300 25.60200
C  24.05100 51.66000 28.09300
C  28.55500 49.91200 27.88200
C  27.99600 49.63000 23.02200
C  23.60100 51.63000 23.14900
N  26.24400 50.69900 27.70900
C  25.21900 51.12700 28.57100
C  25.63400 50.95100 30.05700
C  27.09500 50.64300 30.02000
C  27.30300 50.40800 28.43400
C  28.03900 51.69300 30.63600
C  24.63200 49.94600 30.80400
C  24.12300 50.52900 32.12200
H  23.94400 49.56800 33.25500
N  28.05900 49.90000 25.54300
C  28.91100 49.64500 26.56400
C  30.16600 49.12100 26.02800
C  30.04000 49.09000 24.57000
C  28.61600 49.52000 24.29300
C  31.41200 48.89700 26.87500
C  31.10700 48.80200 23.53700
O  30.84500 48.74200 22.35700
C  32.52000 48.52200 23.90400
N  25.94900 50.77900 23.32700
C  26.82000 50.15100 22.51800
C  26.34100 50.10700 21.12200
C  24.87900 50.59700 21.20100
C  24.82800 51.12400 22.63900
C  27.28900 50.89700 20.19800
C  23.78200 49.44000 20.84800
C  22.59800 49.90100 19.97700
N  24.22500 51.35700 25.53600
C  23.36000 51.76500 24.53300
C  22.14400 52.18000 25.02600
C  22.42000 52.26900 26.34200
C  23.66400 51.77500 26.65600
C  20.96900 52.69000 24.27300
C  21.81700 52.66100 27.64500
O  20.64400 53.00400 27.91000
C  22.82000 52.25500 28.76200
C  23.31900 53.38300 29.70800
O  24.35800 54.07900 29.65300
O  22.31700 53.54100 30.68200
C  22.87900 54.02000 31.94200
H  29.28500 49.73400 28.67500
H  28.57500 49.22300 22.19000
H  22.81200 51.82200 22.42000
H  25.62800 51.97200 30.43800
H  27.28700 49.69200 30.51700
H  27.62400 52.40900 31.34500
H  28.63500 52.23200 29.90000
H  28.75800 51.08300 31.18300
H  25.11500 48.97700 30.92900
H  23.79300 49.78400 30.12600
H  23.16100 51.01400 31.95400
H  24.81300 51.34500 32.33600
H  31.12300 48.59800 27.88300
H  31.96200 49.83400 26.96200
H  32.15800 48.17700 26.53900
H  32.71500 47.50200 24.23400
H  32.75400 49.25400 24.67700
H  33.16900 48.77700 23.06700
H  26.43300 49.07200 20.79300
H  24.73300 51.46800 20.56200
H  27.89600 51.62700 20.73400
H  26.61800 51.55300 19.64300
H  27.93100 50.32900 19.52500
H  23.30600 49.06900 21.75600
H  24.36100 48.67200 20.33400
H  22.83300 50.95800 19.85900
H  21.59500 49.88400 20.40400
H  22.50700 49.38000 19.02400
H  20.84500 52.11700 23.35400
H  21.13600 53.71600 23.94500
H  20.09000 52.64000 24.91600
H  22.42300 51.48800 29.42700
H  22.15100 53.84200 32.73300
H  22.93400 55.10600 31.87200
H  23.87800 53.61300 32.10200

