158

Mg 47.11300 17.40900 28.02100
C  45.34200 16.93200 30.91700
C  49.38600 19.21600 29.85000
C  48.68700 18.17300 25.22200
C  44.69000 15.66000 26.28300
N  47.20800 18.06400 30.13900
C  46.49900 17.68300 31.18000
C  47.03800 18.21600 32.50200
C  48.17500 19.16800 32.00300
C  48.30500 18.75700 30.55400
C  47.83500 20.65300 32.26200
C  47.46800 17.19800 33.62800
C  46.57000 17.16700 34.90000
H  46.16400 18.52800 35.51200
N  48.85800 18.44400 27.60800
C  49.63900 19.11200 28.47800
C  50.87600 19.54500 27.82900
C  50.73100 19.11600 26.46900
C  49.37200 18.66400 26.36200
C  51.98400 20.21500 28.61100
C  51.67900 19.20300 25.30100
O  51.44800 18.90100 24.15100
C  52.89100 19.93800 25.53400
N  46.76000 16.84400 26.10700
C  47.50000 17.48300 25.06100
C  47.00700 17.08400 23.70300
C  45.99700 15.97400 24.09400
C  45.81600 16.08600 25.62100
C  46.41900 18.21500 22.67500
C  46.25500 14.53600 23.52500
C  45.25500 14.00200 22.49300
N  45.39200 16.32500 28.44800
C  44.39300 15.77000 27.66000
C  43.27000 15.38100 28.47600
C  43.66300 15.73500 29.77200
C  44.86700 16.37500 29.64500
C  41.99900 14.79400 28.02700
C  43.18600 15.70300 31.10600
O  42.12600 15.29300 31.52600
C  44.31500 16.46100 31.96800
C  43.65500 17.58500 32.70800
O  43.47400 18.71100 32.30800
O  43.01500 17.04200 33.84400
C  42.07200 17.94400 34.49000
H  49.99900 19.89700 30.44400
H  49.06900 18.60900 24.29700
H  43.93300 15.17000 25.66700
H  46.18600 18.79400 32.85800
H  49.07600 18.91600 32.56200
H  46.93300 20.84200 32.84300
H  47.66000 21.17100 31.31900
H  48.62300 21.15100 32.82700
H  48.52100 17.32500 33.88000
H  47.54200 16.18300 33.23800
H  47.04600 16.49200 35.61100
H  45.70900 16.59700 34.55200
H  52.31000 21.03200 27.96700
H  52.83200 19.56700 28.83700
H  51.68000 20.76600 29.50000
H  52.63500 20.88100 26.01600
H  53.14600 20.26900 24.52700
H  53.73000 19.38000 25.94900
H  47.80900 16.54600 23.19800
H  45.02500 16.25800 23.69100
H  46.99600 18.31500 21.75500
H  46.34700 19.21400 23.10400
H  45.44700 17.89200 22.30300
H  46.37400 13.84300 24.35800
H  47.21500 14.44900 23.01500
H  44.43000 14.71400 22.47600
H  44.77200 13.12200 22.91700
H  45.72700 13.76300 21.54000
H  42.14000 13.93300 27.37300
H  41.43900 15.55400 27.48100
H  41.29800 14.53300 28.82000
H  44.72600 15.75400 32.68900
H  42.51800 18.77400 35.03700
H  41.44000 17.31200 35.11400
H  41.37800 18.33500 33.74600
Mg 17.13400 51.17200 26.18400
C  19.07000 50.22700 28.82700
C  14.70100 52.20600 28.45200
C  15.24200 52.12800 23.53300
C  19.73100 50.52900 23.91800
N  16.86000 51.10300 28.43400
C  17.88000 50.79400 29.27000
C  17.55100 51.27400 30.75300
C  16.00300 51.49700 30.63500
C  15.82500 51.57500 29.08500
C  15.18100 50.40000 31.33100
C  18.43700 52.37500 31.48500
C  18.72900 52.12800 32.98600
H  17.74100 51.38300 33.84100
N  15.20400 51.92500 26.04500
C  14.40700 52.47000 27.09500
C  13.28800 53.18400 26.54500
C  13.38100 53.14800 25.13300
C  14.70000 52.46000 24.89900
C  12.27700 53.85700 27.48100
C  12.48700 53.78800 24.05200
O  12.62600 53.54600 22.88000
C  11.37400 54.64500 24.42000
N  17.39700 51.19700 23.97600
C  16.46700 51.59400 23.09500
C  16.93000 51.55200 21.65300
C  18.50600 51.35600 21.91500
C  18.60600 51.01900 23.38000
C  16.22700 50.52100 20.73300
C  19.46600 52.40700 21.43100
C  19.57800 53.67900 22.38600
N  18.97200 50.34700 26.24400
C  19.93700 50.18000 25.30900
C  21.07800 49.70400 25.95200
C  20.76400 49.65300 27.32900
C  19.44200 50.10400 27.45800
C  22.40600 49.40200 25.34100
C  21.31800 49.40700 28.63700
O  22.42600 49.06800 28.96500
C  20.21600 49.67300 29.64300
C  19.81000 48.43300 30.39100
O  19.02200 47.56900 30.04900
O  20.39000 48.62000 31.66400
C  20.07000 47.59100 32.71800
H  14.08700 52.61500 29.25800
H  14.68400 52.54200 22.69100
H  20.58800 50.32800 23.27100
H  17.75900 50.41400 31.39000
H  15.70900 52.48800 30.98200
H  15.78700 49.69200 31.89600
H  14.71100 49.78800 30.56100
H  14.47800 50.83100 32.04300
H  17.99300 53.36700 31.55800
H  19.41600 52.40100 31.00600
H  18.73000 53.15600 33.35000
H  19.75300 51.75700 32.94400
H  11.51500 54.46100 26.98800
H  12.89000 54.44000 28.16800
H  11.77200 53.27300 28.25000
H  10.52000 54.15300 24.88500
H  10.88900 55.19200 23.61200
H  11.62500 55.48200 25.07200
H  16.77700 52.54300 21.22700
H  18.83200 50.41200 21.47700
H  15.16600 50.76800 20.77100
H  16.47400 49.55200 21.16700
H  16.64400 50.58300 19.72800
H  19.07900 52.70100 20.45500
H  20.40600 51.86900 21.30500
H  18.72400 53.79900 23.05200
H  19.49300 54.58900 21.79300
H  20.48200 53.54800 22.98200
H  22.52300 48.46600 24.79400
H  23.16000 49.41000 26.12700
H  22.68700 50.12400 24.57400
H  20.61600 50.52700 30.18900
H  19.47500 46.75900 32.34100
H  19.47400 48.13600 33.45000
H  20.95000 47.21000 33.23600

