158

Mg 17.70300 -1.81600 27.56100
C  16.53200 0.27100 30.17500
C  19.53700 -3.57900 29.93200
C  19.09000 -3.40600 25.09200
C  15.78900 0.11100 25.37900
N  18.17000 -1.54300 29.66400
C  17.48600 -0.71700 30.55700
C  17.74600 -1.01100 31.97500
C  19.00400 -1.92800 31.84500
C  19.03200 -2.33800 30.37400
C  20.30200 -1.22900 32.31100
C  16.60300 -1.67900 32.84300
C  16.76200 -1.73100 34.39000
H  18.07800 -1.12400 34.99000
N  19.02000 -3.38300 27.50300
C  19.68800 -4.02000 28.62100
C  20.47200 -5.15000 28.09600
C  20.35700 -5.06700 26.61700
C  19.41900 -3.92300 26.31600
C  21.23300 -6.07300 28.99500
C  21.05700 -5.97600 25.59900
O  20.92100 -5.81900 24.38100
C  22.02700 -7.09000 26.11400
N  17.46500 -1.68200 25.54300
C  18.24700 -2.42600 24.68800
C  18.06200 -2.00900 23.17500
C  16.70900 -1.07800 23.31900
C  16.65900 -0.82900 24.81900
C  19.30700 -1.27700 22.56200
C  15.43300 -1.76700 22.79300
C  14.89300 -1.08800 21.53200
N  16.25900 -0.23000 27.70400
C  15.61700 0.43900 26.70700
C  14.98600 1.60700 27.29600
C  15.24700 1.59600 28.66700
C  16.03100 0.44000 28.87700
C  14.18900 2.62800 26.50600
C  15.16100 2.15800 30.00100
O  14.53900 3.22700 30.21900
C  15.74400 1.24600 31.07200
C  16.68200 2.10100 31.83000
O  17.84200 2.44100 31.56900
O  15.92700 2.44200 32.91000
C  16.62100 3.21300 33.94700
H  20.20600 -4.11100 30.61100
H  19.64400 -3.86200 24.26900
H  15.24500 0.61800 24.58000
H  18.01600 -0.04900 32.40900
H  18.83300 -2.84600 32.40700
H  20.69600 -1.78500 33.16200
H  20.23700 -0.19600 32.65300
H  21.05500 -1.24300 31.52300
H  16.48900 -2.71500 32.52500
H  15.68500 -1.10900 32.69800
H  16.61200 -2.78200 34.63800
H  15.95700 -1.07300 34.71800
H  22.21800 -5.64100 29.16700
H  21.27800 -7.13400 28.75000
H  20.72500 -6.00800 29.95800
H  22.40200 -7.78700 25.36400
H  21.29700 -7.60700 26.73600
H  22.85900 -6.76300 26.73800
H  17.83100 -2.88700 22.57100
H  17.00900 -0.08800 22.97400
H  19.19900 -0.20700 22.38400
H  19.43700 -1.69600 21.56400
H  20.27700 -1.48000 23.01700
H  14.71800 -1.78900 23.61600
H  15.61500 -2.80800 22.52900
H  15.12900 -1.68900 20.65400
H  15.39300 -0.14500 21.30700
H  13.83900 -0.82600 21.44200
H  14.91500 3.39600 26.24100
H  13.46600 3.19000 27.09800
H  13.82600 2.21700 25.56500
H  15.00100 0.72700 31.67700
H  16.49600 4.28900 33.82800
H  17.69600 3.03900 33.90300
H  16.09400 2.85400 34.83100
Mg 42.53000 41.33600 26.94500
C  41.51000 43.52400 29.40200
C  43.09900 39.05700 29.26300
C  43.87400 39.45500 24.50400
C  42.17100 44.06300 24.62000
N  42.39400 41.32000 29.15600
C  41.84800 42.30300 29.90900
C  42.02300 41.93300 31.47000
C  42.53600 40.52500 31.39800
C  42.71900 40.28000 29.86600
C  43.91700 40.25800 32.10800
C  40.64500 42.22000 32.22000
C  40.22900 41.41000 33.43800
H  39.56200 42.19200 34.57100
N  43.42700 39.45400 26.96500
C  43.48900 38.59800 27.99200
C  44.09900 37.38400 27.52200
C  44.34800 37.47400 26.11700
C  43.88300 38.80400 25.81300
C  44.55000 36.27300 28.51500
C  44.86700 36.42700 25.18300
O  45.15400 36.75100 24.04200
C  45.07100 34.99400 25.64100
N  42.97700 41.68400 24.89800
C  43.52000 40.74900 24.10800
C  43.76800 41.34000 22.69600
C  43.01200 42.66300 22.69200
C  42.68000 42.85100 24.12000
C  45.35500 41.41000 22.42500
C  41.90500 42.68500 21.66700
C  40.51900 42.06300 22.05800
N  42.09500 43.41800 26.95200
C  41.90600 44.38700 25.94100
C  41.46100 45.61400 26.54400
C  41.40300 45.32300 27.92100
C  41.61500 43.93300 28.03100
C  41.23200 46.85900 25.72600
C  41.02700 45.91400 29.17700
O  40.56700 46.97900 29.47700
C  41.07900 44.77700 30.17600
C  42.00600 45.19800 31.20100
O  43.26100 45.13700 31.06900
O  41.37900 45.77900 32.27900
C  42.25600 46.66400 33.06900
H  43.00200 38.27400 30.01900
H  44.35900 38.95600 23.66300
H  41.78800 44.84600 23.96200
H  42.78100 42.62500 31.83600
H  41.77300 39.85200 31.78900
H  44.73900 39.98200 31.44700
H  43.82500 39.41700 32.79500
H  44.20500 41.08900 32.75100
H  39.97100 42.04700 31.38100
H  40.45200 43.27200 32.42900
H  41.06300 40.82600 33.82800
H  39.45000 40.72500 33.10400
H  45.58100 36.02400 28.26300
H  43.99100 35.34400 28.40600
H  44.55500 36.65200 29.53700
H  45.86600 34.87600 26.37700
H  45.29200 34.46500 24.71400
H  44.10700 34.66800 26.03200
H  43.34600 40.63400 21.98200
H  43.74200 43.43200 22.44000
H  46.05900 41.07100 23.18500
H  45.61900 42.42200 22.11900
H  45.50800 40.71000 21.60200
H  42.18600 42.05900 20.82100
H  41.68700 43.70700 21.35600
H  39.71700 42.79400 21.95900
H  40.52800 41.61700 23.05300
H  40.24100 41.24500 21.39400
H  42.14900 47.33500 25.38000
H  40.66700 47.57900 26.31800
H  40.75500 46.40000 24.86000
H  40.10400 44.61600 30.63700
H  43.07900 47.19400 32.58900
H  42.52300 46.12100 33.97500
H  41.49900 47.41500 33.29700

