158

Mg -3.00500 17.42600 27.77200
C  -3.63800 15.17000 30.42600
C  -3.42500 20.04200 29.86600
C  -2.85400 19.41900 25.14600
C  -3.11600 14.62500 25.59200
N  -3.39400 17.53500 29.89100
C  -3.44000 16.48000 30.84000
C  -3.65200 17.12500 32.24800
C  -3.89400 18.65700 31.92200
C  -3.55200 18.78400 30.43000
C  -5.27200 19.30200 32.28200
C  -2.39700 16.82200 33.16200
C  -2.28300 17.56300 34.55600
H  -2.25900 16.76000 35.82000
N  -2.93400 19.48400 27.57300
C  -3.20300 20.39600 28.51300
C  -2.93900 21.69400 27.95700
C  -2.62800 21.53200 26.57400
C  -2.86300 20.08000 26.34300
C  -3.02800 22.87500 28.79400
C  -2.10200 22.49800 25.61400
O  -1.91100 22.24000 24.40900
C  -1.62900 23.77800 26.00200
N  -2.99300 17.07600 25.65500
C  -2.91300 18.07400 24.79300
C  -2.88000 17.64400 23.34500
C  -2.92800 16.09300 23.45700
C  -3.00500 15.89900 24.99100
C  -4.05500 18.16800 22.45900
C  -1.81500 15.29800 22.72800
C  -0.46700 15.24500 23.42100
N  -3.33200 15.32000 27.87400
C  -3.40000 14.35100 26.94600
C  -3.86300 13.12200 27.59900
C  -3.96000 13.37500 28.91900
C  -3.57800 14.70400 29.06900
C  -4.10300 11.80500 26.83600
C  -4.30600 12.77000 30.21800
O  -4.70100 11.65200 30.50900
C  -4.04800 13.92700 31.27800
C  -3.01200 13.32000 32.19500
O  -1.74700 13.36700 32.04200
O  -3.62000 12.69600 33.28200
C  -2.79100 12.12100 34.29500
H  -3.43500 20.91300 30.52400
H  -2.83500 20.05800 24.26000
H  -3.09300 13.74600 24.94400
H  -4.55800 16.73900 32.71500
H  -3.13200 19.29000 32.37800
H  -5.17500 20.00200 33.11200
H  -6.08400 18.62900 32.55900
H  -5.67800 20.02500 31.57400
H  -1.47700 16.91900 32.58600
H  -2.51100 15.74800 33.31200
H  -3.09100 18.28900 34.65400
H  -1.41800 18.22500 34.55600
H  -2.97900 23.75500 28.15200
H  -2.18300 22.82400 29.48000
H  -3.94200 22.94500 29.38500
H  -0.90000 23.50600 26.76500
H  -2.37800 24.54400 26.20400
H  -0.98800 24.20300 25.23000
H  -1.93900 18.00100 22.92500
H  -3.94900 15.82500 23.18500
H  -4.88300 18.53000 23.06800
H  -4.37000 17.44500 21.70700
H  -3.54400 19.00300 21.97700
H  -1.70800 15.73900 21.73600
H  -2.09700 14.27500 22.47600
H  -0.44500 15.65200 24.43300
H  0.26700 15.81200 22.84800
H  -0.09100 14.22500 23.50200
H  -3.19700 11.22300 27.00600
H  -4.25400 12.11900 25.80300
H  -5.01700 11.33600 27.20000
H  -4.98100 14.09500 31.81500
H  -3.21900 11.17900 34.64000
H  -2.80500 12.82200 35.13000
H  -1.77300 11.89900 33.97700
Mg -6.00400 25.27300 26.58600
C  -4.53400 26.77200 29.38900
C  -8.02500 23.52500 28.56700
C  -6.93700 23.73700 23.82900
C  -3.36800 26.87200 24.62500
N  -6.12300 24.99900 28.75500
C  -5.53600 25.84500 29.67200
C  -6.09400 25.53000 31.05600
C  -7.20900 24.45500 30.82100
C  -7.12500 24.31700 29.30400
C  -6.96800 23.16700 31.53800
C  -6.64000 26.79500 31.74100
C  -6.54600 26.91900 33.25900
H  -5.89300 25.82700 34.13100
N  -7.47300 24.02300 26.19200
C  -8.21000 23.37200 27.15700
C  -9.22200 22.60300 26.52000
C  -8.87600 22.44600 25.15500
C  -7.73400 23.42000 24.94100
C  -10.47000 22.07700 27.29300
C  -9.45800 21.42300 24.18300
O  -9.02400 21.33000 23.04400
C  -10.48000 20.30500 24.63600
N  -5.19800 25.20900 24.52200
C  -5.81000 24.45700 23.60800
C  -5.19500 24.65300 22.17400
C  -4.07200 25.76200 22.42800
C  -4.24400 26.04500 23.99700
C  -4.73200 23.35100 21.51200
C  -4.16200 27.04700 21.45000
C  -3.11300 27.10200 20.35900
N  -4.25800 26.56600 26.88900
C  -3.33100 27.16400 26.01800
C  -2.43300 28.00600 26.75200
C  -2.92600 27.90800 28.07200
C  -3.97600 27.01500 28.09300
C  -1.41700 28.87900 26.20400
C  -2.65400 28.38600 29.49300
O  -1.76900 29.09900 29.99500
C  -3.71000 27.63300 30.35700
C  -2.96300 26.88300 31.36400
O  -2.24200 25.95900 31.11700
O  -3.00100 27.53400 32.55600
C  -2.11200 27.04400 33.61600
H  -8.82900 23.09200 29.16600
H  -7.46200 23.44800 22.91600
H  -2.63600 27.32500 23.95200
H  -5.29000 25.15700 31.69000
H  -8.20200 24.77500 31.13400
H  -7.83700 22.62000 31.90400
H  -6.29400 23.33600 32.37800
H  -6.38800 22.50700 30.89200
H  -7.70100 26.91900 31.52400
H  -6.22100 27.66500 31.23500
H  -7.48300 27.16500 33.75800
H  -5.87600 27.74400 33.50100
H  -11.36500 22.36400 26.74100
H  -10.61000 22.47400 28.29800
H  -10.48000 20.99200 27.40200
H  -9.93200 19.78900 25.42400
H  -10.61800 19.65100 23.77500
H  -11.48000 20.63400 24.91800
H  -5.87500 25.08800 21.44200
H  -3.12500 25.24000 22.29100
H  -3.65500 23.21200 21.59900
H  -5.07900 23.18100 20.49300
H  -5.08900 22.52600 22.12900
H  -4.16100 27.90600 22.12200
H  -5.15700 27.07500 21.00600
H  -2.31900 26.40000 20.61500
H  -2.81400 28.14000 20.21400
H  -3.63900 26.70900 19.48900
H  -1.27500 28.62100 25.15400
H  -0.51600 28.79400 26.81200
H  -1.82800 29.88800 26.20200
H  -4.31100 28.40000 30.84500
H  -1.87800 25.98700 33.49000
H  -2.52100 27.22300 34.61000
H  -1.12800 27.51300 33.58400

