158

Mg 40.80500 40.67900 27.57600
C  39.99200 43.09800 29.92500
C  41.80400 38.65500 30.00500
C  41.85200 38.50400 25.17300
C  40.36600 43.10600 25.04300
N  40.84100 40.90400 29.68600
C  40.42100 41.89300 30.49900
C  40.50800 41.52600 31.96500
C  41.17900 40.15400 31.93700
C  41.40800 39.92000 30.42400
C  42.46000 39.96100 32.77500
C  39.14300 41.73900 32.66100
C  39.02000 42.71100 33.83300
H  38.34200 42.27200 35.13300
N  41.53200 38.81400 27.54100
C  41.85600 38.12800 28.69000
C  42.29600 36.77200 28.35500
C  42.28100 36.66200 26.93800
C  41.86200 38.02900 26.45000
C  42.67800 35.70400 29.30800
C  42.68300 35.51100 25.96900
O  42.54900 35.54700 24.75200
C  43.13100 34.10000 26.57400
N  41.18100 40.84000 25.44100
C  41.51500 39.75400 24.64000
C  41.62100 40.13500 23.14300
C  40.82800 41.45000 23.10800
C  40.78200 41.84800 24.63600
C  43.11800 40.25400 22.65500
C  39.45500 41.45200 22.43200
C  38.30900 40.73200 23.08500
N  40.35400 42.72000 27.45500
C  40.16600 43.57300 26.34000
C  39.67900 44.83100 26.77600
C  39.65000 44.75200 28.22000
C  40.05100 43.42400 28.56300
C  39.28700 45.96400 25.90200
C  39.24500 45.37600 29.49000
O  38.78200 46.46300 29.72200
C  39.50600 44.38600 30.62500
C  40.58700 44.94400 31.42400
O  41.77600 44.96100 31.08300
O  40.05600 45.49500 32.51900
C  41.07600 45.98200 33.45300
H  41.93900 38.05600 30.90800
H  42.14700 37.78700 24.40400
H  40.08400 43.75900 24.21400
H  41.08600 42.38200 32.31300
H  40.46300 39.41600 32.29700
H  43.40700 39.85000 32.24600
H  42.35000 39.05100 33.36400
H  42.70400 40.76900 33.46400
H  38.65500 40.79200 32.89100
H  38.51700 42.20800 31.90200
H  38.32100 43.49800 33.55200
H  40.02000 43.10100 34.02500
H  43.74600 35.48600 29.33300
H  42.12100 34.80300 29.05400
H  42.33100 35.99100 30.30100
H  43.40700 33.45600 25.73900
H  42.24700 33.79400 27.13500
H  44.00000 34.17300 27.22700
H  41.17600 39.31400 22.58200
H  41.31200 42.24800 22.54600
H  43.25000 39.54700 21.83500
H  43.73600 39.77400 23.41400
H  43.36300 41.28000 22.38100
H  39.56500 41.04200 21.42800
H  39.18300 42.49000 22.23900
H  38.59700 40.08300 23.91100
H  37.69800 40.10300 22.43800
H  37.64500 41.47100 23.53300
H  38.75400 45.58900 25.02800
H  40.05800 46.59100 25.45400
H  38.56000 46.54700 26.46600
H  38.54000 44.26700 31.11400
H  41.65500 45.14000 33.83300
H  40.51400 46.54100 34.20100
H  41.65400 46.79800 33.01800
Mg -4.74300 25.07700 25.67200
C  -3.57900 26.95100 28.40500
C  -5.90400 22.81800 28.12300
C  -5.88500 23.36300 23.21200
C  -3.19500 27.39000 23.59400
N  -4.79800 24.95600 28.02900
C  -4.35200 25.89800 28.85900
C  -4.87600 25.67100 30.32700
C  -5.35700 24.17100 30.24900
C  -5.27000 23.90600 28.74600
C  -4.57900 23.10100 31.08300
C  -5.85500 26.74900 30.71600
C  -5.76700 27.32800 32.18300
H  -5.31700 26.31500 33.22200
N  -5.81900 23.36200 25.61500
C  -6.12600 22.54200 26.73900
C  -6.98900 21.38700 26.15700
C  -7.10100 21.64600 24.77900
C  -6.14300 22.76100 24.45300
C  -7.67400 20.34300 26.98200
C  -7.92900 20.89300 23.68900
O  -7.98100 21.13000 22.50800
C  -8.78100 19.71100 24.11700
N  -4.57000 25.36700 23.73200
C  -5.19900 24.53000 22.85600
C  -4.93400 24.91900 21.37900
C  -4.26900 26.37200 21.53400
C  -3.93700 26.36100 23.07600
C  -4.14400 23.82700 20.58200
C  -5.07600 27.62300 21.20500
C  -5.79900 27.55100 19.83300
N  -3.47900 26.79800 25.86900
C  -2.91600 27.57600 24.96900
C  -2.16300 28.63500 25.64000
C  -2.35500 28.35100 26.99200
C  -3.16900 27.24600 27.07000
C  -1.47600 29.75800 24.93600
C  -2.15400 28.96000 28.26100
O  -1.56000 29.98400 28.54900
C  -2.88900 28.03800 29.29900
C  -1.88800 27.48100 30.25700
O  -1.09700 26.60600 29.93000
O  -2.10500 28.00400 31.50400
C  -1.36900 27.35900 32.52200
H  -6.35500 22.07900 28.78700
H  -6.24500 22.86900 22.30700
H  -2.72500 28.13300 22.94700
H  -4.00600 25.79500 30.97100
H  -6.41100 24.11200 30.52000
H  -5.24000 22.43400 31.63500
H  -3.80700 23.47200 31.75700
H  -4.07900 22.38800 30.42700
H  -6.81600 26.24200 30.62800
H  -5.88700 27.54500 29.97200
H  -6.78900 27.59900 32.45000
H  -5.20300 28.26000 32.20600
H  -7.67700 19.36800 26.49400
H  -8.75400 20.47900 27.03700
H  -7.25400 20.18200 27.97400
H  -8.13800 18.86900 24.37400
H  -9.42500 19.46300 23.27300
H  -9.42300 20.02600 24.94000
H  -5.90200 25.19000 20.95700
H  -3.34100 26.58000 21.00100
H  -3.89700 22.95500 21.18800
H  -3.32100 24.09800 19.92100
H  -4.86100 23.29400 19.95700
H  -4.32500 28.40000 21.34300
H  -5.75400 27.79700 22.04100
H  -5.48500 26.70200 19.22500
H  -5.59800 28.45000 19.25100
H  -6.87200 27.40500 19.95900
H  -1.40200 29.56900 23.86500
H  -0.52900 29.79200 25.47300
H  -2.07800 30.66600 24.95000
H  -3.70200 28.50700 29.85300
H  -0.30600 27.58400 32.43000
H  -1.36600 26.27100 32.44900
H  -1.78600 27.77500 33.43900

