158

Mg 49.29000 35.56200 28.86200
C  46.78200 34.12500 31.04500
C  49.71500 37.96600 31.09000
C  51.30700 36.86100 26.56800
C  48.07700 33.27200 26.34700
N  48.55200 35.84700 30.97700
C  47.56200 35.12000 31.64700
C  47.20700 35.89900 32.91600
C  47.89100 37.26900 32.75600
C  48.79400 37.01200 31.55100
C  46.92300 38.41800 32.55700
C  47.69700 35.14000 34.16900
C  49.27900 34.96700 34.27100
H  49.90300 34.79300 35.70900
N  50.39300 37.17000 28.86900
C  50.50400 38.05000 29.88400
C  51.57800 38.98700 29.58400
C  52.09000 38.65800 28.24500
C  51.26300 37.55600 27.83800
C  51.94200 40.02900 30.54500
C  53.12300 39.34500 27.41200
O  53.49300 38.91000 26.35400
C  53.75100 40.68100 27.74100
N  49.51700 35.22700 26.70000
C  50.42800 35.89600 26.00500
C  50.61800 35.25800 24.59600
C  49.70300 34.02000 24.61700
C  49.03400 34.18400 25.96000
C  50.27400 36.26000 23.45700
C  50.49300 32.72200 24.35600
C  50.07000 32.09300 23.05000
N  47.81200 33.93900 28.70400
C  47.46700 33.13400 27.64800
C  46.50800 32.09000 28.14100
C  46.13800 32.50800 29.43500
C  47.01200 33.62000 29.74800
C  45.91500 30.99600 27.38500
C  45.19500 32.27700 30.51100
O  44.30800 31.48400 30.75200
C  45.61700 33.42400 31.61200
C  45.89500 32.56900 32.84500
O  46.62400 31.55000 32.87200
O  45.01000 33.02500 33.87900
C  45.08900 32.25800 35.11200
H  49.82600 38.85500 31.71500
H  52.05200 37.21800 25.85400
H  47.76500 32.42000 25.73900
H  46.13000 36.06500 32.87500
H  48.56400 37.60200 33.54600
H  45.92800 38.11400 32.88300
H  46.85400 38.89800 31.58100
H  47.20500 39.23900 33.21600
H  47.33300 34.11300 34.18900
H  47.20000 35.72900 34.94100
H  49.90200 35.55600 33.59800
H  49.34200 33.98700 33.79700
H  51.05400 40.66100 30.50300
H  52.72600 40.68300 30.16400
H  52.25400 39.70100 31.53600
H  52.98200 41.38300 28.06500
H  54.03200 41.02800 26.74700
H  54.55600 40.58100 28.46900
H  51.66300 34.97200 24.47500
H  48.82700 34.06600 23.97000
H  49.71200 37.12600 23.80600
H  49.69100 35.73100 22.70300
H  51.20800 36.64700 23.05100
H  50.23700 31.93600 25.06600
H  51.57600 32.80800 24.44400
H  49.53900 32.77900 22.38900
H  49.53400 31.15900 23.21800
H  50.93200 31.75600 22.47600
H  46.60500 30.65100 26.61500
H  45.04300 31.40000 26.86900
H  45.63000 30.12900 27.98000
H  44.75700 34.06600 31.80400
H  45.97300 32.53500 35.68600
H  45.05200 31.19000 34.89200
H  44.23700 32.58100 35.70900
Mg -1.90900 33.77700 26.85400
C  -3.87800 31.97400 29.06600
C  -0.80200 35.76900 29.47600
C  -0.17700 35.46300 24.62800
C  -3.43600 32.02600 24.32900
N  -2.26300 33.83100 28.99100
C  -3.07700 32.98900 29.71200
C  -2.95200 33.25400 31.22700
C  -2.17700 34.63400 31.31200
C  -1.69300 34.75300 29.85000
C  -2.90300 35.88100 31.78800
C  -2.20800 31.98900 31.95300
C  -2.82800 31.64200 33.36300
H  -1.88300 31.38000 34.61200
N  -0.59900 35.25500 27.02200
C  -0.24200 35.92900 28.16100
C  0.75900 36.91600 27.90900
C  1.08300 36.76500 26.52300
C  0.09600 35.78900 25.97700
C  1.35000 37.85500 28.99200
C  2.04300 37.51600 25.69900
O  2.20100 37.30800 24.52400
C  2.73800 38.64900 26.23600
N  -1.87100 33.84100 24.82200
C  -1.00000 34.52800 24.12500
C  -1.13600 34.34600 22.60100
C  -2.06600 33.13800 22.55500
C  -2.46900 32.95500 23.98200
C  -1.61800 35.59800 21.87900
C  -1.51600 31.79600 21.95200
C  -2.50800 30.88200 21.17900
N  -3.45500 32.33500 26.60500
C  -3.86500 31.67800 25.54900
C  -4.84000 30.67500 25.93500
C  -4.90900 30.69500 27.32200
C  -3.98500 31.72900 27.65100
C  -5.63200 29.75000 25.05700
C  -5.45300 30.16800 28.52000
O  -6.27000 29.24600 28.70400
C  -4.75800 30.90700 29.69800
C  -5.76800 31.38200 30.60600
O  -6.59000 32.19400 30.23400
O  -5.56300 30.90900 31.88400
C  -6.54800 31.31100 32.85800
H  -0.43300 36.35300 30.32100
H  0.38600 35.97100 23.84300
H  -3.95300 31.50800 23.51800
H  -3.93200 33.30000 31.70200
H  -1.30900 34.57700 31.96800
H  -3.62200 36.06200 30.98900
H  -2.33900 36.81000 31.86600
H  -3.52700 35.72500 32.66800
H  -1.20300 32.27100 32.26800
H  -2.30200 31.14200 31.27300
H  -3.32200 30.71400 33.07700
H  -3.63000 32.33600 33.61500
H  1.07900 38.88800 28.77600
H  2.43700 37.92000 28.94500
H  1.09500 37.64100 30.03000
H  3.16800 38.32200 27.18200
H  1.92100 39.36600 26.32800
H  3.58600 39.02900 25.66600
H  -0.17500 34.09300 22.15300
H  -2.99500 33.41500 22.05500
H  -2.47800 35.51000 21.21600
H  -0.79500 36.00000 21.28800
H  -1.91100 36.39300 22.56300
H  -1.05600 31.23200 22.76300
H  -0.73200 32.09700 21.25600
H  -1.97000 30.49700 20.31300
H  -3.38400 31.34500 20.72500
H  -2.69200 30.04800 21.85600
H  -6.51400 29.52500 25.65600
H  -5.02900 28.91200 24.70800
H  -5.99600 30.15700 24.11400
H  -4.19100 30.14700 30.23700
H  -7.26400 30.55300 33.17700
H  -7.04000 32.26400 32.66600
H  -5.96400 31.34500 33.77800

