158

Mg 35.76100 0.66300 29.37500
C  33.97700 2.06400 31.93000
C  38.40300 0.24100 31.41000
C  37.74200 0.17000 26.63400
C  33.26700 1.94300 27.14600
N  36.12800 1.06000 31.46100
C  35.24300 1.60800 32.36400
C  35.77000 1.51800 33.81700
C  37.30200 1.21000 33.53200
C  37.26500 0.76100 32.04200
C  38.21700 2.37400 33.82400
C  34.98700 0.55300 34.73800
C  34.52100 1.02600 36.10500
H  35.40500 2.12900 36.83500
N  37.75700 -0.01900 29.06400
C  38.63300 -0.18000 30.07000
C  39.88700 -0.61500 29.54000
C  39.72700 -0.65600 28.14600
C  38.34100 -0.14900 27.88800
C  41.18500 -0.82600 30.37800
C  40.70700 -1.16200 27.04300
O  40.49300 -1.10400 25.80900
C  42.07200 -1.86400 27.36900
N  35.52900 1.03700 27.22900
C  36.49600 0.70700 26.29100
C  36.03400 1.04700 24.86200
C  34.52000 1.22900 25.04900
C  34.36000 1.34300 26.58700
C  36.72100 2.42600 24.39400
C  33.68300 0.06000 24.51300
C  33.67200 -1.21800 25.35800
N  33.88800 1.62400 29.43400
C  32.95200 2.03700 28.54100
C  31.73700 2.57300 29.21400
C  32.09900 2.58400 30.54900
C  33.42900 2.00800 30.61600
C  30.61300 3.40700 28.69200
C  31.78900 3.15700 31.88700
O  30.89700 3.91300 32.24700
C  32.95200 2.65200 32.86800
C  33.32900 3.84100 33.59900
O  34.22800 4.60200 33.38700
O  32.52000 3.91800 34.69300
C  32.69700 5.09000 35.57500
H  39.25800 0.14800 32.08400
H  38.46000 0.03600 25.82300
H  32.45900 2.13800 26.43800
H  35.66900 2.51200 34.25400
H  37.55200 0.28300 34.04700
H  37.71300 3.21600 33.35000
H  39.19100 2.13700 33.39800
H  38.26000 2.53500 34.90100
H  35.49100 -0.37200 35.01700
H  34.04700 0.33700 34.23000
H  34.47800 0.13500 36.73100
H  33.49700 1.38600 36.00000
H  42.00900 -0.40600 29.80100
H  41.40800 -1.89100 30.42800
H  41.22900 -0.27300 31.31600
H  41.92900 -2.50400 28.24000
H  42.82600 -1.11500 27.60900
H  42.49700 -2.35100 26.49100
H  36.34100 0.24600 24.18900
H  34.16600 2.15200 24.58900
H  37.15600 2.45300 23.39500
H  37.53500 2.71300 25.06000
H  36.02500 3.26400 24.36700
H  34.07000 -0.12700 23.51100
H  32.65900 0.42800 24.44800
H  33.46600 -2.10300 24.75600
H  32.88900 -1.15800 26.11400
H  34.64400 -1.36500 25.83000
H  30.28700 4.23900 29.31700
H  29.73200 2.77500 28.57600
H  30.90800 3.73700 27.69500
H  32.54400 1.92000 33.56500
H  31.66200 5.41700 35.67100
H  33.46400 5.78400 35.23200
H  32.98900 4.72100 36.55900
Mg 35.51300 48.90400 25.00500
C  35.73100 47.41100 28.31000
C  34.78100 51.82800 26.57000
C  35.64900 50.23600 22.09400
C  36.70500 45.81900 23.75600
N  35.24400 49.54000 27.21900
C  35.45200 48.78300 28.35600
C  35.37100 49.64700 29.59400
C  35.11100 51.05600 29.02500
C  34.95100 50.79700 27.52900
C  33.96600 51.85400 29.77800
C  36.70300 49.65900 30.51400
C  36.56600 49.13400 31.97900
H  35.18000 49.23500 32.64400
N  35.32800 50.83400 24.37600
C  34.91400 51.87300 25.14200
C  34.68400 52.99900 24.29000
C  34.96300 52.58900 22.98700
C  35.27200 51.18000 23.06300
C  34.33100 54.38500 24.84400
C  34.83400 53.40800 21.75700
O  35.20400 52.93600 20.62800
C  34.14200 54.72600 21.76100
N  36.25400 48.17500 23.24300
C  36.12100 48.90300 22.10800
C  36.66500 48.20500 20.84600
C  37.26000 46.94900 21.50700
C  36.64900 46.93500 22.91300
C  35.52000 47.81800 19.73600
C  38.78900 46.96300 21.59700
C  39.53400 45.60900 21.50400
N  35.83300 46.91500 25.78300
C  36.36900 45.79700 25.15200
C  36.59700 44.71600 26.09600
C  36.40800 45.32400 27.35000
C  35.94500 46.65400 27.10900
C  37.01600 43.27000 25.71000
C  36.44200 45.08900 28.76900
O  36.81200 44.16700 29.42300
C  35.90100 46.41700 29.46800
C  34.66000 46.12400 30.25700
O  33.50500 46.24500 29.88800
O  35.01500 45.58100 31.48700
C  33.91300 45.04000 32.33600
H  34.42400 52.69700 27.12600
H  35.67300 50.65200 21.08500
H  37.10400 44.96700 23.20100
H  34.48300 49.41600 30.18400
H  36.01200 51.66600 29.08200
H  34.48200 52.66100 30.29700
H  33.23100 51.35100 30.40700
H  33.37300 52.24700 28.95200
H  37.16400 50.64200 30.60200
H  37.37000 48.89200 30.11900
H  37.31800 49.64100 32.58300
H  36.85900 48.08700 32.05900
H  34.90300 55.15000 24.31900
H  34.68200 54.47600 25.87200
H  33.26700 54.60900 24.76900
H  33.12800 54.56700 22.12800
H  33.94200 55.06400 20.74400
H  34.69900 55.56800 22.17100
H  37.47700 48.70000 20.31300
H  36.97300 46.02100 21.01200
H  36.10500 47.59600 18.84400
H  34.91300 48.70700 19.56600
H  34.83100 47.04000 20.06400
H  39.08500 47.47000 22.51500
H  39.23900 47.55300 20.79900
H  40.24900 45.65400 22.32500
H  40.08100 45.47000 20.57100
H  38.95200 44.69800 21.64500
H  36.27600 42.76900 25.08700
H  37.07000 42.65700 26.61000
H  37.97800 43.37800 25.20900
H  36.66600 46.69500 30.19300
H  33.10800 44.65700 31.70900
H  33.51300 45.91800 32.84200
H  34.18500 44.30300 33.09100

