158

Mg -2.31500 17.48900 26.70100
C  -2.58600 15.46600 29.48000
C  -2.84400 20.17500 28.71100
C  -2.34300 19.52100 23.90800
C  -2.71900 14.78300 24.63900
N  -2.69200 17.72000 28.91500
C  -2.71500 16.78400 29.88900
C  -3.17200 17.30900 31.25300
C  -3.52100 18.83700 30.87500
C  -3.01400 18.98900 29.45600
C  -5.07400 19.13500 31.18200
C  -2.10300 17.29500 32.38900
C  -2.58100 16.47000 33.62400
H  -1.46300 16.31100 34.68600
N  -2.29400 19.56500 26.34500
C  -2.52800 20.49800 27.32600
C  -2.35900 21.81800 26.77100
C  -2.08200 21.64300 25.34600
C  -2.18200 20.22700 25.15000
C  -2.43000 23.12600 27.57200
C  -1.69700 22.60100 24.24600
O  -1.33200 22.29400 23.12400
C  -1.74800 24.10700 24.54400
N  -2.73600 17.24400 24.43300
C  -2.56300 18.16100 23.53800
C  -2.56200 17.54200 22.09300
C  -2.66000 16.01200 22.39700
C  -2.62600 15.97500 23.94600
C  -3.60400 18.15500 21.10300
C  -1.58700 15.19500 21.54600
C  -0.32700 14.82200 22.32600
N  -2.55600 15.62100 26.90800
C  -2.71500 14.57500 26.01400
C  -2.77000 13.29600 26.68900
C  -2.69300 13.55700 28.01000
C  -2.57000 14.97100 28.15900
C  -2.83700 11.91500 26.11200
C  -2.62300 12.98600 29.31500
O  -2.54100 11.80300 29.70200
C  -2.58400 14.22200 30.34600
C  -1.41100 13.99000 31.12000
O  -0.30200 14.51700 31.03200
O  -1.76000 13.20900 32.15000
C  -0.67300 12.80600 33.05800
H  -3.26700 21.08800 29.13400
H  -2.29800 20.19200 23.04800
H  -2.64900 13.99600 23.88500
H  -4.08700 16.79300 31.54500
H  -2.84200 19.48600 31.42700
H  -5.25200 20.04200 31.76100
H  -5.58600 18.35100 31.73900
H  -5.58300 19.31500 30.23500
H  -1.94700 18.28200 32.82400
H  -1.07900 17.04400 32.11500
H  -2.86200 15.47300 33.28300
H  -3.45000 16.94600 34.07800
H  -3.20800 23.77100 27.16300
H  -1.47100 23.64300 27.55100
H  -2.69300 22.93400 28.61300
H  -2.82300 24.28900 24.56300
H  -1.08400 24.58200 23.82200
H  -1.19800 24.26500 25.47200
H  -1.56200 17.75900 21.71600
H  -3.68500 15.80900 22.08800
H  -4.04200 19.03900 21.56600
H  -4.33600 17.36800 20.92400
H  -3.06100 18.33600 20.17500
H  -1.28800 15.78600 20.68100
H  -2.12500 14.31100 21.20400
H  -0.39500 15.30800 23.29900
H  0.53000 15.10000 21.71200
H  -0.38200 13.74600 22.49000
H  -1.97400 11.30100 26.37100
H  -3.04300 12.01200 25.04600
H  -3.59400 11.35600 26.66100
H  -3.33800 14.20500 31.13200
H  0.29500 12.89800 32.56500
H  -0.71300 11.77700 33.41500
H  -0.84100 13.47100 33.90500
Mg 24.29100 -4.36100 46.24700
C  26.24300 -1.92500 44.79900
C  21.60400 -3.50000 44.09300
C  22.72800 -7.36100 47.03200
C  27.06600 -5.39500 48.25500
N  23.96300 -2.77700 44.74000
C  24.89200 -2.05200 44.18100
C  24.41200 -1.21800 43.02700
C  22.86500 -1.41500 43.11800
C  22.77600 -2.67200 44.11800
C  21.93700 -0.18900 43.57400
C  25.10500 -1.59300 41.63200
C  25.64000 -0.45000 40.74500
H  25.40200 -0.59300 39.26600
N  22.38300 -5.19100 45.82400
C  21.46300 -4.67700 44.86200
C  20.28700 -5.62200 44.81000
C  20.57500 -6.72200 45.67600
C  21.92000 -6.45700 46.27800
C  19.07600 -5.20000 43.93300
C  19.57900 -7.87200 45.99900
O  18.51500 -7.86700 45.41300
C  19.91700 -8.97600 46.91100
N  24.83300 -6.14300 47.49300
C  23.98000 -7.18000 47.65500
C  24.68200 -8.30700 48.46200
C  25.87400 -7.53900 49.19400
C  26.03800 -6.33000 48.22300
C  23.70700 -9.16000 49.44000
C  27.15800 -8.33700 49.45100
C  27.48700 -8.80000 50.90300
N  26.27300 -3.87400 46.44600
C  27.26600 -4.31800 47.36100
C  28.44900 -3.51300 47.18200
C  28.14800 -2.61000 46.14700
C  26.77500 -2.84100 45.78100
C  29.68500 -3.54600 47.99900
C  28.65300 -1.54200 45.36100
O  29.77700 -1.06000 45.34300
C  27.41500 -1.07700 44.43400
C  27.09700 0.42700 44.56600
O  26.92900 1.15500 45.51700
O  27.21300 0.97800 43.24300
C  27.34400 2.47400 43.10200
H  20.91400 -3.04200 43.38100
H  22.26900 -8.34000 47.18400
H  27.85100 -5.61400 48.98100
H  24.59800 -0.15000 43.13900
H  22.58800 -1.81800 42.14400
H  21.31500 0.18500 42.76100
H  22.58900 0.68300 43.59800
H  21.46500 -0.30100 44.55000
H  24.38300 -2.02900 40.94200
H  25.89300 -2.26300 41.97600
H  26.71600 -0.35000 40.89300
H  25.11000 0.42500 41.12100
H  19.01300 -4.11200 43.89800
H  18.20300 -5.69900 44.35300
H  19.24700 -5.54100 42.91200
H  20.69900 -9.48300 46.34600
H  19.08600 -9.67100 47.02800
H  20.33700 -8.83100 47.90600
H  25.07800 -9.01600 47.73500
H  25.49900 -7.10100 50.11900
H  22.70100 -8.74100 49.45500
H  23.96800 -9.08500 50.49600
H  23.66500 -10.20200 49.12300
H  27.97100 -7.75800 49.01400
H  27.09700 -9.18100 48.76400
H  27.42700 -9.88100 50.77700
H  26.65800 -8.43500 51.51000
H  28.49800 -8.57400 51.23900
H  29.51100 -3.99200 48.97800
H  29.94800 -2.49600 48.13400
H  30.44800 -4.08500 47.43800
H  27.71700 -1.19900 43.39400
H  27.74700 2.88700 44.02700
H  26.37900 2.90000 42.82600
H  28.03800 2.64600 42.27900

