158

Mg 8.62500 3.10000 27.36400
C  9.63700 1.61900 30.31200
C  6.53400 5.11400 29.31900
C  7.34700 4.27300 24.58900
C  10.12400 0.50100 25.57200
N  8.11500 3.28000 29.61900
C  8.79900 2.67400 30.58000
C  8.40600 3.23200 31.98600
C  7.33400 4.39800 31.65900
C  7.27400 4.23500 30.12600
C  6.09200 4.35500 32.46800
C  9.59700 3.80900 32.84000
C  9.98300 3.18200 34.15200
H  10.13800 4.09300 35.36800
N  7.22600 4.53600 27.01900
C  6.42900 5.27400 27.90700
C  5.72300 6.23400 27.21600
C  5.98600 6.03400 25.83300
C  6.90300 4.93300 25.73500
C  4.91700 7.26900 27.94200
C  5.54500 6.81800 24.61100
O  5.75300 6.57700 23.41500
C  4.57400 7.94400 24.86100
N  8.58800 2.37500 25.39900
C  8.08600 3.12000 24.43600
C  8.12200 2.42800 23.11500
C  9.35700 1.56600 23.34100
C  9.35400 1.43900 24.85300
C  6.80500 1.61100 22.85600
C  10.72700 2.03400 22.82600
C  11.61900 0.92000 22.23000
N  9.66000 1.34800 27.74600
C  10.24800 0.44300 26.92300
C  11.02400 -0.44900 27.75000
C  10.90900 0.00000 29.07400
C  9.99700 1.10300 29.05500
C  11.85400 -1.50300 27.23500
C  11.30100 -0.26900 30.46300
O  12.06600 -1.11800 30.92500
C  10.40600 0.71000 31.30700
C  9.53200 0.06400 32.23100
O  8.45100 -0.41300 31.98900
O  10.17300 -0.18700 33.48100
C  9.41700 -0.89200 34.53700
H  6.06200 5.90400 29.90700
H  7.10500 4.77400 23.64900
H  10.67100 -0.22800 24.97000
H  7.84400 2.43200 32.46800
H  7.81500 5.37600 31.67600
H  5.95000 3.46200 33.07600
H  5.19300 4.40300 31.85400
H  6.05100 5.29800 33.01300
H  9.38400 4.85900 33.04100
H  10.54500 3.83800 32.30400
H  10.97600 2.73500 34.11800
H  9.20400 2.46400 34.41000
H  5.36700 8.20500 27.61100
H  4.98700 7.30100 29.02900
H  3.86700 7.30200 27.65100
H  3.68400 7.54800 25.35000
H  4.21200 8.34200 23.91300
H  5.21100 8.59100 25.46500
H  8.24600 3.14000 22.29900
H  9.15700 0.59600 22.88400
H  6.17400 1.84500 23.71300
H  7.09700 0.56900 22.73000
H  6.32400 2.01700 21.96500
H  11.14600 2.50800 23.71400
H  10.63700 2.87400 22.13600
H  12.46800 0.79900 22.90300
H  11.93200 1.30400 21.25900
H  11.00100 0.04300 22.03900
H  11.25800 -2.29900 26.78800
H  12.55300 -1.83400 28.00300
H  12.46500 -1.05500 26.45100
H  11.04900 1.43200 31.81000
H  8.71100 -1.57200 34.05900
H  8.82400 -0.19300 35.12700
H  10.02100 -1.53400 35.17800
Mg 16.77400 51.56400 26.30700
C  18.76400 50.15500 28.75400
C  14.29200 52.01500 28.56900
C  14.76500 52.35000 23.78800
C  19.20600 50.46800 23.88600
N  16.53900 51.12500 28.40900
C  17.53900 50.67400 29.22100
C  17.06500 50.71100 30.71800
C  15.59700 51.15100 30.54300
C  15.41500 51.35100 29.11100
C  14.52300 50.18200 31.13200
C  17.93700 51.64900 31.74900
C  17.86700 51.27600 33.21400
H  16.85900 52.00800 34.16400
N  14.85600 52.30400 26.24700
C  13.99800 52.41400 27.23200
C  12.75500 53.11600 26.75600
C  12.87400 53.19500 25.38000
C  14.16700 52.56100 25.04900
C  11.64400 53.53600 27.62300
C  11.93700 53.77800 24.42800
O  12.11000 53.82400 23.19800
C  10.59900 54.36700 24.90000
N  16.95500 51.40200 24.13200
C  15.94700 51.74300 23.34500
C  16.29800 51.58200 21.85400
C  17.87100 51.46700 21.89700
C  18.04800 51.03100 23.39200
C  15.38700 50.57200 21.11200
C  18.68000 52.72900 21.56000
C  19.72800 52.45800 20.41100
N  18.54400 50.46800 26.23100
C  19.49200 50.28300 25.25600
C  20.68500 49.69100 25.87400
C  20.48300 49.60200 27.22700
C  19.18600 50.15600 27.41400
C  21.88100 49.12300 25.17100
C  21.10400 49.26800 28.47300
O  22.21500 48.86600 28.77900
C  20.00200 49.67300 29.56900
C  19.59300 48.58400 30.35300
O  18.78300 47.77200 30.02300
O  20.19900 48.68800 31.60500
C  19.67700 47.66100 32.51100
H  13.43500 52.13900 29.23400
H  14.17100 52.61300 22.91000
H  20.09800 50.19300 23.32100
H  17.17000 49.66400 31.00300
H  15.33900 52.16800 30.83700
H  13.85700 50.83700 31.69400
H  14.90100 49.58700 31.96400
H  14.09700 49.52300 30.37600
H  17.75100 52.72300 31.72600
H  18.98100 51.47100 31.49000
H  18.91200 51.34900 33.51800
H  17.66200 50.20500 33.19700
H  11.37400 54.59000 27.55600
H  11.74500 53.21400 28.65900
H  10.88400 52.85100 27.24800
H  9.99100 54.59200 24.02400
H  10.84600 55.25600 25.48000
H  10.03500 53.63600 25.47900
H  15.96000 52.50800 21.38900
H  18.16000 50.59100 21.31600
H  14.76200 49.85200 21.64100
H  16.03700 49.95000 20.49600
H  14.81100 51.23300 20.46400
H  19.20200 53.06400 22.45600
H  17.95000 53.48100 21.26200
H  19.35600 52.72400 19.42200
H  19.96300 51.40000 20.29400
H  20.59600 53.08000 20.63200
H  21.66000 48.72800 24.17900
H  22.07700 48.27400 25.82500
H  22.82200 49.67300 25.18900
H  20.40400 50.48400 30.17700
H  20.02300 46.66000 32.25400
H  18.59100 47.66300 32.41500
H  20.00700 47.94900 33.50900

