158

Mg 1.51600 7.50900 25.12400
C  2.01700 9.42500 28.03300
C  1.64000 4.61400 27.15500
C  1.05000 5.75600 22.38500
C  2.13000 10.37100 23.20100
N  1.95800 7.06800 27.27900
C  1.91300 8.01200 28.31500
C  1.91700 7.46800 29.70600
C  2.13000 5.95100 29.30400
C  1.82400 5.85700 27.83200
C  3.57900 5.33900 29.58600
C  0.60500 7.63000 30.51800
C  0.29100 6.77700 31.77200
H  1.50500 6.22500 32.51400
N  1.37000 5.44100 24.88100
C  1.46300 4.48000 25.72300
C  1.45300 3.19700 25.01300
C  1.28300 3.46900 23.64300
C  1.18100 4.94500 23.60900
C  1.51800 1.80300 25.66800
C  1.13400 2.56900 22.44000
O  0.97600 2.97500 21.26800
C  1.16000 1.09600 22.49000
N  1.70200 8.02200 23.06400
C  1.21400 7.08800 22.15800
C  1.14900 7.78000 20.73300
C  1.42800 9.31900 21.00600
C  1.80100 9.27200 22.53000
C  2.11300 7.18900 19.66200
C  0.12600 10.13200 20.77100
C  0.27500 11.45000 20.04900
N  2.01100 9.49600 25.48800
C  2.20400 10.58900 24.62000
C  2.34400 11.74400 25.42900
C  2.32700 11.35600 26.74900
C  2.15300 9.94900 26.73400
C  2.40700 13.18400 24.96000
C  2.49200 11.83200 28.07700
O  2.65200 12.92800 28.49800
C  2.25100 10.61100 29.00200
C  3.36800 10.67600 29.98500
O  4.48400 10.28200 29.78300
O  2.94800 11.34300 31.13200
C  3.86300 11.55100 32.20400
H  1.79500 3.75100 27.80600
H  0.80000 5.32100 21.41500
H  2.21900 11.23900 22.54300
H  2.83600 7.84400 30.15500
H  1.42000 5.31800 29.83800
H  4.18900 5.71700 30.40600
H  4.19500 5.26700 28.68900
H  3.59800 4.30200 29.92200
H  -0.16900 7.57800 29.75300
H  0.50600 8.68700 30.76700
H  -0.40200 6.00300 31.44300
H  -0.18700 7.33900 32.57400
H  0.55800 1.36200 25.93500
H  2.08600 1.89500 26.59400
H  2.15200 1.20900 25.01000
H  0.54300 0.71400 23.30400
H  2.17500 0.70000 22.45200
H  0.65000 0.81100 21.57000
H  0.12700 7.58500 20.40800
H  2.22700 9.71700 20.38000
H  2.97400 7.85700 19.68600
H  1.54200 7.25600 18.73600
H  2.38100 6.15600 19.88700
H  -0.30500 10.40100 21.73500
H  -0.54700 9.55300 20.13800
H  0.35600 11.29000 18.97400
H  1.23700 11.84100 20.38200
H  -0.56800 12.12100 20.20800
H  1.41500 13.44500 24.59100
H  3.14600 13.07300 24.16600
H  2.95400 13.92000 25.55000
H  1.29800 10.84600 29.47700
H  4.81100 11.93500 31.82900
H  4.04600 10.56300 32.62500
H  3.55100 12.23100 32.99600
Mg -1.59900 34.46900 26.99800
C  -2.70200 32.63700 29.84400
C  0.09500 36.55900 28.96600
C  -0.99900 36.27200 24.20300
C  -3.38800 32.14000 24.93800
N  -1.36900 34.61500 29.17800
C  -1.90600 33.75400 30.16800
C  -1.36300 34.18100 31.55200
C  -0.62900 35.51100 31.22800
C  -0.58000 35.56000 29.68500
C  -1.15400 36.84100 31.92500
C  -0.61700 33.06400 32.35500
C  0.13800 33.43300 33.65900
H  -0.02000 32.73800 35.00500
N  -0.62300 36.24000 26.66600
C  0.18600 36.89400 27.62500
C  0.74000 38.02500 27.07300
C  0.39000 38.01200 25.62600
C  -0.51800 36.87600 25.43900
C  1.65300 38.96500 27.82800
C  0.75600 39.01700 24.46600
O  0.20800 38.98000 23.37600
C  1.68800 40.19700 24.77300
N  -2.25500 34.31800 24.87100
C  -1.71200 35.13700 23.96200
C  -2.19000 34.84400 22.51100
C  -2.73300 33.37200 22.68300
C  -2.86200 33.21600 24.23600
C  -3.30600 35.82200 21.95400
C  -1.86600 32.23800 22.08500
C  -0.36000 32.08800 22.46400
N  -2.75300 32.76500 27.27200
C  -3.36200 31.91700 26.30400
C  -4.15000 30.94000 26.99900
C  -3.82400 31.11000 28.34900
C  -3.06800 32.30900 28.49800
C  -4.94300 29.85900 26.40800
C  -4.10000 30.60100 29.67000
O  -4.79700 29.70400 30.05900
C  -3.24700 31.48600 30.70800
C  -4.33600 31.90200 31.74000
O  -5.21500 32.66300 31.49600
O  -4.08900 31.32200 33.03600
C  -5.11700 31.56100 34.04300
H  0.72400 37.12800 29.65300
H  -0.74600 36.90000 23.34600
H  -3.88600 31.38600 24.32500
H  -2.31100 34.28700 32.07900
H  0.37400 35.40600 31.64200
H  -1.35700 37.61900 31.19000
H  -0.40400 37.10000 32.67300
H  -2.06300 36.69600 32.50900
H  0.14900 32.65400 31.69700
H  -1.41000 32.33400 32.51600
H  0.01300 34.49900 33.84700
H  1.18600 33.31200 33.38500
H  2.01900 38.68000 28.81400
H  0.95900 39.77400 28.05800
H  2.42800 39.15300 27.08600
H  2.65200 39.68800 24.80100
H  1.30800 40.54100 25.73500
H  1.46600 40.83000 23.91400
H  -1.30400 34.81800 21.87700
H  -3.71700 33.35300 22.21400
H  -3.99000 36.15400 22.73500
H  -3.81000 35.36100 21.10400
H  -2.84800 36.69200 21.48300
H  -1.93700 32.09200 21.00700
H  -2.25800 31.35100 22.58300
H  -0.32300 31.24100 23.14800
H  0.13500 32.91000 22.98100
H  0.19600 31.97600 21.53300
H  -4.80800 29.91700 25.32800
H  -5.99800 29.86100 26.68000
H  -4.54500 28.86200 26.59400
H  -2.46600 30.84700 31.12000
H  -5.45700 30.62300 34.48200
H  -5.90400 32.23100 33.69700
H  -4.62800 32.10800 34.85000

