158

Mg 16.96100 51.78300 26.32300
C  18.73200 50.49000 29.03300
C  14.49700 52.77500 28.53000
C  14.91100 52.48700 23.69400
C  19.16700 50.18900 24.17900
N  16.73200 51.54000 28.53400
C  17.60100 51.10400 29.51400
C  17.11200 51.56200 30.95700
C  15.62500 51.87300 30.64900
C  15.65300 52.19000 29.13600
C  14.64100 50.69700 31.02700
C  17.87400 52.78000 31.50000
C  18.21800 52.61400 33.00900
H  17.19500 51.80900 33.86200
N  15.08100 52.62300 26.16700
C  14.24200 52.99100 27.17600
C  12.97600 53.63400 26.62700
C  13.14900 53.58100 25.21500
C  14.35300 52.82500 24.95100
C  11.93400 54.28900 27.44300
C  12.24500 54.16200 24.06700
O  12.47500 54.12400 22.91900
C  10.88900 54.80400 24.47800
N  17.03200 51.52700 24.24400
C  16.14500 51.94800 23.33200
C  16.59100 51.78400 21.94300
C  17.96400 51.05500 22.07700
C  18.06300 50.83800 23.59400
C  15.62800 50.88700 21.12800
C  19.16800 51.81300 21.43400
C  20.37500 50.85100 20.91900
N  18.72200 50.71300 26.48300
C  19.55300 50.06700 25.56300
C  20.66300 49.41200 26.21800
C  20.41800 49.62600 27.55000
C  19.15900 50.31800 27.69600
C  21.79400 48.59300 25.69000
C  20.88200 49.29200 28.85000
O  21.87400 48.64500 29.16500
C  19.88300 49.86900 29.82900
C  19.47100 48.80000 30.85600
O  18.96600 47.69400 30.60900
O  19.82400 49.26600 32.13500
C  19.57400 48.48100 33.40500
H  13.76600 53.10600 29.27100
H  14.17300 52.47600 22.88900
H  19.86800 49.58800 23.59600
H  17.28500 50.67000 31.55900
H  15.26200 52.72400 31.22500
H  15.06100 50.11900 31.84900
H  14.55100 50.13300 30.09800
H  13.67600 51.03900 31.40200
H  17.37500 53.72700 31.29500
H  18.86700 52.77500 31.05100
H  18.25900 53.61200 33.44700
H  19.22700 52.22300 33.14100
H  12.14600 54.31900 28.51200
H  11.10900 53.57700 27.46400
H  11.69600 55.27200 27.03500
H  10.95500 55.78600 24.94800
H  10.39000 54.02200 25.05000
H  10.42200 54.80100 23.49300
H  16.72400 52.72900 21.41700
H  17.97800 50.07100 21.61000
H  14.86300 50.40300 21.73500
H  16.20300 50.24900 20.45700
H  15.08700 51.47600 20.38700
H  19.68900 52.44400 22.15400
H  18.91100 52.31300 20.50000
H  20.28900 49.86900 21.38400
H  21.32400 51.33200 21.15700
H  20.30900 50.80300 19.83200
H  22.43500 49.39200 25.31600
H  21.47600 47.95000 24.86900
H  22.14400 47.95300 26.49900
H  20.42200 50.62800 30.39700
H  18.55100 48.14500 33.23400
H  19.57000 49.12800 34.28200
H  20.31400 47.68100 33.43300
Mg -12.72500 14.68300 41.88300
C  -9.29300 13.81700 41.63600
C  -11.98200 17.47000 40.15300
C  -15.92800 15.10100 41.62100
C  -13.19600 11.42500 43.39700
N  -10.83100 15.51100 41.04500
C  -9.55000 15.02500 41.02300
C  -8.59000 15.92000 40.15900
C  -9.46500 17.13600 39.85700
C  -10.89000 16.67600 40.37900
C  -8.91300 18.53800 40.37800
C  -8.03600 15.13800 38.87900
C  -6.44500 15.16500 38.76400
H  -6.03400 16.19700 37.60200
N  -13.81000 16.11200 40.97800
C  -13.38800 17.15400 40.27100
C  -14.54000 17.82000 39.65900
C  -15.69400 17.11200 40.06300
C  -15.19900 16.02900 40.93500
C  -14.43400 19.02000 38.68800
C  -17.09800 17.48600 39.65500
O  -17.26900 18.62400 39.23000
C  -18.26000 16.55000 39.79000
N  -14.36400 13.29600 42.30000
C  -15.58100 13.83300 42.17500
C  -16.58900 12.92700 42.95800
C  -15.75200 11.62300 43.22600
C  -14.36800 12.10200 43.01200
C  -17.03800 13.64700 44.25800
C  -16.02500 10.44900 42.28200
C  -16.02100 9.06100 42.85400
N  -11.51400 12.86300 42.42000
C  -11.83000 11.71300 43.06700
C  -10.59900 10.92800 43.26400
C  -9.64200 11.73500 42.73100
C  -10.20900 12.86900 42.21200
C  -10.65100 9.57600 43.90200
C  -8.20500 11.81300 42.46700
O  -7.29500 11.03200 42.73500
C  -7.97500 13.19500 41.73800
C  -7.08500 13.97400 42.58200
O  -7.42200 14.67200 43.54200
O  -5.79600 14.00500 42.01100
C  -4.87500 14.90000 42.74700
H  -11.80200 18.38300 39.58100
H  -17.00800 15.21300 41.73900
H  -13.23600 10.40700 43.79000
H  -7.75600 16.07500 40.84300
H  -9.77400 17.24100 38.81700
H  -8.01400 18.26600 40.93200
H  -9.64600 19.02200 41.02400
H  -8.56500 19.16600 39.55800
H  -8.39800 15.65700 37.99100
H  -8.26100 14.07200 38.83300
H  -6.02200 14.16100 38.74000
H  -6.00300 15.64500 39.63700
H  -14.33000 20.03300 39.07700
H  -15.25600 18.98600 37.97300
H  -13.53900 18.79200 38.10900
H  -17.95800 15.60600 39.33400
H  -19.04500 17.19300 39.39300
H  -18.49100 16.37900 40.84200
H  -17.43600 12.65400 42.32800
H  -15.81300 11.22800 44.24100
H  -16.77700 13.03500 45.12200
H  -18.08700 13.89900 44.41200
H  -16.39900 14.52400 44.35700
H  -15.37600 10.34600 41.41200
H  -17.02100 10.62000 41.87400
H  -17.08400 8.81800 42.84200
H  -15.57700 9.10200 43.84800
H  -15.50900 8.34800 42.20800
H  -11.53800 9.01100 43.61600
H  -10.71000 9.58100 44.99000
H  -9.76800 8.99200 43.64400
H  -7.48600 12.95600 40.79400
H  -5.22300 15.92300 42.60400
H  -3.86000 14.80700 42.36100
H  -4.73200 14.76300 43.81900

