158

Mg 35.51500 1.12300 29.59900
C  33.49500 2.60200 32.03500
C  38.07300 1.09900 31.95000
C  37.59800 0.52700 27.16200
C  32.93500 1.64200 27.42600
N  35.75200 1.77400 31.76800
C  34.75800 2.28200 32.52400
C  35.21100 2.39400 33.97300
C  36.74400 2.15100 33.84500
C  36.88000 1.62200 32.45800
C  37.62600 3.44600 33.98700
C  34.52500 1.35600 34.97700
C  33.82600 1.92800 36.25200
H  34.64900 2.80200 37.10600
N  37.62500 0.65900 29.53500
C  38.45900 0.72300 30.58500
C  39.80200 0.36800 30.17900
C  39.76000 0.28100 28.70600
C  38.25300 0.46000 28.41600
C  41.00500 0.30800 31.22700
C  40.79900 -0.10800 27.68300
O  40.66000 -0.11900 26.48800
C  42.22000 -0.43400 28.13300
N  35.27300 1.00400 27.68300
C  36.32500 0.71900 26.84200
C  35.81000 0.54900 25.37300
C  34.28700 0.75000 25.51400
C  34.11600 1.09600 27.01800
C  36.57700 1.45300 24.32400
C  33.40100 -0.53700 25.13200
C  31.95400 -0.15300 24.74200
N  33.42400 1.79800 29.68400
C  32.55000 1.99700 28.70900
C  31.34700 2.65900 29.23100
C  31.69600 2.92600 30.52900
C  32.94500 2.41200 30.75200
C  30.09300 2.89400 28.46500
C  31.21700 3.55400 31.67400
O  30.24700 4.22100 31.94200
C  32.30100 3.31400 32.73400
C  32.76500 4.52200 33.39300
O  33.66000 5.26400 32.93700
O  31.98500 4.76600 34.52100
C  32.43400 5.94800 35.32600
H  38.85400 1.00600 32.70700
H  38.24400 0.44000 26.28500
H  32.25300 1.84500 26.59700
H  34.94100 3.42100 34.22000
H  37.02500 1.43500 34.61700
H  36.90700 4.16600 34.37900
H  38.21100 3.62900 33.08600
H  38.31100 3.22900 34.80600
H  35.15700 0.56400 35.37700
H  33.68600 0.92200 34.43300
H  33.39000 1.09700 36.80700
H  32.92400 2.48000 35.98700
H  41.83900 -0.23100 30.77600
H  40.89200 -0.24100 32.16200
H  41.32500 1.30000 31.54500
H  42.78500 -0.15900 27.24200
H  42.34400 -1.46300 28.47000
H  42.47200 0.26600 28.92900
H  36.07100 -0.47800 25.11400
H  33.94700 1.60100 24.92300
H  37.29900 0.95900 23.67300
H  37.13100 2.24300 24.83100
H  36.00500 1.83600 23.47800
H  33.46400 -1.22900 25.97100
H  33.90300 -1.03300 24.30100
H  31.81100 -0.59000 23.75400
H  31.76600 0.92000 24.68700
H  31.19500 -0.52700 25.42900
H  30.31300 3.27900 27.46900
H  29.64800 3.74600 28.97900
H  29.43600 2.02900 28.55400
H  31.90400 2.67300 33.52100
H  31.74800 6.77200 35.12900
H  33.44000 6.35200 35.20500
H  32.44000 5.79400 36.40500
Mg -0.30100 43.88900 26.13100
C  1.81800 43.77100 28.81000
C  -2.91400 43.14000 28.41700
C  -2.41600 43.23600 23.61400
C  2.44900 44.42400 23.93200
N  -0.40500 43.27700 28.40600
C  0.51900 43.55200 29.27000
C  0.03400 43.50000 30.71600
C  -1.46100 43.15400 30.55200
C  -1.60800 43.17300 29.04800
C  -1.86300 41.85000 31.14900
C  0.31200 44.84400 31.47200
C  0.77900 44.77300 32.96700
H  0.51200 43.55600 33.82200
N  -2.37000 43.30900 26.02300
C  -3.28000 43.08700 27.06000
C  -4.51600 42.68500 26.50700
C  -4.35700 42.56300 25.10900
C  -3.01800 43.04200 24.83200
C  -5.73500 42.34500 27.38200
C  -5.33000 41.93600 24.14000
O  -5.07900 41.98900 22.94800
C  -6.64100 41.38700 24.48500
N  -0.01200 43.93500 24.10100
C  -1.07000 43.63700 23.27200
C  -0.54000 43.57600 21.86300
C  0.94300 44.05700 21.95100
C  1.15000 44.10900 23.41900
C  -0.69700 42.13600 21.16200
C  1.21800 45.38000 21.14100
C  1.10600 46.79900 21.77900
N  1.75600 44.18400 26.24300
C  2.70100 44.45600 25.32400
C  3.98100 44.54700 25.97300
C  3.67800 44.21000 27.35200
C  2.33000 44.02600 27.45900
C  5.34300 44.79600 25.25600
C  4.27300 43.92000 28.64200
O  5.41700 43.80800 29.08000
C  3.03300 43.80900 29.63900
C  3.18500 42.63400 30.44700
O  3.18400 41.53900 29.95000
O  3.52400 42.87400 31.78300
C  4.13700 41.78400 32.54600
H  -3.77400 42.90900 29.04900
H  -3.04000 42.96800 22.75900
H  3.25300 44.56400 23.20700
H  0.53500 42.63600 31.15400
H  -2.06200 43.95600 30.98200
H  -0.93800 41.47100 31.58200
H  -2.38100 41.22600 30.42100
H  -2.55200 41.92100 31.99100
H  -0.59300 45.45100 31.47100
H  1.06800 45.35900 30.87900
H  0.10300 45.50400 33.41100
H  1.81900 45.09100 33.03800
H  -6.67300 42.35000 26.82600
H  -5.88900 42.77800 28.37100
H  -5.45500 41.33200 27.67200
H  -6.62600 40.55000 25.18300
H  -6.97700 40.95800 23.54100
H  -7.52800 41.96800 24.73600
H  -1.08200 44.27900 21.23000
H  1.54300 43.21500 21.60500
H  0.25100 41.64600 20.94200
H  -1.31700 42.24600 20.27200
H  -1.32200 41.50800 21.79700
H  0.44400 45.29100 20.37800
H  2.17900 45.41300 20.62700
H  0.25600 47.30200 21.31700
H  1.98800 47.35000 21.45100
H  0.91500 46.85800 22.85100
H  5.38600 44.60900 24.18300
H  6.05500 44.17700 25.80300
H  5.61000 45.84400 25.39000
H  3.06800 44.78200 30.12800
H  4.45600 42.28200 33.46100
H  5.05600 41.41800 32.08600
H  3.40000 41.00800 32.75000

