158

Mg 34.75000 2.79300 29.02700
C  32.75500 3.31400 31.85700
C  37.43400 2.21300 31.15700
C  36.61400 2.44400 26.34000
C  31.88600 3.64500 27.01300
N  35.04600 2.87100 31.22900
C  34.08000 2.90200 32.19400
C  34.60000 2.74000 33.64200
C  36.18800 2.60700 33.34200
C  36.31200 2.63400 31.82400
C  37.04900 3.78400 33.98500
C  33.93300 1.59200 34.39800
C  33.58600 1.78000 35.90400
H  34.43400 2.65600 36.81900
N  36.73700 2.44900 28.72800
C  37.65900 2.19400 29.72000
C  39.00100 2.02700 29.05300
C  38.83100 2.14100 27.66700
C  37.32700 2.27100 27.48300
C  40.30000 2.01700 29.81800
C  39.88900 2.08200 26.64300
O  39.52100 2.17300 25.44300
C  41.32100 1.68800 26.89700
N  34.30900 3.25300 26.93000
C  35.26100 2.85500 26.03100
C  34.76900 3.15100 24.59500
C  33.22900 3.37100 24.83600
C  33.12300 3.46600 26.39700
C  35.55700 4.21400 23.92100
C  32.24500 2.33000 24.20800
C  32.28700 0.92200 24.74600
N  32.76100 3.23700 29.32300
C  31.69700 3.56400 28.45600
C  30.48100 3.72300 29.16600
C  30.83500 3.66800 30.49400
C  32.16300 3.35900 30.59700
C  29.11000 4.04700 28.70300
C  30.34400 3.80200 31.88000
O  29.20600 3.96000 32.32200
C  31.59100 3.55800 32.77500
C  31.74100 4.78500 33.67400
O  32.04700 5.90600 33.29400
O  31.48100 4.56200 34.97800
C  31.62000 5.74200 35.83500
H  38.24500 1.97500 31.84800
H  37.15800 2.38100 25.39500
H  31.11600 3.76300 26.24700
H  34.46100 3.72600 34.08600
H  36.53200 1.70000 33.83900
H  36.39400 4.49400 34.49000
H  37.69000 4.30500 33.27400
H  37.65500 3.23700 34.70600
H  34.71600 0.83700 34.32600
H  33.07200 1.27600 33.81000
H  33.41000 0.79400 36.33200
H  32.61700 2.27800 35.88000
H  40.88900 1.14200 29.54500
H  40.13500 1.94900 30.89300
H  40.81400 2.97600 29.74400
H  41.29400 0.72300 27.40300
H  41.74400 2.26700 27.71800
H  41.78800 1.69600 25.91200
H  34.84600 2.24900 23.98800
H  33.02900 4.37200 24.45500
H  36.00500 4.75400 24.75500
H  34.92000 4.91700 23.38400
H  36.30100 3.84300 23.21700
H  32.44000 2.22800 23.14000
H  31.26400 2.80500 24.20900
H  32.38500 0.25100 23.89300
H  31.37300 0.80900 25.33000
H  33.11600 0.73900 25.42900
H  29.07300 5.02100 28.21300
H  28.45900 4.16000 29.57000
H  28.90200 3.27600 27.96100
H  31.39800 2.67000 33.37800
H  31.07500 5.52800 36.75500
H  31.25500 6.69000 35.43900
H  32.69400 5.83900 35.99300
Mg 6.61300 53.22600 40.94100
C  5.72300 49.79400 40.46800
C  9.55300 52.71100 39.60900
C  6.89800 56.54000 41.06300
C  3.05800 53.67400 41.82600
N  7.39700 51.41200 39.98500
C  6.93000 50.14700 39.87100
C  8.03100 49.29900 39.24400
C  9.35000 50.09400 39.62500
C  8.75800 51.52000 39.73100
C  10.08600 49.74000 40.92900
C  8.01100 48.87900 37.78600
C  7.49300 49.90300 36.73000
H  6.69700 49.31800 35.55600
N  8.08500 54.49500 40.46000
C  9.30200 54.10200 39.87400
C  10.15600 55.24400 39.90200
C  9.37200 56.36200 40.23200
C  8.05000 55.84200 40.62000
C  11.57500 55.12900 39.42400
C  9.86400 57.77700 40.18700
O  11.06400 57.99100 39.95400
C  9.00900 58.95800 40.41600
N  5.07000 54.88800 41.29300
C  5.54900 56.13300 41.41700
C  4.38800 57.12000 41.75100
C  3.18200 56.17200 42.08900
C  3.77500 54.81500 41.61800
C  4.58100 58.06800 42.98500
C  1.75100 56.51800 41.49800
C  1.32600 55.97200 40.10100
N  4.77100 52.01900 41.30000
C  3.47000 52.35100 41.69400
C  2.70000 51.16700 42.05400
C  3.54300 50.18500 41.47600
C  4.77600 50.73600 41.03000
C  1.31600 50.99600 42.61700
C  3.60900 48.77700 41.12600
O  2.80500 47.87900 41.32500
C  5.07900 48.45100 40.51700
C  4.89000 47.84200 39.18900
O  4.42600 48.40000 38.19900
O  5.19300 46.52100 39.22000
C  5.03000 45.74900 37.99100
H  10.58900 52.58000 39.29000
H  6.98500 57.61100 41.25900
H  2.03200 53.83200 42.16600
H  8.22600 48.36500 39.77000
H  10.14000 49.96600 38.88400
H  11.17100 49.72400 40.82600
H  9.71800 48.77800 41.28600
H  9.78600 50.52000 41.62900
H  7.33100 48.03200 37.69300
H  9.02600 48.63300 37.47200
H  8.31900 50.43200 36.25400
H  6.89700 50.69800 37.17700
H  11.64600 55.89100 38.64800
H  11.85100 54.13600 39.07000
H  12.35200 55.38400 40.14500
H  9.54200 59.77700 39.93300
H  8.93400 59.20800 41.47400
H  8.06500 58.82400 39.88800
H  4.13900 57.58500 40.79700
H  3.11600 55.93300 43.15000
H  3.81800 58.02100 43.76200
H  4.45500 59.03400 42.49500
H  5.56900 57.99700 43.43900
H  1.76500 57.59900 41.35600
H  0.90800 56.23600 42.12900
H  1.10000 56.82600 39.46300
H  0.44400 55.33100 40.12700
H  2.16700 55.52000 39.57700
H  1.40200 50.21700 43.37400
H  0.60600 50.66100 41.86100
H  0.78800 51.87000 42.99900
H  5.51600 47.68500 41.15700
H  4.49100 44.81500 38.15400
H  6.00500 45.48500 37.58300
H  4.51900 46.24600 37.16600

