158

Mg 44.96300 5.43600 47.86000
C  42.92100 8.14700 46.85500
C  42.20200 3.33700 47.19700
C  46.98300 2.82600 47.99700
C  47.67700 7.55800 47.70800
N  42.88500 5.70000 47.01000
C  42.21900 6.90700 46.78200
C  40.81100 6.65200 46.22500
C  40.57500 5.23600 46.75100
C  41.97700 4.72800 47.00400
C  39.58400 4.99100 47.89300
C  40.76900 6.83800 44.64200
C  39.60000 7.73000 44.09500
H  38.74100 7.15800 43.00200
N  44.61800 3.33100 47.73400
C  43.43700 2.70700 47.46600
C  43.65700 1.31700 47.66900
C  45.00900 1.15000 47.98600
C  45.63200 2.47800 47.97000
C  42.57700 0.30400 47.38600
C  45.65900 -0.16500 48.33000
O  44.99600 -1.24200 48.19500
C  47.05500 -0.32800 48.93500
N  47.05600 5.22500 47.87500
C  47.66600 4.06500 47.96800
C  49.16100 4.16000 48.08700
C  49.41500 5.74400 48.00400
C  47.93900 6.27000 47.89100
C  49.59600 3.43500 49.31700
C  50.29600 6.09700 46.71800
C  51.81900 6.09100 47.05400
N  45.26100 7.48500 47.70500
C  46.45900 8.20800 47.58400
C  46.16900 9.62500 47.30200
C  44.73200 9.64000 47.17700
C  44.31300 8.29200 47.20400
C  47.18100 10.72800 47.22100
C  43.64700 10.51400 46.84200
O  43.57700 11.70200 46.66500
C  42.38000 9.57100 46.67700
C  41.38700 9.86900 47.64100
O  41.44500 9.39900 48.78900
O  40.21900 10.55800 47.18800
C  39.06800 10.51500 48.00200
H  41.27200 2.77300 47.10600
H  47.63500 1.96200 47.85200
H  48.54500 8.19700 47.53200
H  40.06200 7.30500 46.67400
H  40.09300 4.62500 45.98800
H  40.05600 4.97100 48.87600
H  39.03400 4.05800 47.76700
H  38.86700 5.81100 47.91000
H  40.92200 5.84400 44.22200
H  41.68900 7.38800 44.44600
H  40.09200 8.59300 43.64500
H  38.96000 8.10700 44.89200
H  41.56800 0.68400 47.22600
H  42.37200 -0.42100 48.17300
H  42.78800 -0.39400 46.57500
H  47.74100 -0.43100 48.09400
H  47.12500 -1.23400 49.53800
H  47.28500 0.61400 49.43300
H  49.66400 3.70500 47.23400
H  50.02700 6.04200 48.85500
H  49.79100 2.37700 49.14300
H  48.94400 3.55700 50.18200
H  50.50800 3.99600 49.52600
H  49.96600 7.06900 46.35200
H  50.00000 5.50100 45.85500
H  52.41100 5.87200 46.16600
H  52.09100 5.30100 47.75400
H  52.22100 7.05900 47.35400
H  47.93100 10.36600 46.51900
H  47.54100 11.04200 48.20100
H  46.69600 11.57000 46.72600
H  41.89000 9.74900 45.71900
H  39.05800 11.29000 48.76800
H  39.00500 9.55300 48.51000
H  38.27800 10.73000 47.28200
Mg 49.70300 45.71800 42.85100
C  46.39800 46.34100 41.89100
C  49.54700 42.75800 41.12100
C  53.19200 45.66800 42.67700
C  49.81400 48.97400 44.04200
N  48.15200 44.68500 41.67400
C  46.83500 45.03500 41.48500
C  46.07200 43.93900 40.69900
C  47.02600 42.71200 40.64900
C  48.36600 43.44900 41.11000
C  46.51500 41.55400 41.57900
C  45.66100 44.52800 39.24500
C  44.30400 44.03500 38.77000
H  44.19600 43.07700 37.59900
N  51.13900 44.33300 42.16600
C  50.85000 43.20100 41.54300
C  52.08600 42.45000 41.37800
C  53.15600 43.18900 42.03800
C  52.49400 44.45700 42.37700
C  52.19200 41.14200 40.76900
C  54.56600 42.76600 42.18800
O  54.93000 41.71800 41.67800
C  55.55200 43.55000 42.89800
N  51.25400 47.10600 43.24000
C  52.61200 46.79500 43.20900
C  53.50300 48.06100 43.53300
C  52.38900 49.05200 44.20000
C  51.05400 48.34600 43.87100
C  54.76800 47.82400 44.42400
C  52.42500 50.55200 43.70200
C  52.10000 51.56200 44.83300
N  48.33700 47.33400 43.07200
C  48.53900 48.55000 43.66300
C  47.35900 49.33700 43.57500
C  46.42600 48.46300 42.91400
C  47.14000 47.22600 42.58800
C  47.20600 50.79800 44.04500
C  45.03700 48.38800 42.44900
O  44.06700 49.10800 42.56100
C  45.01600 47.02100 41.69500
C  43.97700 46.25600 42.42900
O  44.13000 45.90400 43.60900
O  42.87600 46.05000 41.67500
C  41.83200 45.28700 42.31400
H  49.62500 41.74800 40.71400
H  54.26100 45.53900 42.49900
H  49.88200 50.02100 44.34300
H  45.27200 43.65300 41.38300
H  47.02500 42.22900 39.67200
H  47.36900 40.92200 41.82300
H  45.79100 40.96300 41.01800
H  46.02200 41.92400 42.47800
H  46.38900 44.23100 38.48900
H  45.68200 45.61800 39.25600
H  43.66800 44.90000 38.58600
H  43.83200 43.49000 39.58800
H  52.48200 41.20600 39.72000
H  51.24300 40.61300 40.69200
H  52.83500 40.47700 41.34600
H  55.16300 43.78900 43.88800
H  55.88000 44.45200 42.38200
H  56.39500 42.88200 43.07300
H  53.82000 48.39000 42.54400
H  52.49800 48.93100 45.27800
H  54.76200 48.42500 45.33300
H  55.63300 48.15500 43.84900
H  54.93100 46.79000 44.73100
H  51.74300 50.78200 42.88300
H  53.42500 50.65400 43.28100
H  51.24000 52.13300 44.48300
H  53.02200 52.14000 44.76300
H  51.85700 51.11900 45.79900
H  47.93200 51.02200 44.82600
H  46.19000 50.99900 44.38500
H  47.42900 51.46600 43.21300
H  44.87300 47.17300 40.62500
H  41.14900 44.73300 41.67100
H  41.24700 46.08100 42.77800
H  42.25500 44.59300 43.04100

