158

Mg 24.85200 -4.30100 45.71500
C  27.16600 -2.11200 44.17300
C  22.46000 -3.48400 43.26300
C  22.76900 -7.00900 46.60000
C  27.26100 -5.55900 47.83700
N  24.87900 -2.93100 43.86000
C  25.93400 -2.11000 43.47700
C  25.52900 -1.25700 42.32100
C  23.95100 -1.58500 42.14300
C  23.68700 -2.72800 43.14700
C  22.91900 -0.38500 42.37900
C  26.41000 -1.48500 41.02800
C  26.12400 -0.49600 39.85100
H  25.87900 -1.06500 38.45800
N  22.87800 -5.06900 45.10100
C  22.05500 -4.49900 44.16600
C  20.79000 -5.27600 44.07900
C  20.88900 -6.34100 44.98800
C  22.20100 -6.21900 45.60100
C  19.70900 -4.93400 43.15100
C  19.77600 -7.35700 45.20300
O  18.85600 -7.44900 44.41600
C  19.79000 -8.36800 46.30100
N  25.02700 -6.07600 46.93700
C  24.02100 -7.00100 47.17500
C  24.57300 -8.09700 48.11700
C  25.94200 -7.57900 48.65000
C  26.07900 -6.29800 47.80600
C  23.52200 -8.52200 49.15900
C  27.09500 -8.61600 48.62400
C  27.54200 -9.26500 49.99100
N  26.79800 -3.87000 46.06500
C  27.69300 -4.46300 46.95700
C  28.89200 -3.77900 46.80400
C  28.81800 -2.85500 45.72000
C  27.50400 -2.97900 45.29100
C  30.10000 -4.17400 47.66400
C  29.47900 -1.96200 44.85600
O  30.65200 -1.59800 44.72500
C  28.40100 -1.29000 43.93400
C  28.24600 0.10400 44.34000
O  27.75800 0.49100 45.42200
O  28.66400 0.92800 43.29200
C  28.70800 2.27600 43.62300
H  21.66600 -3.17500 42.58000
H  22.20600 -7.93600 46.73000
H  28.07400 -5.82600 48.51500
H  25.55700 -0.19300 42.55300
H  23.82800 -1.99900 41.14200
H  23.43400 0.50100 42.75100
H  22.16500 -0.67500 43.11100
H  22.40800 -0.02800 41.48500
H  26.35900 -2.54500 40.77700
H  27.41500 -1.19300 41.33200
H  26.98000 0.17700 39.80800
H  25.34400 0.17500 40.21200
H  19.87700 -5.55000 42.26800
H  19.64300 -3.87700 42.89200
H  18.72000 -5.10800 43.57400
H  20.40300 -9.23400 46.05000
H  18.77700 -8.74900 46.42500
H  20.00300 -7.93300 47.27800
H  24.80700 -8.94900 47.48000
H  25.72500 -7.12400 49.61600
H  23.87500 -8.31000 50.16900
H  23.43800 -9.60100 49.02700
H  22.52700 -8.09100 49.05300
H  27.93900 -8.04600 48.23700
H  26.86200 -9.44800 47.96000
H  26.95300 -8.81600 50.79100
H  28.58400 -9.00900 50.18200
H  27.40400 -10.34700 49.99300
H  30.35900 -5.23300 47.63600
H  30.01400 -3.78200 48.67700
H  30.85600 -3.66800 47.06400
H  28.74400 -1.38500 42.90400
H  28.10800 2.67000 44.44400
H  28.34600 2.77500 42.72400
H  29.75400 2.51500 43.81000
Mg 26.92400 49.92300 26.23100
C  25.02500 51.08200 29.04900
C  29.43400 49.07900 28.41000
C  28.57800 48.82800 23.69400
C  24.40500 51.19700 24.17300
N  27.28100 50.38500 28.55100
C  26.23600 50.48700 29.46000
C  26.57500 49.88200 30.81400
C  28.02200 49.44800 30.66700
C  28.31100 49.62900 29.12000
C  29.13100 50.06500 31.50300
C  25.54500 48.79600 31.25300
C  25.02500 48.96000 32.66900
H  25.79200 49.83700 33.65600
N  28.79900 49.23700 26.02500
C  29.68900 48.91000 27.02600
C  30.85800 48.32000 26.43500
C  30.67700 48.34800 25.01400
C  29.28500 48.84100 24.88300
C  32.13100 47.79700 27.24200
C  31.69300 47.97400 23.94200
O  31.46400 48.14600 22.74900
C  33.03000 47.39600 24.30400
N  26.68900 50.26400 24.13600
C  27.43700 49.45800 23.26800
C  26.70200 49.36000 21.94500
C  25.44800 50.14500 22.03800
C  25.49000 50.50600 23.52400
C  27.65100 49.61500 20.68800
C  24.11400 49.51500 21.51200
C  23.36900 50.39000 20.43500
N  25.14700 50.97400 26.45400
C  24.18500 51.38900 25.58200
C  23.12500 52.11800 26.28900
C  23.42900 51.99700 27.64100
C  24.65100 51.29900 27.71100
C  22.02700 52.81500 25.65500
C  22.86400 52.30000 28.87600
O  21.90500 52.95400 29.18300
C  23.88100 51.70800 29.91100
C  24.40300 52.86300 30.72000
O  25.13800 53.74600 30.31800
O  23.69300 52.87500 31.92000
C  24.12200 54.03000 32.75000
H  30.20700 48.68600 29.07400
H  28.91600 48.11800 22.93700
H  23.52100 51.46000 23.58800
H  26.46400 50.66500 31.56500
H  28.06200 48.37000 30.82600
H  30.11200 50.08800 31.03100
H  29.30000 49.64700 32.49600
H  28.86900 51.10700 31.68600
H  25.93500 47.77900 31.20900
H  24.71800 48.80600 30.54300
H  25.03000 48.01400 33.21000
H  23.98300 49.26000 32.55800
H  33.00700 48.32600 26.86500
H  32.31100 46.72900 27.11900
H  32.18400 48.05200 28.30000
H  33.58700 48.15300 24.85600
H  33.52300 47.10400 23.37700
H  32.66800 46.57600 24.92500
H  26.35900 48.32700 21.87500
H  25.49700 51.18000 21.70100
H  28.63500 49.69600 21.15000
H  27.27400 50.45600 20.10500
H  27.61500 48.86300 19.89900
H  23.49700 49.30700 22.38600
H  24.40600 48.63800 20.93400
H  23.75500 51.38200 20.20000
H  22.29200 50.41500 20.60600
H  23.44100 49.82700 19.50500
H  21.78600 52.37600 24.68700
H  22.20900 53.85100 25.37100
H  21.17200 52.72600 26.32500
H  23.37700 50.92600 30.47900
H  24.00900 55.01100 32.28800
H  25.17200 53.96000 33.03500
H  23.53200 53.97900 33.66500

