158

Mg 27.29400 51.21200 26.59100
C  25.36400 52.25800 29.17600
C  29.66300 50.03800 28.91800
C  29.46000 50.43600 24.03400
C  25.01800 52.45500 24.32000
N  27.45100 50.99000 28.73600
C  26.49500 51.52700 29.60600
C  26.79000 51.12500 31.01700
C  28.31400 50.67600 30.93500
C  28.51100 50.58500 29.42700
C  29.24600 51.75000 31.54200
C  25.72500 50.08400 31.48700
C  25.08600 50.07200 32.88500
H  26.05000 50.37600 34.05500
N  29.24500 50.25000 26.50000
C  30.01900 49.80300 27.56200
C  31.21700 49.14600 27.05400
C  31.17000 49.41000 25.61000
C  29.91100 50.11500 25.31700
C  32.35000 48.49800 27.91000
C  32.26600 49.16700 24.63400
O  32.21800 49.47400 23.40800
C  33.52100 48.51000 25.02600
N  27.33700 51.61600 24.51600
C  28.34700 51.15600 23.67800
C  27.84900 51.07500 22.22800
C  26.40900 51.66700 22.30700
C  26.19200 51.90800 23.81400
C  28.78200 51.90200 21.25800
C  25.38400 50.74400 21.79200
C  24.90100 49.51600 22.58600
N  25.49000 52.09900 26.70600
C  24.63300 52.52900 25.72700
C  23.54600 53.32200 26.28100
C  23.74300 53.15600 27.68800
C  24.93500 52.43500 27.88300
C  22.52000 54.13600 25.50200
C  23.20200 53.45200 28.95400
O  22.18600 54.03800 29.22800
C  24.17400 52.78000 29.98100
C  24.58900 53.78000 31.01800
O  25.42000 54.67900 30.78400
O  24.02500 53.59700 32.24600
C  24.29100 54.54000 33.33900
H  30.29500 49.54300 29.65800
H  30.05900 50.06400 23.20000
H  24.21600 52.67900 23.61400
H  26.82500 52.04100 31.60600
H  28.62500 49.66400 31.19200
H  30.26800 51.50800 31.25100
H  29.25300 51.61300 32.62300
H  29.07600 52.79000 31.26400
H  26.34300 49.18700 31.45000
H  24.99200 49.89100 30.70400
H  24.72700 49.06100 33.07700
H  24.19300 50.69600 32.86300
H  32.25900 47.41600 27.82300
H  32.17800 48.58900 28.98300
H  33.29700 48.99900 27.71200
H  33.37700 47.61600 25.63200
H  34.26900 49.08100 25.57500
H  34.01000 48.23100 24.09200
H  27.76900 50.01500 21.99000
H  26.35500 52.58800 21.72600
H  29.75300 52.17900 21.66900
H  28.30200 52.76300 20.79200
H  29.09800 51.35400 20.37100
H  25.73700 50.38000 20.82700
H  24.50800 51.32900 21.51300
H  25.70300 49.27400 23.28200
H  24.82200 48.58100 22.03100
H  24.05100 49.71400 23.23900
H  22.81700 55.14000 25.20100
H  21.74000 54.29800 26.24600
H  22.24100 53.68400 24.55100
H  23.48300 52.03700 30.37900
H  24.86000 55.40600 32.99900
H  24.88900 53.95500 34.03800
H  23.35000 54.90600 33.74800
Mg -11.78900 16.90600 41.14600
C  -8.63800 15.17800 40.97500
C  -10.17300 19.59800 39.80500
C  -14.78900 18.19600 40.53500
C  -13.31900 13.78000 42.01100
N  -9.60600 17.34200 40.55400
C  -8.52000 16.53800 40.63900
C  -7.23500 17.23400 40.06800
C  -7.73200 18.68000 39.88100
C  -9.29400 18.56600 40.14900
C  -7.11600 19.71300 40.97000
C  -6.68400 16.60600 38.67400
C  -5.13100 16.79800 38.58100
H  -4.63500 17.15800 37.18300
N  -12.40500 18.72000 40.36300
C  -11.57500 19.69100 39.83200
C  -12.40500 20.78800 39.35000
C  -13.76000 20.44000 39.57000
C  -13.71500 19.07600 40.16100
C  -11.75100 22.08600 38.85400
C  -15.02600 21.28600 39.18800
O  -14.87700 22.36500 38.68900
C  -16.31700 20.86200 39.42300
N  -13.77700 16.07600 41.21600
C  -14.80500 16.91900 41.12600
C  -16.12100 16.13400 41.47300
C  -15.64300 14.82600 42.21300
C  -14.16000 14.85100 41.77900
C  -17.18700 16.89500 42.32600
C  -16.39000 13.47800 41.78300
C  -16.16000 13.03700 40.40500
N  -11.14100 14.90100 41.43600
C  -11.85800 13.74300 41.73000
C  -10.98000 12.59200 41.81900
C  -9.71200 13.14100 41.49700
C  -9.85500 14.52700 41.33900
C  -11.37200 11.13500 42.04100
C  -8.30500 12.78600 41.38600
O  -7.68900 11.76600 41.55800
C  -7.58300 14.03200 40.96300
C  -6.44900 14.21000 41.85000
O  -6.63800 14.53800 43.00500
O  -5.25400 13.90300 41.28000
C  -4.14800 14.08100 42.18900
H  -9.61100 20.47300 39.47200
H  -15.74600 18.70300 40.39900
H  -13.78300 12.86800 42.39400
H  -6.44600 17.20400 40.81900
H  -7.53900 19.10900 38.89700
H  -6.40700 19.11200 41.53900
H  -7.83000 20.16100 41.66100
H  -6.66700 20.53400 40.41100
H  -7.07700 17.08200 37.77600
H  -7.08500 15.59300 38.62500
H  -4.76700 15.80500 38.84500
H  -4.93500 17.48100 39.40800
H  -11.75800 22.14500 37.76500
H  -10.71000 22.23900 39.13900
H  -12.33400 22.87200 39.33300
H  -16.60000 19.92300 38.94600
H  -16.96900 21.62000 38.99000
H  -16.62600 20.78800 40.46600
H  -16.52000 15.83800 40.50300
H  -15.69900 14.89100 43.30000
H  -17.05300 17.97700 42.33200
H  -17.27700 16.49400 43.33600
H  -18.16100 16.73900 41.86300
H  -17.42700 13.70800 42.02800
H  -16.01700 12.75000 42.50400
H  -15.66000 12.06900 40.38700
H  -15.56000 13.74600 39.83500
H  -17.10100 12.87900 39.87700
H  -10.86500 10.85100 42.96200
H  -11.02400 10.55900 41.18300
H  -12.41600 10.86000 42.19200
H  -7.08100 13.87200 40.00800
H  -4.18000 14.96900 42.82100
H  -3.23200 14.24300 41.62300
H  -4.02200 13.22000 42.84500

