158

Mg 49.41100 34.89300 26.62400
C  47.32300 33.53800 29.30500
C  50.09700 37.59400 28.66600
C  50.90900 36.26700 24.07000
C  48.76500 31.92600 24.95100
N  48.77900 35.44800 28.73700
C  48.00800 34.71200 29.65700
C  47.99300 35.46100 30.98600
C  48.47100 36.87600 30.58100
C  49.14300 36.64900 29.21000
C  47.37300 38.01600 30.76400
C  48.99700 34.84700 32.00100
C  48.65900 34.99900 33.51200
H  47.43500 35.90000 33.82200
N  50.38500 36.66600 26.32800
C  50.60100 37.65700 27.33800
C  51.34300 38.75000 26.79400
C  51.62500 38.36000 25.45000
C  50.99400 37.01700 25.26800
C  51.72600 40.02000 27.56500
C  52.56100 39.06100 24.34700
O  52.75900 38.57200 23.22200
C  53.32900 40.31400 24.70900
N  49.82400 34.21700 24.79600
C  50.43800 34.98800 23.86900
C  50.63000 34.26200 22.53100
C  50.02800 32.82900 22.77400
C  49.50700 33.01000 24.31100
C  49.95600 35.03500 21.37200
C  50.92200 31.60800 22.75300
C  50.64200 30.75900 21.54300
N  48.31000 33.06900 26.94800
C  48.17000 31.96300 26.20800
C  47.20500 31.03500 26.78500
C  46.85100 31.67600 27.95400
C  47.59000 32.90700 28.08300
C  46.57300 29.74500 26.17700
C  45.93000 31.53900 29.04600
O  45.06500 30.68200 29.18200
C  46.19800 32.80300 29.98000
C  46.41300 32.24000 31.39600
O  47.36800 31.67800 31.77400
O  45.28100 32.43100 32.13200
C  45.03200 31.75600 33.41300
H  50.26700 38.45800 29.31200
H  51.36500 36.62300 23.14400
H  48.65800 31.06600 24.28600
H  46.95400 35.50100 31.31100
H  49.30800 37.14300 31.22700
H  47.59000 38.72700 31.56100
H  46.39200 37.56800 30.92200
H  47.18800 38.68300 29.92200
H  49.96000 35.34900 31.91600
H  49.16300 33.77000 31.98900
H  49.50400 35.38800 34.07900
H  48.27200 34.02000 33.79600
H  50.99600 40.19800 28.35500
H  51.49500 40.83300 26.87700
H  52.79100 40.04400 27.79500
H  52.79200 41.21000 24.39800
H  54.33100 40.21900 24.28900
H  53.44900 40.16000 25.78100
H  51.68200 34.13000 22.27700
H  49.19100 32.74700 22.08100
H  50.09800 34.52100 20.42100
H  50.33900 36.05500 21.35600
H  48.87200 35.04100 21.48100
H  50.87400 31.07300 23.70200
H  51.95900 31.93500 22.68200
H  51.41800 30.94500 20.80000
H  49.62000 30.88900 21.18800
H  50.90700 29.75200 21.86300
H  47.03000 28.94500 26.76000
H  46.85500 29.73700 25.12400
H  45.50000 29.61000 26.31300
H  45.38300 33.51200 30.12900
H  45.02900 32.52500 34.18600
H  45.80300 31.02400 33.65300
H  44.11200 31.17100 33.44100
Mg 0.96000 42.47900 25.31700
C  1.92000 42.44600 28.78000
C  -1.84200 41.01000 26.24200
C  0.64000 41.88400 22.13900
C  4.11500 43.91200 24.61900
N  0.06600 42.00400 27.30000
C  0.58200 42.22600 28.55200
C  -0.47500 42.02000 29.59400
C  -1.68200 41.31200 28.79800
C  -1.16500 41.45600 27.33900
C  -2.03300 39.84600 29.23800
C  -0.99600 43.30600 30.24800
C  -1.44500 43.39400 31.71800
H  -1.84900 42.07800 32.38700
N  -0.46000 41.68700 24.32200
C  -1.47900 41.07100 24.85400
C  -2.30500 40.45800 23.83200
C  -1.64400 40.69000 22.59400
C  -0.41700 41.46900 22.94400
C  -3.47600 39.65700 24.31100
C  -1.98300 40.27500 21.17500
O  -1.22900 40.50200 20.22000
C  -3.45700 39.68100 20.91100
N  2.17000 42.97800 23.62800
C  1.77600 42.59100 22.38100
C  2.62700 43.12800 21.24200
C  3.63300 43.96500 22.13600
C  3.34300 43.58200 23.52300
C  3.28600 42.07900 20.30900
C  3.56500 45.49400 21.92600
C  4.11900 45.85900 20.55900
N  2.72800 42.95800 26.38900
C  3.97300 43.48900 25.93000
C  4.91300 43.57000 27.07800
C  4.12800 43.13800 28.18800
C  2.84900 42.73500 27.67300
C  6.29700 44.25300 27.02200
C  4.12600 42.99600 29.61500
O  5.05100 43.02300 30.43600
C  2.71200 42.73300 30.02300
C  2.68300 41.57100 30.91400
O  2.87700 40.42900 30.59800
O  2.38100 41.99200 32.18100
C  2.19600 40.88500 33.12300
H  -2.83400 40.64700 26.51800
H  0.58000 41.69000 21.06600
H  5.06100 44.40400 24.38100
H  -0.19700 41.33200 30.39200
H  -2.52900 41.99500 28.73500
H  -1.77700 39.23000 28.37600
H  -3.05800 39.63500 29.54300
H  -1.41300 39.53000 30.07800
H  -1.75700 43.81000 29.65200
H  -0.16500 44.00700 30.17800
H  -2.09100 44.27100 31.74400
H  -0.52000 43.71900 32.19500
H  -3.98700 38.97800 23.62900
H  -4.06200 40.44700 24.78100
H  -3.10700 38.89000 24.99200
H  -4.14700 40.30200 21.48200
H  -3.51200 38.69700 21.37700
H  -3.90400 39.75800 19.91900
H  2.12400 43.91700 20.68200
H  4.67900 43.70600 21.97200
H  4.36400 42.10400 20.47000
H  3.04700 42.05300 19.24600
H  3.02000 41.08200 20.66100
H  4.36700 45.86800 22.56200
H  2.62100 45.95200 22.22400
H  4.99800 46.50100 20.60900
H  3.41400 46.54300 20.08700
H  4.19600 45.04700 19.83700
H  6.98400 43.81400 27.74600
H  6.16600 45.31800 27.21500
H  6.78100 44.17200 26.04900
H  2.26100 43.56700 30.56000
H  3.19900 40.78700 33.53900
H  1.89700 39.97500 32.60200
H  1.49300 41.22900 33.88100

