158

Mg 44.05700 5.32400 47.06500
C  42.23800 8.34400 46.80000
C  41.14500 3.66900 46.28000
C  45.96100 2.61200 46.67200
C  46.99600 7.35500 46.87700
N  41.98800 5.99500 46.43200
C  41.51000 7.24000 46.57700
C  39.93000 7.21100 46.50100
C  39.52900 5.70600 46.54400
C  41.01300 5.09100 46.43400
C  38.89700 5.28100 47.89700
C  39.37100 7.99500 45.29100
C  40.08700 8.00200 43.91000
H  39.25700 7.38300 42.75400
N  43.58400 3.43100 46.62800
C  42.35300 2.93800 46.35000
C  42.46400 1.56600 46.03000
C  43.79000 1.19500 46.23800
C  44.50600 2.44000 46.61200
C  41.28400 0.75900 45.39200
C  44.32000 -0.20600 45.90000
O  43.63000 -1.05600 45.35700
C  45.67000 -0.55800 46.16200
N  46.21300 4.98000 46.77100
C  46.69000 3.78100 46.81600
C  48.21200 3.77500 46.90800
C  48.50900 5.33300 47.09800
C  47.17600 5.92200 46.85900
C  48.82100 2.86200 48.10200
C  49.70300 6.00200 46.19600
C  50.97100 5.32200 46.23600
N  44.61200 7.36500 46.84900
C  45.78800 8.03200 46.93400
C  45.55000 9.44900 47.02900
C  44.23800 9.61400 47.00000
C  43.65100 8.36500 46.88500
C  46.62300 10.47300 47.09600
C  43.20100 10.55500 47.01900
O  43.27800 11.76900 46.98700
C  41.81700 9.82700 46.88500
C  40.96000 9.99800 47.99300
O  40.95400 9.33500 49.02300
O  40.10000 10.99700 47.65300
C  38.96200 11.11500 48.63900
H  40.13200 3.28000 46.15600
H  46.49600 1.69800 46.40700
H  47.95500 7.87500 46.82300
H  39.51700 7.71600 47.37500
H  39.05300 5.45500 45.59600
H  38.83200 5.99200 48.72100
H  39.34200 4.36700 48.29000
H  37.85300 5.13200 47.62200
H  39.13500 9.03900 45.49300
H  38.40300 7.52300 45.12000
H  40.87800 7.25400 43.96100
H  40.46400 8.96500 43.56400
H  41.33100 0.44200 44.35100
H  40.33500 1.22000 45.66800
H  41.36500 -0.18100 45.93700
H  45.69600 -1.63700 46.00800
H  45.89000 -0.38000 47.21500
H  46.22000 0.00200 45.40500
H  48.61400 3.46100 45.94500
H  48.70300 5.56700 48.14400
H  48.07800 2.29600 48.66500
H  49.49700 3.44500 48.72800
H  49.39700 2.10000 47.57600
H  49.93300 7.04600 46.40500
H  49.41600 5.86600 45.15300
H  51.84800 5.77300 46.70100
H  51.24800 5.08000 45.21000
H  50.85800 4.30200 46.60400
H  47.30100 10.18700 47.90000
H  46.24200 11.44900 47.39400
H  47.21100 10.50900 46.17900
H  41.28100 10.28700 46.05500
H  38.43400 12.05000 48.44500
H  39.38400 11.17300 49.64300
H  38.34200 10.22700 48.52100
Mg 46.44600 16.83800 27.43700
C  44.47900 16.56700 30.31300
C  48.46200 19.11000 29.23900
C  48.28100 17.35800 24.69700
C  43.95000 15.27200 25.58700
N  46.55900 17.63600 29.55500
C  45.69000 17.25700 30.56500
C  46.13600 17.97800 31.93900
C  47.32700 18.85800 31.52900
C  47.50200 18.47000 29.97800
C  47.04900 20.40900 31.66200
C  46.48700 16.92800 32.97300
C  47.13600 17.42700 34.29300
H  46.75200 18.81400 34.73800
N  48.30400 17.78400 27.13500
C  48.88700 18.70400 27.95600
C  50.16300 19.21900 27.26800
C  50.14700 18.64700 25.94600
C  48.92900 17.85500 25.88700
C  51.03800 20.25500 27.76800
C  51.11000 18.76000 24.80200
O  50.97500 18.18200 23.75500
C  52.33900 19.60000 24.95400
N  46.08100 16.47200 25.44600
C  47.07300 16.75300 24.52800
C  46.62600 16.38800 23.12200
C  45.21800 15.64500 23.34700
C  45.12600 15.66500 24.90700
C  46.61200 17.61500 22.08800
C  45.06000 14.22400 22.71400
C  43.88000 13.87600 21.72800
N  44.56800 16.01400 27.82500
C  43.63500 15.39600 26.94200
C  42.47100 15.09600 27.75300
C  42.74300 15.59100 29.03500
C  44.03400 16.11100 29.03600
C  41.31100 14.36300 27.27400
C  42.22600 15.55900 30.44500
O  41.23400 15.08200 30.92500
C  43.40100 16.21500 31.27100
C  42.72100 17.44900 31.87900
O  42.68600 18.54400 31.36500
O  42.26000 17.14200 33.14800
C  41.80800 18.35300 33.92000
H  48.98700 19.91400 29.75900
H  48.79900 17.60700 23.76900
H  43.18400 14.80700 24.96400
H  45.34500 18.63400 32.30600
H  48.23300 18.50600 32.02300
H  46.30600 20.56100 32.44600
H  46.53600 20.75700 30.76600
H  47.94500 21.01200 31.80500
H  47.20500 16.24300 32.52400
H  45.64700 16.34300 33.34800
H  48.18800 17.32600 34.02800
H  46.88500 16.83600 35.17400
H  50.82200 20.69400 28.74100
H  50.92500 21.06500 27.04800
H  52.04800 19.84600 27.73000
H  52.05600 20.61700 25.22500
H  53.00400 19.58200 24.09000
H  52.87400 19.18000 25.80500
H  47.34200 15.61000 22.85800
H  44.36200 16.26600 23.08300
H  46.83400 17.40600 21.04200
H  47.30200 18.34000 22.52000
H  45.60500 18.02900 22.13700
H  45.18500 13.52600 23.54100
H  45.93300 14.12600 22.06900
H  43.21800 13.06900 22.04100
H  44.38300 13.57300 20.81000
H  43.24200 14.70400 21.42000
H  41.01800 14.73300 26.29200
H  40.42900 14.56500 27.88200
H  41.45200 13.28400 27.21300
H  43.67300 15.54000 32.08200
H  40.73100 18.40100 33.75500
H  42.16100 19.35900 33.69200
H  42.17100 18.27700 34.94400

