158

Mg 25.75000 0.43700 29.15800
C  27.64000 -0.17200 32.04800
C  23.04400 1.11600 31.19500
C  24.03800 0.83200 26.39900
C  28.41500 -0.90100 27.25000
N  25.46600 0.74900 31.39300
C  26.39500 0.48600 32.36200
C  25.77200 0.54500 33.80100
C  24.25800 0.66600 33.45900
C  24.22100 0.98000 31.91000
C  23.38100 -0.51200 33.92500
C  26.32500 1.59500 34.79700
C  26.87100 1.00300 36.11100
H  26.74000 1.91400 37.30500
N  23.80700 0.91900 28.82100
C  22.81800 1.10000 29.81600
C  21.52500 1.23200 29.07700
C  21.81000 1.30000 27.65500
C  23.27800 1.06100 27.53900
C  20.21200 1.27300 29.75900
C  20.88900 1.41000 26.39700
O  21.24400 1.18800 25.21900
C  19.46300 1.79700 26.58400
N  26.22400 0.08900 27.12800
C  25.36400 0.38400 26.16000
C  26.01900 0.52300 24.78800
C  27.34800 -0.33600 24.93300
C  27.41700 -0.31200 26.55100
C  25.10500 0.03000 23.66500
C  28.54900 0.31500 24.27500
C  29.40300 1.47200 24.95200
N  27.64900 -0.19300 29.49500
C  28.61900 -0.78400 28.64900
C  29.69500 -1.29100 29.40100
C  29.33700 -1.01200 30.69700
C  28.09800 -0.43800 30.73700
C  30.95000 -1.99700 28.78500
C  29.86700 -1.12600 32.02700
O  30.97300 -1.63600 32.37000
C  28.75000 -0.62600 32.98700
C  28.43000 -1.65100 33.98600
O  27.54100 -2.41700 33.87700
O  29.26200 -1.61400 35.05100
C  29.01900 -2.45700 36.17500
H  22.12100 1.30300 31.74800
H  23.61500 0.99400 25.40500
H  29.27200 -1.22600 26.65600
H  25.95200 -0.44400 34.22300
H  23.81200 1.54800 33.91900
H  23.32600 -1.26200 33.13700
H  22.40700 -0.11500 34.21000
H  23.73400 -1.11900 34.75900
H  25.70900 2.45600 35.05500
H  27.18000 1.98400 34.24500
H  27.86700 0.62100 35.88600
H  26.37400 0.08200 36.41800
H  19.51200 0.48400 29.48500
H  19.75800 2.18700 29.37600
H  20.23400 1.17000 30.84400
H  18.86200 2.04500 25.70900
H  19.23800 2.63200 27.24700
H  18.95300 0.91300 26.96800
H  26.36700 1.54600 24.63800
H  27.17800 -1.37900 24.66700
H  24.33900 -0.61300 24.09800
H  25.66300 -0.39600 22.83100
H  24.40300 0.76400 23.27100
H  28.25400 0.62900 23.27300
H  29.23400 -0.52200 24.13200
H  28.94600 1.90700 25.84100
H  29.44500 2.27100 24.21200
H  30.43900 1.16000 25.09000
H  31.56700 -1.26400 28.26700
H  30.52000 -2.61200 27.99400
H  31.52000 -2.57400 29.51300
H  29.20600 0.19900 33.53400
H  28.88500 -3.44900 35.74500
H  28.09100 -2.15600 36.66200
H  29.85600 -2.51300 36.87100
Mg 47.48800 14.94800 28.32400
C  45.16700 14.69500 30.92300
C  49.16000 17.48200 30.14000
C  49.82200 14.89000 25.90800
C  45.63500 12.54500 26.57900
N  47.06500 16.06900 30.30300
C  46.17600 15.64800 31.24000
C  46.44100 16.36100 32.60100
C  47.58300 17.38100 32.14700
C  47.97900 17.01100 30.74800
C  47.12000 18.89400 32.26200
C  46.83600 15.35400 33.76300
C  46.78700 15.98300 35.16900
H  47.71700 15.58100 36.30200
N  49.23500 16.10600 28.03800
C  49.80900 17.08000 28.89500
C  51.04900 17.41300 28.34400
C  51.26800 16.64100 27.13900
C  50.07800 15.79600 26.98000
C  51.90000 18.56400 28.96500
C  52.28800 16.82100 26.08300
O  52.39300 16.16200 25.06600
C  53.43800 17.80700 26.30600
N  47.61200 13.98800 26.41800
C  48.70100 14.12000 25.63200
C  48.75300 13.03200 24.58500
C  47.50700 12.10700 24.90000
C  46.86400 12.88400 26.01600
C  48.78900 13.67500 23.21700
C  47.75000 10.63500 25.37900
C  49.01900 9.99000 24.74900
N  45.70100 13.95900 28.51600
C  45.02300 13.02600 27.71500
C  43.84600 12.60200 28.35500
C  43.92100 13.17100 29.61800
C  45.03300 13.97600 29.65900
C  42.75500 11.75700 27.84900
C  43.22500 13.27900 30.88800
O  42.15400 12.77200 31.19900
C  44.07600 14.13700 31.82300
C  43.26500 15.14900 32.45100
O  42.56800 15.98400 31.88300
O  43.31600 14.96200 33.83800
C  42.68300 16.13100 34.53100
H  49.71000 18.19000 30.76300
H  50.61300 14.68200 25.18400
H  45.11100 11.77400 26.01000
H  45.55800 16.92500 32.90200
H  48.37900 17.14600 32.85400
H  46.99000 19.41300 31.31200
H  48.01300 19.40600 32.62200
H  46.35400 18.91800 33.03700
H  47.83400 14.97900 33.53700
H  46.16900 14.49800 33.86600
H  45.75300 15.82700 35.47400
H  46.68600 17.06500 35.08400
H  51.91800 19.25600 28.12300
H  52.89100 18.19800 29.23600
H  51.44700 19.01900 29.84700
H  54.02000 17.64400 27.21300
H  53.11800 18.83100 26.11400
H  54.12800 17.57000 25.49700
H  49.72100 12.53200 24.60800
H  46.80500 12.03400 24.06900
H  48.72800 14.76000 23.30300
H  47.89900 13.35000 22.67700
H  49.68700 13.42200 22.65400
H  46.87700 9.99400 25.25900
H  48.07900 10.75600 26.41100
H  48.76600 8.95700 24.51000
H  49.78400 9.83500 25.51000
H  49.51200 10.57900 23.97600
H  43.02400 10.86100 27.28900
H  42.13900 12.42500 27.24700
H  42.21800 11.47800 28.75600
H  44.41100 13.31500 32.45600
H  43.05700 16.24500 35.54800
H  41.63800 15.98900 34.80700
H  42.99300 17.07400 34.08100

