158

Mg 49.02000 35.78600 27.58000
C  47.03800 34.00300 29.84600
C  49.15000 38.30300 30.03000
C  50.88500 37.47000 25.51200
C  48.61400 33.22100 25.28800
N  48.13700 36.08900 29.67400
C  47.55000 35.16700 30.44400
C  47.48900 35.56200 31.90000
C  47.89900 37.08400 31.84900
C  48.42700 37.18000 30.42500
C  46.88400 38.20700 32.34200
C  48.45900 34.70000 32.71600
C  48.13400 34.40800 34.16600
H  47.05800 35.29700 34.88400
N  49.97600 37.57800 27.71100
C  49.96000 38.43800 28.80900
C  50.79200 39.51400 28.49000
C  51.28300 39.37700 27.16100
C  50.68200 38.12000 26.68200
C  50.95900 40.65200 29.50100
C  52.19700 40.39500 26.37600
O  52.59700 40.18300 25.24800
C  52.67300 41.69200 27.01900
N  49.51100 35.46900 25.51500
C  50.44100 36.28800 24.96900
C  50.88300 35.79300 23.57900
C  50.10300 34.39000 23.55000
C  49.35100 34.34600 24.86200
C  50.54000 36.72400 22.45600
C  50.92800 33.10800 23.23600
C  50.35100 32.11000 22.15100
N  48.04700 33.96000 27.43300
C  47.90000 33.04000 26.43900
C  47.02100 31.93600 26.88000
C  46.60700 32.34400 28.14900
C  47.28400 33.48200 28.52000
C  46.54200 30.74100 26.16200
C  45.75700 32.01400 29.31700
O  45.05700 31.01000 29.57000
C  46.05200 33.05800 30.44300
C  46.39800 32.20500 31.53800
O  47.23600 31.32900 31.53100
O  45.69700 32.60700 32.62700
C  45.73400 31.73300 33.75900
H  49.22900 38.97800 30.88500
H  51.67500 37.90100 24.89400
H  48.49100 32.37800 24.60400
H  46.45100 35.48200 32.22500
H  48.75900 37.14800 32.51500
H  46.03700 37.67800 32.77900
H  46.54600 38.64400 31.40200
H  47.28700 38.81000 33.15500
H  49.46100 35.12500 32.64200
H  48.62000 33.71100 32.28900
H  49.05800 34.62000 34.70300
H  48.07000 33.32000 34.18700
H  50.55000 40.52000 30.50300
H  50.56300 41.58000 29.09000
H  52.00600 40.94900 29.56600
H  53.21000 42.37600 26.36200
H  53.42400 41.34300 27.72700
H  51.87400 42.24400 27.51300
H  51.96000 35.64300 23.65300
H  49.32600 34.43700 22.78800
H  50.12200 36.15000 21.62900
H  51.44900 37.08900 21.97800
H  49.80100 37.44700 22.80100
H  51.09000 32.64200 24.20800
H  51.88400 33.51500 22.90700
H  50.35300 31.10000 22.56100
H  51.09400 32.07900 21.35400
H  49.37300 32.43500 21.79600
H  45.46900 30.81300 25.98100
H  46.71800 29.88800 26.81800
H  47.04600 30.59100 25.20800
H  45.12400 33.61100 30.58900
H  45.04200 30.91300 33.56500
H  45.40700 32.27100 34.64900
H  46.72700 31.36100 34.00900
Mg -12.39100 16.16000 43.15000
C  -9.39400 14.62100 42.14300
C  -11.31000 18.96000 41.60800
C  -15.54000 17.46200 43.53200
C  -13.55300 13.04600 44.10800
N  -10.55600 16.65100 41.92500
C  -9.38900 15.95800 41.76200
C  -8.26400 16.82200 41.23700
C  -8.91000 18.22800 41.37900
C  -10.35600 18.00000 41.63900
C  -8.23300 19.22500 42.30400
C  -7.92800 16.42500 39.73200
C  -6.47000 16.35400 39.51600
H  -5.98800 16.91000 38.19300
N  -13.35100 18.06100 42.65500
C  -12.68500 19.03800 41.98600
C  -13.54500 20.18200 41.86000
C  -14.85400 19.79600 42.42000
C  -14.63000 18.38400 42.89300
C  -13.17600 21.38200 41.03900
C  -16.09800 20.69100 42.37900
O  -16.03000 21.79500 41.91700
C  -17.44700 20.17100 42.86400
N  -14.29200 15.26700 43.54200
C  -15.36400 16.09200 43.79200
C  -16.55800 15.28500 44.46600
C  -15.96700 13.83100 44.60800
C  -14.51300 14.02300 43.99600
C  -17.14900 15.86300 45.77400
C  -16.90400 12.77900 43.88000
C  -16.43700 12.05900 42.63900
N  -11.54100 14.28300 43.43800
C  -12.15500 13.07100 43.79400
C  -11.23600 11.94000 43.58100
C  -10.10000 12.54600 43.03900
C  -10.40400 13.91500 42.87200
C  -11.48200 10.49800 44.00600
C  -8.76800 12.34600 42.56000
O  -8.07100 11.31500 42.61600
C  -8.24600 13.65600 41.96700
C  -7.01200 14.09800 42.67400
O  -6.90100 14.59700 43.81300
O  -5.92900 13.81700 41.83900
C  -4.62300 14.47900 42.08200
H  -10.82500 19.85300 41.20900
H  -16.55300 17.84900 43.65500
H  -13.98600 12.06100 44.29600
H  -7.37300 16.71500 41.85600
H  -8.96800 18.77200 40.43700
H  -7.19600 18.89000 42.31900
H  -8.57400 19.22200 43.33900
H  -8.19900 20.22300 41.86700
H  -8.30900 17.08000 38.94900
H  -8.34800 15.43100 39.57700
H  -6.12900 15.32000 39.58200
H  -5.87800 16.99000 40.17300
H  -12.09200 21.46100 40.95100
H  -13.60200 22.19300 41.62900
H  -13.75600 21.43600 40.11700
H  -17.40900 19.79000 43.88500
H  -17.71100 19.39400 42.14600
H  -18.24200 20.91400 42.93300
H  -17.35700 15.34800 43.72800
H  -15.76800 13.41600 45.59600
H  -16.48000 15.76000 46.62800
H  -18.05400 15.27000 45.90600
H  -17.52200 16.88500 45.70900
H  -17.90900 13.13700 43.66000
H  -17.21100 11.94800 44.51500
H  -15.58000 12.63000 42.28000
H  -17.21500 11.98300 41.87900
H  -16.06000 11.05100 42.81200
H  -10.90700 9.86900 43.32800
H  -12.53900 10.27800 44.15900
H  -10.93700 10.30500 44.93000
H  -7.90600 13.51100 40.94200
H  -4.50700 15.15700 41.23600
H  -3.81600 13.75600 42.19600
H  -4.58200 15.20700 42.89200

