158

Mg -2.54700 16.79300 27.36200
C  -3.37700 14.56900 29.83100
C  -3.01300 19.36700 29.63700
C  -2.04600 19.13000 24.91000
C  -2.76000 14.32100 24.96000
N  -3.26100 16.93000 29.38400
C  -3.43300 15.90100 30.20700
C  -3.74900 16.35800 31.66200
C  -3.63000 17.89600 31.56600
C  -3.27900 18.07600 30.09700
C  -4.84400 18.84800 32.02900
C  -2.83100 15.83300 32.85600
C  -2.74300 16.70200 34.18000
H  -2.79000 15.97400 35.46800
N  -2.55200 18.96900 27.28200
C  -2.69000 19.78300 28.37000
C  -2.44600 21.15200 27.94000
C  -2.22600 21.12500 26.48300
C  -2.25500 19.75400 26.16200
C  -2.42600 22.33700 28.84200
C  -1.91200 22.31100 25.57800
O  -1.70600 22.16100 24.37700
C  -1.80100 23.64800 26.15700
N  -2.49800 16.72300 25.29500
C  -2.19500 17.84100 24.56300
C  -2.34500 17.45700 23.11800
C  -2.31400 15.89800 23.07200
C  -2.56800 15.63300 24.50900
C  -3.67700 17.93800 22.46300
C  -0.99900 15.25000 22.57400
C  0.22300 15.64000 23.40200
N  -2.81600 14.78200 27.38000
C  -2.85200 13.88300 26.33800
C  -3.06900 12.59400 26.85400
C  -3.17100 12.72800 28.21100
C  -3.13300 14.09600 28.47500
C  -2.96700 11.37300 26.08000
C  -3.31400 12.09800 29.50000
O  -3.50700 10.92000 29.81200
C  -3.33800 13.25700 30.57100
C  -2.09800 13.26000 31.34600
O  -1.13500 13.95500 31.13500
O  -2.22500 12.26400 32.30600
C  -1.09400 12.18900 33.27600
H  -3.16000 20.19700 30.33200
H  -1.79800 19.86300 24.13900
H  -2.75000 13.54800 24.18800
H  -4.78400 16.08300 31.86700
H  -2.76500 18.31100 32.08400
H  -4.53200 19.75900 32.54200
H  -5.52100 18.31300 32.69500
H  -5.51900 19.10700 31.21400
H  -1.80800 15.87300 32.48300
H  -3.15600 14.83100 33.13500
H  -3.50400 17.47900 34.25500
H  -1.79300 17.23500 34.22300
H  -3.18100 23.06400 28.54100
H  -1.50400 22.91800 28.85600
H  -2.52400 22.18200 29.91700
H  -1.53300 24.36900 25.38500
H  -0.98400 23.65400 26.87800
H  -2.77000 23.93600 26.56400
H  -1.44400 17.83000 22.63100
H  -3.09000 15.42100 22.47100
H  -4.33500 18.59100 23.03500
H  -4.27900 17.13400 22.03800
H  -3.33100 18.45300 21.56700
H  -0.71000 15.59800 21.58300
H  -1.14800 14.18500 22.39800
H  0.01200 16.27700 24.26100
H  0.77900 16.25400 22.69400
H  0.85600 14.80600 23.70400
H  -2.36600 11.63500 25.20900
H  -3.96000 11.10100 25.72300
H  -2.53500 10.47600 26.52500
H  -4.13000 12.95800 31.25700
H  -0.76700 11.16800 33.47400
H  -1.50100 12.72200 34.13500
H  -0.12300 12.59800 33.00000
Mg 26.68300 50.32900 26.65500
C  24.66600 51.27300 29.25300
C  28.92800 49.04600 28.85400
C  28.86000 49.96500 24.19400
C  24.39800 51.83700 24.47600
N  26.68300 50.11500 28.75500
C  25.74400 50.52300 29.68500
C  26.22700 50.38800 31.15700
C  27.63000 49.81700 30.88500
C  27.74200 49.62000 29.44000
C  28.84000 50.55400 31.37600
C  25.26200 49.61800 32.02800
C  24.92800 50.29700 33.43200
H  25.96400 50.94700 34.32600
N  28.60100 49.39900 26.51100
C  29.35500 48.99500 27.56300
C  30.71600 48.74200 27.12100
C  30.67600 49.10100 25.74600
C  29.36100 49.56500 25.41600
C  31.89800 48.39200 28.04200
C  31.85800 49.18100 24.74900
O  31.70600 49.67800 23.64200
C  33.30500 48.89900 25.26600
N  26.71400 51.00900 24.57600
C  27.68300 50.53700 23.72600
C  27.30500 50.94800 22.28400
C  25.80000 51.39000 22.40300
C  25.57000 51.37100 23.95300
C  28.28000 51.90900 21.67200
C  24.78800 50.44800 21.66400
C  23.94600 51.06600 20.47000
N  24.92600 51.35800 26.76700
C  24.07400 51.92000 25.82600
C  23.03700 52.65000 26.40500
C  23.23900 52.46000 27.77900
C  24.39300 51.65000 27.94900
C  22.04800 53.56600 25.82200
C  22.80300 52.82100 29.03500
O  21.98500 53.70000 29.30400
C  23.75300 52.09600 30.11600
C  24.62200 53.21500 30.80700
O  25.52800 53.80800 30.25400
O  24.33600 53.37300 32.14500
C  25.14400 54.42400 32.81800
H  29.68500 48.68200 29.55300
H  29.51600 49.81900 23.33400
H  23.71100 52.31100 23.77200
H  26.35400 51.36900 31.61400
H  27.72500 48.95700 31.54800
H  29.62900 49.84200 31.62100
H  28.70600 51.07500 32.32400
H  29.25400 51.26900 30.66400
H  25.79400 48.71500 32.32700
H  24.37100 49.39200 31.44300
H  24.52500 49.43700 33.96600
H  24.10400 50.97900 33.22200
H  32.17900 47.33900 28.02300
H  31.54500 48.40700 29.07300
H  32.86700 48.88000 27.93600
H  33.95300 49.19800 24.44200
H  33.41100 47.89200 25.67200
H  33.51200 49.65300 26.02500
H  27.22000 50.00300 21.74800
H  25.74200 52.43800 22.11100
H  29.06500 51.76000 22.41300
H  27.94900 52.91400 21.40700
H  28.52700 51.45300 20.71400
H  24.06800 50.06500 22.38600
H  25.27000 49.65600 21.09000
H  23.79900 52.09700 20.79200
H  23.03500 50.48400 20.33200
H  24.52100 50.92100 19.55600
H  22.34400 54.57700 26.10100
H  21.09600 53.37500 26.31800
H  21.97800 53.37600 24.75100
H  23.15900 51.50300 30.81100
H  26.22800 54.36400 32.71700
H  24.73400 54.29500 33.82000
H  24.83200 55.38900 32.42000

