158

Mg -0.40100 7.87700 26.39400
C  0.51500 10.17900 28.87600
C  -0.20400 5.43200 28.85300
C  -1.20000 5.78300 24.04700
C  -0.22900 10.63500 24.08100
N  -0.02100 7.93600 28.62000
C  0.17100 8.93600 29.47200
C  0.28600 8.50200 30.91600
C  0.30300 6.97000 30.80700
C  0.03100 6.74000 29.29300
C  1.59200 6.23600 31.29200
C  -0.79000 9.09900 31.94000
C  -0.18700 9.33200 33.39000
H  0.74400 8.36900 34.09600
N  -0.70300 5.83900 26.46600
C  -0.57900 5.01100 27.54700
C  -0.75300 3.65200 27.11500
C  -0.96100 3.63600 25.69300
C  -1.03700 5.10600 25.29700
C  -0.58500 2.35300 28.00900
C  -1.18100 2.49900 24.72900
O  -1.60200 2.83000 23.61600
C  -0.97100 1.06300 25.06500
N  -0.48300 8.08000 24.29600
C  -0.96600 7.10100 23.58000
C  -1.36800 7.60800 22.14000
C  -1.10400 9.14900 22.13400
C  -0.62800 9.31600 23.60800
C  -0.74100 6.83300 20.94900
C  -2.28800 10.01800 21.63700
C  -3.38300 10.45400 22.58400
N  0.23000 9.92800 26.37700
C  0.10800 10.92200 25.46200
C  0.54600 12.19700 26.02100
C  0.81600 11.90200 27.34000
C  0.58800 10.53200 27.48500
C  0.65500 13.53300 25.34800
C  1.30700 12.44000 28.56400
O  1.80600 13.53100 28.74500
C  1.02800 11.42900 29.65500
C  2.33500 11.15700 30.32700
O  3.22600 10.56800 29.77100
O  2.36100 11.58000 31.66700
C  3.55300 11.31500 32.50200
H  -0.21900 4.70800 29.67000
H  -1.58300 5.21700 23.19500
H  -0.16500 11.47600 23.38700
H  1.24000 8.93500 31.21500
H  -0.47800 6.50500 31.40800
H  1.31600 5.55700 32.09900
H  2.28600 7.01700 31.60100
H  2.01100 5.55000 30.55600
H  -1.66400 8.45100 31.99700
H  -1.14600 10.03000 31.49800
H  -1.06200 9.34900 34.04000
H  0.35800 10.27300 33.47000
H  -1.47500 1.91800 28.46400
H  0.01300 2.63200 28.87600
H  0.05500 1.69900 27.41700
H  -1.71400 0.75800 25.80200
H  0.05700 1.00000 25.42000
H  -1.23700 0.50600 24.16600
H  -2.40000 7.38100 21.87100
H  -0.19800 9.38600 21.57600
H  -0.45600 7.31100 20.01200
H  -1.46700 6.11400 20.57100
H  0.09100 6.22000 21.29600
H  -2.81300 9.40400 20.90500
H  -1.96100 10.95000 21.17500
H  -4.36000 10.24500 22.14900
H  -3.27600 11.47900 22.93900
H  -3.25300 9.84400 23.47700
H  -0.35700 13.92600 25.25600
H  1.12800 13.43500 24.37000
H  1.25800 14.20500 25.95800
H  0.35700 11.90400 30.37200
H  4.18000 10.45100 32.28300
H  3.29400 11.30000 33.56100
H  4.13700 12.22100 32.33900
Mg 17.24000 50.92400 25.90400
C  18.95000 49.78300 28.64000
C  14.95500 52.48600 28.02100
C  15.74300 52.11000 23.18100
C  19.71600 49.53400 23.80900
N  17.13400 51.30600 28.11600
C  17.87500 50.60200 29.04000
C  17.37400 50.82300 30.44700
C  16.04300 51.62000 30.23200
C  16.03800 51.83900 28.72400
C  14.83500 50.89600 30.80500
C  18.47300 51.50400 31.35500
C  18.20400 51.58600 32.87600
H  17.21600 50.64000 33.56900
N  15.51100 52.08500 25.58600
C  14.71300 52.59900 26.57600
C  13.66900 53.30700 25.93700
C  14.05300 53.47800 24.51200
C  15.09800 52.48100 24.37500
C  12.67700 54.06600 26.69700
C  13.58500 54.49000 23.44200
O  14.06000 54.55300 22.30800
C  12.58700 55.53400 23.93800
N  17.64000 50.90000 23.86000
C  16.92300 51.38700 22.86800
C  17.16100 50.85800 21.45900
C  18.59600 50.39700 21.69900
C  18.69500 50.30900 23.17500
C  16.15500 49.70000 21.19600
C  19.67100 51.36200 21.09900
C  20.56100 50.90000 19.94600
N  18.97300 49.94000 26.11300
C  19.81200 49.34600 25.19000
C  20.85200 48.62100 25.85700
C  20.50100 48.65800 27.21700
C  19.35400 49.51200 27.32700
C  22.03200 47.98500 25.30100
C  20.95000 48.31200 28.59200
O  22.00600 47.69400 28.93800
C  19.91500 48.99400 29.55400
C  19.35900 47.96000 30.41500
O  18.51000 47.16900 30.00300
O  19.99100 47.97600 31.65700
C  19.57600 46.94600 32.60300
H  14.20600 52.89100 28.70500
H  15.21300 52.47600 22.30000
H  20.41400 48.98300 23.17500
H  17.12600 49.91000 30.98800
H  16.03900 52.62500 30.65300
H  14.03500 50.74200 30.08100
H  14.48400 51.52800 31.62100
H  15.05400 49.93300 31.26600
H  18.44500 52.55100 31.05500
H  19.46100 51.10400 31.12600
H  17.89000 52.62600 32.96300
H  19.16900 51.41700 33.35300
H  12.99100 55.08800 26.91000
H  12.49600 53.53300 27.63100
H  11.72300 54.05200 26.16900
H  13.01200 56.17000 24.71400
H  11.59400 55.19500 24.23100
H  12.57700 56.27900 23.14200
H  17.15200 51.62200 20.68200
H  18.88100 49.42500 21.29800
H  15.87300 49.93200 20.17000
H  15.25500 49.60100 21.80300
H  16.54800 48.68400 21.16000
H  20.37100 51.42600 21.93100
H  19.36600 52.39600 20.93600
H  20.21600 49.90400 19.66900
H  21.59500 50.80700 20.27800
H  20.49300 51.54100 19.06700
H  22.31800 48.55600 24.41800
H  21.70900 47.03600 24.87200
H  22.82200 47.76000 26.01800
H  20.56900 49.69400 30.07200
H  20.15400 47.06600 33.51900
H  19.69300 45.94300 32.19400
H  18.56600 47.12200 32.97400

