158

Mg 35.19000 2.13100 28.86100
C  33.08500 3.19300 31.52500
C  37.80500 2.15600 31.23900
C  37.24200 1.49100 26.54200
C  32.53800 2.52300 26.67800
N  35.39800 2.63100 31.07300
C  34.39600 2.92500 31.92300
C  34.93900 3.00700 33.39700
C  36.45200 2.96500 33.26700
C  36.60900 2.65300 31.73500
C  37.13100 4.31100 33.65800
C  34.30000 1.82300 34.22700
C  34.09700 1.97500 35.75000
H  34.80100 3.04600 36.55500
N  37.20700 1.86400 28.85900
C  38.14900 1.84000 29.88300
C  39.42400 1.39600 29.42900
C  39.29600 1.30300 27.99900
C  37.85600 1.53500 27.75700
C  40.65500 1.04800 30.31200
C  40.38000 1.13000 26.98500
O  40.09400 1.19400 25.80200
C  41.82500 1.18700 27.48400
N  34.92000 2.07800 26.86900
C  35.93600 1.72300 26.12700
C  35.51100 1.44200 24.58700
C  33.94400 1.64500 24.67400
C  33.78900 2.14900 26.13500
C  36.22300 2.28200 23.54300
C  33.04200 0.41400 24.36000
C  32.91300 -0.81500 25.34200
N  33.18000 2.58600 29.00100
C  32.18400 2.72900 28.01200
C  30.94200 3.07400 28.59200
C  31.22700 3.28200 29.92700
C  32.61300 3.00500 30.15500
C  29.63800 3.22300 27.74500
C  30.68300 3.69900 31.25200
O  29.59600 4.04900 31.64900
C  31.82100 3.44900 32.31600
C  31.78500 4.57600 33.18400
O  32.36400 5.63800 32.95200
O  31.14000 4.18000 34.38900
C  31.29800 5.25100 35.35500
H  38.60400 2.15400 31.98400
H  37.72200 1.15300 25.62200
H  31.77900 2.60600 25.89700
H  34.47500 3.90800 33.79900
H  36.90200 2.24900 33.95400
H  38.00500 4.50600 33.03700
H  37.43100 4.29300 34.70500
H  36.28300 4.99500 33.61900
H  34.82900 0.87100 34.18600
H  33.27300 1.62400 33.92100
H  34.09500 0.96300 36.15500
H  33.07700 2.35700 35.76500
H  40.86700 0.00100 30.09600
H  40.49400 1.06700 31.39000
H  41.51600 1.68200 30.09600
H  42.50200 1.40900 26.66000
H  42.13000 0.33100 28.08700
H  41.82100 2.09900 28.08100
H  35.65900 0.38700 24.35800
H  33.58500 2.38600 23.95900
H  36.58100 1.62000 22.75500
H  37.07700 2.86500 23.88700
H  35.57700 3.02100 23.06800
H  33.45900 -0.01300 23.44800
H  32.07100 0.86800 24.16000
H  33.50000 -0.61200 26.23800
H  33.37300 -1.60400 24.74700
H  31.86500 -1.04700 25.52800
H  28.93500 2.45300 28.06400
H  29.88200 3.00900 26.70400
H  29.38200 4.25500 27.98400
H  31.39000 2.66800 32.94300
H  31.06600 6.26000 35.01300
H  32.30400 5.19900 35.77000
H  30.61900 5.14300 36.20100
Mg 36.37800 49.89800 25.72400
C  36.23500 47.98600 28.74300
C  35.12500 52.51000 27.40700
C  35.98500 51.37000 22.81800
C  37.32400 46.73800 24.09200
N  35.77300 50.22700 27.90300
C  35.95700 49.38500 28.91600
C  35.56800 50.09600 30.22900
C  35.24300 51.50300 29.82200
C  35.35500 51.42100 28.25800
C  33.88000 52.02800 30.39100
C  36.64300 49.90700 31.32500
C  36.12300 49.41000 32.68800
H  34.70300 49.65300 33.11400
N  35.77300 51.68500 25.27200
C  35.31700 52.61700 26.04500
C  34.91300 53.76700 25.22300
C  35.38300 53.54900 23.93100
C  35.74100 52.13700 23.95000
C  34.06700 54.81600 25.77000
C  35.19100 54.32800 22.62400
O  35.51100 53.99500 21.48100
C  34.50300 55.71800 22.62900
N  36.32900 48.98600 23.70700
C  36.24000 49.96000 22.67900
C  36.71300 49.24500 21.33100
C  37.12100 47.78100 21.80600
C  36.99700 47.84900 23.32000
C  35.72200 49.35300 20.23100
C  38.49900 47.31600 21.28000
C  39.76700 47.84300 21.97600
N  36.67600 47.75400 26.26000
C  37.08600 46.63700 25.48100
C  37.20600 45.49800 26.30800
C  36.86200 45.98500 27.64100
C  36.55700 47.33500 27.50000
C  37.63800 44.08300 25.87700
C  36.71100 45.61700 29.01500
O  36.75400 44.51400 29.51100
C  36.25600 46.85900 29.81200
C  34.91300 46.60400 30.47500
O  33.76600 46.66500 30.01800
O  35.19500 45.94500 31.68600
C  34.01900 45.47400 32.56300
H  34.75900 53.33600 28.02000
H  36.11700 51.89800 21.87200
H  37.68200 45.84500 23.57400
H  34.65500 49.56000 30.49000
H  36.07300 52.10800 30.18800
H  33.97600 52.83100 31.12100
H  33.30300 51.24200 30.87800
H  33.29400 52.55300 29.63600
H  37.15600 50.86100 31.44600
H  37.34600 49.13300 31.01700
H  36.75700 49.86000 33.45200
H  36.32300 48.33900 32.69800
H  34.71000 55.69400 25.69700
H  33.83600 54.77200 26.83500
H  33.14100 54.89000 25.20000
H  33.45100 55.57300 22.87500
H  34.55500 56.07100 21.59900
H  35.00300 56.32400 23.38500
H  37.61600 49.76200 21.00700
H  36.38100 47.07600 21.42700
H  34.76600 49.73200 20.59300
H  35.51500 48.42000 19.70700
H  35.98800 49.95400 19.36100
H  38.58800 47.42400 20.19900
H  38.63400 46.24700 21.44700
H  39.45000 48.77000 22.45400
H  40.60400 48.13200 21.34200
H  40.25500 47.28800 22.77800
H  36.87600 43.55700 25.30100
H  37.68100 43.39800 26.72300
H  38.61400 44.05000 25.39300
H  37.06100 46.97100 30.53800
H  33.84000 45.97100 33.51600
H  34.12500 44.39200 32.65400
H  33.01900 45.56200 32.14000

