158

Mg 56.22200 22.32400 43.48100
C  53.98400 24.47200 42.15600
C  53.85500 19.74100 43.26300
C  58.50600 20.06800 44.32300
C  58.63100 24.83900 43.33800
N  54.14600 22.13900 42.71100
C  53.44600 23.18600 42.27400
C  52.01100 22.73800 42.02300
C  51.86200 21.50500 42.93100
C  53.34800 21.03700 43.01100
C  51.13700 21.68800 44.28900
C  51.72200 22.52900 40.51200
C  50.57600 23.28900 39.93700
H  49.95400 23.02800 38.58100
N  56.19000 20.21700 43.72600
C  55.17100 19.34800 43.53600
C  55.64400 18.01400 43.68200
C  56.95800 18.00500 44.17100
C  57.27400 19.47800 44.10400
C  54.64600 16.87600 43.52300
C  57.85900 16.80500 44.41200
O  57.52800 15.66500 44.06000
C  59.09000 16.93500 45.20500
N  58.32200 22.39300 43.53700
C  59.00800 21.29000 44.00900
C  60.47300 21.66300 44.39600
C  60.54200 23.20400 44.03600
C  59.07300 23.55100 43.55500
C  61.01900 21.39000 45.87500
C  61.72100 23.65100 43.04600
C  63.17900 23.73500 43.63000
N  56.33700 24.37700 42.92300
C  57.37500 25.27300 42.99300
C  56.87800 26.57800 42.67200
C  55.58300 26.34000 42.32000
C  55.28900 24.96200 42.48100
C  57.66300 27.87000 42.77000
C  54.31000 26.98600 41.98100
O  54.05400 28.15300 41.80500
C  53.31600 25.73100 41.63200
C  53.27400 25.69600 40.18300
O  53.90800 25.02100 39.38600
O  52.26600 26.54800 39.70600
C  51.96200 26.49700 38.28800
H  53.10900 18.95500 43.12800
H  59.13900 19.34900 44.84700
H  59.46100 25.54800 43.39000
H  51.23400 23.44800 42.30500
H  51.20500 20.77900 42.45200
H  50.65000 22.65800 44.39200
H  51.83100 21.74200 45.12800
H  50.61200 20.80000 44.64000
H  51.55200 21.52000 40.13500
H  52.64800 22.73500 39.97700
H  50.83700 24.33800 40.07700
H  49.63600 23.05900 40.44000
H  54.94600 15.97500 44.05900
H  54.66600 16.56000 42.48000
H  53.59000 17.04500 43.73100
H  59.90500 17.30300 44.58000
H  59.38100 15.91100 45.43900
H  58.90100 17.60900 46.04100
H  61.14700 21.12100 43.73300
H  60.72100 23.71500 44.98100
H  60.24600 20.91600 46.48000
H  61.32400 22.29500 46.39900
H  61.90500 20.76200 45.78300
H  61.45800 24.62500 42.63400
H  61.84400 22.99500 42.18500
H  63.63600 24.62300 43.19400
H  63.87200 22.98100 43.25300
H  63.14800 23.71600 44.71900
H  56.94000 28.68100 42.86000
H  58.46300 27.94300 42.03300
H  58.12200 27.81500 43.75700
H  52.26800 25.88900 41.88800
H  52.54900 27.26700 37.78800
H  50.89600 26.63500 38.10600
H  52.24700 25.54700 37.83700
Mg -6.56900 24.89700 25.90900
C  -5.34100 26.26800 29.05200
C  -8.46400 22.76200 27.75100
C  -7.24500 23.26600 23.05600
C  -4.46100 27.05600 24.28000
N  -6.79700 24.46800 28.15400
C  -6.32900 25.22300 29.18200
C  -6.95500 24.78500 30.52100
C  -7.78000 23.57000 30.16700
C  -7.69800 23.58000 28.62400
C  -7.34400 22.24200 30.88700
C  -7.73400 26.07300 31.17000
C  -7.84500 26.06900 32.70700
H  -7.38000 24.92700 33.71700
N  -7.73900 23.28000 25.43000
C  -8.50400 22.55600 26.33000
C  -9.26400 21.56500 25.65700
C  -8.93500 21.68700 24.24500
C  -7.93100 22.76300 24.18800
C  -10.24600 20.63400 26.29100
C  -9.48000 20.81800 22.95900
O  -9.08700 20.84200 21.82000
C  -10.61500 19.83400 23.24900
N  -5.82000 25.05200 23.95400
C  -6.23700 24.24800 22.93300
C  -5.43000 24.59100 21.69100
C  -4.94300 26.04400 21.97600
C  -5.14400 26.14000 23.50000
C  -4.45600 23.46900 21.37100
C  -5.57900 27.20300 21.15800
C  -4.66500 27.77500 20.06800
N  -5.08500 26.35500 26.52700
C  -4.39600 27.21100 25.71100
C  -3.63200 28.08900 26.54800
C  -3.96000 27.83200 27.86200
C  -4.91800 26.78300 27.79600
C  -2.80500 29.15900 26.05200
C  -3.76900 28.19200 29.22600
O  -3.03100 29.01200 29.72300
C  -4.73600 27.24600 30.12300
C  -3.84900 26.80200 31.24200
O  -3.10500 25.80800 31.27300
O  -3.95400 27.70900 32.29800
C  -3.10400 27.49100 33.52100
H  -9.10000 22.10300 28.34600
H  -7.66900 22.82300 22.15200
H  -3.83100 27.75900 23.73100
H  -6.08900 24.49100 31.11400
H  -8.78700 23.88800 30.43900
H  -6.56100 22.39700 31.62900
H  -7.02100 21.46900 30.18900
H  -8.18400 21.89100 31.48600
H  -8.72600 25.99300 30.72700
H  -7.43100 27.06800 30.84600
H  -8.93000 26.01700 32.79700
H  -7.66400 27.04100 33.16400
H  -10.81500 21.29400 26.94600
H  -9.79800 19.77200 26.78600
H  -10.99700 20.24600 25.60300
H  -10.45600 19.02500 23.96200
H  -10.89700 19.51900 22.24500
H  -11.44900 20.43300 23.61400
H  -6.10200 24.70600 20.84100
H  -3.85300 26.07800 21.97700
H  -4.36200 22.92300 22.31000
H  -3.51900 23.88400 21.00000
H  -4.86800 22.79300 20.62100
H  -5.81200 28.03800 21.81900
H  -6.56100 26.97600 20.74300
H  -5.25700 28.24100 19.28100
H  -4.03800 27.08500 19.50400
H  -4.04500 28.52900 20.55400
H  -2.52300 29.04200 25.00600
H  -1.95000 29.12500 26.72600
H  -3.39200 30.02700 26.35000
H  -5.46200 27.85700 30.65900
H  -2.08200 27.73400 33.23100
H  -3.09900 26.46300 33.88100
H  -3.52300 28.15300 34.27900

