158

Mg 24.37000 -4.95900 45.86400
C  26.58700 -2.50800 44.51400
C  22.00600 -3.74300 43.67500
C  22.62500 -7.81200 46.33800
C  27.24500 -6.44200 47.41900
N  24.34200 -3.31100 44.23400
C  25.34500 -2.46800 43.85500
C  24.93200 -1.60800 42.61200
C  23.37000 -1.76600 42.69200
C  23.20600 -2.99200 43.58800
C  22.56000 -0.57400 43.32500
C  25.46000 -2.18700 41.27500
C  26.17700 -1.18400 40.38600
H  25.66000 -1.05500 38.95200
N  22.51200 -5.62600 45.27600
C  21.63800 -4.92300 44.41600
C  20.36700 -5.64700 44.48300
C  20.59800 -6.82400 45.11100
C  21.99800 -6.85400 45.57300
C  19.13900 -5.12000 43.84800
C  19.43400 -7.88300 45.35700
O  18.26000 -7.65300 45.14600
C  19.73900 -9.29800 45.87200
N  24.92400 -6.84200 46.70700
C  23.91000 -7.80000 46.86700
C  24.53100 -9.05900 47.55400
C  25.90200 -8.46100 48.06000
C  26.08700 -7.19500 47.34900
C  23.71900 -9.78200 48.66000
C  27.15300 -9.41700 47.76100
C  28.28300 -9.63400 48.75700
N  26.53700 -4.53600 46.04800
C  27.52300 -5.21200 46.69500
C  28.74600 -4.45100 46.64800
C  28.43400 -3.38600 45.75900
C  27.08100 -3.50200 45.40100
C  29.99900 -4.78300 47.31000
C  28.92100 -2.26700 45.08300
O  30.05400 -1.81600 45.05300
C  27.83400 -1.63700 44.31500
C  27.57700 -0.17200 44.61200
O  26.98900 0.24900 45.57100
O  28.26000 0.63200 43.67500
C  28.13400 2.09600 43.74100
H  21.20400 -3.38200 43.02900
H  22.21800 -8.82200 46.41800
H  28.08000 -6.80500 48.02300
H  25.29000 -0.60200 42.83300
H  22.86300 -2.04800 41.77000
H  23.26600 0.17300 43.69000
H  22.05500 -0.88600 44.23900
H  21.80400 -0.23700 42.61600
H  24.65900 -2.67800 40.72200
H  26.06400 -3.04500 41.57100
H  27.25500 -1.34100 40.40200
H  26.03900 -0.16500 40.74800
H  18.52400 -5.93100 43.45800
H  19.37700 -4.43400 43.03500
H  18.59200 -4.55600 44.60300
H  20.01000 -9.25900 46.92700
H  20.67700 -9.65300 45.44600
H  18.99400 -10.07900 45.72400
H  24.76100 -9.66000 46.67500
H  25.87500 -8.34300 49.14300
H  22.82300 -10.30900 48.33300
H  23.31000 -9.03300 49.33900
H  24.30000 -10.42600 49.32000
H  27.65100 -9.20300 46.81600
H  26.65000 -10.37400 47.62200
H  29.21000 -9.46200 48.20900
H  28.13800 -10.59700 49.24600
H  28.18600 -8.81100 49.46500
H  30.27300 -5.80200 47.03400
H  29.80800 -4.68100 48.37900
H  30.82200 -4.12400 47.03200
H  28.00800 -1.66200 43.23900
H  28.17600 2.33900 42.67900
H  28.82700 2.62400 44.39600
H  27.17100 2.34000 44.19200
Mg 16.52900 51.18000 25.92100
C  18.55000 49.63000 28.47000
C  14.20300 51.80400 28.14800
C  14.56500 52.39000 23.27100
C  18.78300 49.87500 23.56400
N  16.42300 50.63700 28.09100
C  17.37100 50.24900 28.94700
C  16.97600 50.53000 30.38600
C  15.46900 50.93800 30.27800
C  15.37900 51.18100 28.73900
C  14.37200 50.00800 30.82400
C  17.93100 51.59000 30.97100
C  17.71200 52.07000 32.42100
H  16.68900 51.32800 33.35000
N  14.70500 51.95800 25.72400
C  13.91300 52.17300 26.80600
C  12.76400 52.94200 26.38900
C  12.75800 53.04000 24.92300
C  14.05900 52.42500 24.59900
C  11.76100 53.38600 27.38300
C  11.78300 53.79000 24.06000
O  11.86300 53.74400 22.82500
C  10.61200 54.53400 24.61100
N  16.69900 51.12100 23.72200
C  15.87200 51.83000 22.92100
C  16.40600 51.77800 21.38500
C  17.76200 51.05100 21.48000
C  17.72800 50.62600 22.97400
C  15.41300 51.33700 20.23700
C  18.93800 51.97000 21.05800
C  19.42600 53.07700 21.99200
N  18.31700 50.05800 25.98800
C  19.15500 49.68200 24.90900
C  20.33300 49.11000 25.46000
C  20.18500 49.04000 26.85600
C  18.91700 49.57400 27.12900
C  21.47400 48.64100 24.67700
C  20.76600 48.59200 28.06800
O  21.75100 47.96600 28.29800
C  19.65600 48.94200 29.13400
C  19.16500 47.90100 30.05900
O  18.59300 46.84900 29.73700
O  19.54600 48.29100 31.35200
C  19.21000 47.47200 32.44400
H  13.52200 51.91500 28.99500
H  14.05200 52.74000 22.37300
H  19.52500 49.49500 22.85900
H  17.20400 49.64100 30.97400
H  15.28900 51.80700 30.91200
H  14.35200 49.10300 30.21700
H  13.40400 50.47900 30.65300
H  14.41500 49.76400 31.88500
H  17.80500 52.47200 30.34400
H  18.92800 51.14900 30.94800
H  17.49800 53.13500 32.32500
H  18.63500 51.96900 32.99200
H  11.89600 53.05400 28.41200
H  10.74400 53.15500 27.06500
H  11.75800 54.46900 27.50300
H  10.95600 55.13100 25.45500
H  10.08500 53.62100 24.88700
H  10.13400 55.14500 23.84400
H  16.58300 52.84500 21.24900
H  17.83700 50.10800 20.93700
H  15.11500 52.13200 19.55300
H  14.50600 50.97700 20.72200
H  15.71000 50.53200 19.56400
H  18.54800 52.59600 20.25500
H  19.74600 51.28700 20.79600
H  18.73500 53.14500 22.83200
H  19.66100 54.05300 21.56600
H  20.37600 52.75500 22.41800
H  21.85700 49.36000 23.95200
H  21.02100 47.79700 24.15600
H  22.24800 48.20400 25.30700
H  20.08400 49.80300 29.64700
H  19.14100 48.02700 33.38000
H  19.97200 46.72900 32.68100
H  18.31200 46.86900 32.30700

