158

Mg 25.98300 1.18000 29.50900
C  28.30400 0.69300 32.31500
C  23.51100 1.27900 31.80100
C  23.96200 1.23300 26.91900
C  28.74600 0.53100 27.34100
N  25.98700 1.04200 31.84400
C  26.98500 0.91800 32.74000
C  26.42700 1.26400 34.20000
C  24.85100 1.23100 33.98700
C  24.77200 1.22000 32.47100
C  24.13600 0.03200 34.63400
C  27.02200 2.50400 34.92600
C  27.94000 2.23100 36.14000
H  27.93900 3.21800 37.34600
N  24.02900 1.26900 29.40800
C  23.12400 1.26400 30.43000
C  21.76500 1.41300 29.89800
C  21.88200 1.30700 28.48200
C  23.32600 1.28200 28.20500
C  20.59600 1.47400 30.79300
C  20.77400 1.29500 27.39500
O  20.91200 1.02400 26.20300
C  19.37900 1.53700 27.75800
N  26.36200 0.95000 27.45700
C  25.33500 1.10100 26.57500
C  25.78100 1.00000 25.13400
C  27.27300 0.73300 25.25200
C  27.51500 0.74500 26.76700
C  25.08000 -0.04900 24.21000
C  28.24100 1.64500 24.37600
C  29.07200 2.67300 25.18200
N  28.05400 0.65800 29.70000
C  29.02400 0.49800 28.74600
C  30.26200 0.23900 29.34600
C  30.06800 0.32900 30.72500
C  28.70100 0.55500 30.92000
C  31.64700 0.11700 28.72600
C  30.68500 0.26900 32.00000
O  31.88300 0.11300 32.35400
C  29.60800 0.49600 33.10400
C  29.52600 -0.67600 34.05300
O  29.04600 -1.76200 33.74900
O  29.82600 -0.30600 35.38500
C  29.36600 -1.19000 36.46000
H  22.68300 1.46000 32.49000
H  23.32200 1.10500 26.04300
H  29.47900 0.30600 26.56400
H  26.57800 0.31600 34.71600
H  24.36000 2.12800 34.36300
H  24.72600 -0.61800 35.28200
H  23.65700 -0.58900 33.87600
H  23.32700 0.41800 35.25400
H  26.18600 3.08800 35.31000
H  27.41300 3.23100 34.21400
H  28.98400 2.19100 35.82700
H  27.68300 1.26000 36.56300
H  19.97100 0.58100 30.77400
H  19.91100 2.24300 30.43500
H  20.77500 1.76500 31.82800
H  19.25400 2.55600 28.12600
H  19.08800 0.87100 28.57000
H  18.73100 1.51800 26.88200
H  25.56700 1.93500 24.61600
H  27.58100 -0.27500 24.97500
H  25.83800 -0.72100 23.80800
H  24.48500 0.31100 23.37000
H  24.33300 -0.61800 24.76400
H  27.72700 2.00700 23.48500
H  29.06000 1.00200 24.05400
H  28.35200 3.10800 25.87500
H  29.37400 3.49800 24.53800
H  29.94600 2.34600 25.74700
H  32.41000 0.66300 29.28000
H  31.66800 0.46400 27.69300
H  31.86000 -0.95000 28.79400
H  29.85900 1.32200 33.77000
H  28.80900 -2.09600 36.22100
H  28.63300 -0.54700 36.94700
H  30.17100 -1.33600 37.18000
Mg 55.71000 23.35700 45.37400
C  53.27500 25.90500 44.68200
C  53.52900 21.01300 44.02400
C  58.07500 21.16500 45.71500
C  57.83000 25.93800 46.51200
N  53.74900 23.53900 44.27900
C  52.93600 24.63000 44.17100
C  51.63700 24.18900 43.49900
C  51.55100 22.70000 43.73200
C  53.04900 22.33100 44.02000
C  50.52300 22.18000 44.82300
C  51.46400 24.68600 42.04300
C  50.02400 25.05900 41.54700
H  49.69800 24.67600 40.08400
N  55.83300 21.33800 44.82500
C  54.80900 20.54300 44.35500
C  55.28100 19.19800 44.29500
C  56.62900 19.18600 44.76600
C  56.93300 20.58400 45.09200
C  54.47200 18.05700 43.76700
C  57.46900 17.94300 44.79300
O  57.00600 16.81300 44.54200
C  58.96500 18.04800 45.10100
N  57.68000 23.51700 46.02000
C  58.38700 22.42800 46.13400
C  59.71600 22.69700 46.86900
C  59.72300 24.25100 46.92100
C  58.33100 24.61300 46.44500
C  59.85700 22.06000 48.24000
C  60.75800 24.99100 46.07000
C  61.32400 26.28600 46.65200
N  55.61900 25.49400 45.56900
C  56.50000 26.40600 46.10300
C  55.96600 27.75900 46.17600
C  54.68700 27.54300 45.68300
C  54.51700 26.21400 45.27900
C  56.56000 29.05000 46.58100
C  53.42500 28.20200 45.36900
O  53.05300 29.35500 45.49900
C  52.53700 27.12600 44.71200
C  52.26200 27.70600 43.39200
O  53.01800 27.89000 42.48000
O  50.91700 28.01300 43.24800
C  50.60000 28.88600 42.14800
H  52.76400 20.31000 43.68700
H  58.84900 20.45500 46.01200
H  58.50200 26.64600 47.00300
H  50.77700 24.55200 44.06100
H  51.24300 22.24500 42.79100
H  50.98400 21.44500 45.48200
H  49.69200 21.67200 44.33400
H  50.21300 22.93900 45.54100
H  51.81900 23.83400 41.46300
H  52.09600 25.57400 42.04400
H  49.94500 26.14600 41.53800
H  49.21000 24.56900 42.08100
H  55.10300 17.43300 43.13400
H  53.57200 18.37200 43.24000
H  54.20900 17.39600 44.59300
H  59.53600 18.69300 44.43200
H  59.40500 17.08600 44.84000
H  59.13300 18.44300 46.10300
H  60.47200 22.34800 46.16600
H  59.84200 24.64100 47.93200
H  58.99800 21.49800 48.60500
H  60.17000 22.76800 49.00800
H  60.62300 21.29700 48.10100
H  60.31300 25.26700 45.11400
H  61.62600 24.34700 45.93300
H  61.73700 26.84300 45.81100
H  62.18600 25.90100 47.19700
H  60.71100 26.84900 47.35500
H  56.04000 29.48500 47.43400
H  56.45000 29.64700 45.67600
H  57.64400 28.98400 46.66900
H  51.56800 26.99100 45.19300
H  51.29400 29.71600 42.01300
H  49.56900 29.21300 42.28100
H  50.53500 28.19000 41.31200

