158

Mg 10.10500 47.61400 25.67000
C  8.17600 47.65000 28.64100
C  12.77800 48.51600 27.56400
C  11.93700 46.94000 23.09200
C  7.08700 47.05300 23.89400
N  10.41300 48.12200 27.89600
C  9.49100 48.15800 28.95600
C  10.16200 48.52400 30.29900
C  11.64500 48.87600 29.88200
C  11.65000 48.42200 28.41700
C  11.94400 50.43200 30.01800
C  10.04600 47.35700 31.36700
C  11.06900 47.23700 32.57900
H  10.65600 46.35700 33.69300
N  12.09900 47.73100 25.36900
C  13.04600 48.18500 26.21300
C  14.38000 48.07100 25.53400
C  14.18100 47.57700 24.24200
C  12.70400 47.44000 24.17700
C  15.68700 48.35900 26.23700
C  15.21200 47.37300 23.04500
O  14.81300 47.05500 21.92400
C  16.67200 47.56900 23.32500
N  9.54000 47.09600 23.79000
C  10.55300 46.75700 22.90100
C  9.91800 46.14700 21.59100
C  8.45900 46.59200 21.69900
C  8.31700 46.89800 23.24800
C  10.59500 46.61800 20.27900
C  7.28000 45.73200 21.20500
C  7.31000 45.27500 19.80000
N  8.05600 47.46400 26.15000
C  6.95300 47.25100 25.33000
C  5.76600 47.09500 26.08200
C  6.21800 47.21200 27.44800
C  7.60000 47.45700 27.40500
C  4.33000 46.73400 25.52500
C  5.73200 47.16400 28.82400
O  4.54600 47.03400 29.24400
C  7.01400 47.45600 29.62900
C  7.10100 46.27900 30.49200
O  7.48900 45.18700 30.06300
O  6.84300 46.50700 31.82400
C  7.14600 45.41600 32.72300
H  13.74300 48.84800 27.95300
H  12.58500 46.58300 22.28900
H  6.28100 46.60500 23.30900
H  9.61200 49.34000 30.77000
H  12.38900 48.23200 30.35100
H  11.15500 50.83900 30.64900
H  11.91300 50.89200 29.03000
H  12.85800 50.59400 30.59000
H  10.01100 46.45900 30.75000
H  9.06900 47.47400 31.83600
H  11.11200 48.23100 33.02300
H  12.09000 47.06900 32.23700
H  16.30300 47.48400 26.44500
H  15.56600 48.97600 27.12700
H  16.34900 48.95300 25.60600
H  17.02400 47.08400 24.23500
H  16.97100 48.61700 23.33000
H  17.24000 47.15900 22.48900
H  10.00400 45.06400 21.50400
H  8.51800 47.58300 21.24800
H  11.27900 47.44900 20.45100
H  9.97000 46.95300 19.45100
H  11.20300 45.78100 19.93700
H  6.45600 46.44200 21.28200
H  7.17900 44.81400 21.78300
H  8.29400 45.49200 19.38300
H  6.50800 45.74800 19.23400
H  7.27300 44.18600 19.79100
H  4.20200 45.65500 25.44500
H  4.26500 47.37000 24.64200
H  3.71300 47.23100 26.27400
H  6.87600 48.39500 30.16300
H  6.78500 45.40700 33.75100
H  8.23500 45.36000 32.74700
H  6.66200 44.50600 32.36900
Mg -12.26100 16.57600 40.99500
C  -8.99100 15.14700 40.45600
C  -11.19300 19.47300 39.59400
C  -15.47300 17.41600 40.60000
C  -13.26000 13.22400 41.72300
N  -10.28300 17.17200 39.85300
C  -9.12900 16.47300 39.87300
C  -7.94600 17.39700 39.36400
C  -8.66500 18.86900 39.25800
C  -10.14800 18.55000 39.58300
C  -8.15000 19.97300 40.16800
C  -7.25300 16.91500 38.06900
C  -5.68700 16.92100 38.15500
H  -4.96500 16.97100 36.83000
N  -13.19500 18.27400 40.40800
C  -12.54900 19.33500 39.86200
C  -13.49500 20.43100 39.54300
C  -14.75700 19.91600 39.89800
C  -14.56800 18.47400 40.26700
C  -13.16700 21.83600 39.21800
C  -16.05400 20.69600 39.85200
O  -16.08400 21.87400 39.66500
C  -17.35700 20.07500 40.35400
N  -14.11400 15.49400 41.15400
C  -15.32400 16.09000 40.96500
C  -16.53800 15.15800 41.12000
C  -15.85400 13.92900 41.76700
C  -14.34700 14.16700 41.55900
C  -17.70600 15.92300 41.95300
C  -16.40800 12.53600 41.25800
C  -16.85000 11.58300 42.42600
N  -11.36100 14.62200 41.09100
C  -11.89100 13.42200 41.44500
C  -10.83100 12.44600 41.68700
C  -9.68200 13.07900 41.21300
C  -10.03500 14.44300 40.89200
C  -10.97300 11.08900 42.19700
C  -8.24200 12.86800 41.04100
O  -7.56600 11.88200 41.17600
C  -7.73700 14.28000 40.52800
C  -6.86200 14.75300 41.59800
O  -7.09000 15.38300 42.63900
O  -5.58000 14.27600 41.32300
C  -4.55700 14.44300 42.42100
H  -10.87800 20.47100 39.28300
H  -16.52300 17.66500 40.43700
H  -13.49200 12.20600 42.04300
H  -7.21200 17.29400 40.16200
H  -8.63700 19.21100 38.22300
H  -8.80400 20.16400 41.01800
H  -8.02300 20.91200 39.63000
H  -7.20600 19.64400 40.60500
H  -7.42500 17.53500 37.19000
H  -7.52800 15.87700 37.88200
H  -5.28500 16.06600 38.69900
H  -5.41800 17.85800 38.64300
H  -13.60700 22.17400 38.28000
H  -12.10300 22.02400 39.07600
H  -13.44100 22.55800 39.98800
H  -17.76100 19.60600 39.45700
H  -17.89900 20.98600 40.60600
H  -17.17500 19.44200 41.22300
H  -16.91800 14.82900 40.15300
H  -15.96000 13.96200 42.85100
H  -17.51100 16.99500 41.98000
H  -17.64700 15.69400 43.01700
H  -18.71400 15.73100 41.58400
H  -15.51800 12.00000 40.93000
H  -17.14800 12.65500 40.46700
H  -16.83400 12.03900 43.41500
H  -16.16400 10.74100 42.52000
H  -17.84000 11.18300 42.20600
H  -10.47300 11.05900 43.16600
H  -10.40200 10.40400 41.57200
H  -11.95700 10.62000 42.20900
H  -7.17500 14.03300 39.62700
H  -4.83200 14.17400 43.44100
H  -4.28100 15.49600 42.36200
H  -3.74600 13.82300 42.04000

