158

Mg -1.54800 17.31300 26.54000
C  -1.85100 15.22500 29.41900
C  -1.97600 20.02900 28.48300
C  -1.37400 19.09300 23.78000
C  -1.57000 14.39800 24.56400
N  -1.68100 17.56000 28.62300
C  -1.82900 16.63100 29.66200
C  -1.85600 17.20000 31.04000
C  -2.28800 18.73500 30.74500
C  -1.96000 18.81900 29.20000
C  -3.76900 19.11000 31.31500
C  -0.47300 17.00100 31.62900
C  -0.32700 17.60500 33.01000
H  -0.40400 16.61200 34.19400
N  -1.58700 19.27600 26.17200
C  -1.78700 20.22600 27.07500
C  -1.81300 21.54900 26.35400
C  -1.40600 21.27600 25.00300
C  -1.35000 19.82300 24.95100
C  -2.10000 22.90100 26.93200
C  -1.11500 22.22500 23.82200
O  -0.95200 21.83000 22.70600
C  -0.94400 23.65800 24.14300
N  -1.53400 16.81000 24.43800
C  -1.42800 17.73700 23.48600
C  -1.64300 17.24200 22.08600
C  -1.34800 15.72700 22.41700
C  -1.52900 15.63300 23.90400
C  -3.02200 17.63200 21.43100
C  -0.04300 15.08200 21.96300
C  -0.27300 13.80800 21.05900
N  -1.80400 15.24700 26.83200
C  -1.73800 14.19500 25.94400
C  -1.93500 12.95200 26.64500
C  -1.97600 13.30000 27.99400
C  -1.91000 14.69800 28.04100
C  -1.88400 11.59700 26.07900
C  -2.09700 12.73700 29.35300
O  -2.17200 11.59200 29.73600
C  -2.08700 14.03100 30.29700
C  -1.04300 13.68100 31.32000
O  0.16100 13.52100 31.07100
O  -1.72100 13.49400 32.56400
C  -0.85900 13.08600 33.64800
H  -2.11000 20.91300 29.11000
H  -1.33300 19.56600 22.79600
H  -1.57800 13.58200 23.83800
H  -2.52700 16.67000 31.71600
H  -1.48900 19.27500 31.25300
H  -3.79800 19.73400 32.20900
H  -4.25700 18.15700 31.51800
H  -4.27700 19.63800 30.50800
H  0.20300 17.62900 31.05000
H  -0.08500 15.98300 31.65700
H  -1.21000 18.21800 33.19500
H  0.56300 18.18000 33.26400
H  -2.30100 22.87900 28.00300
H  -2.90200 23.46300 26.45400
H  -1.16600 23.46200 26.92300
H  -0.19400 23.63000 24.93400
H  -1.91800 24.08900 24.37200
H  -0.52500 24.16400 23.27300
H  -0.81400 17.74900 21.59200
H  -2.11900 15.13200 21.92800
H  -2.88600 18.57700 20.90500
H  -3.76000 17.83000 22.20800
H  -3.41600 16.91500 20.71000
H  0.56200 14.81800 22.83100
H  0.53000 15.81300 21.39300
H  0.40300 13.83000 20.20300
H  -1.26400 13.55000 20.68700
H  0.13200 13.03400 21.71100
H  -0.89600 11.14800 26.17500
H  -2.17100 11.65500 25.02900
H  -2.57900 10.98400 26.65300
H  -3.06200 14.12800 30.77300
H  -1.50500 12.97000 34.51800
H  -0.01400 13.74300 33.85000
H  -0.28600 12.19500 33.39300
Mg 26.33100 50.35300 25.46700
C  24.11800 51.64400 28.11800
C  28.32800 49.25000 28.08900
C  28.44400 49.57300 23.16300
C  24.25800 52.05400 23.17200
N  26.25300 50.45500 27.89300
C  25.24100 50.95900 28.69900
C  25.58000 50.79700 30.18500
C  26.88800 50.00800 30.16400
C  27.15900 49.85200 28.61600
C  28.08900 50.64800 30.87900
C  24.44100 50.19900 31.04700
C  24.72100 49.56400 32.43200
H  24.36900 50.32400 33.69100
N  28.05800 49.47700 25.54500
C  28.75600 49.06700 26.66100
C  30.07400 48.63000 26.27600
C  30.13000 48.69000 24.86200
C  28.89600 49.27400 24.47400
C  31.21400 48.30100 27.25800
C  31.26400 48.38400 23.84700
O  31.14900 48.56200 22.61900
C  32.56400 47.94400 24.45100
N  26.39800 50.81300 23.34900
C  27.34000 50.26000 22.59500
C  26.98600 50.45300 21.07400
C  25.53000 51.10400 21.10200
C  25.39400 51.42700 22.60400
C  28.03600 51.43600 20.35000
C  24.37100 50.18300 20.52200
C  23.92400 50.62100 19.17000
N  24.54100 51.58200 25.56600
C  23.85100 52.20600 24.55500
C  22.66800 52.88300 25.14800
C  22.77500 52.68300 26.48400
C  23.92700 51.87500 26.78200
C  21.65900 53.72000 24.34600
C  22.10000 52.95900 27.78400
O  21.03700 53.55900 28.04500
C  23.01400 52.32900 28.82000
C  23.44900 53.32100 29.78500
O  24.54600 53.86200 29.95100
O  22.40600 53.46000 30.73000
C  22.65600 54.01800 32.04900
H  28.85900 48.66100 28.84000
H  29.05300 49.15000 22.36100
H  23.56600 52.39500 22.39900
H  25.75200 51.75400 30.67900
H  26.68700 48.99600 30.51500
H  28.56900 49.91300 31.52500
H  27.71300 51.48900 31.46200
H  28.93000 51.02200 30.29400
H  23.92100 49.46000 30.43700
H  23.77200 51.03500 31.24700
H  25.79200 49.38000 32.52400
H  24.26400 48.58200 32.30900
H  31.71800 47.37600 26.97800
H  30.89400 47.99900 28.25600
H  31.96100 49.08800 27.34900
H  32.63000 46.99200 24.97800
H  32.94600 48.74700 25.08200
H  33.15900 47.78100 23.55200
H  27.17800 49.47300 20.63700
H  25.45300 52.10500 20.67800
H  28.71400 51.68200 21.16800
H  27.56000 52.29500 19.87900
H  28.61100 50.84900 19.63300
H  23.52900 50.13100 21.21300
H  24.74500 49.16400 20.42100
H  24.66400 50.45000 18.38800
H  23.64500 51.66900 19.07100
H  23.02400 50.05100 18.94200
H  21.79900 53.65000 23.26700
H  21.55900 54.76900 24.62400
H  20.71100 53.20700 24.50700
H  22.40300 51.65900 29.42500
H  23.51300 54.69100 32.01100
H  23.03600 53.23600 32.70600
H  21.74700 54.43200 32.48500

