158

Mg -1.27300 16.74500 26.17000
C  -1.50100 14.59600 28.98300
C  -1.88200 19.36600 28.25100
C  -1.57100 18.71200 23.40500
C  -0.68700 14.01200 24.12700
N  -1.48600 17.00800 28.40700
C  -1.48800 15.96900 29.32400
C  -1.84000 16.48900 30.80200
C  -2.18800 18.02700 30.50400
C  -1.87500 18.13500 28.95900
C  -3.60700 18.44100 30.77200
C  -0.73500 16.40900 31.90100
C  -1.09300 15.72100 33.21700
H  -1.92500 16.34600 34.34800
N  -1.45600 18.79400 25.91000
C  -1.76000 19.74100 26.89200
C  -1.73900 21.00700 26.30100
C  -1.56600 20.85000 24.93700
C  -1.55400 19.37400 24.65700
C  -1.92700 22.29300 27.12500
C  -1.35500 21.87700 23.85300
O  -1.37500 21.60400 22.63800
C  -0.99100 23.34400 24.23300
N  -1.24400 16.41000 24.05600
C  -1.24000 17.37200 23.14500
C  -1.15000 16.79000 21.79500
C  -0.53600 15.39400 21.99500
C  -0.86400 15.24000 23.52000
C  -2.49000 16.95000 20.98900
C  1.01500 15.19900 21.62100
C  2.08200 15.57100 22.57900
N  -1.21300 14.68200 26.43500
C  -1.00700 13.67300 25.50000
C  -1.00700 12.43100 26.15600
C  -1.28300 12.72000 27.49500
C  -1.33600 14.09300 27.65400
C  -0.89000 11.10900 25.53200
C  -1.52500 12.14600 28.78900
O  -1.56900 10.96400 29.13500
C  -1.77600 13.35500 29.81700
C  -0.95200 13.00900 30.96900
O  0.18700 13.27500 31.14100
O  -1.71000 12.30900 31.86100
C  -1.09500 12.12600 33.18300
H  -2.36800 20.10800 28.88800
H  -1.64000 19.38000 22.54500
H  -0.43100 13.12200 23.54800
H  -2.74600 15.95200 31.08300
H  -1.60100 18.74700 31.07300
H  -4.01100 17.89500 31.62500
H  -4.20700 18.25100 29.88200
H  -3.67400 19.48900 31.06400
H  -0.47200 17.42000 32.21400
H  0.20700 15.99000 31.54700
H  -0.22600 15.13200 33.51600
H  -1.71800 14.85500 32.99800
H  -2.62600 22.94100 26.59500
H  -1.08200 22.93700 27.37000
H  -2.24000 21.95600 28.11300
H  -0.15100 23.36300 24.92800
H  -1.89700 23.83100 24.59100
H  -0.67600 23.85500 23.32300
H  -0.42400 17.45500 21.32800
H  -1.19100 14.62200 21.59200
H  -3.21100 17.45900 21.62800
H  -2.93500 16.02300 20.62800
H  -2.22300 17.72000 20.26500
H  1.32300 15.77300 20.74700
H  1.03400 14.14300 21.35200
H  1.72300 16.00500 23.51300
H  2.74300 16.32700 22.15500
H  2.74700 14.71600 22.70000
H  -0.23200 11.26200 24.67600
H  -1.87200 10.72900 25.25100
H  -0.29900 10.49400 26.21000
H  -2.83200 13.37200 30.08700
H  -1.41300 12.98100 33.78000
H  -0.02900 11.91500 33.10200
H  -1.45400 11.20300 33.63700
Mg -8.45400 40.63300 42.45100
C  -7.56400 37.31100 41.48400
C  -5.61700 41.77600 40.68200
C  -9.74500 43.71500 42.50600
C  -11.64300 39.20300 43.27400
N  -6.80500 39.58300 41.23200
C  -6.68300 38.26700 40.91900
C  -5.40700 37.99400 40.03500
C  -4.71100 39.45600 39.95600
C  -5.78100 40.37700 40.64800
C  -3.30400 39.54700 40.51900
C  -5.76000 37.32000 38.66000
C  -5.16500 35.94700 38.42200
H  -3.98900 35.93500 37.34700
N  -7.69800 42.52000 41.93200
C  -6.51200 42.77800 41.20400
C  -6.29300 44.22500 41.14000
C  -7.54500 44.78700 41.65200
C  -8.40000 43.63800 42.09400
C  -5.20600 44.98000 40.47400
C  -7.75000 46.30900 41.72100
O  -6.94200 47.11400 41.27900
C  -8.95000 46.87500 42.34900
N  -10.37900 41.32800 43.08200
C  -10.63900 42.69300 42.92200
C  -12.18900 42.98700 43.04900
C  -12.76200 41.51000 43.31300
C  -11.52000 40.60000 43.16500
C  -12.55200 44.04600 44.18400
C  -13.90200 41.14900 42.34800
C  -15.13900 40.52500 42.93100
N  -9.35800 38.61900 42.54500
C  -10.62800 38.24100 42.91500
C  -10.69400 36.81800 43.06800
C  -9.44400 36.36000 42.51400
C  -8.74600 37.50100 42.18800
C  -11.86600 36.02700 43.62000
C  -8.56100 35.21800 42.25700
O  -8.77900 34.02100 42.43500
C  -7.30500 35.78400 41.58700
C  -6.10500 35.52000 42.36300
O  -5.71900 36.17100 43.36200
O  -5.39800 34.43900 41.80100
C  -4.27500 33.96200 42.52000
H  -4.80400 42.16400 40.06400
H  -10.38200 44.56100 42.23800
H  -12.64000 38.86900 43.56900
H  -4.76600 37.32300 40.60600
H  -4.69100 39.70900 38.89600
H  -3.17800 38.70800 41.20300
H  -3.11100 40.53500 40.93900
H  -2.55800 39.44100 39.73100
H  -5.48900 37.95700 37.81900
H  -6.83800 37.17300 38.59300
H  -5.91300 35.23200 38.07900
H  -4.86300 35.51100 39.37400
H  -4.65600 45.52600 41.24000
H  -5.60600 45.59000 39.66300
H  -4.42800 44.30300 40.12000
H  -8.92100 47.90400 42.70500
H  -9.05700 46.36800 43.30800
H  -9.77700 46.76200 41.64700
H  -12.69800 43.30900 42.14000
H  -13.12100 41.50900 44.34200
H  -11.56500 44.39900 44.48400
H  -13.18200 43.71900 45.01100
H  -12.97900 44.96300 43.77600
H  -13.30400 40.63100 41.59900
H  -14.30500 42.05100 41.88800
H  -15.51600 40.96300 43.85500
H  -15.03200 39.45300 43.09900
H  -16.01800 40.57600 42.28900
H  -12.18700 36.20200 44.64600
H  -11.53800 34.98800 43.65600
H  -12.71700 36.08400 42.94100
H  -7.22000 35.44200 40.55500
H  -4.31800 32.87300 42.55300
H  -4.35200 34.26300 43.56500
H  -3.37600 34.19000 41.94800

