158

Mg 55.51900 23.82100 44.67400
C  53.33900 26.51000 44.21200
C  53.09800 21.78300 43.46000
C  57.87200 21.45500 44.63100
C  57.93200 26.23500 45.88200
N  53.51000 24.26200 43.64100
C  52.80900 25.33800 43.59200
C  51.50500 25.06600 42.83200
C  51.29100 23.52700 43.06600
C  52.70100 23.16500 43.42900
C  50.31800 23.23100 44.22000
C  51.59000 25.51800 41.33200
C  50.23600 25.86200 40.64600
H  49.88100 25.06200 39.36900
N  55.50000 21.86300 43.99600
C  54.36200 21.18100 43.60100
C  54.79200 19.84200 43.32900
C  56.19400 19.72000 43.64900
C  56.59500 20.99900 44.12700
C  53.79800 18.81500 42.83400
C  57.03500 18.38200 43.61900
O  56.53500 17.32600 43.24900
C  58.42400 18.33700 44.01000
N  57.60200 23.87900 45.07700
C  58.29000 22.65500 45.17700
C  59.77500 22.89800 45.61100
C  59.74400 24.42700 45.89800
C  58.30800 24.88700 45.59300
C  60.32200 21.98900 46.75000
C  60.79300 25.24300 45.13300
C  61.84300 25.88900 46.09300
N  55.62100 26.03700 45.05900
C  56.67200 26.80300 45.58600
C  56.13400 28.19400 45.78000
C  54.81900 28.08100 45.30100
C  54.63100 26.74800 44.75400
C  56.83700 29.33600 46.27300
C  53.53200 28.77200 45.16600
O  53.16700 29.90300 45.57700
C  52.55600 27.84200 44.37500
C  52.24900 28.59100 43.12300
O  53.09300 28.92200 42.30700
O  50.87800 28.75000 43.03800
C  50.46000 29.60600 41.89000
H  52.23900 21.17800 43.16200
H  58.67600 20.71800 44.68400
H  58.64600 26.86200 46.41900
H  50.81700 25.74200 43.33900
H  50.95200 23.01700 42.16400
H  49.41100 22.77500 43.82200
H  50.01800 24.15800 44.70700
H  50.70600 22.62700 45.04100
H  52.08500 24.75900 40.72600
H  52.20000 26.41600 41.23600
H  50.31700 26.92500 40.42000
H  49.43100 25.77500 41.37500
H  53.03400 19.41900 42.34400
H  53.39000 18.25600 43.67600
H  54.42500 18.21300 42.17700
H  58.44300 18.71300 45.03300
H  58.93300 18.96400 43.27900
H  58.71400 17.28700 43.96300
H  60.33300 22.77600 44.68300
H  59.87200 24.55900 46.97200
H  61.01700 21.36100 46.19200
H  59.52000 21.37000 47.15100
H  60.86600 22.49400 47.54800
H  60.32100 26.11800 44.68700
H  61.26200 24.65100 44.34700
H  62.68100 25.20300 45.96500
H  61.50100 25.92800 47.12700
H  62.24000 26.80800 45.66200
H  57.02400 29.14000 47.32900
H  56.28400 30.26800 46.15900
H  57.79500 29.39100 45.75500
H  51.66500 27.66600 44.97900
H  50.41800 30.68700 42.02700
H  49.46000 29.33400 41.55100
H  51.12100 29.52500 41.02700
Mg 35.68900 49.05100 25.73000
C  35.68000 46.90800 28.61400
C  34.82400 51.61700 27.66800
C  35.86600 50.99100 22.87900
C  36.36800 46.27700 23.80800
N  35.25500 49.13300 27.91800
C  35.35700 48.25300 28.95100
C  35.15400 48.90900 30.36800
C  34.76500 50.39500 29.98500
C  34.97500 50.39700 28.38900
C  33.35700 50.82400 30.43400
C  36.52700 48.81800 31.18100
C  36.49800 48.05400 32.43400
H  35.25400 48.24300 33.41400
N  35.21600 50.99500 25.29900
C  34.91500 51.92900 26.26800
C  34.88900 53.20700 25.62700
C  35.20400 53.01700 24.28900
C  35.49300 51.58000 24.14400
C  34.47500 54.49800 26.37500
C  35.47700 54.06000 23.22300
O  35.98900 53.82700 22.13200
C  35.14700 55.50800 23.41000
N  35.79800 48.67100 23.53400
C  35.96200 49.61700 22.61100
C  36.20600 48.94100 21.20300
C  36.62800 47.53100 21.57600
C  36.23200 47.45300 23.04800
C  35.01900 48.97700 20.22600
C  38.15500 47.19200 21.33600
C  38.52900 45.80800 20.90800
N  35.95400 47.01300 26.04700
C  36.34100 46.05400 25.20800
C  36.59600 44.76600 25.84000
C  36.29900 45.03700 27.18900
C  35.87300 46.40100 27.30000
C  36.90400 43.47200 25.18400
C  36.16700 44.41900 28.49000
O  36.37000 43.31300 28.87500
C  35.75400 45.62800 29.45300
C  34.47400 45.29800 30.09400
O  33.37000 45.59400 29.65700
O  34.71500 44.59800 31.29300
C  33.49300 44.29900 32.12200
H  34.61100 52.47800 28.30600
H  36.04500 51.65600 22.03100
H  36.70800 45.39900 23.25600
H  34.36300 48.29500 30.79800
H  35.45700 51.18700 30.27000
H  33.65300 51.79500 30.83200
H  32.78400 50.29400 31.19400
H  32.64000 51.00400 29.63300
H  36.92800 49.83200 31.21400
H  37.32700 48.34800 30.60900
H  37.31700 48.37300 33.07900
H  36.61500 46.97900 32.30300
H  33.92300 55.20200 25.75300
H  35.41400 55.01300 26.57600
H  34.03600 54.39700 27.36800
H  35.77500 55.92500 24.19700
H  34.15200 55.77800 23.76500
H  35.18000 56.13500 22.51900
H  37.01000 49.52100 20.75000
H  35.99100 46.76300 21.13800
H  34.49900 49.93300 20.28100
H  34.40100 48.08400 20.32100
H  35.40000 48.80200 19.22000
H  38.59400 47.40200 22.31200
H  38.57400 47.94700 20.67100
H  38.55600 45.70800 19.82300
H  37.73600 45.11000 21.17800
H  39.43600 45.43600 21.38500
H  37.95500 43.36000 24.91400
H  36.31200 43.22500 24.30300
H  36.75900 42.73900 25.97700
H  36.53100 45.82600 30.19100
H  32.62500 44.89700 31.84600
H  33.55500 44.34400 33.21000
H  33.11000 43.29600 31.93700

