158

Mg 49.14400 45.33000 42.62100
C  45.73800 45.77100 41.71000
C  48.80700 42.02000 42.03400
C  52.49100 45.03100 42.49600
C  49.46900 48.87900 42.38600
N  47.42000 44.12400 41.84600
C  46.13100 44.42100 41.61800
C  45.29200 43.17900 41.19600
C  46.26000 41.96200 41.54300
C  47.58700 42.75600 41.80000
C  45.91500 41.08800 42.75100
C  44.54900 43.24800 39.80700
C  45.32400 44.10200 38.69200
H  45.67900 43.27100 37.42600
N  50.50300 43.77000 42.44000
C  50.13100 42.46900 42.34400
C  51.30200 41.64200 42.28600
C  52.44400 42.47200 42.42800
C  51.82400 43.80500 42.43100
C  51.22600 40.18000 42.24200
C  53.96800 42.04200 42.54900
O  54.30000 40.87800 42.48500
C  55.06400 43.01700 42.86100
N  50.68800 46.73100 42.28200
C  51.99900 46.36800 42.47200
C  52.89400 47.60400 42.64300
C  51.98000 48.82000 42.50400
C  50.61800 48.11800 42.34500
C  53.70000 47.54200 43.93700
C  52.31000 49.84000 41.39300
C  51.93500 51.27300 41.71400
N  47.86900 47.05500 42.37400
C  48.10400 48.40200 42.33300
C  46.85700 49.12400 42.26500
C  45.92500 48.13500 42.04200
C  46.60400 46.82500 42.06300
C  46.76500 50.62800 42.36900
C  44.55000 47.92200 41.72500
O  43.67000 48.77700 41.68600
C  44.37800 46.40600 41.34200
C  43.25200 45.85300 42.17800
O  42.36500 45.10600 41.72900
O  43.26300 46.23800 43.49500
C  42.14600 45.77900 44.42600
H  48.64500 40.94100 41.98300
H  53.56300 44.88900 42.64900
H  49.58400 49.96500 42.38600
H  44.54900 43.12900 41.99100
H  46.32100 41.26900 40.70400
H  46.05000 40.02300 42.56000
H  44.88100 41.26300 43.04800
H  46.56200 41.27900 43.60700
H  43.53600 43.59900 40.00500
H  44.43100 42.20900 39.49900
H  46.33200 44.44100 38.93300
H  44.71500 44.96500 38.42300
H  51.03400 40.06000 41.17600
H  50.40300 39.71600 42.78600
H  52.16800 39.66200 42.42200
H  54.88100 43.52800 43.80600
H  55.13200 43.70800 42.02100
H  56.07000 42.59700 42.86800
H  53.60300 47.61800 41.81500
H  51.78300 49.39000 43.41200
H  53.64700 46.62400 44.52200
H  53.39600 48.40600 44.52900
H  54.69900 47.86500 43.64700
H  51.84700 49.49200 40.47000
H  53.39200 49.80200 41.26200
H  52.74700 51.98500 41.57000
H  51.45600 51.44300 42.67900
H  51.25700 51.45600 40.88000
H  47.17000 51.06100 43.28300
H  45.74300 51.00700 42.36600
H  47.24700 51.14400 41.53800
H  44.15800 46.16700 40.30100
H  41.22000 45.89800 43.86300
H  42.15500 46.38500 45.33200
H  42.21100 44.72700 44.70300
Mg 7.18900 53.70500 41.63200
C  6.13200 50.36200 41.08700
C  10.30600 52.96600 40.46100
C  7.64300 56.97200 41.31800
C  3.76200 54.31500 42.32800
N  8.04200 51.88700 40.65300
C  7.50300 50.64000 40.67100
C  8.49100 49.61700 40.05600
C  9.81800 50.43800 40.24700
C  9.34400 51.88200 40.53400
C  10.82800 49.82900 41.24900
C  8.23300 49.21500 38.56800
C  8.14300 50.27900 37.48500
H  6.78300 50.36800 36.77400
N  8.82000 54.82000 41.07700
C  10.04300 54.36100 40.62300
C  10.93800 55.37700 40.34900
C  10.15000 56.54500 40.55300
C  8.81500 56.19800 41.02800
C  12.38600 55.23200 39.88000
C  10.75900 57.97200 40.44300
O  11.91200 58.18800 40.06300
C  9.83300 59.23000 40.67100
N  5.97600 55.41000 41.95400
C  6.41100 56.64100 41.89100
C  5.36300 57.72700 42.03300
C  4.06900 56.79800 42.21500
C  4.62500 55.41000 42.14900
C  5.58900 58.75300 43.19700
C  2.99800 57.05800 40.99900
C  1.71400 57.72200 41.47400
N  5.41100 52.57800 41.90100
C  4.13400 53.00100 42.29000
C  3.26700 51.87000 42.37000
C  3.99300 50.81800 41.90500
C  5.30500 51.28300 41.63300
C  1.83600 51.87000 42.78100
C  3.91000 49.39100 41.57700
O  3.07100 48.45800 41.69900
C  5.40200 49.10700 41.17800
C  5.25400 48.34500 39.86300
O  4.77800 48.77700 38.86000
O  5.86900 47.12800 39.93400
C  5.62000 46.24800 38.75800
H  11.36200 52.70600 40.36400
H  7.78100 58.05100 41.23000
H  2.77700 54.54300 42.74100
H  8.56300 48.73100 40.68800
H  10.42800 50.40800 39.34500
H  11.66700 49.29300 40.80500
H  10.34600 49.19600 41.99500
H  11.44200 50.56500 41.76800
H  7.26300 48.71800 38.57800
H  9.03900 48.50800 38.37000
H  8.93600 50.16000 36.74600
H  8.35500 51.16200 38.08900
H  12.60700 54.18100 39.69200
H  13.03500 55.59700 40.67600
H  12.46300 55.70200 38.90000
H  9.02400 59.17800 39.94200
H  10.38600 60.12100 40.37400
H  9.54100 59.22000 41.72100
H  5.25400 58.22800 41.07100
H  3.62800 56.88100 43.20800
H  4.87900 58.59900 44.01000
H  5.34500 59.72500 42.76800
H  6.61800 58.74100 43.55800
H  2.74700 56.13600 40.47500
H  3.36900 57.62500 40.14500
H  0.98900 56.90900 41.44100
H  1.41000 58.50000 40.77400
H  1.70500 58.18000 42.46300
H  1.20400 51.94300 41.89500
H  1.50800 52.57300 43.54700
H  1.57800 50.94400 43.29400
H  5.87500 48.37000 41.82800
H  4.54400 46.07400 38.72400
H  6.21000 45.34800 38.92800
H  5.94100 46.64700 37.79600

