158

Mg 2.17100 -1.43800 43.30300
C  5.52100 -1.20200 43.34900
C  1.91300 1.35300 41.49600
C  -1.13000 -2.22600 42.62400
C  2.56100 -4.79700 44.38000
N  3.51700 -0.06900 42.63900
C  4.87300 -0.13200 42.74900
C  5.64500 1.02400 42.06800
C  4.40700 1.84400 41.55100
C  3.20300 0.98100 41.92600
C  4.36100 3.33900 42.05600
C  6.56700 0.63800 40.80600
C  7.03400 1.92500 40.05600
H  6.49000 2.26900 38.66200
N  0.63300 -0.45500 42.29100
C  0.65200 0.71100 41.63200
C  -0.66900 1.16300 41.32000
C  -1.55700 0.16700 41.61400
C  -0.67000 -0.87800 42.23700
C  -1.14000 2.44300 40.63400
C  -3.05500 0.21800 41.51900
O  -3.56900 1.17600 40.94700
C  -4.03000 -0.96900 41.95600
N  0.95800 -3.31800 43.33500
C  -0.43800 -3.27300 43.17700
C  -1.10300 -4.62300 43.54600
C  0.11900 -5.45100 44.01100
C  1.31300 -4.48300 43.84200
C  -2.23700 -4.46800 44.54600
C  0.35500 -6.73800 43.11900
C  -0.78200 -7.86900 42.99300
N  3.68900 -2.66100 44.06400
C  3.69400 -3.98700 44.47100
C  5.04600 -4.43900 44.74900
C  5.77900 -3.30700 44.46100
C  4.91000 -2.31200 43.93500
C  5.49000 -5.77300 45.12400
C  7.09900 -2.82300 44.37000
O  8.19500 -3.34300 44.63800
C  6.98400 -1.42300 43.58800
C  7.43700 -0.34200 44.46200
O  6.93100 0.04400 45.50200
O  8.47000 0.26100 43.80000
C  8.88300 1.57700 44.29500
H  1.91000 2.31000 40.97000
H  -2.19800 -2.41800 42.50300
H  2.56100 -5.81900 44.76400
H  6.24000 1.46400 42.86900
H  4.31500 1.94800 40.47000
H  3.42600 3.50600 42.59200
H  4.41800 3.97600 41.17300
H  5.26200 3.43800 42.66000
H  5.86600 0.09900 40.16800
H  7.43200 0.03700 41.08300
H  8.09600 1.79200 39.85000
H  6.88200 2.86800 40.58000
H  -0.22100 2.97300 40.38300
H  -1.77700 3.02600 41.29900
H  -1.60800 2.05900 39.72700
H  -5.08500 -0.74100 42.10700
H  -3.68900 -1.24800 42.95300
H  -3.92500 -1.82200 41.28500
H  -1.37600 -5.05100 42.58100
H  0.16600 -5.70500 45.07000
H  -3.16900 -4.85400 44.13300
H  -2.37600 -3.39400 44.66700
H  -2.10900 -4.90300 45.53800
H  1.27300 -7.22800 43.44300
H  0.41700 -6.20400 42.17100
H  -1.32600 -7.91300 42.04900
H  -1.64000 -7.76800 43.65800
H  -0.38000 -8.81800 43.34700
H  6.01800 -6.16800 44.25600
H  4.60200 -6.33200 45.41800
H  6.14000 -5.53100 45.96400
H  7.67000 -1.57600 42.75500
H  8.06900 2.30300 44.31500
H  9.55600 2.05500 43.58300
H  9.34300 1.54900 45.28300
Mg -5.45600 26.01300 25.90900
C  -4.05100 27.44600 28.80900
C  -7.33200 24.01100 27.88500
C  -6.77000 24.68200 23.14800
C  -3.16200 27.95700 24.13600
N  -5.75900 25.92700 28.12200
C  -5.04000 26.49500 29.08100
C  -5.51500 26.05100 30.42000
C  -6.26100 24.70700 30.10400
C  -6.52300 24.93100 28.58200
C  -5.39500 23.41200 30.26500
C  -6.35000 27.12000 31.16400
C  -6.11900 27.28700 32.71300
H  -5.38100 26.25100 33.40500
N  -6.73600 24.43400 25.51600
C  -7.44100 23.75200 26.46800
C  -8.22600 22.76100 25.80900
C  -8.01900 22.96200 24.42600
C  -7.10800 24.07500 24.33200
C  -9.10000 21.80300 26.61900
C  -8.53700 22.12300 23.25400
O  -8.39900 22.42500 22.09000
C  -9.22600 20.78700 23.56500
N  -4.76700 26.05300 23.88200
C  -5.63600 25.49500 22.92400
C  -5.08200 25.83500 21.50900
C  -4.12100 27.05300 21.88700
C  -4.03600 27.09300 23.38900
C  -4.52600 24.52800 20.86800
C  -4.70800 28.36900 21.31600
C  -3.66800 29.29200 20.70200
N  -3.81100 27.35300 26.27500
C  -2.98600 28.11900 25.49400
C  -2.12700 28.97900 26.29400
C  -2.53500 28.72700 27.56400
C  -3.53900 27.77400 27.55700
C  -1.13900 29.97400 25.74200
C  -2.25400 29.19000 28.87600
O  -1.40700 29.95700 29.28500
C  -3.10300 28.22800 29.80200
C  -2.24300 27.43000 30.71400
O  -1.82400 26.28300 30.56500
O  -2.03100 28.14900 31.92100
C  -0.87900 27.72400 32.67300
H  -7.76600 23.27500 28.56600
H  -7.10900 24.29700 22.18400
H  -2.53900 28.51700 23.43600
H  -4.57700 25.87400 30.94500
H  -7.17100 24.76300 30.70200
H  -4.64700 23.47400 31.05500
H  -4.84700 23.24300 29.33700
H  -5.91200 22.50300 30.57200
H  -7.41200 26.98200 30.96300
H  -6.15900 28.05800 30.64200
H  -7.10100 27.42000 33.16800
H  -5.61400 28.24700 32.82400
H  -9.53100 20.94400 26.10500
H  -10.00600 22.32800 26.92100
H  -8.63200 21.52100 27.56300
H  -8.59600 20.29600 24.30600
H  -9.01400 20.28200 22.62300
H  -10.29900 20.77200 23.75500
H  -5.98500 26.20600 21.02500
H  -3.17600 26.85000 21.38300
H  -3.45300 24.42400 21.02800
H  -4.84200 24.34900 19.84000
H  -4.90500 23.61900 21.33600
H  -5.20300 28.86800 22.14900
H  -5.50800 28.29500 20.57900
H  -2.93900 28.72000 20.12700
H  -3.17600 29.90000 21.46100
H  -4.15800 30.02500 20.06100
H  -1.49500 30.64100 24.95600
H  -0.36200 29.34300 25.30900
H  -0.76600 30.61300 26.54300
H  -3.79700 28.79400 30.42300
H  -0.25200 28.57600 32.93500
H  -0.28400 27.05500 32.05200
H  -1.17900 27.12200 33.53100

