158

Mg 16.90800 52.34400 26.52600
C  19.14200 51.13400 28.90700
C  14.57600 52.93700 28.86100
C  14.87800 53.50500 24.04000
C  19.21900 51.27500 24.05200
N  16.97200 52.10100 28.66200
C  17.96800 51.66100 29.44800
C  17.57300 51.80400 30.89700
C  16.04400 52.02100 30.84200
C  15.80100 52.33800 29.37100
C  15.19400 50.83900 31.46900
C  18.35900 52.95800 31.63100
C  18.52400 52.72500 33.18000
H  17.44900 51.76700 33.82500
N  14.99100 53.10300 26.44100
C  14.23400 53.36200 27.56700
C  13.07300 54.13300 27.20300
C  13.08700 54.24500 25.82100
C  14.37900 53.63400 25.34700
C  12.07200 54.66000 28.31000
C  12.05300 54.89400 24.90300
O  12.18900 54.95700 23.71500
C  10.88400 55.51000 25.60700
N  16.99600 52.34000 24.35000
C  16.06300 52.89900 23.52800
C  16.45200 52.68800 22.01300
C  17.93400 52.32000 22.10000
C  18.13200 52.03200 23.60700
C  15.49300 51.66300 21.40700
C  19.11300 53.30600 21.60500
C  19.80300 54.23100 22.60200
N  18.74100 51.35700 26.45800
C  19.51600 50.97700 25.40800
C  20.71000 50.22700 25.86500
C  20.57900 50.34100 27.23500
C  19.37800 51.05100 27.54900
C  21.91700 49.68600 25.07200
C  21.19800 49.98300 28.42700
O  22.26500 49.45200 28.63400
C  20.34900 50.50600 29.55600
C  19.96100 49.37100 30.40500
O  19.28800 48.34700 30.03600
O  20.50600 49.48200 31.66800
C  20.35600 48.33000 32.54800
H  13.92900 53.20300 29.70000
H  14.25200 53.86300 23.21900
H  20.08500 51.01000 23.44000
H  17.80200 50.86000 31.39000
H  15.73700 52.93900 31.34300
H  14.40600 51.16400 32.14800
H  15.79800 50.06200 31.93600
H  14.73200 50.27600 30.65800
H  17.85300 53.92400 31.63400
H  19.36500 52.93900 31.21300
H  18.41100 53.69500 33.66600
H  19.48600 52.28400 33.44100
H  11.74500 55.68700 28.14600
H  12.59100 54.64600 29.26800
H  11.26600 53.95100 28.50000
H  11.02600 56.43900 26.15900
H  10.40200 54.72300 26.18700
H  10.13700 55.76700 24.85600
H  16.33000 53.67400 21.56500
H  18.12600 51.35500 21.63100
H  16.03800 50.93700 20.80300
H  14.89900 52.24600 20.70400
H  14.80300 51.19900 22.11100
H  18.62000 53.89900 20.83500
H  19.84800 52.64700 21.14200
H  20.88900 54.22700 22.51000
H  19.51400 54.03500 23.63500
H  19.46200 55.24100 22.37600
H  21.55400 49.24400 24.14400
H  22.29700 48.88600 25.70800
H  22.60200 50.51600 24.89900
H  20.89000 51.24900 30.14300
H  20.58100 47.38600 32.05200
H  19.30100 48.22500 32.79900
H  20.90400 48.47700 33.47900
Mg -11.62900 16.47700 41.94200
C  -8.73700 14.36900 41.62400
C  -9.88800 19.04900 40.44700
C  -14.45100 18.17900 41.60400
C  -13.44700 13.61000 42.98900
N  -9.55800 16.66100 41.05300
C  -8.51300 15.71500 41.12100
C  -7.26100 16.30200 40.51800
C  -7.66300 17.78600 40.19200
C  -9.10800 17.84800 40.64500
C  -6.70100 18.82800 40.77500
C  -6.67800 15.57900 39.26600
C  -5.17900 16.04200 39.09100
H  -4.70600 16.45200 37.67900
N  -12.10900 18.39800 41.24600
C  -11.29400 19.24900 40.66300
C  -11.99400 20.55100 40.40700
C  -13.36200 20.26900 40.79700
C  -13.36700 18.89200 41.21000
C  -11.33100 21.82000 39.95900
C  -14.48600 21.31700 40.71300
O  -14.28100 22.47300 40.31400
C  -15.88300 21.08900 41.06400
N  -13.70300 15.89900 41.99000
C  -14.67400 16.83900 41.99500
C  -16.02800 16.20900 42.40800
C  -15.64300 14.79600 42.81200
C  -14.16500 14.76000 42.59800
C  -16.79900 17.08700 43.44400
C  -16.35200 13.63000 42.04600
C  -17.31300 12.74300 42.87200
N  -11.21900 14.43800 42.34400
C  -12.02300 13.37400 42.82300
C  -11.25300 12.15900 43.10600
C  -9.96900 12.54000 42.61200
C  -9.99400 13.93800 42.14400
C  -11.78500 10.92000 43.70200
C  -8.58700 12.00700 42.49000
O  -8.13900 10.93900 42.84400
C  -7.74800 13.21700 41.88000
C  -6.65600 13.55700 42.80900
O  -6.71900 13.54300 44.02300
O  -5.53000 13.67700 42.04700
C  -4.31200 14.03300 42.81500
H  -9.31700 19.83900 39.95400
H  -15.44000 18.64400 41.59000
H  -13.98700 12.68600 43.20800
H  -6.56700 16.24600 41.35600
H  -7.68900 18.11200 39.15300
H  -7.21000 19.62200 41.32100
H  -6.25200 19.42500 39.98100
H  -5.83100 18.40800 41.28000
H  -7.21900 15.94400 38.39300
H  -6.82800 14.51200 39.42600
H  -4.47600 15.23700 39.30800
H  -4.89400 16.90400 39.69500
H  -11.87800 22.28900 39.14100
H  -10.30500 21.71800 39.60700
H  -11.31800 22.58700 40.73400
H  -16.35400 20.48300 40.29000
H  -16.44800 22.02100 41.06800
H  -15.89700 20.60100 42.03900
H  -16.58000 16.41000 41.49000
H  -15.89000 14.61300 43.85800
H  -17.77500 17.34300 43.03000
H  -16.13600 17.88400 43.78100
H  -16.98100 16.41500 44.28300
H  -15.66500 12.95000 41.54200
H  -17.01500 14.04700 41.28800
H  -17.30600 13.10500 43.90000
H  -17.23800 11.65600 42.86500
H  -18.29700 12.94400 42.44800
H  -12.35700 10.26200 43.04700
H  -12.42100 11.16900 44.55100
H  -10.96000 10.25400 43.95700
H  -7.28200 12.84800 40.96700
H  -4.34400 15.08800 43.08600
H  -3.47800 13.78000 42.16000
H  -4.22100 13.42100 43.71200

