158

Mg 7.54300 54.49800 41.36200
C  6.92700 51.10500 40.43800
C  10.78800 54.19200 40.35000
C  7.74700 57.83800 41.54300
C  4.00900 54.69700 41.98300
N  8.60500 52.87800 40.31400
C  8.21400 51.60700 40.10700
C  9.30400 50.89400 39.28000
C  10.63800 51.61300 39.68200
C  10.01200 52.98300 40.22800
C  11.50400 50.93300 40.74300
C  9.00500 51.06300 37.74500
C  9.29900 49.78600 36.86800
H  8.77400 49.76400 35.43200
N  9.12200 55.83200 41.18100
C  10.38700 55.53000 40.72100
C  11.16600 56.71300 40.76400
C  10.36000 57.78200 41.18600
C  9.00500 57.20300 41.38300
C  12.66100 56.67400 40.35300
C  10.79200 59.13000 41.41300
O  11.99200 59.36200 41.29400
C  10.00400 60.26900 41.94400
N  6.03200 56.00100 41.71700
C  6.45700 57.33100 41.68400
C  5.18500 58.21400 41.77300
C  4.00600 57.21900 41.85700
C  4.68700 55.95000 41.83500
C  5.28000 59.41700 42.79500
C  2.99500 57.29800 40.66400
C  1.48600 57.35400 40.97900
N  5.81200 53.15200 41.46000
C  4.53600 53.39900 41.74100
C  3.84300 52.18400 41.71200
C  4.72300 51.23800 41.31500
C  5.93900 51.90900 40.98900
C  2.48000 51.98000 42.29800
C  4.96200 49.82400 41.02900
O  4.28100 48.80200 41.18100
C  6.35800 49.72100 40.28600
C  6.24800 49.32800 38.92300
O  5.68200 49.98600 38.07300
O  6.72200 48.02700 38.81100
C  6.41300 47.46600 37.45300
H  11.86200 54.19600 40.15500
H  7.81800 58.92700 41.58700
H  2.93400 54.60400 42.15100
H  9.16600 49.89200 39.68700
H  11.26000 51.77600 38.80100
H  11.71500 51.63000 41.55300
H  12.41300 50.46200 40.36800
H  10.81800 50.20700 41.17900
H  9.52300 51.92900 37.33300
H  7.94700 51.22500 37.53600
H  8.88100 48.94400 37.42000
H  10.37800 49.64300 36.81200
H  12.99800 57.61400 39.91600
H  12.94100 55.88400 39.65500
H  13.22300 56.44800 41.25900
H  9.61600 59.96200 42.91600
H  9.14000 60.59700 41.36700
H  10.60500 61.16200 42.11800
H  5.03000 58.74400 40.83300
H  3.46100 57.26500 42.79900
H  4.96900 60.29100 42.22400
H  6.27900 59.40600 43.23200
H  4.48300 59.38800 43.53800
H  3.18600 56.37200 40.12200
H  3.26700 58.09100 39.96800
H  1.06900 56.40500 40.64300
H  0.90800 58.09000 40.42000
H  1.34200 57.61200 42.02800
H  2.27600 50.91100 42.34600
H  1.77000 52.49100 41.64600
H  2.32000 52.48700 43.25000
H  6.95200 48.95600 40.78500
H  6.26900 46.44200 37.79800
H  7.25600 47.60200 36.77500
H  5.50600 47.83600 36.97500
Mg 1.56800 41.98500 25.33500
C  3.70400 42.17900 28.19400
C  -0.98200 41.01000 27.34600
C  -0.24400 41.27500 22.56200
C  4.42900 42.21500 23.37800
N  1.42300 41.61600 27.46800
C  2.27900 41.97300 28.41500
C  1.59000 41.87700 29.83000
C  0.12900 41.46900 29.52400
C  0.17100 41.32800 28.03800
C  -0.37200 40.17700 30.19600
C  1.74500 43.25700 30.52900
C  1.75500 43.23500 32.01600
H  1.64800 41.98100 32.91900
N  -0.42800 41.34100 25.04200
C  -1.30300 40.86000 25.95600
C  -2.58400 40.41500 25.34700
C  -2.41700 40.63000 23.90200
C  -0.95800 41.05700 23.75300
C  -3.68600 39.78900 26.16800
C  -3.26600 40.39400 22.70500
O  -2.92800 40.50300 21.55000
C  -4.65700 39.99100 22.90300
N  1.93500 41.87200 23.27200
C  1.07500 41.61500 22.30400
C  1.73200 41.51300 20.94600
C  3.12600 42.19200 21.19300
C  3.20900 42.12500 22.74900
C  1.77700 40.12700 20.30300
C  3.29300 43.62400 20.47500
C  2.96400 44.84600 21.38500
N  3.63900 42.35700 25.67200
C  4.65400 42.39900 24.74400
C  5.91700 42.66200 25.45000
C  5.57300 42.54300 26.87000
C  4.21800 42.33000 26.91200
C  7.20400 42.92100 24.83600
C  6.15100 42.45900 28.15900
O  7.32800 42.45200 28.43900
C  4.93300 42.30500 29.09700
C  5.17500 41.14900 29.99100
O  4.86500 39.97500 29.77600
O  5.64200 41.56400 31.20800
C  5.74500 40.61000 32.25400
H  -1.81800 40.69100 27.97100
H  -0.79000 41.08400 21.63500
H  5.27000 42.31600 22.68900
H  2.04300 41.01900 30.32700
H  -0.56600 42.25600 29.81500
H  -1.31200 40.49200 30.65100
H  0.26900 39.61500 30.87600
H  -0.63100 39.51000 29.37400
H  0.86900 43.69400 30.04900
H  2.49500 43.92000 30.09700
H  0.97100 43.92200 32.33300
H  2.69100 43.75200 32.22800
H  -4.66200 40.05700 25.76400
H  -3.59800 40.10800 27.20700
H  -3.56200 38.70600 26.14600
H  -4.57400 39.17700 23.62300
H  -5.10700 39.71500 21.95000
H  -5.24600 40.78000 23.37100
H  1.10900 42.03700 20.22200
H  3.82500 41.44300 20.82100
H  1.49100 39.47500 21.12800
H  2.73500 39.96400 19.80900
H  1.02500 40.09700 19.51400
H  2.80900 43.63300 19.49800
H  4.36700 43.59000 20.29700
H  2.52200 44.59400 22.34900
H  2.34200 45.55500 20.83800
H  3.81800 45.51000 21.52300
H  7.58800 43.93900 24.90300
H  7.12900 42.53900 23.81800
H  7.83400 42.13400 25.25100
H  4.90900 43.14900 29.78600
H  4.77600 40.13900 32.42000
H  5.93200 41.05300 33.23200
H  6.43200 39.79100 32.03800

