158

Mg 47.38000 25.45900 29.22100
C  48.39400 27.63700 31.82200
C  46.19600 23.30600 31.56500
C  47.05700 23.18700 26.77200
C  49.11800 27.53700 26.95500
N  47.05600 25.60400 31.40200
C  47.59900 26.54600 32.30000
C  47.21400 26.14700 33.80200
C  46.66000 24.74400 33.59600
C  46.56400 24.55800 32.07200
C  47.57000 23.66700 34.27300
C  46.28900 27.25300 34.41300
C  46.70600 27.94500 35.75000
H  47.13100 26.96100 36.88000
N  46.62700 23.47800 29.11500
C  46.19100 22.81600 30.24900
C  45.64900 21.60900 29.75300
C  45.89800 21.52600 28.37100
C  46.56000 22.74300 28.01300
C  44.81500 20.66500 30.64500
C  45.53300 20.39900 27.36400
O  45.98900 20.34200 26.24400
C  44.68100 19.19500 27.69800
N  48.12000 25.37600 27.14800
C  47.65700 24.38400 26.35500
C  48.01500 24.58500 24.90900
C  48.48200 26.05200 24.93400
C  48.58900 26.33800 26.45900
C  49.07300 23.64700 24.37500
C  47.59700 27.00900 24.07600
C  48.16600 28.27100 23.61900
N  48.62800 27.23000 29.36900
C  49.23500 28.00000 28.35700
C  49.78800 29.17100 28.92000
C  49.44700 29.08900 30.29000
C  48.75500 27.87200 30.47300
C  50.32200 30.31900 28.18300
C  49.52600 29.79000 31.59100
O  49.98700 30.89300 31.92400
C  48.96800 28.81300 32.64200
C  50.08500 28.35800 33.52200
O  50.94500 27.62400 33.15400
O  49.96800 28.85000 34.81000
C  50.92800 28.26800 35.74400
H  45.98800 22.58000 32.35400
H  46.76500 22.47900 25.99300
H  49.66100 28.15400 26.23600
H  48.17100 26.07800 34.32000
H  45.63700 24.55000 33.91800
H  48.21300 24.06700 35.05700
H  48.09500 22.91700 33.68200
H  46.80500 23.05800 34.75300
H  45.26700 26.92100 34.59700
H  46.14900 28.08600 33.72400
H  45.82700 28.46300 36.13300
H  47.48100 28.69500 35.59200
H  44.40800 21.14300 31.53600
H  45.37500 19.76000 30.88300
H  43.94900 20.36800 30.05400
H  44.97200 18.73900 28.64300
H  44.79400 18.44800 26.91200
H  43.62400 19.45500 27.62800
H  47.13100 24.49900 24.27800
H  49.47100 26.15300 24.48900
H  50.04700 24.08700 24.15900
H  48.77700 23.21300 23.42000
H  49.21000 22.85000 25.10600
H  46.64700 27.16500 24.58700
H  47.38700 26.56100 23.10500
H  48.34900 28.41500 22.55400
H  49.18800 28.34200 23.98900
H  47.56100 29.07800 24.03100
H  49.51100 31.03200 28.32900
H  50.54900 30.11100 27.13700
H  51.19600 30.48300 28.81400
H  48.21300 29.34600 33.22100
H  51.03500 28.84300 36.66400
H  51.93400 28.23500 35.32700
H  50.53700 27.31700 36.10700
Mg 42.87600 41.96300 26.22800
C  41.91500 44.40200 28.81400
C  43.83600 39.87200 28.53200
C  43.74500 40.06800 23.67500
C  41.86800 44.59600 23.92400
N  42.87000 42.24100 28.33000
C  42.51000 43.18300 29.24800
C  42.76100 42.74000 30.69400
C  43.58300 41.34700 30.53200
C  43.44400 41.09600 29.06500
C  45.15400 41.38200 30.92400
C  41.42800 42.49900 31.50300
C  41.34000 43.02700 32.92100
H  42.48500 42.84700 33.85100
N  43.76100 40.25300 26.09400
C  44.08800 39.42400 27.16600
C  44.61400 38.17400 26.62200
C  44.66900 38.28600 25.20500
C  43.99500 39.55600 24.93200
C  45.08000 37.03900 27.48000
C  45.16900 37.25100 24.25000
O  44.84100 37.37600 23.05500
C  45.96100 36.06700 24.59300
N  42.93300 42.39600 24.15400
C  43.26000 41.35400 23.31600
C  43.16100 41.76000 21.82800
C  42.28000 43.02800 21.92400
C  42.38800 43.39300 23.38900
C  44.48900 41.82900 21.02500
C  40.83200 42.93500 21.42800
C  39.81300 42.00600 22.11100
N  41.94100 44.03200 26.30200
C  41.63200 44.91600 25.25500
C  41.09000 46.18600 25.85200
C  41.12900 45.95800 27.21400
C  41.68600 44.67500 27.43600
C  40.77600 47.46800 25.10000
C  40.88700 46.59200 28.50100
O  40.59600 47.74900 28.73700
C  41.28800 45.57800 29.56000
C  42.05000 46.17500 30.68300
O  43.26300 46.44800 30.68700
O  41.26500 46.38000 31.80500
C  41.86800 46.72400 33.13700
H  43.89600 38.99100 29.17300
H  44.04400 39.45800 22.82000
H  41.62900 45.43100 23.26300
H  43.36400 43.45100 31.25900
H  43.22800 40.42000 30.98400
H  45.31600 40.78500 31.82200
H  45.49500 42.40500 31.08000
H  45.73500 41.07100 30.05600
H  41.27200 41.42100 31.52500
H  40.48800 42.83000 31.06100
H  40.48900 42.71000 33.52400
H  41.19600 44.10600 32.86200
H  44.80600 36.01700 27.21700
H  44.62500 37.20300 28.45700
H  46.16700 37.08600 27.55600
H  46.52200 36.17000 25.52200
H  46.76200 35.98800 23.85900
H  45.50900 35.07700 24.52600
H  42.65300 40.86800 21.46100
H  42.70200 43.80100 21.28300
H  44.59800 42.87100 20.72400
H  44.59600 41.19400 20.14600
H  45.37400 41.52400 21.58200
H  40.92600 42.64400 20.38100
H  40.46800 43.95600 21.30800
H  40.40400 41.21700 22.57500
H  39.11500 41.57700 21.39200
H  39.27100 42.60700 22.84100
H  40.39100 47.19100 24.11800
H  41.74100 47.90800 24.84800
H  40.19300 48.23500 25.61000
H  40.37700 45.21300 30.03300
H  41.81000 45.84100 33.77300
H  41.35900 47.55300 33.62800
H  42.94200 46.88400 33.04000

