158

Mg 2.43000 0.48500 44.26800
C  5.59900 2.09100 43.97500
C  0.85700 3.14200 43.00300
C  -0.17000 -1.50400 43.79800
C  4.35800 -2.39300 45.33600
N  3.17300 2.33200 43.55200
C  4.41000 2.84600 43.55600
C  4.48100 4.32700 43.17100
C  2.95900 4.74000 43.00100
C  2.27200 3.33100 43.18300
C  2.37000 5.83800 43.87400
C  5.35700 4.46000 41.83200
C  5.18300 3.32100 40.80400
H  5.52900 3.59700 39.31400
N  0.60800 0.77300 43.43500
C  0.07000 1.98000 43.05500
C  -1.40700 1.88700 42.96800
C  -1.70600 0.53000 43.17400
C  -0.45600 -0.15500 43.39900
C  -2.26700 2.96400 42.51600
C  -3.08100 -0.00600 42.90600
O  -3.93800 0.84300 42.55600
C  -3.35800 -1.52800 43.01500
N  2.20200 -1.57800 44.41200
C  0.95000 -2.05500 44.32700
C  0.89400 -3.55100 44.88600
C  2.32200 -3.86300 45.30100
C  2.98300 -2.52000 45.12800
C  -0.21800 -3.91800 45.96800
C  2.95900 -5.06300 44.47800
C  3.93800 -5.96800 45.27300
N  4.59300 -0.12600 44.56000
C  5.10900 -1.25900 44.97100
C  6.51300 -1.07000 45.38000
C  6.72000 0.23700 44.93200
C  5.54000 0.80700 44.44900
C  7.29200 -2.03800 46.22100
C  7.69800 1.35100 44.85800
O  8.83200 1.35700 45.18700
C  7.04900 2.56400 44.15300
C  7.29100 3.62800 45.09200
O  8.33600 4.24600 45.25800
O  6.19500 3.86300 45.86500
C  6.23100 4.84700 46.97200
H  0.21100 3.97100 42.70600
H  -1.07100 -2.12000 43.78700
H  4.90100 -3.17100 45.87700
H  4.86200 4.94100 43.98800
H  2.80200 4.92500 41.93800
H  1.94600 6.52900 43.14500
H  3.08500 6.27500 44.57000
H  1.65100 5.33100 44.51800
H  6.42200 4.49500 42.06200
H  5.18000 5.41200 41.33100
H  4.23300 2.79700 40.91400
H  6.02100 2.69200 41.10400
H  -2.35400 2.93500 41.42900
H  -1.88600 3.95600 42.75600
H  -3.22100 2.96800 43.04200
H  -4.40500 -1.81300 42.90700
H  -3.10600 -1.62000 44.07100
H  -2.77700 -2.16600 42.34800
H  0.61700 -4.13000 44.00600
H  2.46900 -4.03000 46.36800
H  -0.52100 -2.94800 46.36100
H  0.23400 -4.56900 46.71600
H  -1.14300 -4.28300 45.52300
H  3.50300 -4.58700 43.66200
H  2.08300 -5.58900 44.09700
H  4.87400 -5.90400 44.71700
H  3.56200 -6.97900 45.11600
H  3.94700 -5.71600 46.33300
H  6.83200 -2.13000 47.20500
H  8.25100 -1.54500 46.38300
H  7.33000 -3.00100 45.71100
H  7.64100 2.69400 43.24700
H  5.46600 4.66100 47.72500
H  6.00400 5.86300 46.64700
H  7.20100 4.78300 47.46600
Mg -9.70000 41.31300 41.76900
C  -8.56200 38.04900 41.12500
C  -6.80000 42.43400 40.39100
C  -11.11600 44.19800 41.87500
C  -12.76000 39.85200 43.01000
N  -8.03400 40.34800 40.73700
C  -7.75400 38.97900 40.63800
C  -6.38200 38.71000 39.82900
C  -5.80400 40.12400 39.83300
C  -6.90800 41.00500 40.39000
C  -4.42400 40.45200 40.59900
C  -6.59700 38.04900 38.40300
C  -5.85600 36.72700 38.04000
H  -4.99100 36.86700 36.75000
N  -9.05200 43.11900 41.20500
C  -7.84800 43.39700 40.68600
C  -7.72900 44.81200 40.51800
C  -8.99400 45.39200 40.89700
C  -9.81100 44.25900 41.30300
C  -6.43900 45.49400 39.84100
C  -9.35900 46.87600 40.86600
O  -8.55800 47.72300 40.43900
C  -10.68700 47.32600 41.21200
N  -11.68900 41.92100 42.29700
C  -11.88600 43.23400 42.40100
C  -13.31500 43.50400 42.85300
C  -13.62600 42.19300 43.67300
C  -12.64200 41.25700 42.96000
C  -13.55000 44.87100 43.64500
C  -15.13300 41.71300 43.47300
C  -15.92300 41.20800 44.68100
N  -10.55300 39.30900 42.07200
C  -11.81900 38.90400 42.51200
C  -11.71500 37.40500 42.59800
C  -10.44800 37.06600 42.08000
C  -9.82800 38.27200 41.72200
C  -12.84600 36.51400 43.12500
C  -9.55200 35.97500 41.84000
O  -9.71800 34.74500 42.04300
C  -8.34600 36.53200 41.10900
C  -7.16700 35.97300 41.85400
O  -6.42700 36.54300 42.62900
O  -6.85000 34.83900 41.14600
C  -5.56200 34.23800 41.43300
H  -5.81600 42.76400 40.05400
H  -11.52000 45.20300 42.01400
H  -13.57800 39.37900 43.55900
H  -5.66400 38.10300 40.38100
H  -5.60300 40.49600 38.82900
H  -3.82900 41.13100 39.98800
H  -3.99100 39.45500 40.67200
H  -4.57500 40.75000 41.63700
H  -6.36600 38.81100 37.65900
H  -7.66100 37.88900 38.23300
H  -6.69700 36.06700 37.82600
H  -5.20300 36.40800 38.85300
H  -6.47200 46.56200 39.62600
H  -6.11000 44.98700 38.93400
H  -5.63100 45.26800 40.53700
H  -10.86500 48.38400 41.01800
H  -10.92800 47.26400 42.27300
H  -11.48400 46.79300 40.69300
H  -13.80200 43.57400 41.88100
H  -13.43000 42.35800 44.73200
H  -13.96200 45.57100 42.91900
H  -12.64600 45.35000 44.02100
H  -14.26200 44.71000 44.45500
H  -15.22000 40.87700 42.77900
H  -15.71400 42.51900 43.02500
H  -16.82300 41.82100 44.71400
H  -15.31700 41.48400 45.54400
H  -16.01000 40.12300 44.74600
H  -13.55400 37.24600 43.51300
H  -12.56600 35.82300 43.92100
H  -13.12900 35.89100 42.27600
H  -8.29700 36.22200 40.06500
H  -5.49000 33.41200 40.72600
H  -5.56100 33.76000 42.41200
H  -4.80500 35.01800 41.34700

