158

Mg 47.64200 43.77800 42.32600
C  44.23900 42.72000 42.20400
C  48.56900 40.36600 42.24300
C  50.73700 44.76000 42.22200
C  46.48200 47.03100 41.94100
N  46.50800 41.80000 42.24300
C  45.15100 41.63300 42.24000
C  44.73200 40.11300 42.23100
C  46.19700 39.43500 42.40400
C  47.14500 40.56200 42.26500
C  46.33300 38.52600 43.63200
C  43.82600 39.57400 41.11200
C  43.98900 40.26300 39.72000
H  43.97500 39.32500 38.50700
N  49.43500 42.73100 42.24800
C  49.59600 41.36900 42.14400
C  51.01500 41.14000 42.07100
C  51.70700 42.35800 41.89700
C  50.64000 43.35000 42.14600
C  51.63300 39.78500 42.12200
C  53.17000 42.52600 41.73400
O  53.86900 41.51900 41.59000
C  53.88400 43.86400 41.61700
N  48.49400 45.64400 42.10400
C  49.76800 45.71600 42.36400
C  50.26800 47.22200 42.29700
C  48.88500 48.04200 42.18400
C  47.89300 46.87900 42.00400
C  51.06000 47.64600 43.61400
C  48.80500 49.17400 41.15900
C  48.10900 50.42500 41.66400
N  45.77700 44.75500 41.99500
C  45.48800 46.07000 41.91800
C  44.03200 46.32500 41.93900
C  43.52900 45.02300 42.09200
C  44.60800 44.08500 42.10300
C  43.40000 47.74200 41.88600
C  42.29900 44.22200 42.32200
O  41.12800 44.60900 42.48700
C  42.78300 42.71800 42.43400
C  42.26500 42.26800 43.77600
O  41.35000 41.46600 43.97100
O  42.98200 42.88200 44.83000
C  42.73700 42.36900 46.17900
H  48.71800 39.28800 42.14900
H  51.78400 45.06200 42.14000
H  46.15200 48.07200 41.96100
H  44.22800 40.07700 43.19700
H  46.37500 38.73300 41.59000
H  47.22300 38.82200 44.18800
H  46.47400 37.55700 43.15500
H  45.44000 38.53500 44.25800
H  42.77400 39.59100 41.39900
H  43.92400 38.49000 41.04000
H  44.88200 40.88900 39.71400
H  43.21100 41.02500 39.75500
H  52.40200 39.91000 42.88500
H  52.17900 39.51900 41.21800
H  50.90800 38.98100 42.24900
H  53.41900 44.55900 40.91800
H  54.86300 43.53800 41.26400
H  54.01400 44.35900 42.57900
H  50.86700 47.45700 41.41800
H  48.59200 48.53700 43.11000
H  51.94400 48.24300 43.39100
H  51.49500 46.73200 44.01700
H  50.52200 48.24000 44.35300
H  48.13200 48.79000 40.39300
H  49.82900 49.30900 40.81200
H  47.71400 50.84000 40.73600
H  48.81500 51.17600 42.01800
H  47.26700 50.24100 42.33200
H  42.31300 47.75200 41.96500
H  43.59000 48.14100 40.89000
H  43.84300 48.39700 42.63700
H  42.27500 42.23700 41.59900
H  43.22200 41.44100 46.48000
H  41.72700 42.32900 46.58700
H  43.26900 43.11600 46.76900
Mg -11.24800 16.31800 42.55000
C  -8.02000 16.96600 42.89300
C  -11.97100 19.44000 41.65000
C  -14.42000 15.37900 42.24000
C  -10.40400 12.81800 42.40300
N  -10.17200 17.96100 42.05400
C  -8.79600 18.00000 42.31000
C  -8.32500 19.41700 42.05300
C  -9.62700 20.25700 41.82500
C  -10.67500 19.17400 41.85800
C  -9.92700 21.38400 42.86100
C  -7.34800 19.57000 40.83600
C  -6.20200 20.56500 40.93600
H  -4.90600 20.00200 40.39100
N  -13.04400 17.29600 42.07200
C  -13.12900 18.59500 41.76700
C  -14.50400 18.98800 41.57700
C  -15.26300 17.79500 41.74700
C  -14.29100 16.75400 41.96400
C  -14.97700 20.42300 41.40800
C  -16.77800 17.73600 41.58000
O  -17.42700 18.76500 41.35400
C  -17.56300 16.49200 41.81800
N  -12.28000 14.32300 42.18200
C  -13.57300 14.28400 42.39800
C  -13.97900 12.85600 42.71100
C  -12.77700 12.12500 42.07600
C  -11.69400 13.11300 42.18900
C  -14.22200 12.43400 44.13300
C  -13.06300 11.56900 40.73000
C  -13.51800 10.07500 40.63600
N  -9.56200 15.11000 42.77600
C  -9.40200 13.68900 42.75100
C  -7.99500 13.42000 43.03700
C  -7.43600 14.70100 43.19200
C  -8.44600 15.68800 43.06600
C  -7.30100 12.04300 43.12000
C  -6.17500 15.50800 43.55600
O  -5.01700 15.10900 43.83600
C  -6.64000 16.98400 43.36800
C  -6.50200 17.71800 44.64200
O  -7.08800 17.36000 45.63300
O  -5.72800 18.84700 44.51700
C  -5.36900 19.36600 45.85500
H  -12.21300 20.49500 41.50800
H  -15.45400 15.07700 42.41700
H  -10.24900 11.74000 42.47600
H  -7.83100 19.77200 42.95700
H  -9.76800 20.76600 40.87100
H  -10.40200 20.98100 43.75500
H  -10.55300 22.15300 42.40900
H  -9.06700 21.93300 43.24500
H  -7.87500 19.90500 39.94200
H  -6.99700 18.57000 40.58200
H  -5.99200 20.73000 41.99200
H  -6.41900 21.52200 40.46100
H  -14.14600 21.12600 41.34600
H  -15.55900 20.58500 42.31500
H  -15.49200 20.58400 40.46100
H  -18.64100 16.65600 41.81100
H  -17.24300 16.17400 42.81000
H  -17.30500 15.73200 41.08100
H  -14.91300 12.68700 42.17600
H  -12.54000 11.25900 42.69400
H  -15.22700 12.03600 44.27000
H  -14.00900 13.21000 44.86700
H  -13.60100 11.59400 44.44600
H  -12.11800 11.57900 40.18700
H  -13.81900 12.23200 40.30900
H  -13.11800 9.65900 41.56000
H  -13.22300 9.50600 39.75500
H  -14.60600 10.12300 40.58000
H  -8.10500 11.30800 43.16500
H  -6.76100 11.97200 44.06400
H  -6.73000 11.79300 42.22500
H  -5.83800 17.41500 42.76800
H  -4.87600 18.64100 46.50200
H  -6.22600 19.84100 46.33300
H  -4.60800 20.12400 45.67000

