158

Mg 7.46500 2.80300 28.09900
C  8.80700 1.32200 30.95700
C  5.26000 4.52100 30.09400
C  6.06400 3.97200 25.27900
C  9.62500 0.90900 26.14500
N  7.02900 2.76700 30.25600
C  7.82800 2.29100 31.25800
C  7.38100 2.68600 32.67100
C  6.15700 3.61500 32.37000
C  6.13100 3.67800 30.79500
C  4.87500 3.22300 33.00700
C  8.49400 3.33900 33.50400
C  8.48700 2.80700 34.99200
H  8.78400 3.92100 35.99900
N  5.94700 4.20500 27.76800
C  5.14300 4.76400 28.68200
C  4.25400 5.70400 28.09600
C  4.59100 5.66000 26.67900
C  5.54700 4.52200 26.49000
C  3.35500 6.56600 28.85100
C  4.18900 6.49700 25.52800
O  4.60100 6.44000 24.37100
C  3.14900 7.58800 25.93600
N  7.75500 2.45100 25.94300
C  7.02100 3.01600 25.07900
C  7.39100 2.67200 23.64000
C  8.59000 1.72000 23.87000
C  8.64600 1.69700 25.39300
C  6.20400 1.96400 22.82500
C  9.99300 2.18600 23.26800
C  10.70300 3.31800 23.89600
N  8.85200 1.30700 28.41200
C  9.66700 0.68100 27.54300
C  10.55700 -0.28300 28.19300
C  10.33400 -0.01100 29.56100
C  9.25600 0.93800 29.63600
C  11.62400 -1.15200 27.57800
C  10.73900 -0.37300 30.90600
O  11.64200 -1.05900 31.34500
C  9.77100 0.55200 31.88400
C  9.02800 -0.34100 32.82000
O  8.10400 -0.98400 32.50000
O  9.67300 -0.36800 34.05400
C  9.27900 -1.34000 35.08200
H  4.65500 5.12600 30.77300
H  5.52300 4.18100 24.35400
H  10.34200 0.31800 25.57200
H  7.04100 1.78800 33.18700
H  6.41000 4.61100 32.73200
H  4.68200 3.95600 33.79000
H  4.97000 2.26700 33.52200
H  3.99900 3.32900 32.36700
H  8.34200 4.41300 33.39800
H  9.52000 3.23700 33.14900
H  9.19500 2.00700 35.21000
H  7.45100 2.53900 35.19500
H  3.79100 7.56400 28.80800
H  3.22600 6.35000 29.91200
H  2.34400 6.57500 28.44300
H  2.25200 7.11000 26.33100
H  2.91900 8.09000 24.99600
H  3.54800 8.38000 26.57000
H  7.81100 3.53700 23.12700
H  8.41600 0.69100 23.55800
H  5.25100 2.12000 23.33000
H  6.31900 0.89700 22.63600
H  6.10300 2.39900 21.83100
H  9.80000 2.55400 22.26100
H  10.67500 1.35800 23.07400
H  10.25800 3.72100 24.80600
H  10.68500 4.11200 23.15000
H  11.72600 3.06400 24.17300
H  11.12800 -2.10500 27.39300
H  12.44200 -1.34900 28.27100
H  11.96400 -0.79000 26.60700
H  10.39500 1.21700 32.48000
H  8.64700 -2.12400 34.66500
H  8.70200 -0.82400 35.84900
H  10.21800 -1.64400 35.54500
Mg 54.09600 24.76900 44.61200
C  51.45600 27.08100 43.81400
C  51.88000 22.41200 43.55200
C  56.71800 22.79400 44.44600
C  56.18000 27.51200 45.37300
N  51.90300 24.82400 43.53900
C  50.96900 25.85700 43.48000
C  49.60100 25.33700 42.89200
C  49.72100 23.81800 43.30500
C  51.27200 23.62100 43.48400
C  48.86900 23.42100 44.49600
C  49.41400 25.50700 41.31900
C  47.96200 25.39500 40.91300
H  47.65600 25.31200 39.48200
N  54.24400 22.80600 44.07900
C  53.20600 21.97000 43.78900
C  53.75200 20.68100 43.53400
C  55.16400 20.78200 43.78700
C  55.45100 22.20700 44.05600
C  52.89000 19.31700 43.35000
C  56.07300 19.60200 43.82200
O  55.76100 18.45500 43.58600
C  57.52700 19.76300 44.08500
N  56.23300 25.11700 44.90900
C  57.06100 24.09900 44.85700
C  58.44100 24.59400 45.32300
C  58.21800 26.09000 45.80000
C  56.79800 26.24500 45.27000
C  59.08100 23.71600 46.41100
C  59.35300 26.97900 45.38500
C  59.15700 27.83900 44.11300
N  53.93600 26.85900 44.59100
C  54.79600 27.79200 45.12100
C  54.06100 29.03200 45.32400
C  52.78200 28.76400 44.76900
C  52.74600 27.45700 44.34200
C  54.55500 30.34500 45.88200
C  51.46500 29.36800 44.62700
O  51.08800 30.52200 44.91500
C  50.62700 28.32500 43.83900
C  50.36200 28.92400 42.52300
O  51.22400 29.49600 41.85500
O  49.02600 28.96800 42.25700
C  48.68900 29.58300 40.96200
H  51.26300 21.52400 43.40200
H  57.57600 22.11900 44.46100
H  56.72600 28.40700 45.67800
H  48.89100 25.94600 43.45200
H  49.51500 23.07500 42.53500
H  48.25900 22.53000 44.34500
H  48.17700 24.18100 44.85900
H  49.49100 22.99700 45.28400
H  50.02900 24.75900 40.81800
H  49.85500 26.45700 41.01500
H  47.48400 26.26600 41.36100
H  47.59500 24.55800 41.50800
H  53.36600 18.48700 43.87100
H  52.82900 19.02900 42.30100
H  51.95700 19.53700 43.86800
H  57.81600 20.51100 43.34600
H  58.08300 18.85600 43.85000
H  57.72600 20.02400 45.12400
H  59.24300 24.56800 44.58500
H  58.23000 25.97200 46.88400
H  58.50000 22.79500 46.44000
H  59.12500 24.22200 47.37500
H  60.11700 23.48100 46.16600
H  60.26600 26.38700 45.32000
H  59.51300 27.69100 46.19500
H  58.38400 27.40600 43.47700
H  60.08700 28.11300 43.61600
H  58.94200 28.78700 44.60600
H  55.59200 30.38600 46.21200
H  53.93800 30.54500 46.75800
H  54.44000 31.15100 45.15700
H  49.67000 28.12100 44.31900
H  47.99200 28.89600 40.48200
H  49.57000 29.81600 40.36300
H  48.08200 30.48800 40.95200

