158

Mg 24.82900 1.24100 29.39300
C  27.04900 1.01300 32.08600
C  22.20600 1.53300 31.70800
C  22.66300 1.25000 26.87000
C  27.52500 0.48700 27.18900
N  24.69500 1.33600 31.64700
C  25.71200 1.22500 32.53800
C  25.23400 1.57000 33.96300
C  23.65900 1.54500 33.88800
C  23.48900 1.54900 32.35900
C  23.02400 0.27500 34.48300
C  25.95200 2.79600 34.73700
C  26.45100 2.43700 36.17500
H  26.38200 3.35400 37.33900
N  22.78000 1.49600 29.36200
C  21.81100 1.56400 30.36500
C  20.51500 1.68000 29.78500
C  20.63900 1.55900 28.40000
C  22.07100 1.46800 28.16000
C  19.32700 1.71000 30.70300
C  19.57200 1.55600 27.29000
O  19.87100 1.65000 26.10000
C  18.11200 1.50100 27.78400
N  25.01000 0.71400 27.38300
C  23.98700 0.99100 26.52900
C  24.46400 1.07700 25.06000
C  25.98300 0.77000 25.17700
C  26.20500 0.67800 26.66100
C  23.78100 0.08700 24.14100
C  26.84400 1.86500 24.46700
C  26.84800 3.21800 25.11100
N  26.77600 0.82300 29.54500
C  27.76000 0.43300 28.59600
C  29.12800 0.27700 29.21100
C  28.82700 0.47600 30.61800
C  27.41000 0.77100 30.75400
C  30.42700 -0.11100 28.49700
C  29.44100 0.50200 32.01100
O  30.64700 0.33200 32.26700
C  28.23200 0.72900 33.00700
C  28.07300 -0.44500 33.79200
O  27.16600 -1.20000 33.74400
O  28.90300 -0.29900 34.89200
C  28.50400 -0.92900 36.12000
H  21.37000 1.61600 32.40600
H  22.09300 1.41200 25.95300
H  28.35800 0.50400 26.48300
H  25.41900 0.63100 34.48500
H  23.22800 2.42000 34.37500
H  23.49100 -0.65500 34.15700
H  21.95600 0.16400 34.29500
H  23.04800 0.33000 35.57100
H  25.26600 3.64100 34.79200
H  26.80200 3.20400 34.19200
H  27.51900 2.32900 35.98400
H  26.11600 1.48000 36.57400
H  18.89000 0.72200 30.84400
H  18.67200 2.40400 30.17600
H  19.45900 2.15000 31.69100
H  18.14800 0.83300 28.64500
H  17.38200 1.07600 27.09500
H  17.89600 2.54000 28.03400
H  24.35000 2.09000 24.67400
H  26.34300 -0.16600 24.74900
H  22.80000 -0.19700 24.52300
H  24.36200 -0.83300 24.07400
H  23.57900 0.51500 23.15900
H  26.48200 2.09600 23.46500
H  27.86500 1.48500 24.44400
H  26.41300 3.93800 24.41700
H  27.83900 3.52500 25.44400
H  26.20900 3.26300 25.99300
H  31.37800 0.33000 28.79700
H  30.28700 0.00200 27.42200
H  30.45100 -1.18300 28.69200
H  28.52800 1.58600 33.61200
H  28.41700 -1.98200 35.85300
H  27.55200 -0.53000 36.46900
H  29.31700 -0.70300 36.80900
Mg 40.72500 9.02400 29.71000
C  42.72900 10.10300 32.33000
C  38.77200 7.35400 31.91100
C  39.25000 7.67200 27.20000
C  43.27300 10.29200 27.49900
N  40.78900 8.76900 31.89100
C  41.60700 9.43800 32.74200
C  41.04200 9.35900 34.11900
C  40.07600 8.15000 34.05200
C  39.84600 8.07300 32.52200
C  40.68300 6.80400 34.60900
C  40.23600 10.71400 34.61600
C  40.12500 10.76100 36.18100
H  41.23900 11.46800 36.96900
N  39.02100 7.76700 29.55200
C  38.31100 7.26100 30.59900
C  37.13600 6.61900 30.06400
C  37.25000 6.73100 28.64300
C  38.53200 7.42300 28.42400
C  36.05200 6.00800 30.92000
C  36.27000 6.29900 27.57000
O  36.42300 6.50700 26.38800
C  34.96800 5.67300 27.99500
N  41.28800 8.77500 27.69800
C  40.41900 8.25100 26.81800
C  40.75900 8.52200 25.33800
C  41.98800 9.46100 25.50500
C  42.24900 9.50500 26.99300
C  40.87100 7.27200 24.50400
C  41.71500 10.83100 24.90700
C  40.87100 11.73300 25.82100
N  42.55900 10.01900 29.82900
C  43.47900 10.40100 28.89500
C  44.59800 11.04400 29.58100
C  44.29100 11.01500 30.94000
C  43.09600 10.33300 31.02400
C  45.80700 11.79800 29.02500
C  44.77100 11.41500 32.22200
O  45.73300 12.04300 32.52900
C  43.73500 10.83400 33.20900
C  44.41800 10.05000 34.21600
O  44.55500 8.81700 34.20700
O  44.91800 10.89100 35.19300
C  45.59900 10.27800 36.26500
H  38.14900 6.83900 32.64600
H  38.82400 7.11200 26.36600
H  43.91600 10.76000 26.75000
H  41.87900 9.22900 34.80500
H  39.19000 8.30100 34.67000
H  41.74900 6.70600 34.39900
H  40.31600 5.91800 34.09200
H  40.51700 6.51600 35.64700
H  39.20800 10.72200 34.25300
H  40.76200 11.55100 34.15800
H  40.18300 9.72000 36.50200
H  39.17700 11.20300 36.48800
H  35.90900 4.95700 30.66800
H  35.05300 6.43900 30.85800
H  36.29200 5.90500 31.97900
H  35.03100 4.68300 28.44600
H  34.25300 5.59800 27.17500
H  34.57700 6.38000 28.72600
H  39.91300 9.02600 24.87000
H  42.92300 9.02100 25.15700
H  40.16800 7.17500 23.67700
H  40.77700 6.40700 25.16100
H  41.85400 7.43700 24.06500
H  41.14600 10.75200 23.98100
H  42.65000 11.34700 24.68600
H  40.66100 11.31100 26.80300
H  39.83700 11.86600 25.50100
H  41.37900 12.67900 26.00800
H  45.62000 12.06600 27.98500
H  46.71000 11.19800 29.13500
H  45.91300 12.67900 29.65900
H  43.27600 11.69600 33.69300
H  46.37400 9.65200 35.82200
H  44.87500 9.90400 36.98900
H  46.14400 10.99500 36.87700

