158

Mg 24.46600 -5.25900 45.99600
C  26.60600 -2.69300 44.33300
C  22.05700 -4.30400 43.83700
C  22.84000 -7.97500 46.98800
C  27.42100 -6.21700 47.66500
N  24.42300 -3.68700 44.25200
C  25.31400 -2.77500 43.78500
C  24.71200 -1.92600 42.67600
C  23.13500 -2.21100 42.76900
C  23.18600 -3.52600 43.63700
C  22.15700 -1.01800 43.25600
C  25.28600 -2.28400 41.28600
C  26.23900 -1.25500 40.55900
H  26.17000 -1.21200 39.02300
N  22.65300 -5.96400 45.53700
C  21.77600 -5.39700 44.69100
C  20.50900 -6.24100 44.71100
C  20.77500 -7.39100 45.56100
C  22.14200 -7.10400 46.12200
C  19.26200 -5.96500 43.84600
C  19.82800 -8.66000 45.83500
O  18.78600 -8.67700 45.22100
C  20.12200 -9.78300 46.69600
N  25.05900 -6.89700 47.13400
C  24.20400 -7.85100 47.43700
C  24.98300 -8.96100 48.38100
C  26.33500 -8.26800 48.65300
C  26.24700 -7.09600 47.72000
C  24.32300 -9.32000 49.72100
C  27.47900 -9.17400 48.21000
C  28.59200 -9.29800 49.16500
N  26.59100 -4.60400 46.08600
C  27.57500 -5.09500 46.86400
C  28.78800 -4.32700 46.57900
C  28.38700 -3.38300 45.66600
C  27.07300 -3.59300 45.34300
C  30.18900 -4.49300 47.11500
C  28.94500 -2.27800 44.85000
O  30.06500 -1.73000 44.81800
C  27.72100 -1.75600 44.08500
C  27.59700 -0.32800 44.49300
O  26.68000 0.07800 45.21000
O  28.37700 0.49300 43.76300
C  27.90400 1.86500 43.73900
H  21.23500 -3.96000 43.20500
H  22.37000 -8.90400 47.32000
H  28.34000 -6.49000 48.18800
H  24.84400 -0.86200 42.87400
H  22.77800 -2.48700 41.77700
H  21.44500 -1.38700 43.99400
H  21.67900 -0.65800 42.34500
H  22.76200 -0.21800 43.68100
H  24.44000 -2.44000 40.61600
H  25.89100 -3.18700 41.35700
H  27.28700 -1.25900 40.85800
H  25.93500 -0.29700 40.98200
H  19.34900 -5.09900 43.19000
H  18.43600 -5.86700 44.55000
H  19.05400 -6.77200 43.14400
H  19.21800 -10.38500 46.79900
H  20.21300 -9.35900 47.69600
H  20.93700 -10.44200 46.39700
H  24.93900 -9.85900 47.76300
H  26.59600 -7.84800 49.62500
H  23.76700 -10.23500 49.52000
H  23.62100 -8.58000 50.10400
H  25.03400 -9.47400 50.53200
H  27.80600 -8.81800 47.23300
H  27.13900 -10.19800 48.05700
H  28.87400 -8.29500 49.48400
H  29.43600 -9.73300 48.62800
H  28.16200 -9.86500 49.99000
H  30.26100 -4.64100 48.19200
H  30.79700 -3.59100 47.04900
H  30.64200 -5.27800 46.50900
H  27.75700 -1.65800 43.00000
H  27.99600 2.20500 44.77000
H  26.90600 1.97300 43.31300
H  28.53400 2.43300 43.05500
Mg 30.65500 58.31700 41.16400
C  27.66800 56.65100 40.34100
C  32.51200 55.65800 39.76900
C  33.38700 60.16500 41.43300
C  28.71500 61.07700 42.17200
N  30.10700 56.43200 40.21600
C  28.82700 55.88300 40.06400
C  28.85500 54.53600 39.44200
C  30.40400 54.19100 39.55400
C  31.06900 55.51600 39.85000
C  30.66400 53.22700 40.75800
C  28.21200 54.54200 37.96600
C  28.41600 55.80000 37.07200
H  27.91800 55.61800 35.62400
N  32.62800 57.99500 40.55300
C  33.24000 56.80900 40.00100
C  34.65300 56.99900 39.78000
C  34.92800 58.36100 40.23400
C  33.61700 58.97100 40.70000
C  35.59300 55.93100 39.20500
C  36.19900 59.23300 40.04900
O  37.19700 58.73000 39.54700
C  36.25600 60.69500 40.30800
N  30.97300 60.39200 41.60500
C  32.24400 60.73800 41.88600
C  32.24700 62.20200 42.38800
C  30.79400 62.35100 42.86600
C  30.09900 61.27100 42.17000
C  33.45200 62.45500 43.38000
C  30.24300 63.76500 42.52200
C  29.65900 64.54300 43.70800
N  28.57100 58.87800 41.25400
C  27.97100 60.01500 41.59400
C  26.56700 59.81100 41.57900
C  26.34200 58.45900 41.08500
C  27.63800 57.97100 40.83100
C  25.52000 60.81000 41.97800
C  25.36800 57.51700 40.78800
O  24.12600 57.55000 40.90900
C  26.18100 56.26800 40.19600
C  25.73900 54.98300 40.73500
O  26.09100 54.53900 41.83600
O  24.91200 54.28700 39.82800
C  24.58300 52.87300 40.09800
H  33.17600 54.81500 39.56700
H  34.27900 60.77000 41.60800
H  28.23100 61.97400 42.56400
H  28.23100 53.86000 40.02700
H  30.96100 53.86600 38.67500
H  30.92400 53.84700 41.61600
H  31.50400 52.60900 40.44100
H  29.86100 52.56600 41.08600
H  27.15800 54.27300 37.89900
H  28.65000 53.72300 37.39700
H  29.48000 56.03400 37.11500
H  27.90800 56.61600 37.58600
H  36.67200 56.05900 39.29100
H  35.27400 55.57900 38.22400
H  35.28700 55.09500 39.83400
H  35.39800 61.10600 39.77500
H  37.13100 61.10900 39.80700
H  36.22000 60.81700 41.39100
H  32.44000 62.83000 41.51800
H  30.75100 62.21500 43.94600
H  33.79800 61.50400 43.78500
H  32.94400 62.97200 44.19300
H  34.28300 63.10500 43.10200
H  29.46000 63.61400 41.78000
H  31.09800 64.26100 42.06100
H  29.46500 63.81100 44.49200
H  28.73700 65.00000 43.34900
H  30.38000 65.31100 43.99100
H  25.51700 61.66500 41.30200
H  25.72100 61.15600 42.99100
H  24.58000 60.25800 41.98600
H  25.99000 56.28100 39.12300
H  24.16400 52.27800 39.28700
H  23.86500 52.82700 40.91700
H  25.56500 52.44300 40.29500

