158

Mg 25.70500 51.11000 26.27700
C  23.57500 52.00000 28.97300
C  27.82600 49.84700 28.54800
C  27.71800 50.31500 23.70000
C  23.41400 52.38000 24.07500
N  25.56100 50.74200 28.53800
C  24.69200 51.30100 29.43600
C  25.14700 51.02600 30.88200
C  26.56100 50.37700 30.70900
C  26.64800 50.29100 29.13800
C  27.81200 51.07400 31.51600
C  24.06500 50.17200 31.70200
C  23.36600 50.81300 32.92800
H  24.16800 51.59100 33.98400
N  27.48600 50.29500 26.15000
C  28.23800 49.86600 27.17200
C  29.50600 49.38000 26.62500
C  29.49000 49.66000 25.28200
C  28.18600 50.12900 24.97500
C  30.64800 48.84500 27.51900
C  30.65100 49.48700 24.35000
O  30.58100 49.89100 23.18900
C  31.94600 48.83700 24.77100
N  25.61300 51.36500 24.20100
C  26.53500 50.91000 23.30800
C  26.04200 51.09900 21.87200
C  24.54500 51.34800 22.10200
C  24.53300 51.73500 23.58500
C  26.79400 52.33100 21.06400
C  23.63300 50.10600 21.80500
C  22.42100 50.34600 20.92900
N  23.91600 52.10800 26.46200
C  23.07700 52.51900 25.42200
C  21.88200 53.12800 26.11400
C  22.06300 52.89900 27.48000
C  23.27300 52.25700 27.62100
C  20.71200 53.77200 25.41100
C  21.50600 53.18000 28.72500
O  20.53100 53.83400 28.99900
C  22.45300 52.54900 29.82800
C  22.86400 53.66500 30.63900
O  23.64900 54.52500 30.31600
O  22.06100 53.60100 31.71900
C  21.91500 54.76500 32.65700
H  28.54300 49.42700 29.25600
H  28.34300 49.95300 22.88000
H  22.79200 52.67000 23.22600
H  25.20200 52.02700 31.31100
H  26.54400 49.33300 31.02300
H  28.38300 51.75000 30.87900
H  28.47500 50.27200 31.84100
H  27.50600 51.56400 32.44000
H  24.49400 49.20100 31.95000
H  23.32300 50.00600 30.92100
H  22.77000 50.02600 33.39100
H  22.59500 51.52000 32.62300
H  31.54800 49.45000 27.40000
H  30.79300 47.78500 27.30900
H  30.38800 49.00600 28.56500
H  32.57300 49.46600 25.40300
H  32.44200 48.65100 23.81900
H  31.60900 47.96600 25.33300
H  26.21800 50.16900 21.33100
H  24.31300 52.23200 21.50800
H  27.77600 52.67700 21.38700
H  26.23700 53.26500 20.99200
H  26.97600 51.92800 20.06800
H  23.22700 49.68400 22.72400
H  24.13700 49.27500 21.31200
H  22.53100 49.77800 20.00500
H  22.28300 51.42500 20.85500
H  21.61700 49.74800 21.35800
H  21.01300 54.34200 24.53200
H  20.11100 54.38000 26.08700
H  20.00900 53.02800 25.03900
H  21.95400 51.75600 30.38500
H  22.63800 54.69700 33.47000
H  20.88900 54.83000 33.01600
H  22.17000 55.71900 32.19500
Mg -2.39500 34.82100 26.45600
C  -3.41100 32.89800 29.35600
C  -1.26600 37.29800 28.54700
C  -2.36900 36.95100 23.83000
C  -4.27500 32.62600 24.46400
N  -2.41700 35.11200 28.70900
C  -2.79100 34.19500 29.66800
C  -2.36800 34.72000 31.14700
C  -1.71900 36.07600 30.78700
C  -1.71900 36.11800 29.25200
C  -2.29600 37.34100 31.47400
C  -1.44400 33.73200 32.02400
C  -1.97800 33.32600 33.44400
H  -0.97900 33.29200 34.51900
N  -1.75300 36.80400 26.23700
C  -1.35100 37.64700 27.20100
C  -0.76300 38.90200 26.56300
C  -1.20200 38.71100 25.14500
C  -1.87900 37.43500 24.99200
C  0.01900 39.99300 27.32400
C  -1.06000 39.74400 24.07600
O  -1.60200 39.75500 23.01200
C  -0.13400 40.87600 24.25300
N  -3.32200 34.90100 24.37700
C  -3.01200 35.81300 23.52500
C  -3.40000 35.38400 22.10900
C  -3.81400 33.83900 22.33400
C  -3.82700 33.75000 23.83200
C  -4.40000 36.36000 21.47200
C  -2.98500 32.86900 21.41500
C  -1.58100 32.49500 22.04400
N  -3.55900 33.05300 26.75100
C  -4.18100 32.23300 25.84100
C  -4.68600 31.07300 26.57400
C  -4.41400 31.32700 27.91400
C  -3.77900 32.56700 27.98200
C  -5.57600 30.03700 26.09900
C  -4.59600 30.87700 29.25900
O  -5.14100 29.87300 29.72100
C  -3.97800 31.89600 30.27800
C  -5.06200 32.34900 31.27700
O  -6.11900 32.96500 30.97700
O  -4.81100 31.88600 32.51100
C  -5.84200 31.97700 33.54100
H  -0.77800 38.08100 29.13200
H  -2.37000 37.53400 22.90700
H  -4.83500 31.90500 23.86500
H  -3.22000 34.88200 31.80700
H  -0.68100 36.17000 31.10800
H  -2.84600 37.02600 32.36100
H  -3.09900 37.90600 31.00100
H  -1.55200 38.07400 31.78300
H  -0.44600 34.15700 32.13300
H  -1.17300 32.83000 31.47500
H  -2.31900 32.29200 33.48000
H  -2.89000 33.89000 33.63900
H  -0.60600 40.88200 27.40800
H  0.98100 40.31400 26.92300
H  0.26500 39.68500 28.34000
H  -0.56600 41.54700 24.99500
H  0.07800 41.45200 23.35200
H  0.85000 40.49600 24.52700
H  -2.53200 35.37800 21.45000
H  -4.85900 33.73300 22.04200
H  -5.09900 35.78900 20.86100
H  -3.88800 37.00200 20.75500
H  -4.98100 36.83800 22.26000
H  -2.80300 33.43900 20.50400
H  -3.51300 31.92700 21.26400
H  -0.87200 33.18600 21.58600
H  -1.33500 31.49900 21.67700
H  -1.49000 32.69800 23.11100
H  -5.30400 29.82800 25.06400
H  -6.60400 30.39300 26.16800
H  -5.54200 29.06900 26.59800
H  -3.04300 31.50700 30.68000
H  -5.63100 31.24500 34.32000
H  -6.83400 31.78800 33.13200
H  -5.81000 32.94000 34.04900

