158

Mg 26.70700 49.96300 25.73800
C  24.86100 51.58800 28.40000
C  29.03600 49.26600 28.17100
C  28.71000 49.01300 23.31000
C  24.72000 51.79500 23.52800
N  26.70400 50.17800 28.09100
C  25.90400 50.87100 28.93300
C  26.35100 50.71700 30.39600
C  27.79300 50.13200 30.24100
C  27.84700 49.83800 28.73200
C  28.90500 51.09300 30.68000
C  25.36200 49.86500 31.23600
C  24.96200 50.42000 32.60900
H  25.92500 50.49100 33.84300
N  28.49100 49.10800 25.69900
C  29.31700 48.88700 26.84500
C  30.45500 48.07000 26.42200
C  30.27600 47.90000 24.98200
C  29.16100 48.70600 24.58200
C  31.59200 47.56100 27.23800
C  30.86900 46.79300 24.02400
O  30.56100 46.66700 22.83400
C  31.80000 45.75800 24.52900
N  26.57100 50.11100 23.74000
C  27.53300 49.70700 22.92400
C  27.32200 50.01400 21.48200
C  25.89400 50.74600 21.45800
C  25.71600 50.94400 23.00900
C  28.37900 50.93800 20.79400
C  24.76900 49.92100 20.87400
C  24.70500 48.49300 21.41000
N  25.05300 51.33300 25.86800
C  24.37900 51.97500 24.90000
C  23.42100 52.89400 25.39300
C  23.49400 52.75000 26.77500
C  24.56700 51.79500 27.05200
C  22.61400 53.89700 24.65100
C  22.97100 53.10700 28.10200
O  22.03800 53.79400 28.40200
C  23.90700 52.45700 29.19500
C  24.28100 53.55300 30.09500
O  25.22500 54.37300 29.91000
O  23.30500 53.58600 31.11200
C  23.58300 54.70500 32.02300
H  29.72500 49.04300 28.98900
H  29.43100 48.72500 22.54300
H  24.09600 52.35100 22.82400
H  26.44400 51.69300 30.87300
H  27.95900 49.21500 30.80600
H  29.03600 51.75600 29.82400
H  29.80700 50.53000 30.91900
H  28.61200 51.67700 31.55200
H  25.79600 48.87000 31.32800
H  24.47300 49.62700 30.65200
H  24.06900 49.87000 32.90600
H  24.55000 51.41600 32.44400
H  31.46200 47.99000 28.23200
H  32.57100 47.83300 26.84400
H  31.66000 46.47400 27.28700
H  31.21000 45.31600 25.33200
H  32.76200 46.14800 24.86300
H  32.03400 45.15600 23.65100
H  27.34400 49.07900 20.92200
H  25.91100 51.65100 20.85000
H  29.40300 50.96900 21.16800
H  28.13600 52.00000 20.76400
H  28.46600 50.52500 19.78900
H  24.93700 49.88000 19.79700
H  23.83400 50.43800 21.09100
H  25.01900 48.63100 22.44400
H  25.29700 47.81600 20.79500
H  23.66000 48.21000 21.28400
H  23.26200 54.44200 23.96500
H  22.13900 54.68900 25.22900
H  21.87000 53.36000 24.06300
H  23.32700 51.77000 29.81100
H  22.78500 54.79400 32.75900
H  23.68400 55.66500 31.51600
H  24.47900 54.48900 32.60600
Mg -11.15200 38.83200 40.47600
C  -9.59500 35.45000 40.21700
C  -8.33800 40.10900 39.26200
C  -12.91700 41.69000 40.34000
C  -14.09200 37.08900 41.47100
N  -9.26100 37.83200 39.67500
C  -8.81400 36.57200 39.83200
C  -7.36000 36.51700 39.27700
C  -6.87600 38.00800 39.38400
C  -8.26800 38.70400 39.43300
C  -6.01100 38.55100 40.53200
C  -7.34000 36.01700 37.84900
C  -6.05100 35.29400 37.30000
H  -5.36100 36.08200 36.20000
N  -10.68900 40.66200 39.79600
C  -9.42700 41.00500 39.41200
C  -9.38400 42.47700 39.31300
C  -10.65400 42.96400 39.68100
C  -11.55000 41.74300 39.89100
C  -8.19000 43.14400 38.76000
C  -11.02100 44.52500 39.69500
O  -10.14400 45.40500 39.73800
C  -12.47000 44.94400 39.71200
N  -13.31500 39.32700 40.73800
C  -13.77900 40.57100 40.64900
C  -15.30000 40.59200 40.76000
C  -15.53500 39.14900 41.29500
C  -14.29200 38.48500 41.12000
C  -16.13300 41.66200 41.58200
C  -16.75400 38.42400 40.49300
C  -16.43700 37.95600 39.07700
N  -11.77900 36.69200 40.87600
C  -12.96500 36.22300 41.32900
C  -12.82600 34.79700 41.55700
C  -11.53700 34.41200 41.13800
C  -10.96000 35.58600 40.65300
C  -14.01100 33.88400 41.90300
C  -10.58500 33.31300 40.90000
O  -10.61300 32.09000 41.12600
C  -9.35700 33.94700 40.22000
C  -8.02200 33.37700 40.62200
O  -7.13800 33.18700 39.81400
O  -7.91700 33.24400 41.97800
C  -6.63500 32.69900 42.39800
H  -7.48600 40.78300 39.15000
H  -13.40000 42.63700 40.09000
H  -14.88800 36.49400 41.92400
H  -6.76900 35.88400 39.93800
H  -6.39400 38.36400 38.47400
H  -5.57900 37.68400 41.03300
H  -6.58600 39.17000 41.22100
H  -5.30000 39.21500 40.04100
H  -7.54700 36.87200 37.20600
H  -8.14200 35.30600 37.65000
H  -6.28900 34.28300 36.97100
H  -5.29600 35.16000 38.07400
H  -7.84100 42.64300 37.85700
H  -7.45600 43.18500 39.56600
H  -8.43900 44.19300 38.59800
H  -13.10200 44.47100 38.96000
H  -12.41900 46.01400 39.51100
H  -12.83600 44.86800 40.73600
H  -15.68600 40.72600 39.74900
H  -15.68300 39.16600 42.37500
H  -16.87400 42.03300 40.87400
H  -15.53900 42.51800 41.90500
H  -16.84900 41.30700 42.32300
H  -17.62200 39.05500 40.29900
H  -17.13500 37.60700 41.10500
H  -16.29500 36.87600 39.08600
H  -15.52800 38.48900 38.79800
H  -17.13600 38.15500 38.26400
H  -14.27100 33.94800 42.95900
H  -13.80700 32.87600 41.54100
H  -14.79400 34.23300 41.22900
H  -9.41000 33.62200 39.18100
H  -5.82500 33.36600 42.10300
H  -6.41100 31.66300 42.14500
H  -6.74000 32.83700 43.47400

