158

Mg 48.11100 25.69100 28.05000
C  49.12200 27.89200 30.62400
C  47.71500 23.23800 30.40800
C  47.32200 23.56800 25.60400
C  49.69200 27.84800 25.73400
N  48.37200 25.62800 30.30200
C  48.65700 26.66800 31.13100
C  48.40200 26.31300 32.62800
C  48.10400 24.73400 32.53000
C  48.10500 24.47400 30.97500
C  48.85900 23.69000 33.32900
C  47.32600 27.32100 33.25700
C  46.59900 26.88800 34.51200
H  46.60000 27.82000 35.78900
N  47.51800 23.70200 28.07800
C  47.52000 22.80300 29.09300
C  46.89400 21.54000 28.64000
C  46.61400 21.73900 27.24500
C  47.19000 23.02800 26.90600
C  46.75400 20.36800 29.51700
C  45.87200 20.85500 26.30400
O  45.67700 21.15600 25.14800
C  45.44900 19.52700 26.79500
N  48.36700 25.71500 25.99500
C  47.88700 24.77700 25.20600
C  48.15200 25.08300 23.68700
C  48.85300 26.44800 23.74000
C  48.97200 26.73900 25.26100
C  49.01600 23.99600 22.92100
C  48.14100 27.63700 22.99400
C  48.98200 28.36300 21.99900
N  49.10000 27.55600 28.10400
C  49.72100 28.30200 27.10200
C  50.22500 29.55600 27.59000
C  50.00600 29.40400 28.96400
C  49.34500 28.16700 29.26000
C  50.89100 30.63300 26.77900
C  50.19100 30.04700 30.22700
O  50.79600 31.07500 30.44500
C  49.61500 29.13500 31.32800
C  50.70900 28.91000 32.33300
O  51.77600 28.32800 32.16300
O  50.29900 29.33800 33.55900
C  51.02800 28.77700 34.68600
H  47.36300 22.52000 31.15100
H  46.91300 22.98900 24.77400
H  50.11200 28.51400 24.97700
H  49.34200 26.40900 33.17200
H  47.05100 24.62200 32.78500
H  48.22400 23.28600 34.11700
H  49.74100 24.03600 33.86800
H  49.27300 22.85100 32.77100
H  46.64100 27.39600 32.41200
H  47.85100 28.25000 33.48000
H  47.06400 25.92700 34.73200
H  45.57700 26.67700 34.19600
H  47.20300 19.47400 29.08300
H  45.68900 20.23400 29.71000
H  47.19600 20.51300 30.50200
H  44.66100 19.61300 27.54300
H  46.30400 18.97400 27.18500
H  45.05500 18.88600 26.00600
H  47.19800 25.15700 23.16400
H  49.85400 26.27000 23.35000
H  50.07000 23.88000 23.17300
H  48.86000 24.09500 21.84700
H  48.54600 23.04400 23.16500
H  47.85000 28.37800 23.73800
H  47.41200 27.18000 22.32400
H  49.95100 27.86900 21.93100
H  49.07100 29.43200 22.19500
H  48.45800 28.32500 21.04400
H  50.18400 30.99400 26.03100
H  51.68800 30.12000 26.24200
H  51.26400 31.48900 27.34100
H  48.85500 29.72900 31.83600
H  50.31400 28.79300 35.50900
H  51.76500 29.45800 35.11000
H  51.37600 27.76200 34.49200
Mg 9.71400 47.67900 25.69600
C  7.88600 48.04300 28.65800
C  12.39000 49.06000 27.35200
C  11.40900 47.33400 22.88900
C  6.86600 46.70300 24.08300
N  10.10200 48.38600 27.83100
C  9.24400 48.35300 28.92000
C  9.95000 48.84200 30.26200
C  11.24100 49.39900 29.64700
C  11.28800 48.84900 28.19800
C  11.28300 50.95800 29.68500
C  10.22200 47.63400 31.28500
C  9.56400 47.84700 32.71700
H  9.17900 46.67000 33.60800
N  11.65200 48.11900 25.15000
C  12.59300 48.67500 25.98600
C  13.86700 48.82800 25.28900
C  13.61400 48.28200 23.95700
C  12.20100 47.85300 23.94600
C  15.14200 49.24400 25.94000
C  14.57500 48.17500 22.80900
O  14.35200 47.77500 21.64100
C  15.98900 48.70300 22.99400
N  9.14500 47.16500 23.77500
C  10.08500 46.99100 22.74600
C  9.47800 46.45000 21.46900
C  8.09100 46.02600 21.94200
C  8.01300 46.59300 23.37900
C  9.58400 47.60300 20.43900
C  7.92600 44.47600 22.13500
C  8.87600 43.62300 23.00000
N  7.79100 47.44900 26.23000
C  6.66700 47.09900 25.42500
C  5.44300 47.28600 26.16300
C  5.88100 47.58600 27.47900
C  7.32700 47.73300 27.47300
C  4.01300 47.08700 25.71500
C  5.46500 47.88700 28.89600
O  4.35800 47.93100 29.33600
C  6.71900 48.18600 29.66000
C  6.67100 47.15900 30.71800
O  7.24300 46.02700 30.60500
O  5.98500 47.64200 31.81000
C  5.41500 46.64500 32.65100
H  13.23300 49.51500 27.87600
H  11.92300 47.19600 21.93500
H  5.95800 46.35700 23.58400
H  9.35800 49.60400 30.76800
H  12.10500 49.04400 30.20800
H  10.38100 51.27600 30.20900
H  11.24900 51.29600 28.65000
H  12.19300 51.29900 30.17900
H  11.27800 47.54400 31.53700
H  9.89700 46.71200 30.80300
H  8.60100 48.32500 32.53400
H  10.33500 48.52300 33.08800
H  15.86400 48.44600 26.11400
H  14.94100 49.50000 26.98000
H  15.75100 50.01900 25.47500
H  15.92000 49.75900 23.25600
H  16.64400 48.59700 22.12900
H  16.47200 48.16900 23.81300
H  10.07300 45.59000 21.16100
H  7.30500 46.49100 21.34800
H  10.15800 48.41300 20.88900
H  8.54800 47.82800 20.18700
H  10.10300 47.18200 19.57700
H  8.23100 44.04900 21.17900
H  6.87900 44.20000 22.26300
H  9.42900 42.90400 22.39600
H  8.31700 43.11100 23.78300
H  9.67400 44.17200 23.50000
H  3.39300 47.97500 25.58900
H  3.48200 46.58500 26.52400
H  4.09200 46.38400 24.88600
H  6.69400 49.17800 30.10900
H  4.86000 47.04400 33.49900
H  6.27000 46.12100 33.07800
H  4.79500 45.96900 32.06300

