158

Mg 24.55200 -6.41300 45.62300
C  26.89000 -4.11700 44.27400
C  22.32900 -5.03200 43.51500
C  22.67900 -9.08800 46.13200
C  27.29900 -7.76200 47.50700
N  24.63800 -4.78200 43.99900
C  25.67400 -3.98100 43.64500
C  25.40300 -3.16400 42.40500
C  23.86900 -3.12600 42.63800
C  23.55100 -4.37300 43.41700
C  23.42200 -1.72300 43.31500
C  25.86500 -3.80900 41.09400
C  26.64100 -2.83000 40.21000
H  26.46000 -2.83500 38.69800
N  22.72700 -6.91300 44.93700
C  21.94600 -6.25000 44.08800
C  20.65100 -6.93700 43.93100
C  20.71400 -8.10300 44.75200
C  22.11700 -8.09600 45.29400
C  19.46300 -6.51000 43.07900
C  19.61800 -9.11600 44.87400
O  18.59300 -9.06400 44.16400
C  19.76500 -10.35800 45.81600
N  24.95200 -8.22000 46.54800
C  23.96000 -9.12600 46.74400
C  24.56800 -10.34800 47.51100
C  25.85300 -9.72900 48.10700
C  26.09600 -8.52100 47.33800
C  23.55600 -10.93600 48.57800
C  27.05200 -10.80900 48.12100
C  27.68800 -11.21700 49.44100
N  26.61600 -6.03300 45.88900
C  27.56800 -6.62700 46.72200
C  28.81500 -5.94100 46.59000
C  28.60900 -4.94400 45.61500
C  27.26100 -5.10900 45.21100
C  30.05300 -6.30200 47.32600
C  29.25400 -3.88400 44.96900
O  30.42300 -3.51500 44.98700
C  28.12800 -3.28300 43.97600
C  27.89400 -1.81800 44.18900
O  27.37900 -1.32700 45.13800
O  28.56100 -1.07200 43.17600
C  28.64500 0.42000 43.31900
H  21.53700 -4.51100 42.97400
H  22.03000 -9.92700 46.38800
H  28.12800 -8.14100 48.10900
H  25.90700 -2.21000 42.56200
H  23.32900 -3.29500 41.70600
H  22.77400 -1.18000 42.62600
H  24.27700 -1.05200 43.39300
H  22.91800 -1.85400 44.27200
H  24.98300 -4.06700 40.50800
H  26.51100 -4.68200 41.19300
H  27.67900 -2.89700 40.53400
H  26.35600 -1.83300 40.54700
H  18.58400 -6.59500 43.71800
H  19.26400 -7.16700 42.23300
H  19.62400 -5.48300 42.75100
H  18.90600 -11.02500 45.88900
H  19.98400 -10.09400 46.85000
H  20.51400 -10.99800 45.35200
H  24.85700 -11.11900 46.79800
H  25.71900 -9.45000 49.15200
H  22.81800 -10.15800 48.77400
H  24.14000 -11.10000 49.48300
H  23.06600 -11.81700 48.16200
H  27.93000 -10.52900 47.54000
H  26.76600 -11.78300 47.72300
H  28.03600 -12.24200 49.31000
H  27.10300 -11.00100 50.33500
H  28.54900 -10.54900 49.45400
H  30.89800 -5.66500 47.06400
H  30.22800 -7.32000 46.98000
H  29.87200 -6.20200 48.39700
H  28.52400 -3.52300 42.98900
H  27.84900 1.00400 42.85600
H  29.44600 0.70300 42.63600
H  28.84100 0.65500 44.36500
Mg 30.33400 58.12000 40.23100
C  27.69300 56.03800 38.99100
C  32.41400 55.82400 38.55400
C  32.71200 60.30200 40.34200
C  27.87000 60.41600 41.07100
N  29.99600 56.27600 38.65800
C  28.89500 55.62900 38.41800
C  29.17400 54.22900 37.81900
C  30.69600 54.12800 37.89600
C  31.05000 55.47100 38.36000
C  31.18100 52.95800 38.88100
C  28.68400 54.10000 36.32700
C  29.16800 55.28600 35.48300
H  28.00200 55.91700 34.62100
N  32.32100 58.07700 39.72100
C  33.01600 57.00200 39.12700
C  34.40600 57.29700 39.16600
C  34.52100 58.64100 39.65500
C  33.16800 59.06600 39.91500
C  35.41500 56.31000 38.61600
C  35.80100 59.39500 39.79600
O  36.85800 58.89100 39.49700
C  35.94800 60.89100 40.19400
N  30.34900 59.94700 40.96400
C  31.46400 60.71300 40.78900
C  31.21900 62.23800 40.91500
C  29.67500 62.28800 41.07300
C  29.27400 60.82900 41.06200
C  31.99400 62.95400 42.08600
C  28.96000 63.10300 39.97300
C  28.48700 64.49600 40.44600
N  28.30500 58.20600 40.26100
C  27.46000 59.15700 40.66600
C  26.11400 58.72900 40.55400
C  26.17500 57.56100 39.91800
C  27.50800 57.22000 39.72700
C  24.89300 59.47700 41.08900
C  25.33400 56.50800 39.26000
O  24.12600 56.53700 39.04900
C  26.33000 55.45100 38.72600
C  25.96800 54.13000 39.39600
O  26.41400 53.65600 40.45300
O  24.99000 53.55300 38.63400
C  24.34800 52.41000 39.30800
H  33.14900 55.05300 38.31400
H  33.46600 61.07500 40.18200
H  27.19300 61.27300 41.08600
H  28.58600 53.56200 38.45000
H  31.17200 53.91900 36.93800
H  30.35100 52.30800 39.15500
H  31.76300 53.36800 39.70600
H  31.95900 52.32300 38.45600
H  27.59900 54.02400 36.39500
H  29.09800 53.25900 35.77000
H  30.00700 54.98300 34.85600
H  29.44700 56.14000 36.10000
H  36.37400 56.81400 38.49000
H  35.12900 56.08000 37.59000
H  35.49500 55.38200 39.18300
H  35.43400 61.57900 39.52200
H  36.98700 61.14800 39.98500
H  35.73900 61.10500 41.24200
H  31.53700 62.71000 39.98500
H  29.39100 62.61500 42.07300
H  32.34600 63.92600 41.74100
H  32.82800 62.32300 42.39300
H  31.36500 63.14500 42.95500
H  28.20900 62.47300 39.49800
H  29.65200 63.14800 39.13200
H  28.80100 64.73400 41.46200
H  27.41600 64.31900 40.34600
H  28.66900 65.30400 39.73700
H  24.11900 58.71000 41.11700
H  24.57300 60.27800 40.42300
H  25.01800 59.85900 42.10200
H  26.07600 55.51300 37.66800
H  23.50900 52.04300 38.71800
H  23.90700 52.67800 40.26800
H  25.08000 51.63000 39.52200

