158

Mg 8.28100 3.85300 27.72600
C  9.59400 2.41400 30.52400
C  6.01800 5.63900 29.81500
C  6.93100 5.31600 24.99000
C  10.02400 1.60000 25.65500
N  7.77000 3.91100 30.01400
C  8.61600 3.35400 30.91100
C  8.26600 3.95900 32.29300
C  6.99400 4.89400 32.04000
C  6.84600 4.75800 30.52000
C  5.63100 4.43100 32.76700
C  9.52900 4.47300 33.15300
C  9.12600 5.25800 34.37000
H  9.30100 4.73700 35.83300
N  6.72600 5.31300 27.41200
C  5.94000 5.86100 28.41300
C  5.05300 6.79400 27.79700
C  5.38200 6.84400 26.41400
C  6.41900 5.79900 26.22000
C  3.92900 7.51700 28.57700
C  4.84500 7.75300 25.31300
O  5.08200 7.48800 24.15900
C  4.04800 8.94000 25.76800
N  8.40700 3.45500 25.57400
C  7.71000 4.19300 24.68900
C  7.94200 3.64000 23.27600
C  8.99400 2.43800 23.49200
C  9.15800 2.45200 24.99200
C  6.73900 3.21000 22.42600
C  10.28300 2.54900 22.66400
C  10.55600 1.33000 21.80600
N  9.52100 2.27500 27.97500
C  10.23500 1.50000 27.07200
C  10.85600 0.44400 27.78600
C  10.80000 0.82500 29.13500
C  9.89200 1.90300 29.23000
C  11.49200 -0.81600 27.18600
C  11.29000 0.52100 30.49100
O  12.09100 -0.32200 30.90100
C  10.57900 1.59500 31.45700
C  9.97100 0.75400 32.43900
O  9.02000 0.01800 32.17000
O  10.54200 0.97700 33.63700
C  9.82300 0.35800 34.72600
H  5.58700 6.31100 30.56000
H  6.70000 5.94200 24.12500
H  10.53100 0.86000 25.03200
H  7.91500 3.13400 32.91200
H  7.14800 5.91800 32.37900
H  4.88000 4.03900 32.08100
H  5.07200 5.25500 33.21000
H  5.82400 3.68400 33.53700
H  10.20700 4.95600 32.44900
H  9.88400 3.52000 33.54700
H  8.08600 5.58000 34.39200
H  9.61500 6.23100 34.39700
H  3.80100 7.08200 29.56800
H  2.97200 7.49600 28.05500
H  4.19300 8.56500 28.72000
H  4.44200 9.42700 26.66000
H  3.11800 8.39900 25.94100
H  3.99600 9.61700 24.91500
H  8.44300 4.47300 22.78200
H  8.56800 1.44700 23.33600
H  5.90200 3.59100 23.01000
H  6.67000 2.19900 22.02500
H  6.79500 3.89200 21.57700
H  11.15400 2.53900 23.32000
H  10.31800 3.47500 22.09000
H  9.63200 0.91100 21.41000
H  11.19600 0.70500 22.42900
H  11.18300 1.57900 20.95000
H  11.82700 -0.65300 26.16200
H  10.80700 -1.66200 27.22900
H  12.41400 -1.04500 27.72200
H  11.22500 2.31000 31.96700
H  9.06000 -0.34000 34.38300
H  9.35500 1.06900 35.40700
H  10.62300 -0.21100 35.20000
Mg 25.47100 1.35700 29.38400
C  27.59700 0.82900 32.24000
C  22.77300 1.53700 31.60100
C  23.46000 1.34400 26.70900
C  28.21800 0.62500 27.37100
N  25.30100 1.20800 31.68400
C  26.23700 1.14200 32.63900
C  25.66000 1.24800 33.98500
C  24.10300 1.26900 33.76400
C  24.04200 1.35900 32.26800
C  23.37700 0.07100 34.39600
C  26.10500 2.43600 34.81900
C  26.66100 2.19000 36.18600
H  26.21900 3.10500 37.35400
N  23.37900 1.55700 29.15400
C  22.48500 1.57400 30.19700
C  21.16900 1.72700 29.57700
C  21.23700 1.70900 28.15900
C  22.75800 1.55500 27.93800
C  19.89000 1.65300 30.43400
C  20.14600 1.79200 27.04200
O  20.48100 1.74300 25.85400
C  18.74900 1.84100 27.44800
N  25.81400 0.94900 27.36900
C  24.82900 1.06300 26.44600
C  25.38000 0.59900 25.07800
C  26.98200 0.72400 25.20100
C  26.99000 0.76100 26.74700
C  24.84700 -0.70300 24.67200
C  27.60700 1.92900 24.55300
C  28.58000 1.68500 23.40800
N  27.54800 0.83800 29.68700
C  28.47100 0.56700 28.74700
C  29.78100 0.40600 29.42700
C  29.49600 0.42200 30.76100
C  28.10400 0.65900 30.91100
C  31.03700 0.14800 28.79500
C  30.06000 0.33000 32.12700
O  31.18300 0.09300 32.48200
C  28.83400 0.59200 33.07900
C  28.79100 -0.54400 34.03400
O  28.74800 -1.75800 33.76800
O  28.88200 -0.08000 35.36600
C  28.98700 -1.00800 36.48500
H  21.98300 1.78700 32.31200
H  22.83300 1.34900 25.81600
H  28.95700 0.48500 26.57900
H  25.97500 0.32800 34.47800
H  23.57800 2.16200 34.10300
H  23.90200 -0.53600 35.13300
H  23.02800 -0.57100 33.58700
H  22.39500 0.35600 34.77600
H  25.26400 3.11600 34.95500
H  26.81300 2.96100 34.17800
H  27.71000 2.48600 36.16100
H  26.54700 1.13900 36.45400
H  20.04700 1.38900 31.48000
H  19.16900 0.95700 30.00500
H  19.36700 2.60400 30.53400
H  18.04000 1.86500 26.62000
H  18.56700 2.62700 28.18100
H  18.59100 0.91900 28.00800
H  25.11000 1.27600 24.26700
H  27.47400 -0.19400 24.87800
H  25.64300 -1.41700 24.46100
H  24.32600 -0.73800 23.71500
H  24.19800 -1.11100 25.44700
H  28.17600 2.39200 25.35900
H  26.86700 2.68100 24.28200
H  29.61400 1.86900 23.69800
H  28.43700 2.28200 22.50800
H  28.46300 0.68300 22.99500
H  31.19900 0.89900 28.02300
H  30.91700 -0.82300 28.31400
H  31.80300 0.19600 29.56900
H  29.04400 1.49700 33.64800
H  28.03500 -1.53800 36.52000
H  28.96200 -0.55900 37.47800
H  29.81900 -1.71000 36.42200

