158

Mg 49.87600 45.99100 41.85700
C  46.66800 47.22200 41.12300
C  49.11800 43.05600 40.45700
C  53.05000 45.15900 42.44500
C  50.64800 49.35600 42.75300
N  48.08500 45.26200 40.91200
C  46.88800 45.85800 40.71000
C  45.91700 45.09400 39.82400
C  46.61700 43.69700 39.83500
C  48.03500 43.98500 40.46100
C  45.98100 42.51000 40.61900
C  45.78200 45.58100 38.30800
C  44.46200 45.25800 37.66700
H  44.53700 44.76800 36.21600
N  50.93700 44.24300 41.57900
C  50.42100 43.13400 40.98200
C  51.50100 42.12600 40.86900
C  52.68000 42.75900 41.44200
C  52.25800 44.08400 41.91600
C  51.43200 40.74900 40.22300
C  54.06700 42.15500 41.42900
O  54.29900 41.07400 40.90600
C  55.29800 42.82700 42.01000
N  51.59700 47.05900 42.45300
C  52.76300 46.47500 42.63400
C  53.91100 47.58000 42.70800
C  53.13100 48.90100 42.78800
C  51.70500 48.41400 42.64100
C  54.90100 47.39100 43.95800
C  53.51200 50.11500 41.90700
C  54.53600 51.11400 42.53700
N  48.84800 47.83300 42.15100
C  49.32000 49.05400 42.46900
C  48.28200 49.99100 42.51600
C  47.16600 49.32400 42.01600
C  47.59300 47.96100 41.77400
C  48.43200 51.46900 42.84100
C  45.73600 49.50500 41.62600
O  45.04300 50.51800 41.68600
C  45.41300 48.06900 40.92300
C  44.13700 47.52200 41.54200
O  43.88700 47.35800 42.70500
O  43.31600 47.17600 40.51000
C  41.98800 46.60700 40.73200
H  48.96900 42.14400 39.87600
H  54.09800 44.85500 42.40900
H  50.97100 50.39400 42.85800
H  44.98900 44.88200 40.35500
H  46.74100 43.28800 38.83200
H  45.87600 41.67800 39.92300
H  45.07700 42.92600 41.06300
H  46.54000 42.10200 41.46100
H  46.70500 45.33600 37.78100
H  45.79900 46.67000 38.33900
H  43.73100 46.06600 37.68400
H  44.07800 44.43300 38.26600
H  50.38800 40.52300 40.00500
H  51.61100 39.95500 40.94800
H  52.19700 40.61000 39.46000
H  55.17200 43.17800 43.03500
H  55.77300 43.61700 41.42900
H  56.02800 42.02300 42.10000
H  54.49400 47.67700 41.79200
H  53.18200 49.24500 43.82100
H  54.96600 48.21700 44.66600
H  55.84900 47.11100 43.49800
H  54.36700 46.59100 44.47100
H  52.60400 50.64300 41.61600
H  53.92000 49.61000 41.03200
H  55.40300 50.95500 41.89600
H  54.79300 50.91800 43.57800
H  54.30300 52.17700 42.47800
H  48.91200 51.96300 41.99600
H  48.98400 51.57400 43.77500
H  47.48400 52.00800 42.84200
H  45.19600 48.24200 39.86900
H  41.93300 45.62300 40.26500
H  41.35200 47.35900 40.26600
H  41.75400 46.42200 41.78000
Mg -5.13000 25.03600 25.53900
C  -3.89700 26.71700 28.19800
C  -6.87100 22.71300 27.65200
C  -5.87500 22.95900 22.82000
C  -3.03600 26.78400 23.45100
N  -5.19100 24.67800 27.59600
C  -4.81400 25.62000 28.49700
C  -5.23400 25.25300 29.97600
C  -5.92100 23.85200 29.70100
C  -6.06500 23.77700 28.20500
C  -5.16600 22.62100 30.30900
C  -6.11500 26.34800 30.53100
C  -6.31700 26.39400 32.08600
H  -5.53700 25.39500 32.99300
N  -6.37500 23.23100 25.23600
C  -6.96200 22.45800 26.23600
C  -7.93600 21.47700 25.59500
C  -7.61000 21.50700 24.15900
C  -6.53100 22.57300 24.02300
C  -8.88900 20.59000 26.40200
C  -8.23400 20.78900 23.03800
O  -7.84500 20.97200 21.87700
C  -9.33200 19.82900 23.29800
N  -4.39800 24.77200 23.48300
C  -4.93500 23.91400 22.58000
C  -4.21900 24.03300 21.25100
C  -3.25500 25.21200 21.40900
C  -3.58800 25.67800 22.81600
C  -3.61700 22.77900 20.61100
C  -3.38400 26.32700 20.29900
C  -2.14800 27.03200 19.94300
N  -3.82700 26.56700 25.70100
C  -3.04600 27.23400 24.81000
C  -2.30000 28.27600 25.46700
C  -2.67100 28.15700 26.78800
C  -3.54000 27.06100 26.91100
C  -1.27800 29.20200 24.67900
C  -2.35000 28.57200 28.13700
O  -1.53800 29.38900 28.59500
C  -3.19100 27.68300 29.12400
C  -2.23400 27.03500 30.08000
O  -1.44000 26.12800 29.84700
O  -2.36700 27.78700 31.24500
C  -1.62500 27.32500 32.30600
H  -7.31400 22.04600 28.39400
H  -6.08900 22.34200 21.94500
H  -2.20200 27.16500 22.85900
H  -4.40100 25.19300 30.67600
H  -6.95700 23.88500 30.03800
H  -5.03200 21.82800 29.57300
H  -5.79900 22.32100 31.14400
H  -4.24700 22.95200 30.79300
H  -7.10900 26.20900 30.10700
H  -5.90500 27.34400 30.14100
H  -7.35900 26.24100 32.36700
H  -5.92700 27.36000 32.40500
H  -9.31200 19.85300 25.71900
H  -9.67400 21.25100 26.76900
H  -8.45900 20.13300 27.29300
H  -10.20200 20.34600 23.70400
H  -8.89200 19.02900 23.89400
H  -9.51900 19.30000 22.36300
H  -4.99200 24.38800 20.57100
H  -2.26100 24.78800 21.54800
H  -2.60800 22.94900 20.23400
H  -4.26100 22.33500 19.85200
H  -3.64100 21.99900 21.37200
H  -4.09300 27.05000 20.70300
H  -3.78200 25.81900 19.42000
H  -2.17900 27.11100 18.85600
H  -1.25800 26.49400 20.26900
H  -2.07200 28.07900 20.23700
H  -1.81000 29.71000 23.87400
H  -0.50500 28.60700 24.19400
H  -1.00300 30.06300 25.28800
H  -3.78900 28.39200 29.69700
H  -1.11800 28.18300 32.74800
H  -0.80500 26.60900 32.24400
H  -2.30100 26.93400 33.06600

